data_PCOD9226093
_publ_section_title
;
Structure prediction by ZEFSAII (Michael W. Deem and Ramdas Pophale) SiO2 
 PCOD9226093
Probable space group: P 2/C
;
_chemical_formula_sum "Si O2"
_cell_formula_units_Z 30
_cell_length_a 35.274345
_cell_length_b 7.018887
_cell_length_c 5.413755
_cell_angle_alpha 90.000000
_cell_angle_beta 103.079304
_cell_angle_gamma 90.000000
_cell_volume 1305.601147
_symmetry_space_group_name_H-M "P 2/C"
_symmetry_group_IT_number 13
_symmetry_cell_setting 'monoclinic'
loop_
_space_group_symop_operation_xyz
x,y,z
-x,y,1/2-z
-x,-y,-z
x,-y,1/2+z
loop_
_atom_site_type_symbol
_atom_site_label
_atom_site_fract_x
_atom_site_fract_y
_atom_site_fract_z
Si Si1 0.500000 0.873105 0.250000
Si Si2 0.780516 0.205042 0.764296
Si Si3 0.297730 0.623717 0.471750
Si Si4 0.613983 0.282888 0.326646
Si Si5 0.016709 0.781394 0.524649
Si Si6 0.105044 0.123007 0.177788
Si Si7 0.188738 0.230831 0.189348
Si Si8 0.583043 0.716807 0.281273
O O1 0.538677 0.744726 0.294882
O O2 0.500000 0.000000 0.500000
O O3 0.735953 0.219831 0.614032
O O4 0.804354 0.302519 0.577028
O O5 0.798044 0.992672 0.817246
O O6 0.785564 0.296771 0.041405
O O7 0.293848 0.481044 0.231358
O O8 0.341139 0.707310 0.531140
O O9 0.597029 0.498266 0.272443
O O10 0.589829 0.197935 0.518923
O O11 0.608851 0.202453 0.044271
O O12 0.063197 0.779482 0.595025
O O13 0.000000 0.698681 0.750000
O O14 0.000000 0.000000 0.500000
O O15 0.000000 0.698915 0.250000
O O16 0.143913 0.245207 0.200649
O O17 0.106574 0.023846 0.448621
#
# Coordination Sequence:
#
# PCOD9226093 Si02
#       8
#     2   4   4   4   4   4   4   4
#     4  12  26  42  62  88 124 162 180 204 258 316
#     4  10  20  32  54  70 106 128 175 225 248 312
#     4  12  21  37  59  86 108 138 171 221 285 313
#     4  10  19  37  64  89 108 135 182 234 264 297
#     4  10  16  22  31  54  84 116 165 212 250 295
#     4  12  16  25  43  57  86 129 177 209 245 306
#     4  10  19  35  47  73  98 141 183 208 251 306
#     4  10  20  38  64  86 118 140 183 224 255 303
#
# _framework density 22.977923000000001
#
# number of rings (size 3 to 8) (size 9 to 14) (size 15 to 20)
#    0.000    1.333    8.000    1.600    0.000    2.133 
#    0.000    0.000   17.600    0.000    0.000    0.000 
#    0.000    0.000    0.000    0.000    0.000  162.667 
#
# Total GULP energy -167498.047757 kJ/mol
# GULP energy per Si atom -5583.268259 kJ/mol
# Density = 2.292562 g / cm^3
# Si number density = 22.977923 Si / 1000 Ang^3
#
#
#
# Elastic Constant Matrix: (Units=GPa)
#
#
# Indices 1 2 3 4 5 6 
#
# 1 124.1222 -10.0795 -6.6087 0.0000 15.8984 0.0000
# 2 -10.0795 64.9746 -20.1252 0.0000 0.4944 0.0000
# 3 -6.6087 -20.1252 142.3814 0.0000 -27.5713 0.0000
# 4 0.0000 0.0000 0.0000 -15.4388 0.0000 -11.1932
# 5 15.8984 0.4944 -27.5713 0.0000 62.3155 0.0000
# 6 0.0000 0.0000 0.0000 -11.1932 0.0000 -30.3430
#
#
#
# Elastic Compliance Matrix: (Units=1/GPa)
#
#
# Indices 1 2 3 4 5 6 
#
# 1 0.008446 0.001383 0.000184 0.000000 -0.002084 0.000000
# 2 0.001383 0.016375 0.002499 0.000000 0.000623 0.000000
# 3 0.000184 0.002499 0.008063 0.000000 0.003501 0.000000
# 4 0.000000 0.000000 0.000000 -0.088419 0.000000 0.032617
# 5 -0.002084 0.000623 0.003501 0.000000 0.018123 0.000000
# 6 0.000000 0.000000 0.000000 0.032617 0.000000 -0.044989
#
#
# Mechanical properties :
#
#
# Convention : Reuss Voigt Hill
#
# Bulk Modulus (GPa) = 24.38087 28.65014 26.51551
# Shear Modulus (GPa) = -65.05155 27.85952 -18.59601
#
# Velocity S-wave (km/s) = -5.32653 3.48580 -2.84790
# Velocity P-wave (km/s) = 5.21494 5.35693 0.86633
#
# Compressibility (1/GPa) = 0.04101576
#
# Stress axis : x y z
#
# Youngs Moduli (GPa) = 118.40415 61.07028 124.02182
#
# Poissons Ratio (x) = -0.08446 -0.02280
# Poissons Ratio (y) = -0.16375 -0.30997
# Poissons Ratio (z) = -0.02177 -0.15264
#
# Static dielectric constant tensor:
#      x y z
#    x 1.834450 0.000000 -0.034800 
#    y 0.000000 1.585330 0.000000 
#    z -0.034800 0.000000 1.914280 
# 
# From -- ./inp_files/8099.got.cif
#   From: 2010.05.17/outbox.cif.g08.bks.cpg/sg13_5_cif.got.tgz:8099.got - 2010.06.03 16:44:36.
