data_PCOD9226809
_publ_section_title
;
Structure prediction by ZEFSAII (Michael W. Deem and Ramdas Pophale) SiO2 
 PCOD9226809
Probable space group: P 2/C
;
_chemical_formula_sum "Si O2"
_cell_formula_units_Z 18
_cell_length_a 7.400789
_cell_length_b 8.208523
_cell_length_c 14.289103
_cell_angle_alpha 90.000000
_cell_angle_beta 66.951073
_cell_angle_gamma 90.000000
_cell_volume 798.760322
_symmetry_space_group_name_H-M "P 2/C"
_symmetry_group_IT_number 13
_symmetry_cell_setting 'monoclinic'
loop_
_space_group_symop_operation_xyz
x,y,z
-x,y,1/2-z
-x,-y,-z
x,-y,1/2+z
loop_
_atom_site_type_symbol
_atom_site_label
_atom_site_fract_x
_atom_site_fract_y
_atom_site_fract_z
Si Si1 0.498290 0.281257 0.864088
Si Si2 0.912688 0.841269 0.066600
Si Si3 0.123791 0.408913 0.635863
Si Si4 0.000000 0.289837 0.250000
Si Si5 0.683255 0.031805 0.273740
O O1 0.500000 0.311404 0.750000
O O2 0.272998 0.257367 0.938703
O O3 0.647181 0.405502 0.882981
O O4 0.595841 0.102780 0.861219
O O5 0.074491 0.707672 0.060492
O O6 0.818813 0.925388 0.177578
O O7 0.000000 0.000000 0.000000
O O8 0.000000 0.337444 0.750000
O O9 0.027823 0.588238 0.656490
O O10 0.188780 0.176757 0.214145
O O11 0.500000 0.094108 0.250000
#
# Coordination Sequence:
#
# PCOD9226809 Si02
#       5
#     4   4   4   2   4
#     4   9  16  32  54  75  96 130 177 211 237 291
#     4  10  20  34  53  77 102 130 168 214 253 287
#     4  10  18  31  53  75  99 129 169 206 244 296
#     4  10  18  30  52  78  98 130 170 204 244 298
#     4   9  17  30  51  74  96 129 169 207 242 295
#
# _framework density 22.53492
#
# number of rings (size 3 to 8) (size 9 to 14) (size 15 to 20)
#    0.667    2.222    4.444    1.333    0.000    3.556 
#    0.000    1.111    0.000    6.667    0.000    0.000 
#    0.000    0.000    0.000    0.000    0.000    0.000 
#
# Total GULP energy -100263.070341 kJ/mol
# GULP energy per Si atom -5570.170575 kJ/mol
# Density = 2.248363 g / cm^3
# Si number density = 22.534920 Si / 1000 Ang^3
#
#
#
# Elastic Constant Matrix: (Units=GPa)
#
#
# Indices 1 2 3 4 5 6 
#
# 1 78.8418 24.2533 3.7233 0.0000 -19.2891 0.0000
# 2 24.2533 35.9714 -8.3572 0.0000 3.8514 0.0000
# 3 3.7233 -8.3572 37.5027 0.0000 -5.6554 0.0000
# 4 0.0000 0.0000 0.0000 27.4001 0.0000 -5.1121
# 5 -19.2891 3.8514 -5.6554 0.0000 11.7355 0.0000
# 6 0.0000 0.0000 0.0000 -5.1121 0.0000 8.6119
#
#
#
# Elastic Compliance Matrix: (Units=1/GPa)
#
#
# Indices 1 2 3 4 5 6 
#
# 1 0.049538 -0.043696 -0.000231 0.000000 0.095653 0.000000
# 2 -0.043696 0.068400 0.005785 0.000000 -0.091481 0.000000
# 3 -0.000231 0.005785 0.029799 0.000000 0.012082 0.000000
# 4 0.000000 0.000000 0.000000 0.041042 0.000000 0.024363
# 5 0.095653 -0.091481 0.012082 0.000000 0.278278 0.000000
# 6 0.000000 0.000000 0.000000 0.024363 0.000000 0.130580
#
#
# Mechanical properties :
#
#
# Convention : Reuss Voigt Hill
#
# Bulk Modulus (GPa) = 13.99498 21.28386 17.63942
# Shear Modulus (GPa) = 7.16602 18.39593 12.78098
#
# Velocity S-wave (km/s) = 1.78518 2.86025 2.38410
# Velocity P-wave (km/s) = 3.23620 4.51369 3.92724
#
# Compressibility (1/GPa) = 0.07145421
#
# Stress axis : x y z
#
# Youngs Moduli (GPa) = 20.18642 14.61986 33.55837
#
# Poissons Ratio (x) = 0.63883 0.00775
# Poissons Ratio (y) = 0.88206 -0.19415
# Poissons Ratio (z) = 0.00466 -0.08458
#
# Static dielectric constant tensor:
#      x y z
#    x 1.920610 0.000000 0.022500 
#    y 0.000000 1.857310 0.000000 
#    z 0.022500 0.000000 1.937240 
# 
# From -- ./inp_files/74789.got.cif
#   From: 2010.05.17/outbox.cif.g08.bks.cpg/sg13_38_cif.got.tgz:74789.got - 2010.06.03 16:44:36.
