data_PCOD9226607
_publ_section_title
;
Structure prediction by ZEFSAII (Michael W. Deem and Ramdas Pophale) SiO2 
 PCOD9226607
Probable space group: P 2/C
;
_chemical_formula_sum "Si O2"
_cell_formula_units_Z 28
_cell_length_a 19.821962
_cell_length_b 6.836024
_cell_length_c 20.989488
_cell_angle_alpha 90.000000
_cell_angle_beta 19.853808
_cell_angle_gamma 90.000000
_cell_volume 965.933173
_symmetry_space_group_name_H-M "P 2/C"
_symmetry_group_IT_number 13
_symmetry_cell_setting 'monoclinic'
loop_
_space_group_symop_operation_xyz
x,y,z
-x,y,1/2-z
-x,-y,-z
x,-y,1/2+z
loop_
_atom_site_type_symbol
_atom_site_label
_atom_site_fract_x
_atom_site_fract_y
_atom_site_fract_z
Si Si1 0.388065 0.884563 0.452778
Si Si2 0.389520 0.303121 0.634550
Si Si3 0.171181 0.442583 0.428109
Si Si4 0.795144 0.948807 0.010868
Si Si5 0.390787 0.319571 0.488672
Si Si6 0.084667 0.937583 0.357549
Si Si7 0.733032 0.409073 0.029297
O O1 0.437753 0.742085 0.467360
O O2 0.599588 0.906883 0.227564
O O3 0.236072 0.842564 0.529828
O O4 0.331318 0.094012 0.533129
O O5 0.215760 0.406869 0.831849
O O6 0.407558 0.389194 0.546472
O O7 0.309202 0.090835 0.682017
O O8 0.381124 0.327407 0.237038
O O9 0.999674 0.282586 0.578882
O O10 0.162068 0.529000 0.507484
O O11 0.782058 0.179768 0.000418
O O12 0.985049 0.936813 0.889329
O O13 0.252614 0.427775 0.559484
O O14 0.000000 0.000000 0.500000
O O15 0.500000 0.445111 0.250000
#
# Coordination Sequence:
#
# PCOD9226607 Si02
#       7
#     4   4   4   4   4   4   4
#     4  10  17  34  57  83 108 148 194 241 283 352
#     4  12  23  31  55  94 120 141 192 263 308 337
#     4  10  20  37  54  79 118 155 193 237 299 359
#     4   9  15  33  57  74 105 147 196 233 273 340
#     4  10  18  36  57  82 113 154 198 242 286 355
#     4  11  20  37  57  82 112 159 195 239 295 361
#     4   8  13  31  57  71  95 152 196 221 266 344
#
# _framework density 28.987514000000001
#
# number of rings (size 3 to 8) (size 9 to 14) (size 15 to 20)
#    0.000    2.000    7.143    1.286    0.000    0.000 
#    7.714    6.429    0.000    0.000    0.000    0.000 
#    0.000    0.000    0.000    0.000    0.000    0.000 
#
# Total GULP energy -156301.893861 kJ/mol
# GULP energy per Si atom -5582.210495 kJ/mol
# Density = 2.892154 g / cm^3
# Si number density = 28.987514 Si / 1000 Ang^3
#
#
#
# Elastic Constant Matrix: (Units=GPa)
#
#
# Indices 1 2 3 4 5 6 
#
# 1 373.9772 99.5144 41.1364 0.0000 18.9885 0.0000
# 2 99.5144 95.6745 11.6073 0.0000 3.4413 0.0000
# 3 41.1364 11.6073 73.7841 0.0000 -1.7222 0.0000
# 4 0.0000 0.0000 0.0000 0.5792 0.0000 12.4812
# 5 18.9885 3.4413 -1.7222 0.0000 45.2970 0.0000
# 6 0.0000 0.0000 0.0000 12.4812 0.0000 77.4539
#
#
#
# Elastic Compliance Matrix: (Units=1/GPa)
#
#
# Indices 1 2 3 4 5 6 
#
# 1 0.003954 -0.003863 -0.001630 0.000000 -0.001426 0.000000
# 2 -0.003863 0.014465 -0.000110 0.000000 0.000516 0.000000
# 3 -0.001630 -0.000110 0.014508 0.000000 0.001243 0.000000
# 4 0.000000 0.000000 0.000000 -0.698271 0.000000 0.112522
# 5 -0.001426 0.000516 0.001243 0.000000 0.022682 0.000000
# 6 0.000000 0.000000 0.000000 0.112522 0.000000 -0.005221
#
#
# Mechanical properties :
#
#
# Convention : Reuss Voigt Hill
#
# Bulk Modulus (GPa) = 46.03766 94.21687 70.12727
# Shear Modulus (GPa) = -7.94360 50.74451 21.40046
#
# Velocity S-wave (km/s) = -1.65720 4.18851 2.72005
# Velocity P-wave (km/s) = 3.50066 7.48095 5.84035
#
# Compressibility (1/GPa) = 0.02172135
#
# Stress axis : x y z
#
# Youngs Moduli (GPa) = 252.93122 69.13141 68.92765
#
# Poissons Ratio (x) = 0.26708 0.11234
# Poissons Ratio (y) = 0.97715 0.00756
# Poissons Ratio (z) = 0.41222 0.00758
#
# Static dielectric constant tensor:
#      x y z
#    x 2.257270 0.000000 0.017070 
#    y 0.000000 2.211690 0.000000 
#    z 0.017070 0.000000 2.067670 
# 
# From -- ./inp_files/80841.got.cif
#   From: 2010.05.17/outbox.cif.g08.bks.cpg/sg13_41_cif.got.tgz:80841.got - 2010.06.03 16:44:36.
