data_PCOD9226510
_publ_section_title
;
Structure prediction by ZEFSAII (Michael W. Deem and Ramdas Pophale) SiO2 
 PCOD9226510
Probable space group: P 2/C
;
_chemical_formula_sum "Si O2"
_cell_formula_units_Z 30
_cell_length_a 6.467922
_cell_length_b 11.023941
_cell_length_c 27.402321
_cell_angle_alpha 90.000000
_cell_angle_beta 78.443875
_cell_angle_gamma 90.000000
_cell_volume 1914.233625
_symmetry_space_group_name_H-M "P 2/C"
_symmetry_group_IT_number 13
_symmetry_cell_setting 'monoclinic'
loop_
_space_group_symop_operation_xyz
x,y,z
-x,y,1/2-z
-x,-y,-z
x,-y,1/2+z
loop_
_atom_site_type_symbol
_atom_site_label
_atom_site_fract_x
_atom_site_fract_y
_atom_site_fract_z
Si Si1 0.690888 0.583789 0.935940
Si Si2 0.389682 0.093934 0.968021
Si Si3 0.287045 0.080636 0.385309
Si Si4 0.000357 0.763048 0.529273
Si Si5 0.917437 0.109170 0.203463
Si Si6 0.665405 0.261539 0.340602
Si Si7 0.500000 0.738456 0.750000
Si Si8 0.340295 0.677054 0.027835
O O1 0.677222 0.645312 0.884145
O O2 0.699950 0.438909 0.936507
O O3 0.889439 0.644000 0.953974
O O4 0.489075 0.627610 0.976882
O O5 0.537728 0.210948 0.953867
O O6 0.338999 0.027319 0.919963
O O7 0.180339 0.142874 0.004541
O O8 0.500000 0.000000 0.000000
O O9 0.145467 0.174733 0.423147
O O10 0.157238 0.043065 0.342743
O O11 0.501873 0.152557 0.361270
O O12 0.866763 0.727413 0.488405
O O13 0.705144 0.180775 0.228240
O O14 0.000000 0.046792 0.250000
O O15 0.106183 0.201364 0.179937
O O16 0.570623 0.324789 0.296565
#
# Coordination Sequence:
#
# PCOD9226510 Si02
#       8
#     4   4   4   4   4   4   2   4
#     4  10  19  32  49  70  97 134 169 200 247 293
#     4  11  22  32  46  70 103 137 173 205 241 296
#     4  11  19  29  50  74  97 135 167 199 255 302
#     4  11  19  32  48  70  99 136 169 206 244 291
#     4   9  18  31  48  71 103 123 156 206 251 304
#     4  10  17  31  50  74 100 129 159 203 256 298
#     4   8  18  30  46  78 100 120 158 202 256 312
#     4  10  21  33  45  68 104 134 170 208 233 289
#
# _framework density 15.672067
#
# number of rings (size 3 to 8) (size 9 to 14) (size 15 to 20)
#    0.000    1.867    4.000    1.600    0.000    0.000 
#    0.000    0.000    0.000    0.000    0.000    7.467 
#    0.000    9.600    0.000    0.000    0.000    0.000 
#
# Total GULP energy -167111.799879 kJ/mol
# GULP energy per Si atom -5570.393329 kJ/mol
# Density = 1.563640 g / cm^3
# Si number density = 15.672067 Si / 1000 Ang^3
#
#
#
# Elastic Constant Matrix: (Units=GPa)
#
#
# Indices 1 2 3 4 5 6 
#
# 1 101.1295 35.2328 34.9977 0.0000 3.5444 0.0000
# 2 35.2328 77.5177 31.7185 0.0000 4.7462 0.0000
# 3 34.9977 31.7185 87.3695 0.0000 22.4066 0.0000
# 4 0.0000 0.0000 0.0000 11.7993 0.0000 -0.1820
# 5 3.5444 4.7462 22.4066 0.0000 34.4524 0.0000
# 6 0.0000 0.0000 0.0000 -0.1820 0.0000 5.9409
#
#
#
# Elastic Compliance Matrix: (Units=1/GPa)
#
#
# Indices 1 2 3 4 5 6 
#
# 1 0.012693 -0.004235 -0.004035 0.000000 0.001902 0.000000
# 2 -0.004235 0.016656 -0.004649 0.000000 0.001165 0.000000
# 3 -0.004035 -0.004649 0.017377 0.000000 -0.010246 0.000000
# 4 0.000000 0.000000 0.000000 0.084791 0.000000 0.002598
# 5 0.001902 0.001165 -0.010246 0.000000 0.035333 0.000000
# 6 0.000000 0.000000 0.000000 0.002598 0.000000 0.168403
#
#
# Mechanical properties :
#
#
# Convention : Reuss Voigt Hill
#
# Bulk Modulus (GPa) = 47.87174 52.21273 50.04224
# Shear Modulus (GPa) = 13.58492 21.37638 17.48065
#
# Velocity S-wave (km/s) = 2.94738 3.69722 3.34339
# Velocity P-wave (km/s) = 6.49576 7.18429 6.84868
#
# Compressibility (1/GPa) = 0.02088915
#
# Stress axis : x y z
#
# Youngs Moduli (GPa) = 78.78129 60.03832 57.54599
#
# Poissons Ratio (x) = 0.25425 0.23219
# Poissons Ratio (y) = 0.33362 0.26754
# Poissons Ratio (z) = 0.31788 0.27913
#
# Static dielectric constant tensor:
#      x y z
#    x 1.547200 0.000000 0.011610 
#    y 0.000000 1.491120 0.000000 
#    z 0.011610 0.000000 1.548970 
# 
# From -- ./inp_files/90413.got.cif
#   From: 2010.05.17/outbox.cif.g08.bks.cpg/sg13_46_cif.got.tgz:90413.got - 2010.06.03 16:44:36.
