data_PCOD9226160
_publ_section_title
;
Structure prediction by ZEFSAII (Michael W. Deem and Ramdas Pophale) SiO2 
 PCOD9226160
Probable space group: P 2/C
;
_chemical_formula_sum "Si O2"
_cell_formula_units_Z 24
_cell_length_a 7.829179
_cell_length_b 9.118934
_cell_length_c 18.716278
_cell_angle_alpha 90.000000
_cell_angle_beta 57.876717
_cell_angle_gamma 90.000000
_cell_volume 1131.657343
_symmetry_space_group_name_H-M "P 2/C"
_symmetry_group_IT_number 13
_symmetry_cell_setting 'monoclinic'
loop_
_space_group_symop_operation_xyz
x,y,z
-x,y,1/2-z
-x,-y,-z
x,-y,1/2+z
loop_
_atom_site_type_symbol
_atom_site_label
_atom_site_fract_x
_atom_site_fract_y
_atom_site_fract_z
Si Si1 0.718976 0.468207 0.598301
Si Si2 0.415052 0.295709 0.191382
Si Si3 0.712178 0.586937 0.448927
Si Si4 0.018384 0.388155 0.335800
Si Si5 0.854005 0.188140 0.494493
Si Si6 0.285054 0.868149 0.977673
O O1 0.500963 0.541204 0.656857
O O2 0.801668 0.547438 0.508075
O O3 0.832491 0.525635 0.642521
O O4 0.738137 0.298636 0.574166
O O5 0.500000 0.249914 0.250000
O O6 0.174900 0.307710 0.248506
O O7 0.524785 0.189160 0.110905
O O8 0.500000 0.500000 0.500000
O O9 0.705924 0.762250 0.454754
O O10 0.855424 0.515894 0.357882
O O11 0.897662 0.270052 0.410225
O O12 0.074893 0.158818 0.480297
O O13 0.728291 0.041305 0.508065
#
# Coordination Sequence:
#
# PCOD9226160 Si02
#       6
#     4   4   4   4   4   4
#     4   9  16  31  47  68  94 128 163 200 250 302
#     4   9  16  28  47  69  98 123 166 212 246 298
#     4  10  18  31  50  72  93 125 171 207 240 304
#     4  10  16  32  51  70  95 132 170 210 255 304
#     4  10  16  28  50  69  98 129 163 203 267 303
#     4  10  18  29  45  74 100 128 160 215 261 302
#
# _framework density 21.207833999999998
#
# number of rings (size 3 to 8) (size 9 to 14) (size 15 to 20)
#    0.000    2.333    6.667    1.000    0.000    0.000 
#    0.000   10.833    0.000    0.000    0.000    4.667 
#    0.000    0.000    0.000    0.000    0.000    0.000 
#
# Total GULP energy -133702.207889 kJ/mol
# GULP energy per Si atom -5570.925329 kJ/mol
# Density = 2.115956 g / cm^3
# Si number density = 21.207834 Si / 1000 Ang^3
#
#
#
# Elastic Constant Matrix: (Units=GPa)
#
#
# Indices 1 2 3 4 5 6 
#
# 1 75.4929 27.5744 23.1959 0.0000 -24.2965 0.0000
# 2 27.5744 184.1093 55.7954 0.0000 -22.5483 0.0000
# 3 23.1959 55.7954 110.0639 0.0000 -31.9079 0.0000
# 4 0.0000 0.0000 0.0000 24.5666 0.0000 -3.8128
# 5 -24.2965 -22.5483 -31.9079 0.0000 38.0570 0.0000
# 6 0.0000 0.0000 0.0000 -3.8128 0.0000 21.3599
#
#
#
# Elastic Compliance Matrix: (Units=1/GPa)
#
#
# Indices 1 2 3 4 5 6 
#
# 1 0.016959 -0.001310 0.000005 0.000000 0.010055 0.000000
# 2 -0.001310 0.006577 -0.002868 0.000000 0.000656 0.000000
# 3 0.000005 -0.002868 0.013273 0.000000 0.009432 0.000000
# 4 0.000000 0.000000 0.000000 0.041866 0.000000 0.007473
# 5 0.010055 0.000656 0.009432 0.000000 0.040993 0.000000
# 6 0.000000 0.000000 0.000000 0.007473 0.000000 0.048151
#
#
# Mechanical properties :
#
#
# Convention : Reuss Voigt Hill
#
# Bulk Modulus (GPa) = 35.13269 64.75528 49.94399
# Shear Modulus (GPa) = 26.93199 34.33670 30.63434
#
# Velocity S-wave (km/s) = 3.56744 4.02812 3.80476
# Velocity P-wave (km/s) = 5.79402 7.22733 6.55000
#
# Compressibility (1/GPa) = 0.02846352
#
# Stress axis : x y z
#
# Youngs Moduli (GPa) = 58.96425 152.03877 75.34129
#
# Poissons Ratio (x) = 0.19918 -0.00038
# Poissons Ratio (y) = 0.07725 0.21608
# Poissons Ratio (z) = -0.00029 0.43605
#
# Static dielectric constant tensor:
#      x y z
#    x 1.937560 0.000000 0.051580 
#    y 0.000000 1.807080 0.000000 
#    z 0.051580 0.000000 1.862800 
# 
# From -- ./inp_files/63371.got.cif
#   From: 2010.05.17/outbox.cif.g08.bks.cpg/sg13_32_cif.got.tgz:63371.got - 2010.06.03 16:44:36.
