data_PCOD9226759
_publ_section_title
;
Structure prediction by ZEFSAII (Michael W. Deem and Ramdas Pophale) SiO2 
 PCOD9226759
Probable space group: P 2/C
;
_chemical_formula_sum "Si O2"
_cell_formula_units_Z 20
_cell_length_a 19.194184
_cell_length_b 11.240129
_cell_length_c 8.525097
_cell_angle_alpha 90.000000
_cell_angle_beta 36.459080
_cell_angle_gamma 90.000000
_cell_volume 1092.970384
_symmetry_space_group_name_H-M "P 2/C"
_symmetry_group_IT_number 13
_symmetry_cell_setting 'monoclinic'
loop_
_space_group_symop_operation_xyz
x,y,z
-x,y,1/2-z
-x,-y,-z
x,-y,1/2+z
loop_
_atom_site_type_symbol
_atom_site_label
_atom_site_fract_x
_atom_site_fract_y
_atom_site_fract_z
Si Si1 0.500000 0.533260 0.750000
Si Si2 0.246242 0.047487 0.146876
Si Si3 0.961222 0.871075 0.640586
Si Si4 0.500000 0.857176 0.250000
Si Si5 0.825477 0.176403 0.907773
Si Si6 0.387013 0.660626 0.663287
O O1 0.437051 0.612962 0.735029
O O2 0.592752 0.446064 0.496390
O O3 0.185183 0.092880 0.418240
O O4 0.177233 0.128796 0.143192
O O5 0.225823 0.910587 0.135921
O O6 0.384043 0.071012 0.912762
O O7 0.043839 0.789320 0.382427
O O8 0.000000 0.859230 0.750000
O O9 0.000000 0.000000 0.500000
O O10 0.461820 0.771519 0.461493
O O11 0.743243 0.288774 0.084916
#
# Coordination Sequence:
#
# PCOD9226759 Si02
#       6
#     2   4   4   2   4   4
#     4   9  18  35  52  72  98 131 178 229 260 296
#     4  10  19  31  47  73 113 139 165 202 242 310
#     4  10  18  30  48  70 101 140 174 200 235 292
#     4   9  20  33  48  78 106 135 164 201 260 312
#     4  10  19  31  49  75 104 138 170 203 251 306
#     4   9  19  33  52  74  97 131 175 215 260 301
#
# _framework density 18.298757999999999
#
# number of rings (size 3 to 8) (size 9 to 14) (size 15 to 20)
#    0.000    2.400    0.000    5.400    0.000    7.200 
#    0.000    0.000    0.000    0.000    0.000   65.800 
#    0.000    0.000    0.000    0.000    0.000    0.000 
#
# Total GULP energy -111378.721739 kJ/mol
# GULP energy per Si atom -5568.936087 kJ/mol
# Density = 1.825711 g / cm^3
# Si number density = 18.298758 Si / 1000 Ang^3
#
#
#
# Elastic Constant Matrix: (Units=GPa)
#
#
# Indices 1 2 3 4 5 6 
#
# 1 98.4429 22.5897 42.9319 0.0000 -2.6921 0.0000
# 2 22.5897 37.0937 4.7327 0.0000 -2.6666 0.0000
# 3 42.9319 4.7327 78.3911 0.0000 -11.7915 0.0000
# 4 0.0000 0.0000 0.0000 9.9869 0.0000 -9.3682
# 5 -2.6921 -2.6666 -11.7915 0.0000 36.3052 0.0000
# 6 0.0000 0.0000 0.0000 -9.3682 0.0000 13.1503
#
#
#
# Elastic Compliance Matrix: (Units=1/GPa)
#
#
# Indices 1 2 3 4 5 6 
#
# 1 0.015776 -0.008688 -0.008448 0.000000 -0.002212 0.000000
# 2 -0.008688 0.032035 0.003240 0.000000 0.002761 0.000000
# 3 -0.008448 0.003240 0.018009 0.000000 0.005461 0.000000
# 4 0.000000 0.000000 0.000000 0.301848 0.000000 0.215037
# 5 -0.002212 0.002761 0.005461 0.000000 0.029357 0.000000
# 6 0.000000 0.000000 0.000000 0.215037 0.000000 0.229236
#
#
# Mechanical properties :
#
#
# Convention : Reuss Voigt Hill
#
# Bulk Modulus (GPa) = 26.29774 39.38182 32.83978
# Shear Modulus (GPa) = 7.49929 21.46669 14.48299
#
# Velocity S-wave (km/s) = 2.02661 3.42880 2.81637
# Velocity P-wave (km/s) = 4.45856 6.10278 5.34428
#
# Compressibility (1/GPa) = 0.03802609
#
# Stress axis : x y z
#
# Youngs Moduli (GPa) = 63.38889 31.21579 55.52783
#
# Poissons Ratio (x) = 0.27121 0.46910
# Poissons Ratio (y) = 0.55075 -0.17988
# Poissons Ratio (z) = 0.53551 -0.10112
#
# Static dielectric constant tensor:
#      x y z
#    x 1.684050 0.000000 -0.011830 
#    y 0.000000 1.618720 0.000000 
#    z -0.011830 0.000000 1.728280 
# 
# From -- ./inp_files/15282.got.cif
#   From: 2010.05.17/outbox.cif.g08.bks.cpg/sg13_8_cif.got.tgz:15282.got - 2010.06.03 16:44:36.
