data_PCOD9226829
_publ_section_title
;
Structure prediction by ZEFSAII (Michael W. Deem and Ramdas Pophale) SiO2 
 PCOD9226829
Probable space group: P 2/C
;
_chemical_formula_sum "Si O2"
_cell_formula_units_Z 20
_cell_length_a 7.976867
_cell_length_b 17.721107
_cell_length_c 5.913199
_cell_angle_alpha 90.000000
_cell_angle_beta 83.326420
_cell_angle_gamma 90.000000
_cell_volume 830.219727
_symmetry_space_group_name_H-M "P 2/C"
_symmetry_group_IT_number 13
_symmetry_cell_setting 'monoclinic'
loop_
_space_group_symop_operation_xyz
x,y,z
-x,y,1/2-z
-x,-y,-z
x,-y,1/2+z
loop_
_atom_site_type_symbol
_atom_site_label
_atom_site_fract_x
_atom_site_fract_y
_atom_site_fract_z
Si Si1 0.000000 0.378912 0.750000
Si Si2 0.321294 0.198406 0.407488
Si Si3 0.210969 0.328993 0.105206
Si Si4 0.500000 0.286011 0.750000
Si Si5 0.699855 0.025987 0.987782
Si Si6 0.289786 0.504622 0.668711
O O1 0.155001 0.435963 0.685202
O O2 0.936286 0.326896 0.556147
O O3 0.500000 0.189830 0.250000
O O4 0.219169 0.257533 0.269376
O O5 0.363371 0.236755 0.639589
O O6 0.266032 0.113838 0.464831
O O7 0.200932 0.413302 0.201374
O O8 0.395091 0.329897 0.953553
O O9 0.762196 0.011412 0.717584
O O10 0.500000 0.000000 0.000000
O O11 0.367395 0.502783 0.405457
#
# Coordination Sequence:
#
# PCOD9226829 Si02
#       6
#     2   4   4   2   4   4
#     4  10  22  44  66  88 114 160 216 264 300 358
#     4  10  20  34  55  83 126 162 193 250 309 362
#     4  10  22  37  61  88 120 161 202 260 309 366
#     4  10  22  38  54  84 130 158 198 246 326 360
#     4  10  18  30  54  83 116 157 204 239 288 357
#     4  10  21  39  63  86 112 154 209 260 305 350
#
# _framework density 24.090007
#
# number of rings (size 3 to 8) (size 9 to 14) (size 15 to 20)
#    0.000    2.000    2.000    3.600    8.400    0.000 
#    0.000    4.000    2.200    0.000    0.000    1.400 
#    0.000    0.000    0.000    0.000    0.000    0.000 
#
# Total GULP energy -111525.209555 kJ/mol
# GULP energy per Si atom -5576.260478 kJ/mol
# Density = 2.403518 g / cm^3
# Si number density = 24.090007 Si / 1000 Ang^3
#
#
#
# Elastic Constant Matrix: (Units=GPa)
#
#
# Indices 1 2 3 4 5 6 
#
# 1 53.4779 37.7945 68.8563 0.0000 17.2946 0.0000
# 2 37.7945 174.2847 86.5072 0.0000 40.5282 0.0000
# 3 68.8563 86.5072 233.5686 0.0000 43.8638 0.0000
# 4 0.0000 0.0000 0.0000 26.0301 0.0000 5.9776
# 5 17.2946 40.5282 43.8638 0.0000 63.6643 0.0000
# 6 0.0000 0.0000 0.0000 5.9776 0.0000 14.0483
#
#
#
# Elastic Compliance Matrix: (Units=1/GPa)
#
#
# Indices 1 2 3 4 5 6 
#
# 1 0.031234 -0.002464 -0.008036 0.000000 -0.001380 0.000000
# 2 -0.002464 0.007793 -0.001555 0.000000 -0.003220 0.000000
# 3 -0.008036 -0.001555 0.007616 0.000000 -0.002074 0.000000
# 4 0.000000 0.000000 0.000000 0.042577 0.000000 -0.018117
# 5 -0.001380 -0.003220 -0.002074 0.000000 0.019561 0.000000
# 6 0.000000 0.000000 0.000000 -0.018117 0.000000 0.078892
#
#
# Mechanical properties :
#
#
# Convention : Reuss Voigt Hill
#
# Bulk Modulus (GPa) = 44.38040 94.18303 69.28171
# Shear Modulus (GPa) = 22.80049 38.62675 30.71362
#
# Velocity S-wave (km/s) = 3.07981 4.00864 3.57452
# Velocity P-wave (km/s) = 5.57761 7.78503 6.77187
#
# Compressibility (1/GPa) = 0.02253247
#
# Stress axis : x y z
#
# Youngs Moduli (GPa) = 32.01667 128.32534 131.30193
#
# Poissons Ratio (x) = 0.31614 1.05517
# Poissons Ratio (y) = 0.07887 0.20420
# Poissons Ratio (z) = 0.25729 0.19957
#
# Static dielectric constant tensor:
#      x y z
#    x 1.957870 0.000000 -0.053470 
#    y 0.000000 1.853280 0.000000 
#    z -0.053470 0.000000 2.038040 
# 
# From -- ./inp_files/1625.got.cif
#   From: 2010.05.17/outbox.cif.g08.bks.cpg/sg13_1_cif.got.tgz:1625.got - 2010.06.03 16:44:36.
