data_PCOD9226182
_publ_section_title
;
Structure prediction by ZEFSAII (Michael W. Deem and Ramdas Pophale) SiO2 
 PCOD9226182
Probable space group: P 2/C
;
_chemical_formula_sum "Si O2"
_cell_formula_units_Z 24
_cell_length_a 9.051580
_cell_length_b 11.740544
_cell_length_c 14.944905
_cell_angle_alpha 90.000000
_cell_angle_beta 46.017713
_cell_angle_gamma 90.000000
_cell_volume 1142.798019
_symmetry_space_group_name_H-M "P 2/C"
_symmetry_group_IT_number 13
_symmetry_cell_setting 'monoclinic'
loop_
_space_group_symop_operation_xyz
x,y,z
-x,y,1/2-z
-x,-y,-z
x,-y,1/2+z
loop_
_atom_site_type_symbol
_atom_site_label
_atom_site_fract_x
_atom_site_fract_y
_atom_site_fract_z
Si Si1 0.213697 0.776208 0.213429
Si Si2 0.008040 0.435609 0.857116
Si Si3 0.183088 0.327750 0.309907
Si Si4 0.000000 0.820529 0.750000
Si Si5 0.500000 0.830961 0.750000
Si Si6 0.375638 0.018549 0.142053
Si Si7 0.438658 0.618631 0.979978
O O1 0.148399 0.676429 0.309543
O O2 0.299372 0.896100 0.210007
O O3 0.374750 0.715793 0.078069
O O4 0.000000 0.799709 0.250000
O O5 0.101815 0.546480 0.863207
O O6 0.000000 0.454792 0.750000
O O7 0.774586 0.409348 0.980533
O O8 0.295767 0.247148 0.333620
O O9 0.999476 0.261772 0.336547
O O10 0.371076 0.343942 0.160124
O O11 0.188000 0.902324 0.691183
O O12 0.501907 0.911400 0.835345
O O13 0.500000 0.000000 0.000000
O O14 0.500000 0.500000 0.000000
#
# Coordination Sequence:
#
# PCOD9226182 Si02
#       7
#     4   4   4   2   2   4   4
#     4   9  17  31  55  86 117 155 205 253 303 373
#     4   9  17  29  56  91 116 158 200 256 313 373
#     4  11  18  38  55  88 130 153 207 265 304 370
#     4  10  20  34  64  86 114 174 210 250 312 374
#     4  10  26  38  62  94 124 164 216 268 300 376
#     4  11  22  42  64  89 123 170 214 260 317 367
#     4  10  16  29  60  94 116 155 208 242 315 383
#
# _framework density 21.001086000000001
#
# number of rings (size 3 to 8) (size 9 to 14) (size 15 to 20)
#    0.000    2.333    5.000    2.000    0.000    0.000 
#    0.000    5.000    0.000    0.000    0.000    0.000 
#    0.000    0.000    0.000    0.000    0.000    0.000 
#
# Total GULP energy -133949.320412 kJ/mol
# GULP energy per Si atom -5581.221684 kJ/mol
# Density = 2.095329 g / cm^3
# Si number density = 21.001086 Si / 1000 Ang^3
#
#
#
# Elastic Constant Matrix: (Units=GPa)
#
#
# Indices 1 2 3 4 5 6 
#
# 1 96.1753 66.0352 13.9410 0.0000 8.8492 0.0000
# 2 66.0352 194.0100 22.8595 0.0000 -0.4574 0.0000
# 3 13.9410 22.8595 56.6227 0.0000 -3.3874 0.0000
# 4 0.0000 0.0000 0.0000 20.1326 0.0000 -0.0761
# 5 8.8492 -0.4574 -3.3874 0.0000 15.6381 0.0000
# 6 0.0000 0.0000 0.0000 -0.0761 0.0000 47.5890
#
#
#
# Elastic Compliance Matrix: (Units=1/GPa)
#
#
# Indices 1 2 3 4 5 6 
#
# 1 0.014862 -0.004814 -0.002256 0.000000 -0.009039 0.000000
# 2 -0.004814 0.006973 -0.001474 0.000000 0.002609 0.000000
# 3 -0.002256 -0.001474 0.019133 0.000000 0.005378 0.000000
# 4 0.000000 0.000000 0.000000 0.049671 0.000000 0.000079
# 5 -0.009039 0.002609 0.005378 0.000000 0.070303 0.000000
# 6 0.000000 0.000000 0.000000 0.000079 0.000000 0.021013
#
#
# Mechanical properties :
#
#
# Convention : Reuss Voigt Hill
#
# Bulk Modulus (GPa) = 41.87711 61.38660 51.63186
# Shear Modulus (GPa) = 24.15430 32.93677 28.54553
#
# Velocity S-wave (km/s) = 3.39506 3.96452 3.69079
# Velocity P-wave (km/s) = 5.94578 7.08874 6.54227
#
# Compressibility (1/GPa) = 0.02387939
#
# Stress axis : x y z
#
# Youngs Moduli (GPa) = 67.28650 143.41667 52.26577
#
# Poissons Ratio (x) = 0.69040 0.11793
# Poissons Ratio (y) = 0.32391 0.07702
# Poissons Ratio (z) = 0.15183 0.21135
#
# Static dielectric constant tensor:
#      x y z
#    x 1.781370 0.000000 0.025710 
#    y 0.000000 1.804930 0.000000 
#    z 0.025710 0.000000 1.764610 
# 
# From -- ./inp_files/64225.got.cif
#   From: 2010.05.17/outbox.cif.g08.bks.cpg/sg13_33_cif.got.tgz:64225.got - 2010.06.03 16:44:36.
