data_PCOD9226057
_publ_section_title
;
Structure prediction by ZEFSAII (Michael W. Deem and Ramdas Pophale) SiO2 
 PCOD9226057
Probable space group: P 2/C
;
_chemical_formula_sum "Si O2"
_cell_formula_units_Z 28
_cell_length_a 5.080688
_cell_length_b 18.222577
_cell_length_c 22.075963
_cell_angle_alpha 90.000000
_cell_angle_beta 63.226864
_cell_angle_gamma 90.000000
_cell_volume 1824.755826
_symmetry_space_group_name_H-M "P 2/C"
_symmetry_group_IT_number 13
_symmetry_cell_setting 'monoclinic'
loop_
_space_group_symop_operation_xyz
x,y,z
-x,y,1/2-z
-x,-y,-z
x,-y,1/2+z
loop_
_atom_site_type_symbol
_atom_site_label
_atom_site_fract_x
_atom_site_fract_y
_atom_site_fract_z
Si Si1 0.344033 0.846357 0.201822
Si Si2 0.508712 0.281691 0.594246
Si Si3 0.352951 0.947119 0.425360
Si Si4 0.314460 0.096027 0.489058
Si Si5 0.687754 0.435212 0.561127
Si Si6 0.634168 0.586809 0.529876
Si Si7 0.807955 0.740807 0.499459
O O1 0.500000 0.847093 0.250000
O O2 0.424600 0.772654 0.156513
O O3 0.458655 0.912342 0.147619
O O4 0.000000 0.850794 0.250000
O O5 0.527498 0.367596 0.610384
O O6 0.287726 0.269461 0.561064
O O7 0.837960 0.262981 0.535946
O O8 0.463280 0.912970 0.477782
O O9 0.011742 0.925208 0.452648
O O10 0.382380 0.034381 0.431949
O O11 0.301694 0.179648 0.469014
O O12 0.592335 0.519433 0.580477
O O13 0.605390 0.420070 0.498710
O O14 0.039222 0.428352 0.532532
O O15 0.663676 0.670717 0.547806
#
# Coordination Sequence:
#
# PCOD9226057 Si02
#       7
#     4   4   4   4   4   4   4
#     4  12  22  32  44  60  86 114 152 182 209 254
#     4  10  18  28  41  58  82 113 142 167 208 244
#     4  10  20  31  44  63  81 113 143 177 225 251
#     4  10  17  30  48  62  85 106 142 180 214 277
#     4   8  14  24  35  53  81 106 131 155 188 244
#     4   8  14  21  36  58  79 105 126 155 196 236
#     4  10  15  26  44  62  84 105 136 170 208 264
#
# _framework density 15.344519999999999
#
# number of rings (size 3 to 8) (size 9 to 14) (size 15 to 20)
#    0.000    2.286    2.857    1.714    0.000    0.000 
#    0.000    0.000    0.000    0.000    0.000    0.000 
#    0.000    2.286    0.000    0.000    0.000    7.429 
#
# Total GULP energy -155891.610480 kJ/mol
# GULP energy per Si atom -5567.557517 kJ/mol
# Density = 1.530960 g / cm^3
# Si number density = 15.344520 Si / 1000 Ang^3
#
#
#
# Elastic Constant Matrix: (Units=GPa)
#
#
# Indices 1 2 3 4 5 6 
#
# 1 75.4771 -1.7878 8.7002 0.0000 -0.2812 0.0000
# 2 -1.7878 159.6927 40.0235 0.0000 -3.9688 0.0000
# 3 8.7002 40.0235 43.3335 0.0000 -3.4933 0.0000
# 4 0.0000 0.0000 0.0000 12.9904 0.0000 0.8843
# 5 -0.2812 -3.9688 -3.4933 0.0000 13.9808 0.0000
# 6 0.0000 0.0000 0.0000 0.8843 0.0000 20.1675
#
#
#
# Elastic Compliance Matrix: (Units=1/GPa)
#
#
# Indices 1 2 3 4 5 6 
#
# 1 0.013711 0.001095 -0.003794 0.000000 -0.000361 0.000000
# 2 0.001095 0.008238 -0.007796 0.000000 0.000413 0.000000
# 3 -0.003794 -0.007796 0.031488 0.000000 0.005578 0.000000
# 4 0.000000 0.000000 0.000000 0.077210 0.000000 -0.003385
# 5 -0.000361 0.000413 0.005578 0.000000 0.073030 0.000000
# 6 0.000000 0.000000 0.000000 -0.003385 0.000000 0.049733
#
#
# Mechanical properties :
#
#
# Convention : Reuss Voigt Hill
#
# Bulk Modulus (GPa) = 30.81682 41.37500 36.09591
# Shear Modulus (GPa) = 17.53059 24.86559 21.19809
#
# Velocity S-wave (km/s) = 3.38370 4.02989 3.72085
# Velocity P-wave (km/s) = 5.94919 6.97682 6.48339
#
# Compressibility (1/GPa) = 0.03244981
#
# Stress axis : x y z
#
# Youngs Moduli (GPa) = 72.93454 121.38324 31.75776
#
# Poissons Ratio (x) = -0.13295 0.12047
# Poissons Ratio (y) = -0.07988 0.24757
# Poissons Ratio (z) = 0.27668 0.94627
#
# Static dielectric constant tensor:
#      x y z
#    x 1.519940 0.000000 0.001760 
#    y 0.000000 1.600600 0.000000 
#    z 0.001760 0.000000 1.440930 
# 
# From -- ./inp_files/61830.got.cif
#   From: 2010.05.17/outbox.cif.g08.bks.cpg/sg13_31_cif.got.tgz:61830.got - 2010.06.03 16:44:36.
