data_PCOD9226364
_publ_section_title
;
Structure prediction by ZEFSAII (Michael W. Deem and Ramdas Pophale) SiO2 
 PCOD9226364
Probable space group: P 2/C
;
_chemical_formula_sum "Si O2"
_cell_formula_units_Z 26
_cell_length_a 13.791612
_cell_length_b 21.948940
_cell_length_c 5.343496
_cell_angle_alpha 90.000000
_cell_angle_beta 112.389229
_cell_angle_gamma 90.000000
_cell_volume 1495.602740
_symmetry_space_group_name_H-M "P 2/C"
_symmetry_group_IT_number 13
_symmetry_cell_setting 'monoclinic'
loop_
_space_group_symop_operation_xyz
x,y,z
-x,y,1/2-z
-x,-y,-z
x,-y,1/2+z
loop_
_atom_site_type_symbol
_atom_site_label
_atom_site_fract_x
_atom_site_fract_y
_atom_site_fract_z
Si Si1 0.125216 0.158717 0.875559
Si Si2 0.268885 0.958440 0.513193
Si Si3 0.126113 0.234620 0.376038
Si Si4 0.179135 0.371633 0.377776
Si Si5 0.321662 0.521340 0.015505
Si Si6 0.500000 0.040850 0.250000
Si Si7 0.886855 0.564470 0.190860
O O1 0.151270 0.199007 0.656454
O O2 0.000000 0.148874 0.750000
O O3 0.184286 0.094728 0.926253
O O4 0.150957 0.194293 0.156846
O O5 0.259334 0.000005 0.253849
O O6 0.385926 0.928512 0.633596
O O7 0.181796 0.299710 0.411528
O O8 0.000000 0.246119 0.250000
O O9 0.289042 0.408385 0.497222
O O10 0.115360 0.399101 0.551006
O O11 0.132679 0.390398 0.062348
O O12 0.376017 0.502838 0.814743
O O13 0.209733 0.483036 0.897587
O O14 0.500000 0.000000 0.500000
O O15 0.000000 0.535253 0.250000
#
# Coordination Sequence:
#
# PCOD9226364 Si02
#       7
#     4   4   4   4   4   2   4
#     4  10  21  33  44  63  89 116 147 179 206 240
#     4  10  19  33  53  73  93 114 137 171 213 253
#     4  10  19  30  41  54  78 112 149 183 209 242
#     4  10  18  26  36  47  63  94 131 169 215 250
#     4   8  16  24  31  45  63  82 114 167 220 255
#     4   8  16  30  50  76  96 110 132 164 206 252
#     4  10  17  23  32  47  64  83 118 172 223 257
#
# _framework density 17.384295999999999
#
# number of rings (size 3 to 8) (size 9 to 14) (size 15 to 20)
#    0.000    2.462    0.000    3.231    0.000    8.000 
#    0.000    0.000    0.000    0.000    0.000    0.000 
#    0.000    0.000    0.000    0.000    0.000    0.000 
#
# Total GULP energy -144901.078403 kJ/mol
# GULP energy per Si atom -5573.118400 kJ/mol
# Density = 1.734473 g / cm^3
# Si number density = 17.384296 Si / 1000 Ang^3
#
#
#
# Elastic Constant Matrix: (Units=GPa)
#
#
# Indices 1 2 3 4 5 6 
#
# 1 34.1766 38.4245 37.6070 0.0000 -6.8790 0.0000
# 2 38.4245 116.0465 44.7827 0.0000 -6.0388 0.0000
# 3 37.6070 44.7827 116.0466 0.0000 -39.4021 0.0000
# 4 0.0000 0.0000 0.0000 19.6475 0.0000 -12.1253
# 5 -6.8790 -6.0388 -39.4021 0.0000 29.3700 0.0000
# 6 0.0000 0.0000 0.0000 -12.1253 0.0000 -3.7177
#
#
#
# Elastic Compliance Matrix: (Units=1/GPa)
#
#
# Indices 1 2 3 4 5 6 
#
# 1 0.065316 -0.014344 -0.021008 0.000000 -0.015835 0.000000
# 2 -0.014344 0.013844 -0.001595 0.000000 -0.002653 0.000000
# 3 -0.021008 -0.001595 0.026187 0.000000 0.029884 0.000000
# 4 0.000000 0.000000 0.000000 0.016894 0.000000 -0.055098
# 5 -0.015835 -0.002653 0.029884 0.000000 0.069886 0.000000
# 6 0.000000 0.000000 0.000000 -0.055098 0.000000 -0.089280
#
#
# Mechanical properties :
#
#
# Convention : Reuss Voigt Hill
#
# Bulk Modulus (GPa) = 31.79230 56.43312 44.11271
# Shear Modulus (GPa) = 26.70585 18.75699 22.73142
#
# Velocity S-wave (km/s) = 3.92370 3.28832 3.61998
# Velocity P-wave (km/s) = 6.23337 6.85201 6.54999
#
# Compressibility (1/GPa) = 0.03145416
#
# Stress axis : x y z
#
# Youngs Moduli (GPa) = 15.31023 72.23326 38.18627
#
# Poissons Ratio (x) = 1.03610 0.80222
# Poissons Ratio (y) = 0.21961 0.06090
# Poissons Ratio (z) = 0.32164 0.11519
#
# Static dielectric constant tensor:
#      x y z
#    x 1.610380 0.000000 -0.015860 
#    y 0.000000 1.560490 0.000000 
#    z -0.015860 0.000000 1.650140 
# 
# From -- ./inp_files/3978.got.cif
#   From: 2010.05.17/outbox.cif.g08.bks.cpg/sg13_2_cif.got.tgz:3978.got - 2010.06.03 16:44:36.
