data_PCOD9226110
_publ_section_title
;
Structure prediction by ZEFSAII (Michael W. Deem and Ramdas Pophale) SiO2 
 PCOD9226110
Probable space group: P 2/C
;
_chemical_formula_sum "Si O2"
_cell_formula_units_Z 18
_cell_length_a 24.332504
_cell_length_b 7.037807
_cell_length_c 5.312193
_cell_angle_alpha 90.000000
_cell_angle_beta 116.503251
_cell_angle_gamma 90.000000
_cell_volume 814.098394
_symmetry_space_group_name_H-M "P 2/C"
_symmetry_group_IT_number 13
_symmetry_cell_setting 'monoclinic'
loop_
_space_group_symop_operation_xyz
x,y,z
-x,y,1/2-z
-x,-y,-z
x,-y,1/2+z
loop_
_atom_site_type_symbol
_atom_site_label
_atom_site_fract_x
_atom_site_fract_y
_atom_site_fract_z
Si Si1 0.500000 0.628657 0.250000
Si Si2 0.318147 0.286477 0.984891
Si Si3 0.182422 0.617341 0.060120
Si Si4 0.933616 0.878299 0.567302
Si Si5 0.633473 0.274898 0.915906
O O1 0.500000 0.500000 0.500000
O O2 0.563930 0.739201 0.367613
O O3 0.248739 0.290189 0.746437
O O4 0.358966 0.196822 0.848536
O O5 0.345130 0.502422 0.072920
O O6 0.322939 0.202514 0.272880
O O7 0.180043 0.547911 0.767263
O O8 0.124852 0.749276 0.001038
O O9 0.000000 0.781173 0.750000
O O10 0.931995 0.958299 0.279804
#
# Coordination Sequence:
#
# PCOD9226110 Si02
#       5
#     2   4   4   4   4
#     4  12  16  20  34  52  78 140 178 186 230 328
#     4  10  16  27  39  62  97 127 160 203 267 300
#     4  12  21  33  58  86 107 138 184 222 269 319
#     4  10  23  43  60  78 111 149 177 215 273 325
#     4  10  16  25  36  56  96 134 166 200 256 312
#
# _framework density 22.110348999999999
#
# number of rings (size 3 to 8) (size 9 to 14) (size 15 to 20)
#    0.000    1.333    8.889    1.333    0.000    0.889 
#    0.000    0.000    0.000    0.000    0.000    0.000 
#    0.000    0.000    0.000   34.000    0.000    0.444 
#
# Total GULP energy -100470.776476 kJ/mol
# GULP energy per Si atom -5581.709804 kJ/mol
# Density = 2.206003 g / cm^3
# Si number density = 22.110349 Si / 1000 Ang^3
#
#
#
# Elastic Constant Matrix: (Units=GPa)
#
#
# Indices 1 2 3 4 5 6 
#
# 1 105.9920 -14.1079 9.0077 0.0000 11.7172 0.0000
# 2 -14.1079 26.4384 -7.6055 0.0000 7.4115 0.0000
# 3 9.0077 -7.6055 78.8377 0.0000 -11.8743 0.0000
# 4 0.0000 0.0000 0.0000 -6.7352 0.0000 6.0513
# 5 11.7172 7.4115 -11.8743 0.0000 75.3324 0.0000
# 6 0.0000 0.0000 0.0000 6.0513 0.0000 -11.2897
#
#
#
# Elastic Compliance Matrix: (Units=1/GPa)
#
#
# Indices 1 2 3 4 5 6 
#
# 1 0.010587 0.006037 -0.000988 0.000000 -0.002396 0.000000
# 2 0.006037 0.043171 0.002759 0.000000 -0.004751 0.000000
# 3 -0.000988 0.002759 0.013363 0.000000 0.001989 0.000000
# 4 0.000000 0.000000 0.000000 -0.286395 0.000000 -0.153508
# 5 -0.002396 -0.004751 0.001989 0.000000 0.014428 0.000000
# 6 0.000000 0.000000 0.000000 -0.153508 0.000000 -0.170857
#
#
# Mechanical properties :
#
#
# Convention : Reuss Voigt Hill
#
# Bulk Modulus (GPa) = 12.08650 20.65076 16.36863
# Shear Modulus (GPa) = -13.74609 26.39308 6.32350
#
# Velocity S-wave (km/s) = -2.49610 3.45874 1.69298
# Velocity P-wave (km/s) = 1.68198 5.03097 3.35273
#
# Compressibility (1/GPa) = 0.08273694
#
# Stress axis : x y z
#
# Youngs Moduli (GPa) = 94.45447 23.16377 74.83405
#
# Poissons Ratio (x) = -0.13984 0.07395
# Poissons Ratio (y) = -0.57021 -0.20649
# Poissons Ratio (z) = 0.09334 -0.06392
#
# Static dielectric constant tensor:
#      x y z
#    x 1.827710 0.000000 -0.025250 
#    y 0.000000 2.019950 0.000000 
#    z -0.025250 0.000000 1.844850 
# 
# From -- ./inp_files/5814.got.cif
#   From: 2010.05.17/outbox.cif.g08.bks.cpg/sg13_3_cif.got.tgz:5814.got - 2010.06.03 16:44:36.
