data_PCOD9226936
_publ_section_title
;
Structure prediction by ZEFSAII (Michael W. Deem and Ramdas Pophale) SiO2 
 PCOD9226936
Probable space group: P 2/C
;
_chemical_formula_sum "Si O2"
_cell_formula_units_Z 32
_cell_length_a 15.669087
_cell_length_b 14.206180
_cell_length_c 8.497954
_cell_angle_alpha 90.000000
_cell_angle_beta 99.940210
_cell_angle_gamma 90.000000
_cell_volume 1863.230169
_symmetry_space_group_name_H-M "P 2/C"
_symmetry_group_IT_number 13
_symmetry_cell_setting 'monoclinic'
loop_
_space_group_symop_operation_xyz
x,y,z
-x,y,1/2-z
-x,-y,-z
x,-y,1/2+z
loop_
_atom_site_type_symbol
_atom_site_label
_atom_site_fract_x
_atom_site_fract_y
_atom_site_fract_z
Si Si1 0.426815 0.381548 0.012468
Si Si2 0.707310 0.738137 0.589491
Si Si3 0.175281 0.097285 0.407085
Si Si4 0.644328 0.984226 0.064106
Si Si5 0.408847 0.137745 0.654709
Si Si6 0.596202 0.192638 0.351385
Si Si7 0.934770 0.962448 0.348454
Si Si8 0.618807 0.436614 0.145605
O O1 0.406558 0.271516 0.012099
O O2 0.530198 0.398484 0.034141
O O3 0.397576 0.416472 0.176578
O O4 0.379305 0.451874 0.879877
O O5 0.797221 0.795229 0.618158
O O6 0.653941 0.779987 0.423978
O O7 0.657328 0.772999 0.730265
O O8 0.696900 0.625809 0.600762
O O9 0.137596 0.090254 0.572008
O O10 0.262535 0.034446 0.419842
O O11 0.109931 0.047534 0.263367
O O12 0.629977 0.931333 0.224079
O O13 0.631618 0.903058 0.932053
O O14 0.579372 0.068902 0.993842
O O15 0.500000 0.171630 0.750000
O O16 0.500000 0.187004 0.250000
O O17 0.000000 0.908877 0.250000
O O18 0.000000 0.000000 0.500000
#
# Coordination Sequence:
#
# PCOD9226936 Si02
#       8
#     4   4   4   4   4   4   4   4
#     4   9  17  30  46  59  84 114 166 207 240 270
#     4  10  19  31  46  64  92 121 158 201 247 270
#     4  10  18  32  46  69  94 122 150 183 229 279
#     4  11  21  30  45  60  91 123 157 196 241 266
#     4  11  21  31  39  59  83 125 166 205 228 269
#     4  11  18  31  44  62  86 127 168 208 235 271
#     4   9  18  32  52  70  90 120 149 175 218 288
#     4   9  17  31  44  63  81 119 157 210 244 274
#
# _framework density 17.174474
#
# number of rings (size 3 to 8) (size 9 to 14) (size 15 to 20)
#    0.000    2.000    2.500    5.250    0.000    1.000 
#    2.250    0.000    0.000    0.000    0.000    0.000 
#    0.000    0.000    0.000  148.500    0.000    0.000 
#
# Total GULP energy -178366.605327 kJ/mol
# GULP energy per Si atom -5573.956416 kJ/mol
# Density = 1.713538 g / cm^3
# Si number density = 17.174474 Si / 1000 Ang^3
#
#
#
# Elastic Constant Matrix: (Units=GPa)
#
#
# Indices 1 2 3 4 5 6 
#
# 1 58.6277 9.6930 17.4487 0.0000 -10.3856 0.0000
# 2 9.6930 57.7096 13.3163 0.0000 4.8089 0.0000
# 3 17.4487 13.3163 47.4465 0.0000 -6.0316 0.0000
# 4 0.0000 0.0000 0.0000 23.8663 0.0000 -6.2729
# 5 -10.3856 4.8089 -6.0316 0.0000 32.3389 0.0000
# 6 0.0000 0.0000 0.0000 -6.2729 0.0000 9.0116
#
#
#
# Elastic Compliance Matrix: (Units=1/GPa)
#
#
# Indices 1 2 3 4 5 6 
#
# 1 0.020284 -0.002496 -0.006026 0.000000 0.005761 0.000000
# 2 -0.002496 0.019307 -0.005088 0.000000 -0.004622 0.000000
# 3 -0.006026 -0.005088 0.025167 0.000000 0.003515 0.000000
# 4 0.000000 0.000000 0.000000 0.051283 0.000000 0.035697
# 5 0.005761 -0.004622 0.003515 0.000000 0.034116 0.000000
# 6 0.000000 0.000000 0.000000 0.035697 0.000000 0.135816
#
#
# Mechanical properties :
#
#
# Convention : Reuss Voigt Hill
#
# Bulk Modulus (GPa) = 26.64102 27.18888 26.91495
# Shear Modulus (GPa) = 15.35128 21.26509 18.30818
#
# Velocity S-wave (km/s) = 2.99296 3.52260 3.26853
# Velocity P-wave (km/s) = 5.24304 5.69300 5.47265
#
# Compressibility (1/GPa) = 0.03753610
#
# Stress axis : x y z
#
# Youngs Moduli (GPa) = 49.30070 51.79582 39.73384
#
# Poissons Ratio (x) = 0.12930 0.23945
# Poissons Ratio (y) = 0.12307 0.20217
# Poissons Ratio (z) = 0.29711 0.26354
#
# Static dielectric constant tensor:
#      x y z
#    x 1.608660 0.000000 -0.027510 
#    y 0.000000 1.646500 0.000000 
#    z -0.027510 0.000000 1.657300 
# 
# From -- ./inp_files/19403.got.cif
#   From: 2010.05.17/outbox.cif.g08.bks.cpg/sg13_10_cif.got.tgz:19403.got - 2010.06.03 16:44:36.
