data_PCOD9226825
_publ_section_title
;
Structure prediction by ZEFSAII (Michael W. Deem and Ramdas Pophale) SiO2 
 PCOD9226825
Probable space group: P 2/C
;
_chemical_formula_sum "Si O2"
_cell_formula_units_Z 20
_cell_length_a 7.664137
_cell_length_b 13.138779
_cell_length_c 8.192846
_cell_angle_alpha 90.000000
_cell_angle_beta 122.943031
_cell_angle_gamma 90.000000
_cell_volume 692.348222
_symmetry_space_group_name_H-M "P 2/C"
_symmetry_group_IT_number 13
_symmetry_cell_setting 'monoclinic'
loop_
_space_group_symop_operation_xyz
x,y,z
-x,y,1/2-z
-x,-y,-z
x,-y,1/2+z
loop_
_atom_site_type_symbol
_atom_site_label
_atom_site_fract_x
_atom_site_fract_y
_atom_site_fract_z
Si Si1 0.377296 0.736945 0.508018
Si Si2 0.671035 0.584517 0.539628
Si Si3 0.291681 0.052220 0.042242
Si Si4 0.017030 0.632589 0.502740
Si Si5 0.090011 0.845298 0.962992
O O1 0.500000 0.743085 0.750000
O O2 0.534355 0.686788 0.462458
O O3 0.322283 0.853893 0.432936
O O4 0.184874 0.659448 0.444900
O O5 0.500000 0.500000 0.500000
O O6 0.826944 0.609044 0.767425
O O7 0.819984 0.561340 0.459867
O O8 0.500000 0.047485 0.250000
O O9 0.095118 0.095694 0.039531
O O10 0.242774 0.934923 0.981866
O O11 0.888615 0.739943 0.432035
O O12 0.000000 0.803325 0.750000
#
# Coordination Sequence:
#
# PCOD9226825 Si02
#       5
#     4   4   4   4   4
#     4   8  16  32  51  74 106 139 172 214 266 319
#     4  10  18  30  54  78  95 133 186 219 265 324
#     4   9  19  32  52  83 114 142 182 221 258 321
#     4   9  18  34  52  76 105 135 174 222 269 326
#     4  10  18  33  56  80 109 150 178 213 273 329
#
# _framework density 28.887198000000001
#
# number of rings (size 3 to 8) (size 9 to 14) (size 15 to 20)
#    0.000    2.800    2.000    1.200    0.000    1.600 
#    0.000    0.000    4.400    8.400    0.000    0.000 
#    0.000    0.000    0.000    0.000    0.000    0.000 
#
# Total GULP energy -111564.396042 kJ/mol
# GULP energy per Si atom -5578.219802 kJ/mol
# Density = 2.882145 g / cm^3
# Si number density = 28.887198 Si / 1000 Ang^3
#
#
#
# Elastic Constant Matrix: (Units=GPa)
#
#
# Indices 1 2 3 4 5 6 
#
# 1 214.8293 56.4468 18.4594 0.0000 30.5155 0.0000
# 2 56.4468 144.2633 52.0797 0.0000 22.9295 0.0000
# 3 18.4594 52.0797 91.2507 0.0000 19.2807 0.0000
# 4 0.0000 0.0000 0.0000 8.3663 0.0000 18.3124
# 5 30.5155 22.9295 19.2807 0.0000 39.7992 0.0000
# 6 0.0000 0.0000 0.0000 18.3124 0.0000 59.7665
#
#
#
# Elastic Compliance Matrix: (Units=1/GPa)
#
#
# Indices 1 2 3 4 5 6 
#
# 1 0.005591 -0.001872 0.000686 0.000000 -0.003540 0.000000
# 2 -0.001872 0.009672 -0.004754 0.000000 -0.001834 0.000000
# 3 0.000686 -0.004754 0.014556 0.000000 -0.004838 0.000000
# 4 0.000000 0.000000 0.000000 0.362915 0.000000 -0.111197
# 5 -0.003540 -0.001834 -0.004838 0.000000 0.031241 0.000000
# 6 0.000000 0.000000 0.000000 -0.111197 0.000000 0.050802
#
#
# Mechanical properties :
#
#
# Convention : Reuss Voigt Hill
#
# Bulk Modulus (GPa) = 55.75030 78.25725 67.00378
# Shear Modulus (GPa) = 10.14946 43.14355 26.64650
#
# Velocity S-wave (km/s) = 1.87646 3.86880 3.04045
# Velocity P-wave (km/s) = 4.90265 6.86340 5.96415
#
# Compressibility (1/GPa) = 0.01793712
#
# Stress axis : x y z
#
# Youngs Moduli (GPa) = 178.86626 103.39089 68.70187
#
# Poissons Ratio (x) = 0.19359 -0.04711
# Poissons Ratio (y) = 0.33491 0.32660
# Poissons Ratio (z) = -0.12264 0.49151
#
# Static dielectric constant tensor:
#      x y z
#    x 2.175210 0.000000 -0.010150 
#    y 0.000000 2.402210 0.000000 
#    z -0.010150 0.000000 2.313680 
# 
# From -- ./inp_files/29630.got.cif
#   From: 2010.05.17/outbox.cif.g08.bks.cpg/sg13_15_cif.got.tgz:29630.got - 2010.06.03 16:44:36.
