data_PCOD9226394
_publ_section_title
;
Structure prediction by ZEFSAII (Michael W. Deem and Ramdas Pophale) SiO2 
 PCOD9226394
Probable space group: P 2/C
;
_chemical_formula_sum "Si O2"
_cell_formula_units_Z 24
_cell_length_a 12.429798
_cell_length_b 14.494689
_cell_length_c 8.914413
_cell_angle_alpha 90.000000
_cell_angle_beta 33.299002
_cell_angle_gamma 90.000000
_cell_volume 881.748240
_symmetry_space_group_name_H-M "P 2/C"
_symmetry_group_IT_number 13
_symmetry_cell_setting 'monoclinic'
loop_
_space_group_symop_operation_xyz
x,y,z
-x,y,1/2-z
-x,-y,-z
x,-y,1/2+z
loop_
_atom_site_type_symbol
_atom_site_label
_atom_site_fract_x
_atom_site_fract_y
_atom_site_fract_z
Si Si1 0.236208 0.205326 0.487708
Si Si2 0.238888 0.537421 0.475056
Si Si3 0.199420 0.315616 0.245907
Si Si4 0.279367 0.020784 0.298607
Si Si5 0.758136 0.368252 0.835932
Si Si6 0.740766 0.132583 0.467979
O O1 0.300969 0.261139 0.263285
O O2 0.285010 0.098298 0.422428
O O3 0.302301 0.263959 0.553756
O O4 0.000000 0.207254 0.750000
O O5 0.300962 0.601054 0.542297
O O6 0.285349 0.433448 0.470418
O O7 0.307273 0.580637 0.238698
O O8 0.000000 0.542154 0.750000
O O9 0.993956 0.356938 0.543141
O O10 0.177317 0.234784 0.148154
O O11 0.199129 0.925418 0.456410
O O12 0.194727 0.072755 0.252932
O O13 0.500000 0.000000 0.000000
O O14 0.500000 0.139102 0.750000
#
# Coordination Sequence:
#
# PCOD9226394 Si02
#       6
#     4   4   4   4   4   4
#     4   9  17  31  47  70 102 131 162 206 251 286
#     4  10  17  27  45  72 101 131 160 191 237 297
#     4   9  17  29  45  69  99 129 162 197 242 291
#     4   9  18  33  52  71  94 131 171 203 244 297
#     4  10  18  29  47  74 102 129 158 196 242 291
#     4   9  18  33  51  70  92 125 167 207 246 290
#
# _framework density 27.218654000000001
#
# number of rings (size 3 to 8) (size 9 to 14) (size 15 to 20)
#    0.000    2.667    0.000    4.500    0.000    1.333 
#    0.000   10.000    0.000    0.000    0.000   45.500 
#    0.000    0.000    0.000    0.000    0.000    0.000 
#
# Total GULP energy -134362.786717 kJ/mol
# GULP energy per Si atom -5598.449447 kJ/mol
# Density = 2.715670 g / cm^3
# Si number density = 27.218654 Si / 1000 Ang^3
#
#
#
# Elastic Constant Matrix: (Units=GPa)
#
#
# Indices 1 2 3 4 5 6 
#
# 1 105.5611 15.0809 30.4184 0.0000 -19.7352 0.0000
# 2 15.0809 168.2339 38.4211 0.0000 14.0551 0.0000
# 3 30.4184 38.4211 96.0254 0.0000 1.5362 0.0000
# 4 0.0000 0.0000 0.0000 127.4539 0.0000 8.3857
# 5 -19.7352 14.0551 1.5362 0.0000 30.5251 0.0000
# 6 0.0000 0.0000 0.0000 8.3857 0.0000 30.3534
#
#
#
# Elastic Compliance Matrix: (Units=1/GPa)
#
#
# Indices 1 2 3 4 5 6 
#
# 1 0.012260 -0.000986 -0.003626 0.000000 0.008563 0.000000
# 2 -0.000986 0.006885 -0.002383 0.000000 -0.003688 0.000000
# 3 -0.003626 -0.002383 0.012546 0.000000 -0.001878 0.000000
# 4 0.000000 0.000000 0.000000 0.007991 0.000000 -0.002208
# 5 0.008563 -0.003688 -0.001878 0.000000 0.040089 0.000000
# 6 0.000000 0.000000 0.000000 -0.002208 0.000000 0.033555
#
#
# Mechanical properties :
#
#
# Convention : Reuss Voigt Hill
#
# Bulk Modulus (GPa) = 56.49792 59.74013 58.11903
# Shear Modulus (GPa) = 37.53278 56.72649 47.12963
#
# Velocity S-wave (km/s) = 3.71743 4.57015 4.16567
# Velocity P-wave (km/s) = 6.26321 7.06005 6.67353
#
# Compressibility (1/GPa) = 0.01769977
#
# Stress axis : x y z
#
# Youngs Moduli (GPa) = 81.56732 145.24495 79.70563
#
# Poissons Ratio (x) = 0.14325 0.28901
# Poissons Ratio (y) = 0.08045 0.18996
# Poissons Ratio (z) = 0.29576 0.34617
#
# Static dielectric constant tensor:
#      x y z
#    x 1.989120 0.000000 -0.012260 
#    y 0.000000 2.055780 0.000000 
#    z -0.012260 0.000000 2.147590 
# 
# From -- ./inp_files/19455.got.cif
#   From: 2010.05.17/outbox.cif.g08.bks.cpg/sg13_10_cif.got.tgz:19455.got - 2010.06.03 16:44:36.
