data_PCOD9226907
_publ_section_title
;
Structure prediction by ZEFSAII (Michael W. Deem and Ramdas Pophale) SiO2 
 PCOD9226907
Probable space group: P 2/C
;
_chemical_formula_sum "Si O2"
_cell_formula_units_Z 24
_cell_length_a 7.326224
_cell_length_b 7.621392
_cell_length_c 16.962896
_cell_angle_alpha 90.000000
_cell_angle_beta 81.556236
_cell_angle_gamma 90.000000
_cell_volume 936.874118
_symmetry_space_group_name_H-M "P 2/C"
_symmetry_group_IT_number 13
_symmetry_cell_setting 'monoclinic'
loop_
_space_group_symop_operation_xyz
x,y,z
-x,y,1/2-z
-x,-y,-z
x,-y,1/2+z
loop_
_atom_site_type_symbol
_atom_site_label
_atom_site_fract_x
_atom_site_fract_y
_atom_site_fract_z
Si Si1 0.064174 0.194743 0.423446
Si Si2 0.516902 0.141329 0.842067
Si Si3 0.508428 0.842419 0.562321
Si Si4 0.598914 0.505050 0.865443
Si Si5 0.192811 0.480152 0.307122
Si Si6 0.905916 0.195352 0.596317
O O1 0.275521 0.191898 0.440310
O O2 0.075781 0.320335 0.348529
O O3 0.953835 0.262912 0.506248
O O4 0.000776 0.997163 0.404863
O O5 0.500000 0.176215 0.750000
O O6 0.624705 0.297078 0.880076
O O7 0.309326 0.150779 0.886038
O O8 0.576024 0.942957 0.855445
O O9 0.405961 0.654242 0.567191
O O10 0.500000 0.000000 0.500000
O O11 0.741272 0.541216 0.786078
O O12 0.390235 0.512207 0.841773
O O13 0.081034 0.656728 0.337690
#
# Coordination Sequence:
#
# PCOD9226907 Si02
#       6
#     4   4   4   4   4   4
#     4   9  18  28  47  70 103 131 160 206 253 305
#     4  10  18  31  55  78  98 125 170 221 260 297
#     4  10  22  33  48  74 106 139 170 204 257 314
#     4   9  17  29  48  74 102 125 168 213 256 296
#     4   9  15  26  46  75  99 120 161 213 257 290
#     4   9  16  28  45  77  99 122 161 212 263 292
#
# _framework density 25.617101000000002
#
# number of rings (size 3 to 8) (size 9 to 14) (size 15 to 20)
#    0.000    2.667    3.333    0.500    7.000    0.667 
#    0.000    0.000    0.000    1.000    0.000    7.000 
#    0.000    0.000    0.000    0.000    0.000    0.000 
#
# Total GULP energy -133961.882737 kJ/mol
# GULP energy per Si atom -5581.745114 kJ/mol
# Density = 2.555880 g / cm^3
# Si number density = 25.617101 Si / 1000 Ang^3
#
#
#
# Elastic Constant Matrix: (Units=GPa)
#
#
# Indices 1 2 3 4 5 6 
#
# 1 72.0011 18.4321 22.4637 0.0000 4.6600 0.0000
# 2 18.4321 102.3665 53.1938 0.0000 -11.6088 0.0000
# 3 22.4637 53.1938 121.5929 0.0000 -37.6789 0.0000
# 4 0.0000 0.0000 0.0000 49.4831 0.0000 -10.0489
# 5 4.6600 -11.6088 -37.6789 0.0000 30.1968 0.0000
# 6 0.0000 0.0000 0.0000 -10.0489 0.0000 2.2632
#
#
#
# Elastic Compliance Matrix: (Units=1/GPa)
#
#
# Indices 1 2 3 4 5 6 
#
# 1 0.016621 -0.001185 -0.005687 0.000000 -0.010117 0.000000
# 2 -0.001185 0.012936 -0.006265 0.000000 -0.002661 0.000000
# 3 -0.005687 -0.006265 0.018817 0.000000 0.021949 0.000000
# 4 0.000000 0.000000 0.000000 0.205553 0.000000 0.912679
# 5 -0.010117 -0.002661 0.021949 0.000000 0.061041 0.000000
# 6 0.000000 0.000000 0.000000 0.912679 0.000000 4.494257
#
#
# Mechanical properties :
#
#
# Convention : Reuss Voigt Hill
#
# Bulk Modulus (GPa) = 45.24914 53.79327 49.52121
# Shear Modulus (GPa) = 1.03245 29.84669 15.43957
#
# Velocity S-wave (km/s) = 0.63554 3.41707 2.45767
# Velocity P-wave (km/s) = 4.27089 6.05087 5.23706
#
# Compressibility (1/GPa) = 0.02209987
#
# Stress axis : x y z
#
# Youngs Moduli (GPa) = 60.16422 77.30459 53.14326
#
# Poissons Ratio (x) = 0.09158 0.30225
# Poissons Ratio (y) = 0.07128 0.33294
# Poissons Ratio (z) = 0.34218 0.48431
#
# Static dielectric constant tensor:
#      x y z
#    x 2.096460 0.000000 0.119330 
#    y 0.000000 2.140810 0.000000 
#    z 0.119330 0.000000 2.073420 
# 
# From -- ./inp_files/65937.got.cif
#   From: 2010.05.17/outbox.cif.g08.bks.cpg/sg13_33_cif.got.tgz:65937.got - 2010.06.03 16:44:36.
