data_PCOD9226699
_publ_section_title
;
Structure prediction by ZEFSAII (Michael W. Deem and Ramdas Pophale) SiO2 
 PCOD9226699
Probable space group: P 2/C
;
_chemical_formula_sum "Si O2"
_cell_formula_units_Z 28
_cell_length_a 5.696781
_cell_length_b 14.346951
_cell_length_c 15.947013
_cell_angle_alpha 90.000000
_cell_angle_beta 56.136865
_cell_angle_gamma 90.000000
_cell_volume 1082.282530
_symmetry_space_group_name_H-M "P 2/C"
_symmetry_group_IT_number 13
_symmetry_cell_setting 'monoclinic'
loop_
_space_group_symop_operation_xyz
x,y,z
-x,y,1/2-z
-x,-y,-z
x,-y,1/2+z
loop_
_atom_site_type_symbol
_atom_site_label
_atom_site_fract_x
_atom_site_fract_y
_atom_site_fract_z
Si Si1 0.608509 0.673636 0.145407
Si Si2 0.032630 0.128458 0.659470
Si Si3 0.827459 0.578618 0.486546
Si Si4 0.347117 0.826335 0.925236
Si Si5 0.209566 0.202110 0.040674
Si Si6 0.692390 0.515938 0.839872
Si Si7 0.404939 0.042781 0.883560
O O1 0.500000 0.726043 0.250000
O O2 0.611231 0.730239 0.057951
O O3 0.435151 0.576385 0.179538
O O4 0.941185 0.652865 0.085654
O O5 0.266504 0.061901 0.658298
O O6 0.000000 0.193690 0.750000
O O7 0.765400 0.081742 0.664245
O O8 0.191068 0.169754 0.547100
O O9 0.550639 0.593406 0.598814
O O10 0.741088 0.528851 0.419775
O O11 0.000000 0.500000 0.500000
O O12 0.656960 0.792771 0.893732
O O13 0.124356 0.777768 0.906193
O O14 0.373210 0.932661 0.890367
O O15 0.255105 0.098762 0.990931
O O16 0.000000 0.548184 0.750000
#
# Coordination Sequence:
#
# PCOD9226699 Si02
#       7
#     4   4   4   4   4   4   4
#     4  11  22  34  52  84 134 169 189 244 319 383
#     4  10  18  28  48  74 102 127 176 245 302 339
#     4   9  20  36  56  86 120 161 212 248 294 369
#     4  10  20  36  53  73 109 155 205 247 286 360
#     4  10  21  31  52  79 108 156 201 236 299 368
#     4  10  19  36  62  84 121 166 209 252 300 360
#     4  10  19  36  52  71 109 153 201 247 289 355
#
# _framework density 25.871248000000001
#
# number of rings (size 3 to 8) (size 9 to 14) (size 15 to 20)
#    0.000    2.000    1.429    4.714    2.000    4.571 
#    0.000    0.714    0.000    0.000    0.000    1.000 
#   34.286    0.000    0.000    0.000    0.000    0.000 
#
# Total GULP energy -156055.869769 kJ/mol
# GULP energy per Si atom -5573.423920 kJ/mol
# Density = 2.581236 g / cm^3
# Si number density = 25.871248 Si / 1000 Ang^3
#
#
#
# Elastic Constant Matrix: (Units=GPa)
#
#
# Indices 1 2 3 4 5 6 
#
# 1 248.3150 39.9184 49.0072 0.0000 -6.2640 0.0000
# 2 39.9184 50.0001 10.3675 0.0000 -2.5091 0.0000
# 3 49.0072 10.3675 53.6403 0.0000 -22.8954 0.0000
# 4 0.0000 0.0000 0.0000 13.1112 0.0000 1.7265
# 5 -6.2640 -2.5091 -22.8954 0.0000 58.3900 0.0000
# 6 0.0000 0.0000 0.0000 1.7265 0.0000 36.8560
#
#
#
# Elastic Compliance Matrix: (Units=1/GPa)
#
#
# Indices 1 2 3 4 5 6 
#
# 1 0.005540 -0.003453 -0.005049 0.000000 -0.001534 0.000000
# 2 -0.003453 0.023020 -0.001237 0.000000 0.000134 0.000000
# 3 -0.005049 -0.001237 0.027912 0.000000 0.010350 0.000000
# 4 0.000000 0.000000 0.000000 0.076744 0.000000 -0.003595
# 5 -0.001534 0.000134 0.010350 0.000000 0.021026 0.000000
# 6 0.000000 0.000000 0.000000 -0.003595 0.000000 0.027301
#
#
# Mechanical properties :
#
#
# Convention : Reuss Voigt Hill
#
# Bulk Modulus (GPa) = 27.03160 61.17128 44.10144
# Shear Modulus (GPa) = 23.43539 38.51561 30.97550
#
# Velocity S-wave (km/s) = 3.01299 3.86261 3.46395
# Velocity P-wave (km/s) = 4.75135 6.60218 5.75170
#
# Compressibility (1/GPa) = 0.03699375
#
# Stress axis : x y z
#
# Youngs Moduli (GPa) = 180.50671 43.44044 35.82664
#
# Poissons Ratio (x) = 0.15000 0.18088
# Poissons Ratio (y) = 0.62330 0.04433
# Poissons Ratio (z) = 0.91132 0.05376
#
# Static dielectric constant tensor:
#      x y z
#    x 2.225100 0.000000 -0.058120 
#    y 0.000000 2.638500 0.000000 
#    z -0.058120 0.000000 2.417280 
# 
# From -- ./inp_files/61533.got.cif
#   From: 2010.05.17/outbox.cif.g08.bks.cpg/sg13_31_cif.got.tgz:61533.got - 2010.06.03 16:44:36.
