data_PCOD9226716
_publ_section_title
;
Structure prediction by ZEFSAII (Michael W. Deem and Ramdas Pophale) SiO2 
 PCOD9226716
Probable space group: P 2/C
;
_chemical_formula_sum "Si O2"
_cell_formula_units_Z 24
_cell_length_a 26.072967
_cell_length_b 8.784601
_cell_length_c 26.733612
_cell_angle_alpha 90.000000
_cell_angle_beta 10.794028
_cell_angle_gamma 90.000000
_cell_volume 1146.724397
_symmetry_space_group_name_H-M "P 2/C"
_symmetry_group_IT_number 13
_symmetry_cell_setting 'monoclinic'
loop_
_space_group_symop_operation_xyz
x,y,z
-x,y,1/2-z
-x,-y,-z
x,-y,1/2+z
loop_
_atom_site_type_symbol
_atom_site_label
_atom_site_fract_x
_atom_site_fract_y
_atom_site_fract_z
Si Si1 0.085196 0.518850 0.721820
Si Si2 0.689097 0.492340 0.684468
Si Si3 0.727234 0.404149 0.254731
Si Si4 0.194816 0.850511 0.521281
Si Si5 0.710291 0.905356 0.831877
Si Si6 0.727195 0.866816 0.166272
O O1 0.406497 0.518629 0.424543
O O2 0.000000 0.450878 0.750000
O O3 0.926783 0.448878 0.920501
O O4 0.966881 0.691818 0.833492
O O5 0.660740 0.598760 0.759778
O O6 0.759602 0.318855 0.634565
O O7 0.500000 0.500000 0.500000
O O8 0.741364 0.248325 0.270567
O O9 0.000000 0.500000 0.000000
O O10 0.500000 0.821134 0.250000
O O11 0.248099 0.918301 0.415125
O O12 0.000000 0.929153 0.750000
O O13 0.024147 0.948321 0.542573
O O14 0.557499 0.889409 0.031884
O O15 0.500000 0.000000 0.000000
#
# Coordination Sequence:
#
# PCOD9226716 Si02
#       6
#     4   4   4   4   4   4
#     4  10  18  29  46  78 114 142 173 227 291 347
#     4  11  19  31  54  77 108 146 189 227 284 339
#     4  12  22  38  57  83 110 149 197 236 279 344
#     4  10  18  30  50  80 114 144 182 229 287 346
#     4  12  24  39  56  83 116 156 193 242 295 350
#     4  11  20  35  56  80 116 150 188 233 297 344
#
# _framework density 20.929176999999999
#
# number of rings (size 3 to 8) (size 9 to 14) (size 15 to 20)
#    0.000    1.000    3.333    9.000    0.000    0.000 
#    0.000    0.000    0.000    0.000    0.000   11.667 
#    0.000    0.000    0.000    0.000    0.000    0.000 
#
# Total GULP energy -133941.221140 kJ/mol
# GULP energy per Si atom -5580.884214 kJ/mol
# Density = 2.088154 g / cm^3
# Si number density = 20.929177 Si / 1000 Ang^3
#
#
#
# Elastic Constant Matrix: (Units=GPa)
#
#
# Indices 1 2 3 4 5 6 
#
# 1 104.6189 8.1005 22.3103 0.0000 6.8110 0.0000
# 2 8.1005 13.4982 18.7915 0.0000 -4.4966 0.0000
# 3 22.3103 18.7915 119.4377 0.0000 0.9314 0.0000
# 4 0.0000 0.0000 0.0000 12.3151 0.0000 -2.3208
# 5 6.8110 -4.4966 0.9314 0.0000 61.2686 0.0000
# 6 0.0000 0.0000 0.0000 -2.3208 0.0000 11.4093
#
#
#
# Elastic Compliance Matrix: (Units=1/GPa)
#
#
# Indices 1 2 3 4 5 6 
#
# 1 0.010289 -0.005143 -0.001101 0.000000 -0.001505 0.000000
# 2 -0.005143 0.100708 -0.014948 0.000000 0.008190 0.000000
# 3 -0.001101 -0.014948 0.010939 0.000000 -0.001141 0.000000
# 4 0.000000 0.000000 0.000000 0.084438 0.000000 0.017176
# 5 -0.001505 0.008190 -0.001141 0.000000 0.017107 0.000000
# 6 0.000000 0.000000 0.000000 0.017176 0.000000 0.091142
#
#
# Mechanical properties :
#
#
# Convention : Reuss Voigt Hill
#
# Bulk Modulus (GPa) = 12.57034 37.32883 24.94959
# Shear Modulus (GPa) = 13.03695 29.55543 21.29619
#
# Velocity S-wave (km/s) = 2.49852 3.76195 3.19334
# Velocity P-wave (km/s) = 3.78717 6.06170 5.05405
#
# Compressibility (1/GPa) = 0.07955233
#
# Stress axis : x y z
#
# Youngs Moduli (GPa) = 97.18652 9.92967 91.41648
#
# Poissons Ratio (x) = 0.05107 0.10066
# Poissons Ratio (y) = 0.49985 1.36649
# Poissons Ratio (z) = 0.10701 0.14843
#
# Static dielectric constant tensor:
#      x y z
#    x 1.881650 0.000000 -0.000550 
#    y 0.000000 1.731300 0.000000 
#    z -0.000550 0.000000 1.755180 
# 
# From -- ./inp_files/94068.got.cif
#   From: 2010.05.17/outbox.cif.g08.bks.cpg/sg13_48_cif.got.tgz:94068.got - 2010.06.03 16:44:36.
