data_PCOD9226295
_publ_section_title
;
Structure prediction by ZEFSAII (Michael W. Deem and Ramdas Pophale) SiO2 
 PCOD9226295
Probable space group: P 2/C
;
_chemical_formula_sum "Si O2"
_cell_formula_units_Z 24
_cell_length_a 16.977562
_cell_length_b 18.310595
_cell_length_c 5.460479
_cell_angle_alpha 90.000000
_cell_angle_beta 67.862755
_cell_angle_gamma 90.000000
_cell_volume 1572.362311
_symmetry_space_group_name_H-M "P 2/C"
_symmetry_group_IT_number 13
_symmetry_cell_setting 'monoclinic'
loop_
_space_group_symop_operation_xyz
x,y,z
-x,y,1/2-z
-x,-y,-z
x,-y,1/2+z
loop_
_atom_site_type_symbol
_atom_site_label
_atom_site_fract_x
_atom_site_fract_y
_atom_site_fract_z
Si Si1 0.370783 0.154348 0.749372
Si Si2 0.597152 0.703147 0.031660
Si Si3 0.500000 0.045321 0.750000
Si Si4 0.396289 0.459973 0.873887
Si Si5 0.500000 0.768600 0.750000
Si Si6 0.233775 0.953041 0.217492
Si Si7 0.964215 0.916739 0.041948
O O1 0.351080 0.228338 0.921921
O O2 0.414800 0.093864 0.866740
O O3 0.449258 0.178770 0.488344
O O4 0.297435 0.114554 0.685165
O O5 0.500000 0.706447 0.250000
O O6 0.631367 0.623819 0.054694
O O7 0.574014 0.717892 0.776735
O O8 0.500000 0.000000 0.500000
O O9 0.500000 0.459492 0.750000
O O10 0.370090 0.493357 0.643256
O O11 0.136995 0.924046 0.339116
O O12 0.245204 0.006361 0.442042
O O13 0.000000 0.882512 0.250000
O O14 0.000000 0.882547 0.750000
O O15 0.000000 0.000000 0.000000
#
# Coordination Sequence:
#
# PCOD9226295 Si02
#       7
#     4   4   2   4   2   4   4
#     4  11  23  34  47  65  86 128 162 197 240 273
#     4   9  19  32  48  60  87 123 151 190 235 285
#     4  12  23  36  46  57  82 116 162 204 235 252
#     4   9  18  28  45  70  87 104 143 192 231 267
#     4  10  19  36  48  57  88 128 164 186 237 280
#     4  12  23  34  50  72  91 113 160 207 234 276
#     4  10  16  33  52  69  89 112 136 186 246 299
#
# _framework density 15.263657
#
# number of rings (size 3 to 8) (size 9 to 14) (size 15 to 20)
#    0.000    1.667    5.833    1.500   10.500    0.000 
#    0.000    0.000    0.000    0.000    0.000    0.000 
#    0.000    0.000    0.000    0.000    0.000    5.000 
#
# Total GULP energy -133655.011468 kJ/mol
# GULP energy per Si atom -5568.958811 kJ/mol
# Density = 1.522892 g / cm^3
# Si number density = 15.263657 Si / 1000 Ang^3
#
#
#
# Elastic Constant Matrix: (Units=GPa)
#
#
# Indices 1 2 3 4 5 6 
#
# 1 68.4953 37.0027 18.8189 0.0000 11.9280 0.0000
# 2 37.0027 96.4120 34.0489 0.0000 16.1791 0.0000
# 3 18.8189 34.0489 77.1863 0.0000 28.4245 0.0000
# 4 0.0000 0.0000 0.0000 13.9042 0.0000 4.9454
# 5 11.9280 16.1791 28.4245 0.0000 24.6723 0.0000
# 6 0.0000 0.0000 0.0000 4.9454 0.0000 7.9248
#
#
#
# Elastic Compliance Matrix: (Units=1/GPa)
#
#
# Indices 1 2 3 4 5 6 
#
# 1 0.018938 -0.006454 0.000074 0.000000 -0.005009 0.000000
# 2 -0.006454 0.014628 -0.004335 0.000000 -0.001478 0.000000
# 3 0.000074 -0.004335 0.023997 0.000000 -0.024840 0.000000
# 4 0.000000 0.000000 0.000000 0.092438 0.000000 -0.057685
# 5 -0.005009 -0.001478 -0.024840 0.000000 0.072540 0.000000
# 6 0.000000 0.000000 0.000000 -0.057685 0.000000 0.162185
#
#
# Mechanical properties :
#
#
# Convention : Reuss Voigt Hill
#
# Bulk Modulus (GPa) = 27.67456 46.87051 37.27253
# Shear Modulus (GPa) = 11.95598 19.44846 15.70222
#
# Velocity S-wave (km/s) = 2.80178 3.57342 3.21087
# Velocity P-wave (km/s) = 5.35136 6.91373 6.18210
#
# Compressibility (1/GPa) = 0.03613427
#
# Stress axis : x y z
#
# Youngs Moduli (GPa) = 52.80384 68.36121 41.67111
#
# Poissons Ratio (x) = 0.44121 -0.00310
# Poissons Ratio (y) = 0.34080 0.18064
# Poissons Ratio (z) = -0.00393 0.29635
#
# Static dielectric constant tensor:
#      x y z
#    x 2.562300 0.000000 3.742710 
#    y 0.000000 1.530130 0.000000 
#    z 3.742710 0.000000 14.666790 
# 
# From -- ./inp_files/5123.got.cif
#   From: 2010.05.17/outbox.cif.g08.bks.cpg/sg13_3_cif.got.tgz:5123.got - 2010.06.03 16:44:36.
