data_PCOD9226706
_publ_section_title
;
Structure prediction by ZEFSAII (Michael W. Deem and Ramdas Pophale) SiO2 
 PCOD9226706
Probable space group: P 2/C
;
_chemical_formula_sum "Si O2"
_cell_formula_units_Z 22
_cell_length_a 7.304698
_cell_length_b 25.698951
_cell_length_c 5.362804
_cell_angle_alpha 90.000000
_cell_angle_beta 109.184397
_cell_angle_gamma 90.000000
_cell_volume 950.814652
_symmetry_space_group_name_H-M "P 2/C"
_symmetry_group_IT_number 13
_symmetry_cell_setting 'monoclinic'
loop_
_space_group_symop_operation_xyz
x,y,z
-x,y,1/2-z
-x,-y,-z
x,-y,1/2+z
loop_
_atom_site_type_symbol
_atom_site_label
_atom_site_fract_x
_atom_site_fract_y
_atom_site_fract_z
Si Si1 0.274577 0.519638 0.937541
Si Si2 0.768933 0.969925 0.660300
Si Si3 0.500000 0.696645 0.750000
Si Si4 0.500000 0.816534 0.250000
Si Si5 0.712407 0.361550 0.968041
Si Si6 0.500000 0.880845 0.750000
Si Si7 0.799230 0.741184 0.267143
O O1 0.196265 0.516351 0.623052
O O2 0.500000 0.500000 0.000000
O O3 0.242663 0.578113 0.019031
O O4 0.668271 0.918231 0.717823
O O5 0.000000 0.963645 0.750000
O O6 0.717943 0.987907 0.355424
O O7 0.665033 0.657707 0.722229
O O8 0.373090 0.731275 0.508271
O O9 0.446448 0.848244 0.477187
O O10 0.691092 0.781559 0.398593
O O11 0.500000 0.356657 0.750000
O O12 0.838215 0.315796 0.905147
O O13 0.000000 0.761036 0.250000
#
# Coordination Sequence:
#
# PCOD9226706 Si02
#       7
#     4   4   2   2   4   2   4
#     4  10  18  28  51  90 122 162 203 249 338 411
#     4  10  21  40  68 101 137 181 231 274 323 393
#     4  10  19  40  66  91 123 158 224 279 328 402
#     4  12  26  45  64  99 135 179 230 282 344 414
#     4  10  19  34  60  89 122 162 220 272 319 412
#     4  12  25  41  68  98 142 179 222 285 342 390
#     4  11  25  44  66  93 128 175 230 288 338 400
#
# _framework density 23.138055000000001
#
# number of rings (size 3 to 8) (size 9 to 14) (size 15 to 20)
#    0.000    1.455    4.545    3.273    2.545    2.182 
#    0.000    0.000    0.000    1.091    0.000    0.000 
#    0.000    0.000    0.000    0.000    0.000    0.000 
#
# Total GULP energy -122646.184958 kJ/mol
# GULP energy per Si atom -5574.826589 kJ/mol
# Density = 2.308539 g / cm^3
# Si number density = 23.138055 Si / 1000 Ang^3
#
#
#
# Elastic Constant Matrix: (Units=GPa)
#
#
# Indices 1 2 3 4 5 6 
#
# 1 133.2288 46.7636 24.6421 0.0000 -6.7178 0.0000
# 2 46.7636 104.3998 9.1692 0.0000 -16.7635 0.0000
# 3 24.6421 9.1692 61.4872 0.0000 -32.0027 0.0000
# 4 0.0000 0.0000 0.0000 77.8384 0.0000 -9.4807
# 5 -6.7178 -16.7635 -32.0027 0.0000 32.6819 0.0000
# 6 0.0000 0.0000 0.0000 -9.4807 0.0000 -25.2120
#
#
#
# Elastic Compliance Matrix: (Units=1/GPa)
#
#
# Indices 1 2 3 4 5 6 
#
# 1 0.010322 -0.005230 -0.007442 0.000000 -0.007848 0.000000
# 2 -0.005230 0.013282 0.006326 0.000000 0.011932 0.000000
# 3 -0.007442 0.006326 0.039147 0.000000 0.040048 0.000000
# 4 0.000000 0.000000 0.000000 0.012284 0.000000 -0.004619
# 5 -0.007848 0.011932 0.040048 0.000000 0.074321 0.000000
# 6 0.000000 0.000000 0.000000 -0.004619 0.000000 -0.037927
#
#
# Mechanical properties :
#
#
# Convention : Reuss Voigt Hill
#
# Bulk Modulus (GPa) = 19.97655 51.14063 35.55859
# Shear Modulus (GPa) = 35.50916 31.63105 33.57011
#
# Velocity S-wave (km/s) = 3.92173 3.70139 3.81315
# Velocity P-wave (km/s) = 5.39991 6.35747 5.89815
#
# Compressibility (1/GPa) = 0.05005869
#
# Stress axis : x y z
#
# Youngs Moduli (GPa) = 96.87653 75.29169 25.54479
#
# Poissons Ratio (x) = 0.39380 0.19010
# Poissons Ratio (y) = 0.50669 -0.16159
# Poissons Ratio (z) = 0.72092 -0.47628
#
# Static dielectric constant tensor:
#      x y z
#    x 1.944930 0.000000 0.059980 
#    y 0.000000 1.943820 0.000000 
#    z 0.059980 0.000000 2.156770 
# 
# From -- ./inp_files/2462.got.cif
#   From: 2010.05.17/outbox.cif.g08.bks.cpg/sg13_2_cif.got.tgz:2462.got - 2010.06.03 16:44:36.
