data_PCOD9226794
_publ_section_title
;
Structure prediction by ZEFSAII (Michael W. Deem and Ramdas Pophale) SiO2 
 PCOD9226794
Probable space group: P 2/C
;
_chemical_formula_sum "Si O2"
_cell_formula_units_Z 24
_cell_length_a 8.479402
_cell_length_b 17.399967
_cell_length_c 13.884332
_cell_angle_alpha 90.000000
_cell_angle_beta 28.845457
_cell_angle_gamma 90.000000
_cell_volume 988.302367
_symmetry_space_group_name_H-M "P 2/C"
_symmetry_group_IT_number 13
_symmetry_cell_setting 'monoclinic'
loop_
_space_group_symop_operation_xyz
x,y,z
-x,y,1/2-z
-x,-y,-z
x,-y,1/2+z
loop_
_atom_site_type_symbol
_atom_site_label
_atom_site_fract_x
_atom_site_fract_y
_atom_site_fract_z
Si Si1 0.151227 0.162318 0.880908
Si Si2 0.113079 0.882031 0.784435
Si Si3 0.858319 0.327434 0.605886
Si Si4 0.266916 0.459372 0.469891
Si Si5 0.519566 0.015219 0.852440
Si Si6 0.132612 0.386512 0.275235
O O1 0.500000 0.168361 0.750000
O O2 0.109824 0.246027 0.856690
O O3 0.204022 0.083815 0.793287
O O4 0.898221 0.155820 0.104654
O O5 0.423119 0.938267 0.617524
O O6 0.000000 0.835680 0.750000
O O7 0.817545 0.943310 0.946277
O O8 0.500000 0.335331 0.750000
O O9 0.973620 0.400228 0.605219
O O10 0.098847 0.331432 0.384767
O O11 0.500000 0.466505 0.250000
O O12 0.505106 0.421577 0.421001
O O13 0.108573 0.540577 0.578809
O O14 0.500000 0.992641 0.750000
O O15 0.000000 0.348728 0.250000
#
# Coordination Sequence:
#
# PCOD9226794 Si02
#       6
#     4   4   4   4   4   4
#     4   8  17  32  51  70  97 135 171 200 244 304
#     4  10  18  30  51  77 102 128 163 212 256 295
#     4  10  19  35  55  72  98 140 177 209 249 301
#     4  10  20  35  54  77 101 134 174 206 245 308
#     4   9  17  32  50  72  98 133 171 202 244 303
#     4  11  21  34  54  80 106 130 163 213 259 299
#
# _framework density 24.284065999999999
#
# number of rings (size 3 to 8) (size 9 to 14) (size 15 to 20)
#    0.000    2.667    0.000    6.500    0.000    0.667 
#    0.000    7.500    0.000    9.000    0.000    2.333 
#    0.000    0.000    0.000    0.000    0.000    0.000 
#
# Total GULP energy -133869.304875 kJ/mol
# GULP energy per Si atom -5577.887703 kJ/mol
# Density = 2.422879 g / cm^3
# Si number density = 24.284066 Si / 1000 Ang^3
#
#
#
# Elastic Constant Matrix: (Units=GPa)
#
#
# Indices 1 2 3 4 5 6 
#
# 1 58.6640 6.9711 0.2655 0.0000 -6.5284 0.0000
# 2 6.9711 120.2247 13.4235 0.0000 -8.6096 0.0000
# 3 0.2655 13.4235 41.6170 0.0000 -11.8487 0.0000
# 4 0.0000 0.0000 0.0000 2.8725 0.0000 2.9013
# 5 -6.5284 -8.6096 -11.8487 0.0000 27.0411 0.0000
# 6 0.0000 0.0000 0.0000 2.9013 0.0000 4.6352
#
#
#
# Elastic Compliance Matrix: (Units=1/GPa)
#
#
# Indices 1 2 3 4 5 6 
#
# 1 0.017658 -0.000857 0.001485 0.000000 0.004641 0.000000
# 2 -0.000857 0.008743 -0.002378 0.000000 0.001535 0.000000
# 3 0.001485 -0.002378 0.028189 0.000000 0.011953 0.000000
# 4 0.000000 0.000000 0.000000 0.946583 0.000000 -0.592498
# 5 0.004641 0.001535 0.011953 0.000000 0.043828 0.000000
# 6 0.000000 0.000000 0.000000 -0.592498 0.000000 0.586604
#
#
# Mechanical properties :
#
#
# Convention : Reuss Voigt Hill
#
# Bulk Modulus (GPa) = 19.57307 29.09176 24.33241
# Shear Modulus (GPa) = 3.02639 20.23279 11.62959
#
# Velocity S-wave (km/s) = 1.11756 2.88960 2.19075
# Velocity P-wave (km/s) = 3.12135 4.81029 4.05473
#
# Compressibility (1/GPa) = 0.05109061
#
# Stress axis : x y z
#
# Youngs Moduli (GPa) = 56.63205 114.37918 35.47445
#
# Poissons Ratio (x) = 0.09806 -0.05269
# Poissons Ratio (y) = 0.04855 0.08434
# Poissons Ratio (z) = -0.08411 0.27194
#
# Static dielectric constant tensor:
#      x y z
#    x 2.042780 0.000000 0.117770 
#    y 0.000000 1.952680 0.000000 
#    z 0.117770 0.000000 1.987620 
# 
# From -- ./inp_files/48051.got.cif
#   From: 2010.05.17/outbox.cif.g08.bks.cpg/sg13_25_cif.got.tgz:48051.got - 2010.06.03 16:44:36.
