data_PCOD9226842
_publ_section_title
;
Structure prediction by ZEFSAII (Michael W. Deem and Ramdas Pophale) SiO2 
 PCOD9226842
Probable space group: P 2/C
;
_chemical_formula_sum "Si O2"
_cell_formula_units_Z 22
_cell_length_a 7.808446
_cell_length_b 15.010167
_cell_length_c 8.473993
_cell_angle_alpha 90.000000
_cell_angle_beta 76.271931
_cell_angle_gamma 90.000000
_cell_volume 964.830622
_symmetry_space_group_name_H-M "P 2/C"
_symmetry_group_IT_number 13
_symmetry_cell_setting 'monoclinic'
loop_
_space_group_symop_operation_xyz
x,y,z
-x,y,1/2-z
-x,-y,-z
x,-y,1/2+z
loop_
_atom_site_type_symbol
_atom_site_label
_atom_site_fract_x
_atom_site_fract_y
_atom_site_fract_z
Si Si1 0.570311 0.285410 0.945369
Si Si2 0.706177 0.413819 0.160109
Si Si3 0.500000 0.005112 0.250000
Si Si4 0.134792 0.230704 0.856527
Si Si5 0.670228 0.878084 0.950528
Si Si6 0.771724 0.399252 0.498466
O O1 0.681092 0.242305 0.779689
O O2 0.453591 0.207931 0.046772
O O3 0.429598 0.362733 0.933720
O O4 0.699650 0.331000 0.042644
O O5 0.500000 0.431069 0.250000
O O6 0.798644 0.396135 0.305712
O O7 0.781150 0.501518 0.061270
O O8 0.654424 0.065757 0.293791
O O9 0.583575 0.942658 0.099310
O O10 0.159827 0.163148 0.997436
O O11 0.107858 0.329164 0.934726
O O12 0.000000 0.204196 0.750000
#
# Coordination Sequence:
#
# PCOD9226842 Si02
#       6
#     4   4   2   4   4   4
#     4  10  19  34  56  82 112 146 188 232 280 325
#     4  10  18  30  56  86 110 140 194 245 277 316
#     4  10  20  36  66  90 108 134 182 240 284 334
#     4  11  22  38  55  79 118 158 187 222 275 336
#     4  10  20  37  62  87 113 139 183 230 287 329
#     4  10  19  33  55  82 109 147 193 238 276 320
#
# _framework density 22.801929000000001
#
# number of rings (size 3 to 8) (size 9 to 14) (size 15 to 20)
#    0.000    1.818    1.818    6.000    6.364    0.000 
#    0.000    5.455    0.000    0.000    0.000    0.000 
#    0.000    0.000    0.000    0.000    0.000    0.000 
#
# Total GULP energy -122886.166070 kJ/mol
# GULP energy per Si atom -5585.734821 kJ/mol
# Density = 2.275003 g / cm^3
# Si number density = 22.801929 Si / 1000 Ang^3
#
#
#
# Elastic Constant Matrix: (Units=GPa)
#
#
# Indices 1 2 3 4 5 6 
#
# 1 83.1420 5.0038 14.4189 0.0000 23.7861 0.0000
# 2 5.0038 104.0277 32.4929 0.0000 21.5678 0.0000
# 3 14.4189 32.4929 81.7213 0.0000 29.8200 0.0000
# 4 0.0000 0.0000 0.0000 24.7206 0.0000 7.6404
# 5 23.7861 21.5678 29.8200 0.0000 25.5561 0.0000
# 6 0.0000 0.0000 0.0000 7.6404 0.0000 -0.1723
#
#
#
# Elastic Compliance Matrix: (Units=1/GPa)
#
#
# Indices 1 2 3 4 5 6 
#
# 1 0.018109 0.002777 0.004713 0.000000 -0.024698 0.000000
# 2 0.002777 0.012235 -0.001121 0.000000 -0.011603 0.000000
# 3 0.004713 -0.001121 0.022824 0.000000 -0.030073 0.000000
# 4 0.000000 0.000000 0.000000 0.002751 0.000000 0.121983
# 5 -0.024698 -0.011603 -0.030073 0.000000 0.106999 0.000000
# 6 0.000000 0.000000 0.000000 0.121983 0.000000 -0.394677
#
#
# Mechanical properties :
#
#
# Convention : Reuss Voigt Hill
#
# Bulk Modulus (GPa) = 15.17296 41.41356 28.29326
# Shear Modulus (GPa) = -22.46903 24.48592 1.00844
#
# Velocity S-wave (km/s) = -3.14251 3.28052 0.66575
# Velocity P-wave (km/s) = 2.54922 5.70534 3.60918
#
# Compressibility (1/GPa) = 0.06590674
#
# Stress axis : x y z
#
# Youngs Moduli (GPa) = 55.22135 81.73334 43.81273
#
# Poissons Ratio (x) = -0.22701 -0.20648
# Poissons Ratio (y) = -0.15338 0.04911
# Poissons Ratio (z) = -0.26024 0.09162
#
# Static dielectric constant tensor:
#      x y z
#    x 1.923840 0.000000 0.033080 
#    y 0.000000 1.827570 0.000000 
#    z 0.033080 0.000000 1.908390 
# 
# From -- ./inp_files/12266.got.cif
#   From: 2010.05.17/outbox.cif.g08.bks.cpg/sg13_7_cif.got.tgz:12266.got - 2010.06.03 16:44:36.
