data_PCOD9226058
_publ_section_title
;
Structure prediction by ZEFSAII (Michael W. Deem and Ramdas Pophale) SiO2 
 PCOD9226058
Probable space group: P 2/C
;
_chemical_formula_sum "Si O2"
_cell_formula_units_Z 28
_cell_length_a 30.983827
_cell_length_b 8.710273
_cell_length_c 30.513499
_cell_angle_alpha 90.000000
_cell_angle_beta 9.996160
_cell_angle_gamma 90.000000
_cell_volume 1429.433522
_symmetry_space_group_name_H-M "P 2/C"
_symmetry_group_IT_number 13
_symmetry_cell_setting 'monoclinic'
loop_
_space_group_symop_operation_xyz
x,y,z
-x,y,1/2-z
-x,-y,-z
x,-y,1/2+z
loop_
_atom_site_type_symbol
_atom_site_label
_atom_site_fract_x
_atom_site_fract_y
_atom_site_fract_z
Si Si1 0.000000 0.596593 0.250000
Si Si2 0.329173 0.821816 0.878074
Si Si3 0.500000 0.403432 0.750000
Si Si4 0.996380 0.100832 0.121585
Si Si5 0.489041 0.822418 0.992477
Si Si6 0.496334 0.899185 0.885699
Si Si7 0.170824 0.821790 0.536423
Si Si8 0.010957 0.177584 0.470563
O O1 0.907062 0.711008 0.381076
O O2 0.750000 0.500012 0.489544
O O3 0.500000 0.798714 0.750000
O O4 0.464555 0.796569 0.696546
O O5 0.249997 0.000012 0.958396
O O6 0.592940 0.289016 0.695198
O O7 0.035447 0.203455 0.125653
O O8 0.964195 0.176626 0.106442
O O9 0.750038 0.999994 0.375702
O O10 0.250038 0.000023 0.863957
O O11 0.247455 0.750988 0.256068
O O12 0.464188 0.823381 0.965173
O O13 0.747455 0.750989 0.749020
O O14 0.500000 0.000000 0.000000
O O15 0.000000 0.798688 0.750000
O O16 0.000000 0.000000 0.500000
#
# Coordination Sequence:
#
# PCOD9226058 Si02
#       8
#     2   4   2   4   4   4   4   4
#     4  12  26  44  64  84 118 166 206 250 302 362
#     4  11  23  39  62  89 123 157 201 253 309 359
#     4  12  26  44  64  84 118 166 206 250 302 362
#     4  11  20  29  50  79 113 157 192 238 295 362
#     4  10  15  27  42  67 109 156 186 224 290 359
#     4  11  20  29  50  79 113 157 192 238 295 362
#     4  11  23  39  62  89 123 157 201 253 309 359
#     4  10  15  27  42  67 109 156 186 224 290 359
#
# _framework density 19.588179
#
# number of rings (size 3 to 8) (size 9 to 14) (size 15 to 20)
#    0.000    1.143    8.571    0.857    4.000    0.000 
#    0.000    0.000    0.000    0.000    0.000    0.000 
#    0.000    6.857    0.000    0.000    0.000    0.000 
#
# Total GULP energy -156074.774618 kJ/mol
# GULP energy per Si atom -5574.099093 kJ/mol
# Density = 1.954360 g / cm^3
# Si number density = 19.588179 Si / 1000 Ang^3
#
#
#
# Elastic Constant Matrix: (Units=GPa)
#
#
# Indices 1 2 3 4 5 6 
#
# 1 178.8982 20.8881 47.8171 0.0000 8.4102 0.0000
# 2 20.8881 57.9294 34.7288 0.0000 -1.8567 0.0000
# 3 47.8171 34.7288 167.2563 0.0000 -6.8277 0.0000
# 4 0.0000 0.0000 0.0000 16.7562 0.0000 -4.7585
# 5 8.4102 -1.8567 -6.8277 0.0000 36.2751 0.0000
# 6 0.0000 0.0000 0.0000 -4.7585 0.0000 -18.8696
#
#
#
# Elastic Compliance Matrix: (Units=1/GPa)
#
#
# Indices 1 2 3 4 5 6 
#
# 1 0.006257 -0.001368 -0.001579 0.000000 -0.001818 0.000000
# 2 -0.001368 0.020018 -0.003739 0.000000 0.000638 0.000000
# 3 -0.001579 -0.003739 0.007270 0.000000 0.001543 0.000000
# 4 0.000000 0.000000 0.000000 0.055691 0.000000 -0.014044
# 5 -0.001818 0.000638 0.001543 0.000000 0.028312 0.000000
# 6 0.000000 0.000000 0.000000 -0.014044 0.000000 -0.049454
#
#
# Mechanical properties :
#
#
# Convention : Reuss Voigt Hill
#
# Bulk Modulus (GPa) = 49.57335 67.88354 58.72844
# Shear Modulus (GPa) = 56.69577 26.87565 41.78571
#
# Velocity S-wave (km/s) = 5.38579 3.70812 4.62368
# Velocity P-wave (km/s) = 8.00240 7.28451 7.65188
#
# Compressibility (1/GPa) = 0.02017213
#
# Stress axis : x y z
#
# Youngs Moduli (GPa) = 159.82138 49.95552 137.55714
#
# Poissons Ratio (x) = 0.06833 0.21721
# Poissons Ratio (y) = 0.21860 0.51438
# Poissons Ratio (z) = 0.25236 0.18680
#
# Static dielectric constant tensor:
#      x y z
#    x 1.703610 0.000000 -0.011490 
#    y 0.000000 1.695150 0.000000 
#    z -0.011490 0.000000 1.789120 
# 
# From -- ./inp_files/98073.got.cif
#   From: 2010.05.17/outbox.cif.g08.bks.cpg/sg13_50_cif.got.tgz:98073.got - 2010.06.03 16:44:36.
