data_PCOD9226719
_publ_section_title
;
Structure prediction by ZEFSAII (Michael W. Deem and Ramdas Pophale) SiO2 
 PCOD9226719
Probable space group: P 2/C
;
_chemical_formula_sum "Si O2"
_cell_formula_units_Z 20
_cell_length_a 13.543963
_cell_length_b 15.836643
_cell_length_c 5.449012
_cell_angle_alpha 90.000000
_cell_angle_beta 77.765866
_cell_angle_gamma 90.000000
_cell_volume 1142.220700
_symmetry_space_group_name_H-M "P 2/C"
_symmetry_group_IT_number 13
_symmetry_cell_setting 'monoclinic'
loop_
_space_group_symop_operation_xyz
x,y,z
-x,y,1/2-z
-x,-y,-z
x,-y,1/2+z
loop_
_atom_site_type_symbol
_atom_site_label
_atom_site_fract_x
_atom_site_fract_y
_atom_site_fract_z
Si Si1 0.896276 0.266564 0.454719
Si Si2 0.778911 0.122138 0.325977
Si Si3 0.884291 0.465082 0.547619
Si Si4 0.112030 0.890078 0.238581
Si Si5 0.541997 0.096393 0.477857
O O1 0.805551 0.221479 0.352629
O O2 0.886122 0.364906 0.509809
O O3 0.898185 0.210696 0.700354
O O4 0.000000 0.250614 0.250000
O O5 0.839771 0.082037 0.525978
O O6 0.662521 0.098957 0.411900
O O7 0.820342 0.099165 0.036844
O O8 0.837569 0.491825 0.831520
O O9 0.000000 0.500000 0.500000
O O10 0.000000 0.924138 0.250000
O O11 0.500000 0.136046 0.750000
O O12 0.500000 0.000000 0.500000
O O13 0.500000 0.136177 0.250000
#
# Coordination Sequence:
#
# PCOD9226719 Si02
#       5
#     4   4   4   4   4
#     4  10  19  29  47  69 112 145 184 211 249 301
#     4  10  20  30  52  78 104 137 179 213 267 314
#     4  10  20  25  39  61  99 151 185 206 244 282
#     4  10  18  29  47  75 109 143 171 209 246 307
#     4  10  21  39  60  82 104 129 166 226 291 324
#
# _framework density 17.509751999999999
#
# number of rings (size 3 to 8) (size 9 to 14) (size 15 to 20)
#    1.200    0.800    4.000    1.800    5.600    0.000 
#    0.000    0.000    0.000    0.000    0.000   95.200 
#    0.000    4.800    0.000    0.000    0.000    0.000 
#
# Total GULP energy -111371.993438 kJ/mol
# GULP energy per Si atom -5568.599672 kJ/mol
# Density = 1.746990 g / cm^3
# Si number density = 17.509752 Si / 1000 Ang^3
#
#
#
# Elastic Constant Matrix: (Units=GPa)
#
#
# Indices 1 2 3 4 5 6 
#
# 1 116.7633 24.0726 52.2848 0.0000 -11.0014 0.0000
# 2 24.0726 117.5504 17.5701 0.0000 -3.2133 0.0000
# 3 52.2848 17.5701 183.1880 0.0000 -5.1022 0.0000
# 4 0.0000 0.0000 0.0000 78.3084 0.0000 10.3351
# 5 -11.0014 -3.2133 -5.1022 0.0000 29.1976 0.0000
# 6 0.0000 0.0000 0.0000 10.3351 0.0000 9.0050
#
#
#
# Elastic Compliance Matrix: (Units=1/GPa)
#
#
# Indices 1 2 3 4 5 6 
#
# 1 0.010433 -0.001639 -0.002729 0.000000 0.003274 0.000000
# 2 -0.001639 0.008907 -0.000378 0.000000 0.000297 0.000000
# 3 -0.002729 -0.000378 0.006275 0.000000 0.000027 0.000000
# 4 0.000000 0.000000 0.000000 0.015050 0.000000 -0.017273
# 5 0.003274 0.000297 0.000027 0.000000 0.035520 0.000000
# 6 0.000000 0.000000 0.000000 -0.017273 0.000000 0.130873
#
#
# Mechanical properties :
#
#
# Convention : Reuss Voigt Hill
#
# Bulk Modulus (GPa) = 62.02797 67.26187 64.64492
# Shear Modulus (GPa) = 22.53018 44.87381 33.70199
#
# Velocity S-wave (km/s) = 3.59098 5.06789 4.39196
# Velocity P-wave (km/s) = 7.25915 8.52890 7.91951
#
# Compressibility (1/GPa) = 0.01612176
#
# Stress axis : x y z
#
# Youngs Moduli (GPa) = 95.85112 112.26758 159.36551
#
# Poissons Ratio (x) = 0.18401 0.43496
# Poissons Ratio (y) = 0.15711 0.06028
# Poissons Ratio (z) = 0.26161 0.04247
#
# Static dielectric constant tensor:
#      x y z
#    x 1.538430 0.000000 0.040320 
#    y 0.000000 1.605930 0.000000 
#    z 0.040320 0.000000 1.581940 
# 
# From -- ./inp_files/3450.got.cif
#   From: 2010.05.17/outbox.cif.g08.bks.cpg/sg13_2_cif.got.tgz:3450.got - 2010.06.03 16:44:36.
