data_PCOD9226723
_publ_section_title
;
Structure prediction by ZEFSAII (Michael W. Deem and Ramdas Pophale) SiO2 
 PCOD9226723
Probable space group: P 2/C
;
_chemical_formula_sum "Si O2"
_cell_formula_units_Z 24
_cell_length_a 12.268889
_cell_length_b 21.463214
_cell_length_c 5.050574
_cell_angle_alpha 90.000000
_cell_angle_beta 86.783557
_cell_angle_gamma 90.000000
_cell_volume 1327.871499
_symmetry_space_group_name_H-M "P 2/C"
_symmetry_group_IT_number 13
_symmetry_cell_setting 'monoclinic'
loop_
_space_group_symop_operation_xyz
x,y,z
-x,y,1/2-z
-x,-y,-z
x,-y,1/2+z
loop_
_atom_site_type_symbol
_atom_site_label
_atom_site_fract_x
_atom_site_fract_y
_atom_site_fract_z
Si Si1 0.749504 0.331259 0.773640
Si Si2 0.881849 0.214216 0.661602
Si Si3 0.626919 0.721224 0.793173
Si Si4 0.126646 0.542327 0.205158
Si Si5 0.771608 0.166149 0.178008
Si Si6 0.874811 0.958479 0.806906
O O1 0.853124 0.286166 0.712428
O O2 0.662378 0.308459 0.566990
O O3 0.790831 0.401495 0.752060
O O4 0.698173 0.314777 0.063562
O O5 0.861187 0.198386 0.359692
O O6 0.000000 0.197721 0.750000
O O7 0.798637 0.177443 0.866719
O O8 0.500000 0.715152 0.750000
O O9 0.664799 0.793757 0.767348
O O10 0.141776 0.486822 0.413559
O O11 0.000000 0.563335 0.250000
O O12 0.787153 0.094140 0.247007
O O13 0.000000 0.934582 0.750000
O O14 0.864546 0.015940 0.604590
#
# Coordination Sequence:
#
# PCOD9226723 Si02
#       6
#     4   4   4   4   4   4
#     4  10  20  34  54  78 102 132 170 210 256 305
#     4  10  18  29  48  74 103 128 158 205 254 304
#     4  10  21  37  57  76  97 130 172 224 269 296
#     4  10  20  34  54  80 112 145 170 197 241 305
#     4  10  20  32  49  73  99 132 169 205 251 302
#     4  10  19  30  46  69 101 137 165 193 237 300
#
# _framework density 18.074038999999999
#
# number of rings (size 3 to 8) (size 9 to 14) (size 15 to 20)
#    0.000    2.000    0.000    4.500    0.000    1.333 
#    0.000    5.000    0.000   11.000    0.000    0.000 
#    0.000    0.000    0.000    0.000    0.000    0.000 
#
# Total GULP energy -133880.021962 kJ/mol
# GULP energy per Si atom -5578.334248 kJ/mol
# Density = 1.803290 g / cm^3
# Si number density = 18.074039 Si / 1000 Ang^3
#
#
#
# Elastic Constant Matrix: (Units=GPa)
#
#
# Indices 1 2 3 4 5 6 
#
# 1 39.5698 20.2652 -9.6366 0.0000 8.0201 0.0000
# 2 20.2652 65.4481 -10.0562 0.0000 0.4781 0.0000
# 3 -9.6366 -10.0562 58.6526 0.0000 9.2739 0.0000
# 4 0.0000 0.0000 0.0000 12.4993 0.0000 4.6911
# 5 8.0201 0.4781 9.2739 0.0000 15.2283 0.0000
# 6 0.0000 0.0000 0.0000 4.6911 0.0000 15.2187
#
#
#
# Elastic Compliance Matrix: (Units=1/GPa)
#
#
# Indices 1 2 3 4 5 6 
#
# 1 0.037433 -0.010141 0.008275 0.000000 -0.024436 0.000000
# 2 -0.010141 0.018517 0.000837 0.000000 0.004250 0.000000
# 3 0.008275 0.000837 0.021297 0.000000 -0.017354 0.000000
# 4 0.000000 0.000000 0.000000 0.090471 0.000000 -0.027888
# 5 -0.024436 0.004250 -0.017354 0.000000 0.088971 0.000000
# 6 0.000000 0.000000 0.000000 -0.027888 0.000000 0.074305
#
#
# Mechanical properties :
#
#
# Convention : Reuss Voigt Hill
#
# Bulk Modulus (GPa) = 13.29981 18.31280 15.80630
# Shear Modulus (GPa) = 13.96202 19.46247 16.71224
#
# Velocity S-wave (km/s) = 2.78239 3.28505 3.04411
# Velocity P-wave (km/s) = 4.20675 4.95407 4.59563
#
# Compressibility (1/GPa) = 0.07518903
#
# Stress axis : x y z
#
# Youngs Moduli (GPa) = 26.71424 54.00511 46.95590
#
# Poissons Ratio (x) = 0.54765 -0.38857
# Poissons Ratio (y) = 0.27090 -0.03929
# Poissons Ratio (z) = -0.22107 -0.04519
#
# Static dielectric constant tensor:
#      x y z
#    x 1.599160 0.000000 0.000590 
#    y 0.000000 1.626420 0.000000 
#    z 0.000590 0.000000 1.613360 
# 
# From -- ./inp_files/3626.got.cif
#   From: 2010.05.17/outbox.cif.g08.bks.cpg/sg13_2_cif.got.tgz:3626.got - 2010.06.03 16:44:36.
