data_PCOD9226616
_publ_section_title
;
Structure prediction by ZEFSAII (Michael W. Deem and Ramdas Pophale) SiO2 
 PCOD9226616
Probable space group: P 2/C
;
_chemical_formula_sum "Si O2"
_cell_formula_units_Z 28
_cell_length_a 12.013352
_cell_length_b 8.383766
_cell_length_c 16.563665
_cell_angle_alpha 90.000000
_cell_angle_beta 117.004462
_cell_angle_gamma 90.000000
_cell_volume 1486.358046
_symmetry_space_group_name_H-M "P 2/C"
_symmetry_group_IT_number 13
_symmetry_cell_setting 'monoclinic'
loop_
_space_group_symop_operation_xyz
x,y,z
-x,y,1/2-z
-x,-y,-z
x,-y,1/2+z
loop_
_atom_site_type_symbol
_atom_site_label
_atom_site_fract_x
_atom_site_fract_y
_atom_site_fract_z
Si Si1 0.198788 0.913489 0.567269
Si Si2 0.600116 0.104386 0.083336
Si Si3 0.284907 0.585734 0.150376
Si Si4 0.052538 0.381173 0.085496
Si Si5 0.363461 0.101415 0.747180
Si Si6 0.819065 0.786072 0.537552
Si Si7 0.439501 0.706553 0.644232
O O1 0.100834 0.780784 0.560355
O O2 0.321126 0.814866 0.580067
O O3 0.255895 0.012946 0.660502
O O4 0.146855 0.039189 0.486268
O O5 0.712605 0.172751 0.066890
O O6 0.538504 0.256474 0.107873
O O7 0.637713 0.982167 0.166868
O O8 0.500000 0.000000 0.000000
O O9 0.176704 0.474856 0.154147
O O10 0.334482 0.710923 0.231923
O O11 0.387532 0.468336 0.145808
O O12 0.235775 0.688631 0.057577
O O13 0.938468 0.319908 0.103494
O O14 0.000000 0.500000 0.000000
O O15 0.500000 0.086164 0.750000
O O16 0.500000 0.756661 0.750000
#
# Coordination Sequence:
#
# PCOD9226616 Si02
#       7
#     4   4   4   4   4   4   4
#     4  10  17  34  60  79 111 154 200 233 272 352
#     4  12  21  34  58  89 127 144 185 247 300 352
#     4   9  21  36  61  84 113 154 202 239 278 352
#     4   9  19  36  59  85 111 149 203 242 275 336
#     4  11  19  37  59  88 112 154 201 231 291 360
#     4  10  20  35  56  91 113 152 192 246 295 335
#     4  11  19  35  57  85 113 153 191 233 295 356
#
# _framework density 18.837990000000001
#
# number of rings (size 3 to 8) (size 9 to 14) (size 15 to 20)
#    0.000    1.714    4.286    1.714    0.000    0.571 
#    0.000    0.714    0.000    0.000    3.714    0.000 
#    0.000    0.000    0.000    0.000    0.000    0.000 
#
# Total GULP energy -155928.045846 kJ/mol
# GULP energy per Si atom -5568.858780 kJ/mol
# Density = 1.879511 g / cm^3
# Si number density = 18.837990 Si / 1000 Ang^3
#
#
#
# Elastic Constant Matrix: (Units=GPa)
#
#
# Indices 1 2 3 4 5 6 
#
# 1 137.1664 63.1228 34.0661 0.0000 -11.1966 0.0000
# 2 63.1228 133.9957 21.5414 0.0000 4.2348 0.0000
# 3 34.0661 21.5414 37.7924 0.0000 -7.4445 0.0000
# 4 0.0000 0.0000 0.0000 1.7067 0.0000 10.3897
# 5 -11.1966 4.2348 -7.4445 0.0000 14.3488 0.0000
# 6 0.0000 0.0000 0.0000 10.3897 0.0000 37.2945
#
#
#
# Elastic Compliance Matrix: (Units=1/GPa)
#
#
# Indices 1 2 3 4 5 6 
#
# 1 0.011607 -0.004663 -0.006404 0.000000 0.007111 0.000000
# 2 -0.004663 0.010484 -0.003451 0.000000 -0.008524 0.000000
# 3 -0.006404 -0.003451 0.037221 0.000000 0.015332 0.000000
# 4 0.000000 0.000000 0.000000 -0.841930 0.000000 0.234549
# 5 0.007111 -0.008524 0.015332 0.000000 0.085712 0.000000
# 6 0.000000 0.000000 0.000000 0.234549 0.000000 -0.038528
#
#
# Mechanical properties :
#
#
# Convention : Reuss Voigt Hill
#
# Bulk Modulus (GPa) = 33.03116 60.71278 46.87197
# Shear Modulus (GPa) = -7.18076 23.35159 8.08542
#
# Velocity S-wave (km/s) = -1.95451 3.52462 2.07398
# Velocity P-wave (km/s) = 3.53255 6.99019 5.53813
#
# Compressibility (1/GPa) = 0.03027445
#
# Stress axis : x y z
#
# Youngs Moduli (GPa) = 86.15231 95.38431 26.86688
#
# Poissons Ratio (x) = 0.44480 0.17206
# Poissons Ratio (y) = 0.40175 0.09273
# Poissons Ratio (z) = 0.55173 0.32920
#
# Static dielectric constant tensor:
#      x y z
#    x 1.622590 0.000000 0.009380 
#    y 0.000000 1.677100 0.000000 
#    z 0.009380 0.000000 1.682780 
# 
# From -- ./inp_files/50103.got.cif
#   From: 2010.05.17/outbox.cif.g08.bks.cpg/sg13_26_cif.got.tgz:50103.got - 2010.06.03 16:44:36.
