data_PCOD9226036
_publ_section_title
;
Structure prediction by ZEFSAII (Michael W. Deem and Ramdas Pophale) SiO2 
 PCOD9226036
Probable space group: P 2/C
;
_chemical_formula_sum "Si O2"
_cell_formula_units_Z 30
_cell_length_a 10.301968
_cell_length_b 8.353682
_cell_length_c 19.660870
_cell_angle_alpha 90.000000
_cell_angle_beta 62.764473
_cell_angle_gamma 90.000000
_cell_volume 1504.414413
_symmetry_space_group_name_H-M "P 2/C"
_symmetry_group_IT_number 13
_symmetry_cell_setting 'monoclinic'
loop_
_space_group_symop_operation_xyz
x,y,z
-x,y,1/2-z
-x,-y,-z
x,-y,1/2+z
loop_
_atom_site_type_symbol
_atom_site_label
_atom_site_fract_x
_atom_site_fract_y
_atom_site_fract_z
Si Si1 0.870766 0.326285 0.496206
Si Si2 0.727626 0.972113 0.081125
Si Si3 0.321040 0.769891 0.007823
Si Si4 0.554123 0.493297 0.591589
Si Si5 0.973023 0.398575 0.898900
Si Si6 0.231588 0.796670 0.290189
Si Si7 0.500000 0.445404 0.750000
Si Si8 0.590691 0.846901 0.378776
O O1 0.823097 0.142287 0.508615
O O2 0.718569 0.422642 0.545371
O O3 0.967265 0.350490 0.540456
O O4 0.949361 0.410282 0.413414
O O5 0.774929 0.925519 0.146451
O O6 0.557400 0.924479 0.113719
O O7 0.734486 0.148061 0.048368
O O8 0.370679 0.893607 0.053705
O O9 0.184467 0.678110 0.073040
O O10 0.447773 0.645126 0.956921
O O11 0.521795 0.544661 0.676551
O O12 0.447169 0.343446 0.606427
O O13 0.088446 0.314599 0.821922
O O14 0.361749 0.673432 0.278634
O O15 0.281932 0.869817 0.206639
#
# Coordination Sequence:
#
# PCOD9226036 Si02
#       8
#     4   4   4   4   4   4   2   4
#     4   8  15  30  52  72  98 132 166 212 247 308
#     4  10  18  34  53  74 100 138 179 210 253 309
#     4  11  22  30  48  83 111 132 167 220 260 309
#     4   9  17  32  52  75 100 132 175 215 253 295
#     4   9  17  30  50  78 100 125 172 212 260 298
#     4  10  17  33  59  72  92 136 183 213 250 311
#     4  10  14  32  54  76  90 132 174 216 250 294
#     4  10  19  35  54  71 103 142 177 209 262 311
#
# _framework density 19.941313000000001
#
# number of rings (size 3 to 8) (size 9 to 14) (size 15 to 20)
#    0.000    2.400    5.333    0.800    0.000    2.667 
#    2.400    0.000    0.000    0.000    0.000    5.600 
#    0.000    0.000    0.000    0.000    0.000    0.000 
#
# Total GULP energy -167016.770798 kJ/mol
# GULP energy per Si atom -5567.225693 kJ/mol
# Density = 1.989593 g / cm^3
# Si number density = 19.941313 Si / 1000 Ang^3
#
#
#
# Elastic Constant Matrix: (Units=GPa)
#
#
# Indices 1 2 3 4 5 6 
#
# 1 35.1419 -4.6012 11.8123 0.0000 -6.8914 0.0000
# 2 -4.6012 27.0468 3.9747 0.0000 -4.5368 0.0000
# 3 11.8123 3.9747 70.7707 0.0000 4.0639 0.0000
# 4 0.0000 0.0000 0.0000 14.0816 0.0000 1.6144
# 5 -6.8914 -4.5368 4.0639 0.0000 26.8088 0.0000
# 6 0.0000 0.0000 0.0000 1.6144 0.0000 15.5005
#
#
#
# Elastic Compliance Matrix: (Units=1/GPa)
#
#
# Indices 1 2 3 4 5 6 
#
# 1 0.034100 0.008695 -0.006827 0.000000 0.011272 0.000000
# 2 0.008695 0.040724 -0.004300 0.000000 0.009779 0.000000
# 3 -0.006827 -0.004300 0.015791 0.000000 -0.004876 0.000000
# 4 0.000000 0.000000 0.000000 0.071873 0.000000 -0.007485
# 5 0.011272 0.009779 -0.004876 0.000000 0.042593 0.000000
# 6 0.000000 0.000000 0.000000 -0.007485 0.000000 0.065294
#
#
# Mechanical properties :
#
#
# Convention : Reuss Voigt Hill
#
# Bulk Modulus (GPa) = 11.66164 17.25900 14.46032
# Shear Modulus (GPa) = 16.45698 19.39642 17.92670
#
# Velocity S-wave (km/s) = 2.87587 3.12216 3.00154
# Velocity P-wave (km/s) = 4.10952 4.65520 4.39084
#
# Compressibility (1/GPa) = 0.08575123
#
# Stress axis : x y z
#
# Youngs Moduli (GPa) = 29.32564 24.55531 63.32650
#
# Poissons Ratio (x) = -0.21351 0.43234
# Poissons Ratio (y) = -0.25499 0.27231
# Poissons Ratio (z) = 0.20021 0.10559
#
# Static dielectric constant tensor:
#      x y z
#    x 1.726040 0.000000 0.015180 
#    y 0.000000 1.746740 0.000000 
#    z 0.015180 0.000000 1.736000 
# 
# From -- ./inp_files/66273.got.cif
#   From: 2010.05.17/outbox.cif.g08.bks.cpg/sg13_34_cif.got.tgz:66273.got - 2010.06.03 16:44:36.
