data_PCOD9226710
_publ_section_title
;
Structure prediction by ZEFSAII (Michael W. Deem and Ramdas Pophale) SiO2 
 PCOD9226710
Probable space group: P 2/C
;
_chemical_formula_sum "Si O2"
_cell_formula_units_Z 30
_cell_length_a 13.115810
_cell_length_b 5.151553
_cell_length_c 20.365956
_cell_angle_alpha 90.000000
_cell_angle_beta 59.546846
_cell_angle_gamma 90.000000
_cell_volume 1186.226017
_symmetry_space_group_name_H-M "P 2/C"
_symmetry_group_IT_number 13
_symmetry_cell_setting 'monoclinic'
loop_
_space_group_symop_operation_xyz
x,y,z
-x,y,1/2-z
-x,-y,-z
x,-y,1/2+z
loop_
_atom_site_type_symbol
_atom_site_label
_atom_site_fract_x
_atom_site_fract_y
_atom_site_fract_z
Si Si1 0.785499 0.456011 0.473405
Si Si2 0.307529 0.043089 0.557539
Si Si3 0.525124 0.953385 0.882165
Si Si4 0.431686 0.450531 0.853781
Si Si5 0.972434 0.248818 0.114826
Si Si6 0.271892 0.610428 0.790472
Si Si7 0.000000 0.827065 0.750000
Si Si8 0.821857 0.110382 0.734491
O O1 0.744185 0.242896 0.433938
O O2 0.684131 0.454087 0.561515
O O3 0.909914 0.340522 0.458370
O O4 0.780957 0.735313 0.439751
O O5 0.366577 0.060643 0.609666
O O6 0.417395 0.058342 0.470440
O O7 0.521836 0.663665 0.853788
O O8 0.485493 0.165102 0.841768
O O9 0.378011 0.529861 0.801652
O O10 0.995243 0.333996 0.184300
O O11 0.851481 0.367961 0.127186
O O12 0.929509 0.951733 0.145648
O O13 0.272803 0.894550 0.758286
O O14 0.234759 0.388301 0.751774
O O15 0.886272 0.014341 0.779207
#
# Coordination Sequence:
#
# PCOD9226710 Si02
#       8
#     4   4   4   4   4   4   2   4
#     4  10  19  28  45  65  94 119 154 180 231 258
#     4   9  18  30  43  65  85 119 153 196 216 268
#     4   9  17  30  46  59  88 119 159 184 228 249
#     4  10  18  29  44  66  89 128 150 185 213 270
#     4   8  19  31  46  66  92 120 145 190 218 270
#     4   9  18  29  43  64  94 116 156 175 213 262
#     4   6  16  32  48  62  86 122 146 180 234 254
#     4   8  17  30  45  63  86 119 147 189 211 263
#
# _framework density 25.290292000000001
#
# number of rings (size 3 to 8) (size 9 to 14) (size 15 to 20)
#    1.600    1.333    0.000    1.600    1.867    5.867 
#    0.000    0.667    0.000    0.000    0.000    0.000 
#    0.000   43.733    0.000    0.000    0.000    0.000 
#
# Total GULP energy -167380.889346 kJ/mol
# GULP energy per Si atom -5579.362978 kJ/mol
# Density = 2.523273 g / cm^3
# Si number density = 25.290292 Si / 1000 Ang^3
#
#
#
# Elastic Constant Matrix: (Units=GPa)
#
#
# Indices 1 2 3 4 5 6 
#
# 1 117.9785 11.6991 6.4337 0.0000 -5.2088 0.0000
# 2 11.6991 104.2679 12.2181 0.0000 10.1316 0.0000
# 3 6.4337 12.2181 59.0131 0.0000 -4.9297 0.0000
# 4 0.0000 0.0000 0.0000 21.8285 0.0000 -5.0137
# 5 -5.2088 10.1316 -4.9297 0.0000 41.9503 0.0000
# 6 0.0000 0.0000 0.0000 -5.0137 0.0000 31.0857
#
#
#
# Elastic Compliance Matrix: (Units=1/GPa)
#
#
# Indices 1 2 3 4 5 6 
#
# 1 0.008667 -0.001020 -0.000629 0.000000 0.001248 0.000000
# 2 -0.001020 0.010247 -0.002250 0.000000 -0.002866 0.000000
# 3 -0.000629 -0.002250 0.017692 0.000000 0.002544 0.000000
# 4 0.000000 0.000000 0.000000 0.047574 0.000000 0.007673
# 5 0.001248 -0.002866 0.002544 0.000000 0.024984 0.000000
# 6 0.000000 0.000000 0.000000 0.007673 0.000000 0.033407
#
#
# Mechanical properties :
#
#
# Convention : Reuss Voigt Hill
#
# Bulk Modulus (GPa) = 34.71265 37.99571 36.35418
# Shear Modulus (GPa) = 31.25550 35.70015 33.47783
#
# Velocity S-wave (km/s) = 3.51931 3.76122 3.64227
# Velocity P-wave (km/s) = 5.50177 5.82399 5.66517
#
# Compressibility (1/GPa) = 0.02880794
#
# Stress axis : x y z
#
# Youngs Moduli (GPa) = 115.38407 97.58728 56.52164
#
# Poissons Ratio (x) = 0.09954 0.03557
# Poissons Ratio (y) = 0.11769 0.12716
# Poissons Ratio (z) = 0.07262 0.21955
#
# Static dielectric constant tensor:
#      x y z
#    x 1.999890 0.000000 -0.152820 
#    y 0.000000 1.918600 0.000000 
#    z -0.152820 0.000000 2.197710 
# 
# From -- ./inp_files/85814.got.cif
#   From: 2010.05.17/outbox.cif.g08.bks.cpg/sg13_43_cif.got.tgz:85814.got - 2010.06.03 16:44:36.
