data_PCOD9226605
_publ_section_title
;
Structure prediction by ZEFSAII (Michael W. Deem and Ramdas Pophale) SiO2 
 PCOD9226605
Probable space group: P 2/C
;
_chemical_formula_sum "Si O2"
_cell_formula_units_Z 24
_cell_length_a 12.551065
_cell_length_b 13.700489
_cell_length_c 20.528258
_cell_angle_alpha 90.000000
_cell_angle_beta 22.224496
_cell_angle_gamma 90.000000
_cell_volume 1335.156855
_symmetry_space_group_name_H-M "P 2/C"
_symmetry_group_IT_number 13
_symmetry_cell_setting 'monoclinic'
loop_
_space_group_symop_operation_xyz
x,y,z
-x,y,1/2-z
-x,-y,-z
x,-y,1/2+z
loop_
_atom_site_type_symbol
_atom_site_label
_atom_site_fract_x
_atom_site_fract_y
_atom_site_fract_z
Si Si1 0.680227 0.897007 0.711604
Si Si2 0.300898 0.406328 0.616419
Si Si3 0.788223 0.409650 0.125158
Si Si4 0.082309 0.287457 0.852644
Si Si5 0.503056 0.278625 0.391511
Si Si6 0.305336 0.881978 0.301716
O O1 0.500000 0.864151 0.750000
O O2 0.642460 0.823789 0.793137
O O3 0.998906 0.894975 0.506991
O O4 0.595767 0.009083 0.773884
O O5 0.500000 0.500000 0.500000
O O6 0.244029 0.372231 0.722300
O O7 0.450260 0.316596 0.493853
O O8 0.000000 0.424532 0.750000
O O9 0.500000 0.433678 0.250000
O O10 0.680240 0.363666 0.254016
O O11 0.000000 0.500000 0.000000
O O12 0.953768 0.325146 0.993029
O O13 0.269160 0.193641 0.763403
O O14 0.808793 0.267905 0.963228
O O15 0.500000 0.844122 0.250000
#
# Coordination Sequence:
#
# PCOD9226605 Si02
#       6
#     4   4   4   4   4   4
#     4  10  17  34  57  80 113 142 174 221 274 325
#     4  10  22  39  58  77 106 148 183 220 272 323
#     4  10  19  31  50  74 100 130 172 223 265 309
#     4  10  19  36  54  77 108 141 180 217 266 330
#     4  10  18  35  57  76 102 146 182 211 270 326
#     4  10  20  31  54  88 112 137 175 226 274 313
#
# _framework density 17.975415000000002
#
# number of rings (size 3 to 8) (size 9 to 14) (size 15 to 20)
#    0.000    2.000    3.333    1.500    0.000    0.667 
#    3.000    0.833    0.000    0.000    0.000    0.000 
#    0.000    0.000    0.000    0.000    0.000    0.000 
#
# Total GULP energy -133708.748388 kJ/mol
# GULP energy per Si atom -5571.197850 kJ/mol
# Density = 1.793450 g / cm^3
# Si number density = 17.975415 Si / 1000 Ang^3
#
#
#
# Elastic Constant Matrix: (Units=GPa)
#
#
# Indices 1 2 3 4 5 6 
#
# 1 32.7482 15.5373 20.5077 0.0000 1.3208 0.0000
# 2 15.5373 95.9058 23.7248 0.0000 -5.6453 0.0000
# 3 20.5077 23.7248 67.1914 0.0000 3.4214 0.0000
# 4 0.0000 0.0000 0.0000 56.4050 0.0000 17.9558
# 5 1.3208 -5.6453 3.4214 0.0000 15.3954 0.0000
# 6 0.0000 0.0000 0.0000 17.9558 0.0000 31.4683
#
#
#
# Elastic Compliance Matrix: (Units=1/GPa)
#
#
# Indices 1 2 3 4 5 6 
#
# 1 0.038995 -0.003889 -0.010404 0.000000 -0.002459 0.000000
# 2 -0.003889 0.012230 -0.003416 0.000000 0.005577 0.000000
# 3 -0.010404 -0.003416 0.019503 0.000000 -0.004694 0.000000
# 4 0.000000 0.000000 0.000000 0.021664 0.000000 -0.012361
# 5 -0.002459 0.005577 -0.004694 0.000000 0.068254 0.000000
# 6 0.000000 0.000000 0.000000 -0.012361 0.000000 0.038831
#
#
# Mechanical properties :
#
#
# Convention : Reuss Voigt Hill
#
# Bulk Modulus (GPa) = 28.31815 35.04279 31.68047
# Shear Modulus (GPa) = 20.27050 29.72545 24.99797
#
# Velocity S-wave (km/s) = 3.36174 4.07095 3.73322
# Velocity P-wave (km/s) = 5.55485 6.45244 6.02040
#
# Compressibility (1/GPa) = 0.03531305
#
# Stress axis : x y z
#
# Youngs Moduli (GPa) = 25.64427 81.76563 51.27375
#
# Poissons Ratio (x) = 0.31795 0.53343
# Poissons Ratio (y) = 0.09972 0.17513
# Poissons Ratio (z) = 0.26679 0.27927
#
# Static dielectric constant tensor:
#      x y z
#    x 1.610560 0.000000 -0.009880 
#    y 0.000000 1.681690 0.000000 
#    z -0.009880 0.000000 1.640830 
# 
# From -- ./inp_files/78710.got.cif
#   From: 2010.05.17/outbox.cif.g08.bks.cpg/sg13_40_cif.got.tgz:78710.got - 2010.06.03 16:44:36.
