data_PCOD9226708
_publ_section_title
;
Structure prediction by ZEFSAII (Michael W. Deem and Ramdas Pophale) SiO2 
 PCOD9226708
Probable space group: P 2/C
;
_chemical_formula_sum "Si O2"
_cell_formula_units_Z 28
_cell_length_a 12.906598
_cell_length_b 19.474857
_cell_length_c 5.535389
_cell_angle_alpha 90.000000
_cell_angle_beta 111.233651
_cell_angle_gamma 90.000000
_cell_volume 1296.886463
_symmetry_space_group_name_H-M "P 2/C"
_symmetry_group_IT_number 13
_symmetry_cell_setting 'monoclinic'
loop_
_space_group_symop_operation_xyz
x,y,z
-x,y,1/2-z
-x,-y,-z
x,-y,1/2+z
loop_
_atom_site_type_symbol
_atom_site_label
_atom_site_fract_x
_atom_site_fract_y
_atom_site_fract_z
Si Si1 0.311442 0.326836 0.050062
Si Si2 0.263432 0.714278 0.010249
Si Si3 0.500000 0.789854 0.250000
Si Si4 0.500000 0.210892 0.250000
Si Si5 0.374400 0.525727 0.438456
Si Si6 0.116870 0.072112 0.788395
Si Si7 0.660649 0.978051 0.516959
Si Si8 0.177379 0.861388 0.841824
O O1 0.260140 0.334886 0.273873
O O2 0.393930 0.261729 0.152788
O O3 0.233809 0.311642 0.753187
O O4 0.374556 0.395152 0.018848
O O5 0.391910 0.740566 0.146822
O O6 0.192959 0.781025 0.885036
O O7 0.493814 0.829676 0.496175
O O8 0.500000 0.500000 0.500000
O O9 0.323598 0.486034 0.627920
O O10 0.221262 0.021086 0.873169
O O11 0.115224 0.110178 0.528513
O O12 0.000000 0.036331 0.750000
O O13 0.134536 0.120826 0.037327
O O14 0.607296 0.001891 0.223988
O O15 0.702762 0.899835 0.542320
#
# Coordination Sequence:
#
# PCOD9226708 Si02
#       8
#     4   4   2   2   4   4   4   4
#     4  10  18  29  43  60  86 119 154 197 234 266
#     4  10  19  31  45  63  88 122 166 201 234 273
#     4   8  16  26  40  57  76 107 146 196 228 252
#     4   8  14  24  38  55  74 101 142 182 224 252
#     4  10  19  28  41  62  87 115 151 197 236 274
#     4  10  19  31  48  71  97 124 155 193 238 289
#     4   8  16  27  42  64  89 118 147 187 233 274
#     4  10  19  30  45  67  93 124 159 196 233 283
#
# _framework density 21.590171999999999
#
# number of rings (size 3 to 8) (size 9 to 14) (size 15 to 20)
#    0.000    2.571    0.000    3.000    0.000   10.857 
#    0.000    0.000    0.000    0.000    0.000    9.000 
#    0.000    0.000    0.000    0.000    0.000  180.000 
#
# Total GULP energy -156100.956080 kJ/mol
# GULP energy per Si atom -5575.034146 kJ/mol
# Density = 2.154103 g / cm^3
# Si number density = 21.590172 Si / 1000 Ang^3
#
#
#
# Elastic Constant Matrix: (Units=GPa)
#
#
# Indices 1 2 3 4 5 6 
#
# 1 59.8228 9.9765 31.1702 0.0000 -16.2818 0.0000
# 2 9.9765 60.2120 25.1516 0.0000 -5.0413 0.0000
# 3 31.1702 25.1516 209.4710 0.0000 -62.5553 0.0000
# 4 0.0000 0.0000 0.0000 28.7370 0.0000 -5.9392
# 5 -16.2818 -5.0413 -62.5553 0.0000 34.0612 0.0000
# 6 0.0000 0.0000 0.0000 -5.9392 0.0000 13.1227
#
#
#
# Elastic Compliance Matrix: (Units=1/GPa)
#
#
# Indices 1 2 3 4 5 6 
#
# 1 0.019581 -0.002535 0.000164 0.000000 0.009285 0.000000
# 2 -0.002535 0.017935 -0.002980 0.000000 -0.004030 0.000000
# 3 0.000164 -0.002980 0.011071 0.000000 0.019970 0.000000
# 4 0.000000 0.000000 0.000000 0.038389 0.000000 0.017375
# 5 0.009285 -0.004030 0.019970 0.000000 0.069876 0.000000
# 6 0.000000 0.000000 0.000000 0.017375 0.000000 0.084068
#
#
# Mechanical properties :
#
#
# Convention : Reuss Voigt Hill
#
# Bulk Modulus (GPa) = 26.39618 51.34470 38.87044
# Shear Modulus (GPa) = 18.92142 32.73135 25.82638
#
# Velocity S-wave (km/s) = 2.96360 3.89785 3.46238
# Velocity P-wave (km/s) = 4.89521 6.64009 5.83326
#
# Compressibility (1/GPa) = 0.03788427
#
# Stress axis : x y z
#
# Youngs Moduli (GPa) = 51.07072 55.75596 90.32610
#
# Poissons Ratio (x) = 0.14135 -0.01477
# Poissons Ratio (y) = 0.12948 0.26914
# Poissons Ratio (z) = -0.00835 0.16613
#
# Static dielectric constant tensor:
#      x y z
#    x 1.815940 0.000000 -0.016870 
#    y 0.000000 1.778800 0.000000 
#    z -0.016870 0.000000 1.851760 
# 
# From -- ./inp_files/5268.got.cif
#   From: 2010.05.17/outbox.cif.g08.bks.cpg/sg13_3_cif.got.tgz:5268.got - 2010.06.03 16:44:36.
