data_PCOD9226675
_publ_section_title
;
Structure prediction by ZEFSAII (Michael W. Deem and Ramdas Pophale) SiO2 
 PCOD9226675
Probable space group: P 2/C
;
_chemical_formula_sum "Si O2"
_cell_formula_units_Z 26
_cell_length_a 9.271420
_cell_length_b 11.220897
_cell_length_c 14.083706
_cell_angle_alpha 90.000000
_cell_angle_beta 131.837613
_cell_angle_gamma 90.000000
_cell_volume 1091.614684
_symmetry_space_group_name_H-M "P 2/C"
_symmetry_group_IT_number 13
_symmetry_cell_setting 'monoclinic'
loop_
_space_group_symop_operation_xyz
x,y,z
-x,y,1/2-z
-x,-y,-z
x,-y,1/2+z
loop_
_atom_site_type_symbol
_atom_site_label
_atom_site_fract_x
_atom_site_fract_y
_atom_site_fract_z
Si Si1 0.780636 0.839293 0.919115
Si Si2 0.000000 0.924601 0.750000
Si Si3 0.900312 0.528024 0.555300
Si Si4 0.573942 0.312350 0.953594
Si Si5 0.805872 0.089022 0.976189
Si Si6 0.227630 0.291200 0.265285
Si Si7 0.810071 0.285770 0.623805
O O1 0.701274 0.746378 0.807012
O O2 0.015117 0.847969 0.000795
O O3 0.731435 0.790387 0.001202
O O4 0.720157 0.977364 0.881957
O O5 0.099761 0.973963 0.888197
O O6 0.158631 0.835598 0.775815
O O7 0.688717 0.585970 0.448053
O O8 0.875488 0.410546 0.606660
O O9 0.000000 0.500000 0.500000
O O10 0.042277 0.623954 0.667532
O O11 0.658784 0.189108 0.948444
O O12 0.637335 0.338181 0.091600
O O13 0.344881 0.306641 0.861153
O O14 0.000000 0.225270 0.750000
#
# Coordination Sequence:
#
# PCOD9226675 Si02
#       7
#     4   2   4   4   4   4   4
#     4  10  20  38  62  96 126 164 208 270 330 387
#     4   8  14  30  62  94 112 162 206 260 308 386
#     4  12  21  42  68  96 130 166 216 269 332 389
#     4  11  22  42  68  95 127 174 222 269 319 393
#     4   9  18  36  67  92 122 163 218 264 330 383
#     4  10  17  38  68  92 123 160 219 265 320 384
#     4  12  27  41  59  92 137 176 218 263 331 384
#
# _framework density 23.817927999999998
#
# number of rings (size 3 to 8) (size 9 to 14) (size 15 to 20)
#    0.000    1.538    6.154    1.385    1.077    1.231 
#    0.000    4.615    6.769    0.000    0.000    0.000 
#    0.000    0.000    0.000    0.000    0.000    0.000 
#
# Total GULP energy -145186.096942 kJ/mol
# GULP energy per Si atom -5584.080652 kJ/mol
# Density = 2.376372 g / cm^3
# Si number density = 23.817928 Si / 1000 Ang^3
#
#
#
# Elastic Constant Matrix: (Units=GPa)
#
#
# Indices 1 2 3 4 5 6 
#
# 1 162.6965 25.4797 25.7962 0.0000 -0.9841 0.0000
# 2 25.4797 69.3554 -7.9420 0.0000 -10.9945 0.0000
# 3 25.7962 -7.9420 19.3779 0.0000 2.5320 0.0000
# 4 0.0000 0.0000 0.0000 11.4310 0.0000 -17.8270
# 5 -0.9841 -10.9945 2.5320 0.0000 29.9145 0.0000
# 6 0.0000 0.0000 0.0000 -17.8270 0.0000 28.8023
#
#
#
# Elastic Compliance Matrix: (Units=1/GPa)
#
#
# Indices 1 2 3 4 5 6 
#
# 1 0.009204 -0.005073 -0.014285 0.000000 -0.000353 0.000000
# 2 -0.005073 0.018733 0.013705 0.000000 0.005558 0.000000
# 3 -0.014285 0.013705 0.076488 0.000000 -0.001907 0.000000
# 4 0.000000 0.000000 0.000000 2.518142 0.000000 1.558588
# 5 -0.000353 0.005558 -0.001907 0.000000 0.035621 0.000000
# 6 0.000000 0.000000 0.000000 1.558588 0.000000 0.999398
#
#
# Mechanical properties :
#
#
# Convention : Reuss Voigt Hill
#
# Bulk Modulus (GPa) = 10.73916 37.56639 24.15277
# Shear Modulus (GPa) = 1.35138 27.90263 14.62701
#
# Velocity S-wave (km/s) = 0.75406 3.42643 2.48083
# Velocity P-wave (km/s) = 2.29713 5.60896 4.28586
#
# Compressibility (1/GPa) = 0.09311716
#
# Stress axis : x y z
#
# Youngs Moduli (GPa) = 108.65123 53.38289 13.07390
#
# Poissons Ratio (x) = 0.27081 0.18677
# Poissons Ratio (y) = 0.55119 -0.17917
# Poissons Ratio (z) = 1.55212 -0.73159
#
# Static dielectric constant tensor:
#      x y z
#    x 1.928730 0.000000 0.004580 
#    y 0.000000 1.904050 0.000000 
#    z 0.004580 0.000000 2.082220 
# 
# From -- ./inp_files/47044.got.cif
#   From: 2010.05.17/outbox.cif.g08.bks.cpg/sg13_24_cif.got.tgz:47044.got - 2010.06.03 16:44:36.
