data_PCOD9226340
_publ_section_title
;
Structure prediction by ZEFSAII (Michael W. Deem and Ramdas Pophale) SiO2 
 PCOD9226340
Probable space group: P 2/C
;
_chemical_formula_sum "Si O2"
_cell_formula_units_Z 24
_cell_length_a 16.834585
_cell_length_b 9.432784
_cell_length_c 19.932635
_cell_angle_alpha 90.000000
_cell_angle_beta 161.501072
_cell_angle_gamma 90.000000
_cell_volume 1004.290093
_symmetry_space_group_name_H-M "P 2/C"
_symmetry_group_IT_number 13
_symmetry_cell_setting 'monoclinic'
loop_
_space_group_symop_operation_xyz
x,y,z
-x,y,1/2-z
-x,-y,-z
x,-y,1/2+z
loop_
_atom_site_type_symbol
_atom_site_label
_atom_site_fract_x
_atom_site_fract_y
_atom_site_fract_z
Si Si1 0.240074 0.000186 0.242773
Si Si2 0.584734 0.811638 0.720706
Si Si3 0.867443 0.703404 0.351816
Si Si4 0.004765 0.572936 0.607220
Si Si5 0.500000 0.576548 0.750000
Si Si6 0.500000 0.936304 0.250000
Si Si7 0.030832 0.157676 0.196418
O O1 0.320318 0.836270 0.299321
O O2 0.401440 0.132716 0.344104
O O3 0.163887 0.040457 0.257021
O O4 0.000000 0.000000 0.000000
O O5 0.441909 0.679625 0.639238
O O6 0.493884 0.954088 0.683874
O O7 0.871279 0.768005 0.968250
O O8 0.936387 0.650953 0.482016
O O9 0.821924 0.561542 0.272959
O O10 0.744534 0.513969 0.428707
O O11 0.125930 0.685873 0.754500
O O12 0.745443 0.844598 0.441406
O O13 0.000000 0.129374 0.250000
#
# Coordination Sequence:
#
# PCOD9226340 Si02
#       7
#     4   4   4   4   2   2   4
#     4  10  16  35  60  86 117 162 208 245 301 371
#     4   9  16  31  60  87 117 153 205 253 298 355
#     4   9  16  30  59  85 106 163 212 236 299 379
#     4  10  18  32  52  86 121 151 204 252 299 369
#     4   9  19  28  54  96 114 152 208 246 302 368
#     4  11  19  36  62  88 120 162 198 262 306 356
#     4  12  24  37  60  95 126 158 209 261 311 359
#
# _framework density 23.897478
#
# number of rings (size 3 to 8) (size 9 to 14) (size 15 to 20)
#    0.000    2.000    6.667    0.500    0.000    0.000 
#    0.000    1.667    0.000    1.000    0.000    0.000 
#    0.000    0.000    0.000    0.000    0.000    0.000 
#
# Total GULP energy -133822.794094 kJ/mol
# GULP energy per Si atom -5575.949754 kJ/mol
# Density = 2.384309 g / cm^3
# Si number density = 23.897478 Si / 1000 Ang^3
#
#
#
# Elastic Constant Matrix: (Units=GPa)
#
#
# Indices 1 2 3 4 5 6 
#
# 1 140.4816 62.8475 -4.7254 0.0000 -15.8722 0.0000
# 2 62.8475 166.7409 15.4066 0.0000 -6.7075 0.0000
# 3 -4.7254 15.4066 39.3935 0.0000 -3.9183 0.0000
# 4 0.0000 0.0000 0.0000 39.5964 0.0000 -1.2592
# 5 -15.8722 -6.7075 -3.9183 0.0000 22.4131 0.0000
# 6 0.0000 0.0000 0.0000 -1.2592 0.0000 59.7854
#
#
#
# Elastic Compliance Matrix: (Units=1/GPa)
#
#
# Indices 1 2 3 4 5 6 
#
# 1 0.009563 -0.003649 0.003195 0.000000 0.006239 0.000000
# 2 -0.003649 0.007662 -0.003524 0.000000 -0.000907 0.000000
# 3 0.003195 -0.003524 0.027749 0.000000 0.006059 0.000000
# 4 0.000000 0.000000 0.000000 0.025272 0.000000 0.000532
# 5 0.006239 -0.000907 0.006059 0.000000 0.049823 0.000000
# 6 0.000000 0.000000 0.000000 0.000532 0.000000 0.016738
#
#
# Mechanical properties :
#
#
# Convention : Reuss Voigt Hill
#
# Bulk Modulus (GPa) = 27.01452 54.85260 40.93356
# Shear Modulus (GPa) = 31.82649 42.56480 37.19565
#
# Velocity S-wave (km/s) = 3.65333 4.22494 3.94949
# Velocity P-wave (km/s) = 5.39673 6.84129 6.16149
#
# Compressibility (1/GPa) = 0.03701712
#
# Stress axis : x y z
#
# Youngs Moduli (GPa) = 104.56936 130.51870 36.03715
#
# Poissons Ratio (x) = 0.47622 -0.11513
# Poissons Ratio (y) = 0.38154 0.12701
# Poissons Ratio (z) = -0.33406 0.46000
#
# Static dielectric constant tensor:
#      x y z
#    x 2.007100 0.000000 0.016560 
#    y 0.000000 1.972470 0.000000 
#    z 0.016560 0.000000 1.941430 
# 
# From -- ./inp_files/68329.got.cif
#   From: 2010.05.17/outbox.cif.g08.bks.cpg/sg13_35_cif.got.tgz:68329.got - 2010.06.03 16:44:36.
