data_PCOD9226629
_publ_section_title
;
Structure prediction by ZEFSAII (Michael W. Deem and Ramdas Pophale) SiO2 
 PCOD9226629
Probable space group: P 2/C
;
_chemical_formula_sum "Si O2"
_cell_formula_units_Z 20
_cell_length_a 8.607074
_cell_length_b 12.973670
_cell_length_c 9.987724
_cell_angle_alpha 90.000000
_cell_angle_beta 89.922225
_cell_angle_gamma 90.000000
_cell_volume 1115.281546
_symmetry_space_group_name_H-M "P 2/C"
_symmetry_group_IT_number 13
_symmetry_cell_setting 'monoclinic'
loop_
_space_group_symop_operation_xyz
x,y,z
-x,y,1/2-z
-x,-y,-z
x,-y,1/2+z
loop_
_atom_site_type_symbol
_atom_site_label
_atom_site_fract_x
_atom_site_fract_y
_atom_site_fract_z
Si Si1 0.923449 0.245816 0.395110
Si Si2 0.887016 0.023435 0.376658
Si Si3 0.857648 0.801090 0.356706
Si Si4 0.824819 0.542654 0.009785
Si Si5 0.678951 0.402759 0.789514
O O1 0.824294 0.139111 0.394256
O O2 0.827714 0.343420 0.445630
O O3 0.000000 0.264706 0.250000
O O4 0.062581 0.227529 0.501834
O O5 0.000000 0.032053 0.250000
O O6 0.791143 0.917897 0.360381
O O7 0.000000 0.000000 0.500000
O O8 0.738600 0.713085 0.315602
O O9 0.000000 0.800639 0.250000
O O10 0.774779 0.551377 0.163815
O O11 0.716648 0.469169 0.921260
O O12 0.000000 0.500000 0.000000
O O13 0.500000 0.404843 0.750000
#
# Coordination Sequence:
#
# PCOD9226629 Si02
#       5
#     4   4   4   4   4
#     4  10  18  31  55  89 110 137 186 241 278 314
#     4   8  16  27  50  83 110 133 175 240 279 314
#     4  10  17  35  57  81 109 146 190 228 278 337
#     4  12  22  39  61  83 111 147 198 234 275 337
#     4  12  25  39  56  83 117 151 183 234 293 343
#
# _framework density 17.932690999999998
#
# number of rings (size 3 to 8) (size 9 to 14) (size 15 to 20)
#    0.000    1.600    4.000    2.400    0.000    0.000 
#    0.000    0.000    0.000    2.400    0.000    0.000 
#    0.000    0.000    0.000    0.000    0.000    0.000 
#
# Total GULP energy -111501.947603 kJ/mol
# GULP energy per Si atom -5575.097380 kJ/mol
# Density = 1.789188 g / cm^3
# Si number density = 17.932691 Si / 1000 Ang^3
#
#
#
# Elastic Constant Matrix: (Units=GPa)
#
#
# Indices 1 2 3 4 5 6 
#
# 1 54.7190 18.7424 -0.2557 0.0000 15.4916 0.0000
# 2 18.7424 142.6728 -3.5496 0.0000 13.3950 0.0000
# 3 -0.2557 -3.5496 98.3250 0.0000 2.7685 0.0000
# 4 0.0000 0.0000 0.0000 29.6897 0.0000 5.3742
# 5 15.4916 13.3950 2.7685 0.0000 20.8515 0.0000
# 6 0.0000 0.0000 0.0000 5.3742 0.0000 4.6763
#
#
#
# Elastic Compliance Matrix: (Units=1/GPa)
#
#
# Indices 1 2 3 4 5 6 
#
# 1 0.023478 -0.001521 0.000472 0.000000 -0.016528 0.000000
# 2 -0.001521 0.007574 0.000376 0.000000 -0.003785 0.000000
# 3 0.000472 0.000376 0.010240 0.000000 -0.001952 0.000000
# 4 0.000000 0.000000 0.000000 0.042529 0.000000 -0.048876
# 5 -0.016528 -0.003785 -0.001952 0.000000 0.062929 0.000000
# 6 0.000000 0.000000 0.000000 -0.048876 0.000000 0.270013
#
#
# Mechanical properties :
#
#
# Convention : Reuss Voigt Hill
#
# Bulk Modulus (GPa) = 25.03431 36.17679 30.60555
# Shear Modulus (GPa) = 11.58954 29.76215 20.67584
#
# Velocity S-wave (km/s) = 2.54496 4.07831 3.39922
# Velocity P-wave (km/s) = 4.75670 6.51109 5.70178
#
# Compressibility (1/GPa) = 0.03994518
#
# Stress axis : x y z
#
# Youngs Moduli (GPa) = 42.59368 132.03829 97.65528
#
# Poissons Ratio (x) = 0.20078 -0.04605
# Poissons Ratio (y) = 0.06477 -0.03672
# Poissons Ratio (z) = -0.02008 -0.04965
#
# Static dielectric constant tensor:
#      x y z
#    x 1.563760 0.000000 -0.005140 
#    y 0.000000 1.699730 0.000000 
#    z -0.005140 0.000000 1.622820 
# 
# From -- ./inp_files/11779.got.cif
#   From: 2010.05.17/outbox.cif.g08.bks.cpg/sg13_6_cif.got.tgz:11779.got - 2010.06.03 16:44:36.
