data_PCOD9226278
_publ_section_title
;
Structure prediction by ZEFSAII (Michael W. Deem and Ramdas Pophale) SiO2 
 PCOD9226278
Probable space group: P 2/C
;
_chemical_formula_sum "Si O2"
_cell_formula_units_Z 24
_cell_length_a 7.981674
_cell_length_b 12.118517
_cell_length_c 10.572549
_cell_angle_alpha 90.000000
_cell_angle_beta 94.211288
_cell_angle_gamma 90.000000
_cell_volume 1019.879824
_symmetry_space_group_name_H-M "P 2/C"
_symmetry_group_IT_number 13
_symmetry_cell_setting 'monoclinic'
loop_
_space_group_symop_operation_xyz
x,y,z
-x,y,1/2-z
-x,-y,-z
x,-y,1/2+z
loop_
_atom_site_type_symbol
_atom_site_label
_atom_site_fract_x
_atom_site_fract_y
_atom_site_fract_z
Si Si1 0.159460 0.445006 0.445598
Si Si2 0.690184 0.199631 0.674110
Si Si3 0.663710 0.185819 0.402400
Si Si4 0.274855 0.781205 0.872656
Si Si5 0.667015 0.075478 0.899988
Si Si6 0.318071 0.446969 0.716462
O O1 0.164288 0.314713 0.425402
O O2 0.291015 0.462691 0.566625
O O3 0.196678 0.496213 0.310881
O O4 0.000000 0.500000 0.500000
O O5 0.760977 0.214644 0.536835
O O6 0.767711 0.116847 0.781809
O O7 0.509045 0.143151 0.627502
O O8 0.682653 0.317886 0.742325
O O9 0.758584 0.210332 0.277675
O O10 0.478134 0.242001 0.390604
O O11 0.634081 0.053628 0.395139
O O12 0.255787 0.887210 0.962486
O O13 0.500000 0.495461 0.750000
#
# Coordination Sequence:
#
# PCOD9226278 Si02
#       6
#     4   4   4   4   4   4
#     4  12  28  46  65  94 137 187 234 285 359 424
#     4  10  17  31  53  88 131 162 211 268 339 388
#     4  10  19  29  58 100 134 174 211 287 339 398
#     4  10  19  34  55  88 135 171 222 268 334 409
#     4  10  16  32  54  94 142 172 206 279 348 400
#     4  12  24  44  70  97 128 172 237 303 348 403
#
# _framework density 23.532184000000001
#
# number of rings (size 3 to 8) (size 9 to 14) (size 15 to 20)
#    0.000    1.333    3.333    7.000    4.667    0.000 
#    0.000    0.000    0.000    0.000    0.000   12.833 
#    0.000    0.000    0.000    0.000    0.000    0.167 
#
# Total GULP energy -133931.027637 kJ/mol
# GULP energy per Si atom -5580.459485 kJ/mol
# Density = 2.347862 g / cm^3
# Si number density = 23.532184 Si / 1000 Ang^3
#
#
#
# Elastic Constant Matrix: (Units=GPa)
#
#
# Indices 1 2 3 4 5 6 
#
# 1 25.1324 23.1553 5.8021 0.0000 -13.2276 0.0000
# 2 23.1553 74.9861 -16.2851 0.0000 -9.1029 0.0000
# 3 5.8021 -16.2851 160.0663 0.0000 -11.5111 0.0000
# 4 0.0000 0.0000 0.0000 38.9421 0.0000 -16.5515
# 5 -13.2276 -9.1029 -11.5111 0.0000 23.9012 0.0000
# 6 0.0000 0.0000 0.0000 -16.5515 0.0000 -8.1910
#
#
#
# Elastic Compliance Matrix: (Units=1/GPa)
#
#
# Indices 1 2 3 4 5 6 
#
# 1 0.076478 -0.020068 -0.002403 0.000000 0.033525 0.000000
# 2 -0.020068 0.019811 0.002576 0.000000 -0.002321 0.000000
# 3 -0.002403 0.002576 0.006807 0.000000 0.002930 0.000000
# 4 0.000000 0.000000 0.000000 0.013815 0.000000 -0.027915
# 5 0.033525 -0.002321 0.002930 0.000000 0.060920 0.000000
# 6 0.000000 0.000000 0.000000 -0.027915 0.000000 -0.065678
#
#
# Mechanical properties :
#
#
# Convention : Reuss Voigt Hill
#
# Bulk Modulus (GPa) = 15.79635 31.72551 23.76093
# Shear Modulus (GPa) = 28.89415 27.43127 28.16271
#
# Velocity S-wave (km/s) = 3.50788 3.41793 3.46320
# Velocity P-wave (km/s) = 4.80980 5.39327 5.10987
#
# Compressibility (1/GPa) = 0.06330575
#
# Stress axis : x y z
#
# Youngs Moduli (GPa) = 13.07558 50.47818 146.90132
#
# Poissons Ratio (x) = 1.01301 0.35301
# Poissons Ratio (y) = 0.26240 -0.37843
# Poissons Ratio (z) = 0.03142 -0.13003
#
# Static dielectric constant tensor:
#      x y z
#    x 1.987130 0.000000 -0.004260 
#    y 0.000000 1.878940 0.000000 
#    z -0.004260 0.000000 2.092770 
# 
# From -- ./inp_files/29482.got.cif
#   From: 2010.05.17/outbox.cif.g08.bks.cpg/sg13_15_cif.got.tgz:29482.got - 2010.06.03 16:44:36.
