data_PCOD9226433
_publ_section_title
;
Structure prediction by ZEFSAII (Michael W. Deem and Ramdas Pophale) SiO2 
 PCOD9226433
Probable space group: P 2/C
;
_chemical_formula_sum "Si O2"
_cell_formula_units_Z 28
_cell_length_a 30.113926
_cell_length_b 10.755881
_cell_length_c 30.132894
_cell_angle_alpha 90.000000
_cell_angle_beta 9.932033
_cell_angle_gamma 90.000000
_cell_volume 1683.420168
_symmetry_space_group_name_H-M "P 2/C"
_symmetry_group_IT_number 13
_symmetry_cell_setting 'monoclinic'
loop_
_space_group_symop_operation_xyz
x,y,z
-x,y,1/2-z
-x,-y,-z
x,-y,1/2+z
loop_
_atom_site_type_symbol
_atom_site_label
_atom_site_fract_x
_atom_site_fract_y
_atom_site_fract_z
Si Si1 0.500000 0.885953 0.250000
Si Si2 0.592194 0.172365 0.857927
Si Si3 0.000000 0.940873 0.250000
Si Si4 0.528021 0.100214 0.821667
Si Si5 0.751774 0.583013 0.253832
Si Si6 0.196902 0.785192 0.233836
Si Si7 0.026725 0.073860 0.818823
Si Si8 0.275024 0.899079 0.749395
O O1 0.472379 0.830706 0.226571
O O2 0.248494 0.971345 0.501940
O O3 0.560349 0.174353 0.836189
O O4 0.709966 0.299280 0.761651
O O5 0.745836 0.046153 0.720476
O O6 0.330942 0.143406 0.143686
O O7 0.011379 0.869975 0.284782
O O8 0.762346 0.999542 0.589766
O O9 0.257783 0.027023 0.091863
O O10 0.500000 0.500000 0.500000
O O11 0.768304 0.643696 0.286408
O O12 0.000000 0.500000 0.000000
O O13 0.966560 0.833574 0.491582
O O14 0.103026 0.820914 0.278030
O O15 0.463839 0.854802 0.982501
#
# Coordination Sequence:
#
# PCOD9226433 Si02
#       8
#     2   4   2   4   4   4   4   4
#     4   8  16  28  42  66 104 128 146 184 234 300
#     4  10  20  34  52  72 101 130 163 204 243 293
#     4   8  16  26  42  66 104 128 146 180 236 302
#     4  10  18  29  47  74 100 127 155 189 244 298
#     4  11  25  38  48  66  97 136 172 202 238 283
#     4  11  19  35  52  71 101 128 163 203 242 289
#     4  10  17  29  46  74 100 127 153 190 243 296
#     4  10  21  30  50  80  98 121 161 207 246 291
#
# _framework density 16.632805000000001
#
# number of rings (size 3 to 8) (size 9 to 14) (size 15 to 20)
#    0.000    2.000    2.857    1.714    0.000    9.714 
#    0.000    0.000    0.000    0.000    0.000    2.000 
#    0.000    0.000    0.000    0.857    0.000    0.000 
#
# Total GULP energy -155893.885458 kJ/mol
# GULP energy per Si atom -5567.638766 kJ/mol
# Density = 1.659495 g / cm^3
# Si number density = 16.632805 Si / 1000 Ang^3
#
#
#
# Elastic Constant Matrix: (Units=GPa)
#
#
# Indices 1 2 3 4 5 6 
#
# 1 172.9757 33.7659 16.9604 0.0000 8.3997 0.0000
# 2 33.7659 77.1657 28.6439 0.0000 -2.4293 0.0000
# 3 16.9604 28.6439 111.8082 0.0000 -6.5320 0.0000
# 4 0.0000 0.0000 0.0000 20.9039 0.0000 -6.9086
# 5 8.3997 -2.4293 -6.5320 0.0000 19.7507 0.0000
# 6 0.0000 0.0000 0.0000 -6.9086 0.0000 19.3002
#
#
#
# Elastic Compliance Matrix: (Units=1/GPa)
#
#
# Indices 1 2 3 4 5 6 
#
# 1 0.006530 -0.002787 -0.000468 0.000000 -0.003275 0.000000
# 2 -0.002787 0.015516 -0.003438 0.000000 0.001957 0.000000
# 3 -0.000468 -0.003438 0.010077 0.000000 0.003109 0.000000
# 4 0.000000 0.000000 0.000000 0.054257 0.000000 0.019421
# 5 -0.003275 0.001957 0.003109 0.000000 0.053293 0.000000
# 6 0.000000 0.000000 0.000000 0.019421 0.000000 0.058765
#
#
# Mechanical properties :
#
#
# Convention : Reuss Voigt Hill
#
# Bulk Modulus (GPa) = 53.36707 57.85444 55.61075
# Shear Modulus (GPa) = 22.92847 30.82958 26.87903
#
# Velocity S-wave (km/s) = 3.71686 4.30995 4.02434
# Velocity P-wave (km/s) = 7.11162 7.72181 7.42299
#
# Compressibility (1/GPa) = 0.01873815
#
# Stress axis : x y z
#
# Youngs Moduli (GPa) = 153.13809 64.44811 99.23304
#
# Poissons Ratio (x) = 0.17960 0.04643
# Poissons Ratio (y) = 0.42676 0.34117
# Poissons Ratio (z) = 0.07166 0.22158
#
# Static dielectric constant tensor:
#      x y z
#    x 1.653040 0.000000 -0.001240 
#    y 0.000000 1.529140 0.000000 
#    z -0.001240 0.000000 1.589890 
# 
# From -- ./inp_files/98148.got.cif
#   From: 2010.05.17/outbox.cif.g08.bks.cpg/sg13_50_cif.got.tgz:98148.got - 2010.06.03 16:44:36.
