data_PCOD9226987
_publ_section_title
;
Structure prediction by ZEFSAII (Michael W. Deem and Ramdas Pophale) SiO2 
 PCOD9226987
Probable space group: P 2/C
;
_chemical_formula_sum "Si O2"
_cell_formula_units_Z 20
_cell_length_a 24.789432
_cell_length_b 7.105552
_cell_length_c 5.368094
_cell_angle_alpha 90.000000
_cell_angle_beta 109.613820
_cell_angle_gamma 90.000000
_cell_volume 890.685915
_symmetry_space_group_name_H-M "P 2/C"
_symmetry_group_IT_number 13
_symmetry_cell_setting 'monoclinic'
loop_
_space_group_symop_operation_xyz
x,y,z
-x,y,1/2-z
-x,-y,-z
x,-y,1/2+z
loop_
_atom_site_type_symbol
_atom_site_label
_atom_site_fract_x
_atom_site_fract_y
_atom_site_fract_z
Si Si1 0.934832 0.715903 0.060293
Si Si2 0.110573 0.711177 0.009812
Si Si3 0.644336 0.874205 0.205455
Si Si4 0.524897 0.711154 0.038500
Si Si5 0.773199 0.876267 0.440200
O O1 0.897929 0.798728 0.230127
O O2 0.911776 0.501918 0.991649
O O3 0.000000 0.714098 0.250000
O O4 0.927158 0.797261 0.772472
O O5 0.175748 0.729608 0.023097
O O6 0.593189 0.725048 0.141539
O O7 0.708925 0.795543 0.318768
O O8 0.638647 0.012090 0.436416
O O9 0.500000 0.798703 0.250000
O O10 0.500000 0.799072 0.750000
O O11 0.500000 0.500000 0.000000
O O12 0.778371 0.974540 0.718977
#
# Coordination Sequence:
#
# PCOD9226987 Si02
#       5
#     4   4   4   4   4
#     4  10  19  33  55  78 103 135 175 225 270 319
#     4  10  18  32  54  78 101 135 178 219 267 311
#     4  10  21  37  58  81 106 145 191 224 261 326
#     4  10  21  37  55  82 116 146 175 224 283 318
#     4  10  21  37  55  77 108 143 179 219 260 312
#
# _framework density 22.454605000000001
#
# number of rings (size 3 to 8) (size 9 to 14) (size 15 to 20)
#    0.000    2.000    0.000    5.400    0.000    2.400 
#    0.000    8.000    0.000   20.400    0.000    0.000 
#    0.000    0.000    0.000    0.000    0.000    0.000 
#
# Total GULP energy -111655.638138 kJ/mol
# GULP energy per Si atom -5582.781907 kJ/mol
# Density = 2.240350 g / cm^3
# Si number density = 22.454605 Si / 1000 Ang^3
#
#
#
# Elastic Constant Matrix: (Units=GPa)
#
#
# Indices 1 2 3 4 5 6 
#
# 1 147.9545 4.5793 19.5692 0.0000 18.2852 0.0000
# 2 4.5793 60.0896 -10.3883 0.0000 6.6365 0.0000
# 3 19.5692 -10.3883 146.5981 0.0000 -32.7797 0.0000
# 4 0.0000 0.0000 0.0000 -5.3727 0.0000 -4.7754
# 5 18.2852 6.6365 -32.7797 0.0000 59.0215 0.0000
# 6 0.0000 0.0000 0.0000 -4.7754 0.0000 167.3143
#
#
#
# Elastic Compliance Matrix: (Units=1/GPa)
#
#
# Indices 1 2 3 4 5 6 
#
# 1 0.007400 -0.000511 -0.001740 0.000000 -0.003202 0.000000
# 2 -0.000511 0.016986 0.001005 0.000000 -0.001193 0.000000
# 3 -0.001740 0.001005 0.008244 0.000000 0.005005 0.000000
# 4 0.000000 0.000000 0.000000 -0.181521 0.000000 -0.005181
# 5 -0.003202 -0.001193 0.005005 0.000000 0.020849 0.000000
# 6 0.000000 0.000000 0.000000 -0.005181 0.000000 0.005829
#
#
# Mechanical properties :
#
#
# Convention : Reuss Voigt Hill
#
# Bulk Modulus (GPa) = 33.18014 42.46251 37.82132
# Shear Modulus (GPa) = -45.58961 66.91808 10.66423
#
# Velocity S-wave (km/s) = -4.51077 5.46500 2.18164
# Velocity P-wave (km/s) = 3.51010 7.66636 4.81935
#
# Compressibility (1/GPa) = 0.03013851
#
# Stress axis : x y z
#
# Youngs Moduli (GPa) = 135.12650 58.87090 121.30175
#
# Poissons Ratio (x) = 0.03009 0.21106
# Poissons Ratio (y) = 0.06908 -0.12192
# Poissons Ratio (z) = 0.23512 -0.05917
#
# Static dielectric constant tensor:
#      x y z
#    x 1.822810 0.000000 -0.033940 
#    y 0.000000 1.079930 0.000000 
#    z -0.033940 0.000000 1.896250 
# 
# From -- ./inp_files/5865.got.cif
#   From: 2010.05.17/outbox.cif.g08.bks.cpg/sg13_3_cif.got.tgz:5865.got - 2010.06.03 16:44:36.
