data_PCOD9226314
_publ_section_title
;
Structure prediction by ZEFSAII (Michael W. Deem and Ramdas Pophale) SiO2 
 PCOD9226314
Probable space group: P 2/C
;
_chemical_formula_sum "Si O2"
_cell_formula_units_Z 28
_cell_length_a 17.868037
_cell_length_b 8.425922
_cell_length_c 20.216813
_cell_angle_alpha 90.000000
_cell_angle_beta 24.975800
_cell_angle_gamma 90.000000
_cell_volume 1285.173142
_symmetry_space_group_name_H-M "P 2/C"
_symmetry_group_IT_number 13
_symmetry_cell_setting 'monoclinic'
loop_
_space_group_symop_operation_xyz
x,y,z
-x,y,1/2-z
-x,-y,-z
x,-y,1/2+z
loop_
_atom_site_type_symbol
_atom_site_label
_atom_site_fract_x
_atom_site_fract_y
_atom_site_fract_z
Si Si1 0.379544 0.544434 0.781948
Si Si2 0.739552 0.101575 0.139883
Si Si3 0.500000 0.890970 0.250000
Si Si4 0.920330 0.652727 0.026796
Si Si5 0.000000 0.212782 0.250000
Si Si6 0.616010 0.683506 0.030794
Si Si7 0.081450 0.059248 0.322753
Si Si8 0.650043 0.127876 0.825512
O O1 0.500000 0.553228 0.750000
O O2 0.297982 0.714419 0.832622
O O3 0.217257 0.419506 0.916989
O O4 0.513666 0.482310 0.617928
O O5 0.655990 0.008242 0.145133
O O6 0.650679 0.020444 0.274458
O O7 0.943075 0.054394 0.971627
O O8 0.546864 0.783474 0.149870
O O9 0.790818 0.748898 0.179964
O O10 0.000000 0.500000 0.000000
O O11 0.059372 0.773641 0.881249
O O12 0.825009 0.318248 0.375875
O O13 0.987851 0.101252 0.194797
O O14 0.536086 0.778241 0.031731
O O15 0.262104 0.954986 0.181058
#
# Coordination Sequence:
#
# PCOD9226314 Si02
#       8
#     4   4   2   4   2   4   4   4
#     4  11  19  30  56  88 119 153 204 257 303 353
#     4  10  18  32  58  91 118 148 204 272 297 347
#     4  10  16  34  56  86 114 146 216 254 298 352
#     4  10  19  35  60  90 120 154 209 272 307 350
#     4  12  24  38  62  86 138 170 196 244 326 400
#     4  10  21  37  57  87 119 166 200 256 312 370
#     4  11  21  37  57  90 123 164 202 252 321 375
#     4   9  20  35  59  86 115 151 215 262 299 354
#
# _framework density 21.786947000000001
#
# number of rings (size 3 to 8) (size 9 to 14) (size 15 to 20)
#    0.000    1.714    2.857    5.143    0.000    0.571 
#    0.000    0.000    0.000   29.143    0.000    0.000 
#    0.000    0.000    0.000    0.000    0.000    0.000 
#
# Total GULP energy -156106.892755 kJ/mol
# GULP energy per Si atom -5575.246170 kJ/mol
# Density = 2.173736 g / cm^3
# Si number density = 21.786947 Si / 1000 Ang^3
#
#
#
# Elastic Constant Matrix: (Units=GPa)
#
#
# Indices 1 2 3 4 5 6 
#
# 1 85.1398 31.3975 17.5408 0.0000 -23.5705 0.0000
# 2 31.3975 138.3039 30.1737 0.0000 -12.9259 0.0000
# 3 17.5408 30.1737 41.1490 0.0000 -13.8824 0.0000
# 4 0.0000 0.0000 0.0000 7.1842 0.0000 -32.5055
# 5 -23.5705 -12.9259 -13.8824 0.0000 30.7364 0.0000
# 6 0.0000 0.0000 0.0000 -32.5055 0.0000 0.0297
#
#
#
# Elastic Compliance Matrix: (Units=1/GPa)
#
#
# Indices 1 2 3 4 5 6 
#
# 1 0.015797 -0.002273 -0.001537 0.000000 0.010464 0.000000
# 2 -0.002273 0.008956 -0.005799 0.000000 -0.000596 0.000000
# 3 -0.001537 -0.005799 0.033021 0.000000 0.011297 0.000000
# 4 0.000000 0.000000 0.000000 -0.000028 0.000000 -0.030770
# 5 0.010464 -0.000596 0.011297 0.000000 0.045411 0.000000
# 6 0.000000 0.000000 0.000000 -0.030770 0.000000 -0.006801
#
#
# Mechanical properties :
#
#
# Convention : Reuss Voigt Hill
#
# Bulk Modulus (GPa) = 25.93669 46.97964 36.45816
# Shear Modulus (GPa) = 38.93272 19.95544 29.44408
#
# Velocity S-wave (km/s) = 4.23185 3.02973 3.68020
# Velocity P-wave (km/s) = 5.98403 5.81799 5.90159
#
# Compressibility (1/GPa) = 0.03855543
#
# Stress axis : x y z
#
# Youngs Moduli (GPa) = 63.30235 111.65689 30.28388
#
# Poissons Ratio (x) = 0.25379 0.04654
# Poissons Ratio (y) = 0.14388 0.17563
# Poissons Ratio (z) = 0.09729 0.64755
#
# Static dielectric constant tensor:
#      x y z
#    x 1.870690 0.000000 -0.044590 
#    y 0.000000 1.779750 0.000000 
#    z -0.044590 0.000000 1.910670 
# 
# From -- ./inp_files/88502.got.cif
#   From: 2010.05.17/outbox.cif.g08.bks.cpg/sg13_45_cif.got.tgz:88502.got - 2010.06.03 16:44:36.
