data_PCOD9226457
_publ_section_title
;
Structure prediction by ZEFSAII (Michael W. Deem and Ramdas Pophale) SiO2 
 PCOD9226457
Probable space group: P 2/C
;
_chemical_formula_sum "Si O2"
_cell_formula_units_Z 32
_cell_length_a 7.014970
_cell_length_b 11.658859
_cell_length_c 18.558910
_cell_angle_alpha 90.000000
_cell_angle_beta 118.684927
_cell_angle_gamma 90.000000
_cell_volume 1331.584813
_symmetry_space_group_name_H-M "P 2/C"
_symmetry_group_IT_number 13
_symmetry_cell_setting 'monoclinic'
loop_
_space_group_symop_operation_xyz
x,y,z
-x,y,1/2-z
-x,-y,-z
x,-y,1/2+z
loop_
_atom_site_type_symbol
_atom_site_label
_atom_site_fract_x
_atom_site_fract_y
_atom_site_fract_z
Si Si1 0.600566 0.454812 0.443450
Si Si2 0.103854 0.705915 0.429018
Si Si3 0.749832 0.130088 0.022044
Si Si4 0.490931 0.694718 0.109918
Si Si5 0.559564 0.731946 0.688226
Si Si6 0.126611 0.923149 0.700409
Si Si7 0.336940 0.897277 0.553736
Si Si8 0.204072 0.820023 0.229390
O O1 0.500000 0.500000 0.500000
O O2 0.833313 0.396840 0.504619
O O3 0.584966 0.565228 0.389507
O O4 0.455195 0.353586 0.381380
O O5 0.296772 0.692587 0.404698
O O6 0.156664 0.823309 0.480630
O O7 0.881347 0.730788 0.347216
O O8 0.556516 0.115104 0.045789
O O9 0.965796 0.109807 0.106403
O O10 0.700424 0.246186 0.971153
O O11 0.722520 0.028570 0.959628
O O12 0.585257 0.771959 0.191140
O O13 0.500000 0.665190 0.750000
O O14 0.238810 0.807302 0.750850
O O15 0.392411 0.835233 0.638025
O O16 0.000000 0.955361 0.750000
O O17 0.235674 0.048845 0.707259
O O18 0.000000 0.817102 0.250000
#
# Coordination Sequence:
#
# PCOD9226457 Si02
#       8
#     4   4   4   4   4   4   4   4
#     4   9  19  36  56  79 107 157 212 245 289 351
#     4   8  14  27  48  73 112 143 187 240 292 342
#     4  10  17  29  55  87 119 142 196 254 292 341
#     4   9  17  28  47  77 107 145 192 246 294 334
#     4  11  23  39  58  86 125 161 193 250 318 364
#     4  11  20  32  55  93 120 148 198 249 295 359
#     4   9  16  30  53  83 113 158 185 235 303 356
#     4   9  16  28  48  83 117 144 179 242 307 349
#
# _framework density 24.031513
#
# number of rings (size 3 to 8) (size 9 to 14) (size 15 to 20)
#    0.000    2.500    2.500    1.500    3.500    0.000 
#    2.250    1.250    0.000    3.750    0.000    0.000 
#    0.000    0.000    0.000    0.000    0.000    0.000 
#
# Total GULP energy -178541.305265 kJ/mol
# GULP energy per Si atom -5579.415790 kJ/mol
# Density = 2.397682 g / cm^3
# Si number density = 24.031513 Si / 1000 Ang^3
#
#
#
# Elastic Constant Matrix: (Units=GPa)
#
#
# Indices 1 2 3 4 5 6 
#
# 1 59.0798 17.3046 25.3242 0.0000 5.8433 0.0000
# 2 17.3046 180.2544 80.9334 0.0000 23.5738 0.0000
# 3 25.3242 80.9334 162.5471 0.0000 19.3115 0.0000
# 4 0.0000 0.0000 0.0000 51.8894 0.0000 -4.4706
# 5 5.8433 23.5738 19.3115 0.0000 37.0481 0.0000
# 6 0.0000 0.0000 0.0000 -4.4706 0.0000 16.4887
#
#
#
# Elastic Compliance Matrix: (Units=1/GPa)
#
#
# Indices 1 2 3 4 5 6 
#
# 1 0.018245 -0.000483 -0.002448 0.000000 -0.001294 0.000000
# 2 -0.000483 0.007456 -0.003286 0.000000 -0.002955 0.000000
# 3 -0.002448 -0.003286 0.008395 0.000000 -0.001899 0.000000
# 4 0.000000 0.000000 0.000000 0.019733 0.000000 0.005350
# 5 -0.001294 -0.002955 -0.001899 0.000000 0.030066 0.000000
# 6 0.000000 0.000000 0.000000 0.005350 0.000000 0.062098
#
#
# Mechanical properties :
#
#
# Convention : Reuss Voigt Hill
#
# Bulk Modulus (GPa) = 46.16439 72.11174 59.13807
# Shear Modulus (GPa) = 30.18430 39.63983 34.91207
#
# Velocity S-wave (km/s) = 3.54790 4.06580 3.81565
# Velocity P-wave (km/s) = 6.00292 7.21895 6.63884
#
# Compressibility (1/GPa) = 0.02166172
#
# Stress axis : x y z
#
# Youngs Moduli (GPa) = 54.80901 134.12030 119.11505
#
# Poissons Ratio (x) = 0.06479 0.29162
# Poissons Ratio (y) = 0.02648 0.39142
# Poissons Ratio (z) = 0.13419 0.44072
#
# Static dielectric constant tensor:
#      x y z
#    x 2.093190 0.000000 -0.050210 
#    y 0.000000 1.873650 0.000000 
#    z -0.050210 0.000000 1.879310 
# 
# From -- ./inp_files/76483.got.cif
#   From: 2010.05.17/outbox.cif.g08.bks.cpg/sg13_39_cif.got.tgz:76483.got - 2010.06.03 16:44:36.
