data_PCOD9226162
_publ_section_title
;
Structure prediction by ZEFSAII (Michael W. Deem and Ramdas Pophale) SiO2 
 PCOD9226162
Probable space group: P 2/C
;
_chemical_formula_sum "Si O2"
_cell_formula_units_Z 28
_cell_length_a 12.621105
_cell_length_b 8.618630
_cell_length_c 20.703420
_cell_angle_alpha 90.000000
_cell_angle_beta 29.284661
_cell_angle_gamma 90.000000
_cell_volume 1101.587122
_symmetry_space_group_name_H-M "P 2/C"
_symmetry_group_IT_number 13
_symmetry_cell_setting 'monoclinic'
loop_
_space_group_symop_operation_xyz
x,y,z
-x,y,1/2-z
-x,-y,-z
x,-y,1/2+z
loop_
_atom_site_type_symbol
_atom_site_label
_atom_site_fract_x
_atom_site_fract_y
_atom_site_fract_z
Si Si1 0.358584 0.051425 0.883975
Si Si2 0.021550 0.846517 0.366244
Si Si3 0.898226 0.467012 0.875571
Si Si4 0.303595 0.770008 0.531520
Si Si5 0.775025 0.325676 0.629458
Si Si6 0.199983 0.378333 0.324358
Si Si7 0.796396 0.858759 0.779818
O O1 0.500000 0.981851 0.750000
O O2 0.319226 0.226187 0.878565
O O3 0.410250 0.096562 0.930605
O O4 0.140875 0.952853 0.005857
O O5 0.882259 0.712350 0.405510
O O6 0.195783 0.777281 0.322824
O O7 0.153506 0.959209 0.248914
O O8 0.691020 0.584015 0.985705
O O9 0.000000 0.472928 0.750000
O O10 0.071373 0.530184 0.836026
O O11 0.343664 0.802766 0.585358
O O12 0.044761 0.798480 0.658040
O O13 0.669887 0.486731 0.708250
O O14 0.021890 0.341276 0.473111
O O15 0.283756 0.223814 0.244040
#
# Coordination Sequence:
#
# PCOD9226162 Si02
#       7
#     4   4   4   4   4   4   4
#     4  11  22  36  51  73 111 148 171 204 261 325
#     4  10  21  29  53  84 104 133 174 221 267 302
#     4  10  16  28  50  83 107 124 166 232 266 291
#     4   9  16  31  50  72 103 134 174 210 260 306
#     4  10  18  32  52  79 104 133 179 217 256 306
#     4   9  16  28  52  79 103 127 163 220 262 300
#     4   9  15  29  49  79 102 125 165 227 266 293
#
# _framework density 25.417871999999999
#
# number of rings (size 3 to 8) (size 9 to 14) (size 15 to 20)
#    0.000    2.286    7.143    0.429    4.000    0.000 
#    0.000    0.714    0.000    1.714    0.000    0.000 
#    0.000    0.000    0.000    0.000    0.000    0.000 
#
# Total GULP energy -156020.112762 kJ/mol
# GULP energy per Si atom -5572.146884 kJ/mol
# Density = 2.536002 g / cm^3
# Si number density = 25.417872 Si / 1000 Ang^3
#
#
#
# Elastic Constant Matrix: (Units=GPa)
#
#
# Indices 1 2 3 4 5 6 
#
# 1 48.3180 16.9948 18.0681 0.0000 19.6977 0.0000
# 2 16.9948 98.5936 21.6761 0.0000 21.0328 0.0000
# 3 18.0681 21.6761 80.3173 0.0000 10.5791 0.0000
# 4 0.0000 0.0000 0.0000 21.0057 0.0000 24.1666
# 5 19.6977 21.0328 10.5791 0.0000 30.8296 0.0000
# 6 0.0000 0.0000 0.0000 24.1666 0.0000 16.7575
#
#
#
# Elastic Compliance Matrix: (Units=1/GPa)
#
#
# Indices 1 2 3 4 5 6 
#
# 1 0.029377 -0.000513 -0.004235 0.000000 -0.016966 0.000000
# 2 -0.000513 0.012276 -0.002239 0.000000 -0.007279 0.000000
# 3 -0.004235 -0.002239 0.014087 0.000000 -0.000600 0.000000
# 4 0.000000 0.000000 0.000000 -0.072225 0.000000 0.104157
# 5 -0.016966 -0.007279 -0.000600 0.000000 0.048448 0.000000
# 6 0.000000 0.000000 0.000000 0.104157 0.000000 -0.090534
#
#
# Mechanical properties :
#
#
# Convention : Reuss Voigt Hill
#
# Bulk Modulus (GPa) = 23.94359 37.85632 30.89996
# Shear Modulus (GPa) = -163.00512 25.08456 -68.96028
#
# Velocity S-wave (km/s) = -8.01682 3.14488 -5.21436
# Velocity P-wave (km/s) = 8.73224 5.30217 4.90607
#
# Compressibility (1/GPa) = 0.04176483
#
# Stress axis : x y z
#
# Youngs Moduli (GPa) = 34.04013 81.45880 70.98889
#
# Poissons Ratio (x) = 0.04181 0.30067
# Poissons Ratio (y) = 0.01747 0.15894
# Poissons Ratio (z) = 0.14417 0.18238
#
# Static dielectric constant tensor:
#      x y z
#    x 2.020300 0.000000 -0.028790 
#    y 0.000000 2.134300 0.000000 
#    z -0.028790 0.000000 2.129930 
# 
# From -- ./inp_files/87815.got.cif
#   From: 2010.05.17/outbox.cif.g08.bks.cpg/sg13_44_cif.got.tgz:87815.got - 2010.06.03 16:44:36.
