data_PCOD9226659
_publ_section_title
;
Structure prediction by ZEFSAII (Michael W. Deem and Ramdas Pophale) SiO2 
 PCOD9226659
Probable space group: P 2/C
;
_chemical_formula_sum "Si O2"
_cell_formula_units_Z 28
_cell_length_a 9.278029
_cell_length_b 8.459891
_cell_length_c 29.416725
_cell_angle_alpha 90.000000
_cell_angle_beta 35.722760
_cell_angle_gamma 90.000000
_cell_volume 1348.113102
_symmetry_space_group_name_H-M "P 2/C"
_symmetry_group_IT_number 13
_symmetry_cell_setting 'monoclinic'
loop_
_space_group_symop_operation_xyz
x,y,z
-x,y,1/2-z
-x,-y,-z
x,-y,1/2+z
loop_
_atom_site_type_symbol
_atom_site_label
_atom_site_fract_x
_atom_site_fract_y
_atom_site_fract_z
Si Si1 0.936487 0.519883 0.424362
Si Si2 0.021429 0.716952 0.669495
Si Si3 0.757657 0.084999 0.170247
Si Si4 0.475677 0.661064 0.921190
Si Si5 0.248361 0.435889 0.709164
Si Si6 0.331323 0.753795 0.352911
Si Si7 0.035453 0.742562 0.969563
O O1 0.914636 0.399782 0.388854
O O2 0.697769 0.629842 0.491025
O O3 0.182183 0.624454 0.361609
O O4 0.964813 0.422538 0.463956
O O5 0.273448 0.751387 0.631593
O O6 0.913603 0.876476 0.675445
O O7 0.837064 0.601851 0.744994
O O8 0.500000 0.171533 0.250000
O O9 0.911230 0.150453 0.087992
O O10 0.682202 0.913102 0.172232
O O11 0.572677 0.494290 0.876808
O O12 0.293778 0.734812 0.930561
O O13 0.404572 0.318246 0.700552
O O14 0.000000 0.368195 0.750000
O O15 0.172980 0.782728 0.440012
#
# Coordination Sequence:
#
# PCOD9226659 Si02
#       7
#     4   4   4   4   4   4   4
#     4  10  19  34  63  89 115 147 202 248 298 343
#     4  10  23  35  58  85 122 152 194 243 310 351
#     4  11  25  39  56  87 123 162 193 243 302 364
#     4  10  17  37  60  89 110 150 201 248 290 355
#     4  10  20  35  61  93 119 156 203 259 302 349
#     4  11  21  38  62  88 117 155 206 247 294 361
#     4  10  19  39  65  86 115 160 205 237 298 361
#
# _framework density 20.769770999999999
#
# number of rings (size 3 to 8) (size 9 to 14) (size 15 to 20)
#    0.000    1.714    2.857    2.571    4.000    0.000 
#    0.000    4.286    0.000    0.000    0.000    0.000 
#    0.000    0.000    0.000    0.000    0.000    0.000 
#
# Total GULP energy -156055.578654 kJ/mol
# GULP energy per Si atom -5573.413523 kJ/mol
# Density = 2.072250 g / cm^3
# Si number density = 20.769771 Si / 1000 Ang^3
#
#
#
# Elastic Constant Matrix: (Units=GPa)
#
#
# Indices 1 2 3 4 5 6 
#
# 1 114.8347 31.6167 49.9277 0.0000 -28.6405 0.0000
# 2 31.6167 35.5733 19.2480 0.0000 -8.2436 0.0000
# 3 49.9277 19.2480 83.3374 0.0000 -10.1806 0.0000
# 4 0.0000 0.0000 0.0000 13.8076 0.0000 4.4949
# 5 -28.6405 -8.2436 -10.1806 0.0000 35.9151 0.0000
# 6 0.0000 0.0000 0.0000 4.4949 0.0000 26.9563
#
#
#
# Elastic Compliance Matrix: (Units=1/GPa)
#
#
# Indices 1 2 3 4 5 6 
#
# 1 0.016261 -0.008773 -0.006606 0.000000 0.009081 0.000000
# 2 -0.008773 0.037927 -0.003413 0.000000 0.000742 0.000000
# 3 -0.006606 -0.003413 0.016580 0.000000 -0.001352 0.000000
# 4 0.000000 0.000000 0.000000 0.076581 0.000000 -0.012770
# 5 0.009081 0.000742 -0.001352 0.000000 0.034872 0.000000
# 6 0.000000 0.000000 0.000000 -0.012770 0.000000 0.039226
#
#
# Mechanical properties :
#
#
# Convention : Reuss Voigt Hill
#
# Bulk Modulus (GPa) = 30.13592 48.37004 39.25298
# Shear Modulus (GPa) = 18.51208 24.19932 21.35570
#
# Velocity S-wave (km/s) = 2.98870 3.41709 3.21005
# Velocity P-wave (km/s) = 5.14303 6.23762 5.71659
#
# Compressibility (1/GPa) = 0.03318299
#
# Stress axis : x y z
#
# Youngs Moduli (GPa) = 61.49801 26.36638 60.31215
#
# Poissons Ratio (x) = 0.23132 0.39843
# Poissons Ratio (y) = 0.53954 0.20585
# Poissons Ratio (z) = 0.40627 0.08999
#
# Static dielectric constant tensor:
#      x y z
#    x 1.759940 0.000000 0.000090 
#    y 0.000000 1.779510 0.000000 
#    z 0.000090 0.000000 1.821720 
# 
# From -- ./inp_files/95910.got.cif
#   From: 2010.05.17/outbox.cif.g08.bks.cpg/sg13_48_cif.got.tgz:95910.got - 2010.06.03 16:44:36.
