data_PCOD9226976
_publ_section_title
;
Structure prediction by ZEFSAII (Michael W. Deem and Ramdas Pophale) SiO2 
 PCOD9226976
Probable space group: P 2/C
;
_chemical_formula_sum "Si O2"
_cell_formula_units_Z 20
_cell_length_a 21.404523
_cell_length_b 8.013318
_cell_length_c 8.179887
_cell_angle_alpha 90.000000
_cell_angle_beta 142.931230
_cell_angle_gamma 90.000000
_cell_volume 845.705477
_symmetry_space_group_name_H-M "P 2/C"
_symmetry_group_IT_number 13
_symmetry_cell_setting 'monoclinic'
loop_
_space_group_symop_operation_xyz
x,y,z
-x,y,1/2-z
-x,-y,-z
x,-y,1/2+z
loop_
_atom_site_type_symbol
_atom_site_label
_atom_site_fract_x
_atom_site_fract_y
_atom_site_fract_z
Si Si1 0.574471 0.723591 0.153257
Si Si2 0.625609 0.626121 0.626788
Si Si3 0.181428 0.758792 0.330464
Si Si4 0.231977 0.889394 0.075983
Si Si5 0.973750 0.811055 0.005410
O O1 0.619883 0.680970 0.427772
O O2 0.583144 0.560043 0.059048
O O3 0.650410 0.857904 0.232869
O O4 0.452368 0.746640 0.933382
O O5 0.738441 0.623099 0.940702
O O6 0.210008 0.825728 0.211797
O O7 0.061510 0.707918 0.092339
O O8 0.205583 0.915841 0.500815
O O9 0.146790 0.791553 0.787412
O O10 0.000000 0.794908 0.250000
O O11 0.000000 0.000000 0.000000
#
# Coordination Sequence:
#
# PCOD9226976 Si02
#       5
#     4   4   4   4   4
#     4  10  21  38  58  80 108 143 181 221 269 323
#     4  10  21  38  58  80 108 143 181 221 269 323
#     4  11  21  35  56  82 111 143 181 223 268 317
#     4  11  21  35  56  82 111 143 181 223 268 317
#     4  10  18  32  53  78 109 142 177 218 268 320
#
# _framework density 23.648893999999999
#
# number of rings (size 3 to 8) (size 9 to 14) (size 15 to 20)
#    0.000    1.600    0.000    9.000    0.000    3.200 
#    0.000    1.000    0.000    0.000    0.000    0.000 
#    0.000    0.000    0.000    0.000    0.000    0.000 
#
# Total GULP energy -111787.610419 kJ/mol
# GULP energy per Si atom -5589.380521 kJ/mol
# Density = 2.359507 g / cm^3
# Si number density = 23.648894 Si / 1000 Ang^3
#
#
#
# Elastic Constant Matrix: (Units=GPa)
#
#
# Indices 1 2 3 4 5 6 
#
# 1 94.7688 9.4886 3.1307 0.0000 -1.3008 0.0000
# 2 9.4886 16.7659 7.2451 0.0000 10.3549 0.0000
# 3 3.1307 7.2451 77.1800 0.0000 5.5399 0.0000
# 4 0.0000 0.0000 0.0000 28.1268 0.0000 5.7891
# 5 -1.3008 10.3549 5.5399 0.0000 53.9697 0.0000
# 6 0.0000 0.0000 0.0000 5.7891 0.0000 16.2767
#
#
#
# Elastic Compliance Matrix: (Units=1/GPa)
#
#
# Indices 1 2 3 4 5 6 
#
# 1 0.011323 -0.007513 0.000124 0.000000 0.001702 0.000000
# 2 -0.007513 0.075011 -0.005733 0.000000 -0.013985 0.000000
# 3 0.000124 -0.005733 0.013510 0.000000 -0.000284 0.000000
# 4 0.000000 0.000000 0.000000 0.038362 0.000000 -0.013644
# 5 0.001702 -0.013985 -0.000284 0.000000 0.021282 0.000000
# 6 0.000000 0.000000 0.000000 -0.013644 0.000000 0.066290
#
#
# Mechanical properties :
#
#
# Convention : Reuss Voigt Hill
#
# Bulk Modulus (GPa) = 13.58679 25.38260 19.48470
# Shear Modulus (GPa) = 18.07945 30.93132 24.50539
#
# Velocity S-wave (km/s) = 2.76795 3.62047 3.22252
# Velocity P-wave (km/s) = 3.99663 5.31352 4.70141
#
# Compressibility (1/GPa) = 0.07360088
#
# Stress axis : x y z
#
# Youngs Moduli (GPa) = 88.31207 13.33130 74.01785
#
# Poissons Ratio (x) = 0.10016 -0.00916
# Poissons Ratio (y) = 0.66348 0.42434
# Poissons Ratio (z) = -0.01093 0.07643
#
# Static dielectric constant tensor:
#      x y z
#    x 1.938760 0.000000 0.081000 
#    y 0.000000 2.008380 0.000000 
#    z 0.081000 0.000000 1.945540 
# 
# From -- ./inp_files/22872.got.cif
#   From: 2010.05.17/outbox.cif.g08.bks.cpg/sg13_12_cif.got.tgz:22872.got - 2010.06.03 16:44:36.
