data_PCOD9226854
_publ_section_title
;
Structure prediction by ZEFSAII (Michael W. Deem and Ramdas Pophale) SiO2 
 PCOD9226854
Probable space group: P 2/C
;
_chemical_formula_sum "Si O2"
_cell_formula_units_Z 32
_cell_length_a 19.633143
_cell_length_b 11.771329
_cell_length_c 7.829106
_cell_angle_alpha 90.000000
_cell_angle_beta 53.361904
_cell_angle_gamma 90.000000
_cell_volume 1451.876632
_symmetry_space_group_name_H-M "P 2/C"
_symmetry_group_IT_number 13
_symmetry_cell_setting 'monoclinic'
loop_
_space_group_symop_operation_xyz
x,y,z
-x,y,1/2-z
-x,-y,-z
x,-y,1/2+z
loop_
_atom_site_type_symbol
_atom_site_label
_atom_site_fract_x
_atom_site_fract_y
_atom_site_fract_z
Si Si1 0.225909 0.726439 0.241143
Si Si2 0.952190 0.190081 0.496795
Si Si3 0.737814 0.872216 0.638828
Si Si4 0.921314 0.941118 0.480455
Si Si5 0.305951 0.124420 0.901240
Si Si6 0.486788 0.869907 0.972658
Si Si7 0.552609 0.355737 0.429138
Si Si8 0.620815 0.568522 0.460453
O O1 0.124402 0.721035 0.360333
O O2 0.236997 0.811844 0.386417
O O3 0.284487 0.617651 0.202852
O O4 0.265735 0.779951 0.007308
O O5 0.000000 0.217452 0.250000
O O6 0.033899 0.164539 0.492921
O O7 0.904252 0.065612 0.586343
O O8 0.836483 0.898089 0.525935
O O9 0.699870 0.988717 0.618865
O O10 0.704929 0.851435 0.881826
O O11 0.000000 0.980876 0.250000
O O12 0.393964 0.159192 0.681207
O O13 0.500000 0.857541 0.750000
O O14 0.549610 0.778527 0.962307
O O15 0.500000 0.000000 0.000000
O O16 0.607786 0.432740 0.472523
O O17 0.453018 0.392064 0.562330
O O18 0.589594 0.384065 0.187850
#
# Coordination Sequence:
#
# PCOD9226854 Si02
#       8
#     4   4   4   4   4   4   4   4
#     4  12  22  40  61  96 137 180 237 302 350 421
#     4  10  19  30  54  83 133 186 238 288 344 432
#     4  12  23  36  57  88 139 194 239 292 352 433
#     4  10  18  31  47  80 127 195 237 269 345 425
#     4  12  23  38  57  89 134 186 237 284 356 424
#     4  12  25  46  65  99 144 187 229 284 367 442
#     4  10  21  47  70  97 135 182 232 297 354 424
#     4  10  22  44  74  94 132 175 236 295 355 405
#
# _framework density 22.040441000000001
#
# number of rings (size 3 to 8) (size 9 to 14) (size 15 to 20)
#    0.000    1.000    6.250    1.500    3.500    0.000 
#    6.750    1.250    0.000    0.000    0.000    0.875 
#    0.000    0.000    0.000    0.000    0.000    0.000 
#
# Total GULP energy -178431.598698 kJ/mol
# GULP energy per Si atom -5575.987459 kJ/mol
# Density = 2.199028 g / cm^3
# Si number density = 22.040441 Si / 1000 Ang^3
#
#
#
# Elastic Constant Matrix: (Units=GPa)
#
#
# Indices 1 2 3 4 5 6 
#
# 1 101.8538 41.1861 52.0259 0.0000 -15.5354 0.0000
# 2 41.1861 109.2354 24.5235 0.0000 -10.8934 0.0000
# 3 52.0259 24.5235 137.2639 0.0000 0.5391 0.0000
# 4 0.0000 0.0000 0.0000 17.8236 0.0000 -14.2164
# 5 -15.5354 -10.8934 0.5391 0.0000 34.4566 0.0000
# 6 0.0000 0.0000 0.0000 -14.2164 0.0000 42.5723
#
#
#
# Elastic Compliance Matrix: (Units=1/GPa)
#
#
# Indices 1 2 3 4 5 6 
#
# 1 0.014745 -0.003909 -0.004912 0.000000 0.005489 0.000000
# 2 -0.003909 0.010903 -0.000473 0.000000 0.001692 0.000000
# 3 -0.004912 -0.000473 0.009241 0.000000 -0.002509 0.000000
# 4 0.000000 0.000000 0.000000 0.076474 0.000000 0.025537
# 5 0.005489 0.001692 -0.002509 0.000000 0.032071 0.000000
# 6 0.000000 0.000000 0.000000 0.025537 0.000000 0.032017
#
#
# Mechanical properties :
#
#
# Convention : Reuss Voigt Hill
#
# Bulk Modulus (GPa) = 61.34395 64.86935 63.10665
# Shear Modulus (GPa) = 25.06594 34.34501 29.70547
#
# Velocity S-wave (km/s) = 3.37600 3.95178 3.67518
# Velocity P-wave (km/s) = 6.56425 7.09351 6.83401
#
# Compressibility (1/GPa) = 0.01630153
#
# Stress axis : x y z
#
# Youngs Moduli (GPa) = 67.82023 91.71443 108.21073
#
# Poissons Ratio (x) = 0.35854 0.53150
# Poissons Ratio (y) = 0.26513 0.05118
# Poissons Ratio (z) = 0.33311 0.04337
#
# Static dielectric constant tensor:
#      x y z
#    x 1.926400 0.000000 -0.000840 
#    y 0.000000 1.904420 0.000000 
#    z -0.000840 0.000000 1.932570 
# 
# From -- ./inp_files/23345.got.cif
#   From: 2010.05.17/outbox.cif.g08.bks.cpg/sg13_12_cif.got.tgz:23345.got - 2010.06.03 16:44:36.
