data_PCOD9226682
_publ_section_title
;
Structure prediction by ZEFSAII (Michael W. Deem and Ramdas Pophale) SiO2 
 PCOD9226682
Probable space group: P 2/C
;
_chemical_formula_sum "Si O2"
_cell_formula_units_Z 30
_cell_length_a 12.416293
_cell_length_b 11.943050
_cell_length_c 10.856351
_cell_angle_alpha 90.000000
_cell_angle_beta 79.373994
_cell_angle_gamma 90.000000
_cell_volume 1582.264544
_symmetry_space_group_name_H-M "P 2/C"
_symmetry_group_IT_number 13
_symmetry_cell_setting 'monoclinic'
loop_
_space_group_symop_operation_xyz
x,y,z
-x,y,1/2-z
-x,-y,-z
x,-y,1/2+z
loop_
_atom_site_type_symbol
_atom_site_label
_atom_site_fract_x
_atom_site_fract_y
_atom_site_fract_z
Si Si1 0.000000 0.912203 0.250000
Si Si2 0.768391 0.821794 0.547889
Si Si3 0.097830 0.604100 0.635794
Si Si4 0.383074 0.532101 0.728420
Si Si5 0.012761 0.191802 0.007112
Si Si6 0.735932 0.575207 0.480177
Si Si7 0.809349 0.040641 0.399043
Si Si8 0.698819 0.753175 0.811185
O O1 0.000979 0.832775 0.366961
O O2 0.111087 0.986536 0.222267
O O3 0.759581 0.707224 0.473648
O O4 0.688612 0.805117 0.678296
O O5 0.890058 0.825087 0.581909
O O6 0.754580 0.934819 0.475848
O O7 0.053715 0.688035 0.541120
O O8 0.154465 0.497149 0.563630
O O9 0.192497 0.675219 0.687852
O O10 0.000000 0.577656 0.750000
O O11 0.500000 0.490889 0.750000
O O12 0.335789 0.458250 0.625539
O O13 0.392737 0.656757 0.664417
O O14 0.312806 0.544646 0.872238
O O15 0.097849 0.100594 0.038472
O O16 0.722252 0.137586 0.387686
#
# Coordination Sequence:
#
# PCOD9226682 Si02
#       8
#     2   4   4   4   4   4   4   4
#     4  10  18  26  40  74 106 144 194 226 254 310
#     4  10  18  32  47  75 113 144 183 228 262 316
#     4  10  19  35  54  74 116 156 185 225 261 331
#     4  10  21  42  65  83 107 138 186 246 289 340
#     4  10  19  29  47  71 104 158 191 214 262 310
#     4  10  23  37  58  89 110 148 189 224 291 339
#     4  10  18  29  49  70 107 147 190 225 258 315
#     4   9  18  33  54  79 100 143 192 218 279 329
#
# _framework density 18.960166999999998
#
# number of rings (size 3 to 8) (size 9 to 14) (size 15 to 20)
#    0.000    2.133    1.333    3.600    1.867    2.667 
#    4.800    1.333    0.000    4.000    0.000    0.000 
#    0.000    0.000    0.000    0.000    0.000    0.000 
#
# Total GULP energy -167022.725004 kJ/mol
# GULP energy per Si atom -5567.424167 kJ/mol
# Density = 1.891701 g / cm^3
# Si number density = 18.960167 Si / 1000 Ang^3
#
#
#
# Elastic Constant Matrix: (Units=GPa)
#
#
# Indices 1 2 3 4 5 6 
#
# 1 30.6418 28.3356 18.0079 0.0000 15.7620 0.0000
# 2 28.3356 137.2535 44.6892 0.0000 13.5182 0.0000
# 3 18.0079 44.6892 60.3312 0.0000 14.5594 0.0000
# 4 0.0000 0.0000 0.0000 31.5098 0.0000 2.8652
# 5 15.7620 13.5182 14.5594 0.0000 19.6166 0.0000
# 6 0.0000 0.0000 0.0000 2.8652 0.0000 0.2523
#
#
#
# Elastic Compliance Matrix: (Units=1/GPa)
#
#
# Indices 1 2 3 4 5 6 
#
# 1 0.064398 -0.008110 -0.002529 0.000000 -0.044278 0.000000
# 2 -0.008110 0.010666 -0.006430 0.000000 0.003939 0.000000
# 3 -0.002529 -0.006430 0.025014 0.000000 -0.012102 0.000000
# 4 0.000000 0.000000 0.000000 -0.975687 0.000000 11.078891
# 5 -0.044278 0.003939 -0.012102 0.000000 0.092822 0.000000
# 6 0.000000 0.000000 0.000000 11.078891 0.000000**********
#
#
# Mechanical properties :
#
#
# Convention : Reuss Voigt Hill
#
# Bulk Modulus (GPa) = 15.16566 45.58797 30.37682
# Shear Modulus (GPa) = -0.04079 19.42201 9.69061
#
# Velocity S-wave (km/s) = -0.14684 3.20403 2.26321
# Velocity P-wave (km/s) = 2.82618 6.14687 4.78390
#
# Compressibility (1/GPa) = 0.06593845
#
# Stress axis : x y z
#
# Youngs Moduli (GPa) = 15.52846 93.75691 39.97821
#
# Poissons Ratio (x) = 0.76041 0.10109
# Poissons Ratio (y) = 0.12594 0.25707
# Poissons Ratio (z) = 0.03927 0.60289
#
# Static dielectric constant tensor:
#      x y z
#    x 1.704550 0.000000 -0.011200 
#    y 0.000000 1.665910 0.000000 
#    z -0.011200 0.000000 1.722090 
# 
# From -- ./inp_files/33831.got.cif
#   From: 2010.05.17/outbox.cif.g08.bks.cpg/sg13_17_cif.got.tgz:33831.got - 2010.06.03 16:44:36.
