data_PCOD9226466
_publ_section_title
;
Structure prediction by ZEFSAII (Michael W. Deem and Ramdas Pophale) SiO2 
 PCOD9226466
Probable space group: P 2/C
;
_chemical_formula_sum "Si O2"
_cell_formula_units_Z 24
_cell_length_a 14.430153
_cell_length_b 13.352072
_cell_length_c 5.639713
_cell_angle_alpha 90.000000
_cell_angle_beta 73.845506
_cell_angle_gamma 90.000000
_cell_volume 1043.712155
_symmetry_space_group_name_H-M "P 2/C"
_symmetry_group_IT_number 13
_symmetry_cell_setting 'monoclinic'
loop_
_space_group_symop_operation_xyz
x,y,z
-x,y,1/2-z
-x,-y,-z
x,-y,1/2+z
loop_
_atom_site_type_symbol
_atom_site_label
_atom_site_fract_x
_atom_site_fract_y
_atom_site_fract_z
Si Si1 0.698473 0.963692 0.611073
Si Si2 0.000000 0.440700 0.750000
Si Si3 0.754411 0.304223 0.473477
Si Si4 0.500000 0.084864 0.750000
Si Si5 0.808852 0.310180 0.933671
Si Si6 0.660719 0.512095 0.555594
Si Si7 0.582550 0.774607 0.825820
O O1 0.663686 0.847007 0.644046
O O2 0.745427 0.002073 0.330347
O O3 0.597777 0.024038 0.691376
O O4 0.904057 0.374214 0.821664
O O5 0.000000 0.500000 0.500000
O O6 0.790524 0.257408 0.693349
O O7 0.746053 0.425993 0.498035
O O8 0.644179 0.275650 0.490876
O O9 0.816456 0.272269 0.199712
O O10 0.509891 0.150776 0.510821
O O11 0.713258 0.380557 0.022398
O O12 0.609436 0.498053 0.841525
O O13 0.500000 0.710400 0.750000
#
# Coordination Sequence:
#
# PCOD9226466 Si02
#       7
#     4   2   4   2   4   4   4
#     4  10  17  30  47  68  94 126 162 206 267 293
#     4  12  20  32  62  88 100 122 172 212 248 332
#     4  10  21  31  48  71 103 134 162 209 254 299
#     4  10  18  32  48  70  98 128 172 220 264 288
#     4  10  20  35  50  75 101 130 160 204 261 302
#     4   8  14  29  45  59  84 119 150 182 237 277
#     4  11  20  31  49  70  99 136 184 205 245 312
#
# _framework density 22.994845000000002
#
# number of rings (size 3 to 8) (size 9 to 14) (size 15 to 20)
#    0.000    2.000    2.500    5.000    2.333    0.000 
#    0.000    0.000    0.000    9.000    0.000    0.000 
#    0.000    0.000    0.000   60.000    0.000    2.000 
#
# Total GULP energy -133659.221732 kJ/mol
# GULP energy per Si atom -5569.134239 kJ/mol
# Density = 2.294251 g / cm^3
# Si number density = 22.994845 Si / 1000 Ang^3
#
#
#
# Elastic Constant Matrix: (Units=GPa)
#
#
# Indices 1 2 3 4 5 6 
#
# 1 62.4581 -1.7595 37.9011 0.0000 8.6676 0.0000
# 2 -1.7595 29.3601 5.5152 0.0000 7.0350 0.0000
# 3 37.9011 5.5152 235.5477 0.0000 35.1536 0.0000
# 4 0.0000 0.0000 0.0000 6.7937 0.0000 -6.3913
# 5 8.6676 7.0350 35.1536 0.0000 32.0889 0.0000
# 6 0.0000 0.0000 0.0000 -6.3913 0.0000 7.4260
#
#
#
# Elastic Compliance Matrix: (Units=1/GPa)
#
#
# Indices 1 2 3 4 5 6 
#
# 1 0.017979 0.002163 -0.002568 0.000000 -0.002517 0.000000
# 2 0.002163 0.036240 0.000091 0.000000 -0.008629 0.000000
# 3 -0.002568 0.000091 0.005446 0.000000 -0.005293 0.000000
# 4 0.000000 0.000000 0.000000 0.773428 0.000000 0.665663
# 5 -0.002517 -0.008629 -0.005293 0.000000 0.039534 0.000000
# 6 0.000000 0.000000 0.000000 0.665663 0.000000 0.707576
#
#
# Mechanical properties :
#
#
# Convention : Reuss Voigt Hill
#
# Bulk Modulus (GPa) = 16.93808 45.63105 31.28456
# Shear Modulus (GPa) = 3.12401 28.30900 15.71650
#
# Velocity S-wave (km/s) = 1.16684 3.51251 2.61718
# Velocity P-wave (km/s) = 3.03272 6.02805 4.77152
#
# Compressibility (1/GPa) = 0.05903857
#
# Stress axis : x y z
#
# Youngs Moduli (GPa) = 55.61947 27.59383 183.60718
#
# Poissons Ratio (x) = -0.05969 0.47149
# Poissons Ratio (y) = -0.12031 -0.01676
# Poissons Ratio (z) = 0.14283 -0.00252
#
# Static dielectric constant tensor:
#      x y z
#    x 3.840650 0.000000 -1.183270 
#    y 0.000000 2.004500 0.000000 
#    z -1.183270 0.000000 2.910640 
# 
# From -- ./inp_files/4869.got.cif
#   From: 2010.05.17/outbox.cif.g08.bks.cpg/sg13_3_cif.got.tgz:4869.got - 2010.06.03 16:44:36.
