data_PCOD9226161
_publ_section_title
;
Structure prediction by ZEFSAII (Michael W. Deem and Ramdas Pophale) SiO2 
 PCOD9226161
Probable space group: P 2/C
;
_chemical_formula_sum "Si O2"
_cell_formula_units_Z 18
_cell_length_a 10.983003
_cell_length_b 7.848537
_cell_length_c 11.145415
_cell_angle_alpha 90.000000
_cell_angle_beta 130.592672
_cell_angle_gamma 90.000000
_cell_volume 729.542583
_symmetry_space_group_name_H-M "P 2/C"
_symmetry_group_IT_number 13
_symmetry_cell_setting 'monoclinic'
loop_
_space_group_symop_operation_xyz
x,y,z
-x,y,1/2-z
-x,-y,-z
x,-y,1/2+z
loop_
_atom_site_type_symbol
_atom_site_label
_atom_site_fract_x
_atom_site_fract_y
_atom_site_fract_z
Si Si1 0.509407 0.321864 0.617546
Si Si2 0.827171 0.221875 0.092389
Si Si3 0.164803 0.810084 0.171021
Si Si4 0.181941 0.871080 0.524040
Si Si5 0.500000 0.652560 0.750000
O O1 0.500000 0.240967 0.750000
O O2 0.336294 0.281452 0.452355
O O3 0.670467 0.248136 0.662387
O O4 0.518940 0.521265 0.651589
O O5 0.000000 0.272199 0.250000
O O6 0.825875 0.283255 0.953015
O O7 0.815205 0.016846 0.075469
O O8 0.169960 0.011153 0.137375
O O9 0.986023 0.774322 0.100924
O O10 0.340844 0.762524 0.632927
#
# Coordination Sequence:
#
# PCOD9226161 Si02
#       5
#     4   4   4   4   2
#     4   8  16  29  45  68  87 127 150 177 228 277
#     4   9  16  31  49  68  94 122 152 185 237 272
#     4   8  16  31  47  69  91 118 164 187 220 266
#     4   9  16  27  50  71  89 116 160 201 214 261
#     4  10  16  28  50  72  88 120 160 190 218 272
#
# _framework density 24.672996000000001
#
# number of rings (size 3 to 8) (size 9 to 14) (size 15 to 20)
#    2.000    1.333    0.000    1.333    0.000    0.889 
#    0.000    2.222    0.000    1.333    0.000    0.000 
#    0.000    0.000    0.000    0.000    0.000    0.000 
#
# Total GULP energy -100393.328655 kJ/mol
# GULP energy per Si atom -5577.407147 kJ/mol
# Density = 2.461684 g / cm^3
# Si number density = 24.672996 Si / 1000 Ang^3
#
#
#
# Elastic Constant Matrix: (Units=GPa)
#
#
# Indices 1 2 3 4 5 6 
#
# 1 90.8598 38.5650 84.6216 0.0000 42.0377 0.0000
# 2 38.5650 51.8359 57.2869 0.0000 32.1391 0.0000
# 3 84.6216 57.2869 215.8848 0.0000 81.5416 0.0000
# 4 0.0000 0.0000 0.0000 -27.0593 0.0000 -28.7296
# 5 42.0377 32.1391 81.5416 0.0000 65.9263 0.0000
# 6 0.0000 0.0000 0.0000 -28.7296 0.0000 4.9791
#
#
#
# Elastic Compliance Matrix: (Units=1/GPa)
#
#
# Indices 1 2 3 4 5 6 
#
# 1 0.020129 -0.007871 -0.004510 0.000000 -0.003420 0.000000
# 2 -0.007871 0.032933 -0.002788 0.000000 -0.007588 0.000000
# 3 -0.004510 -0.002788 0.010397 0.000000 -0.008626 0.000000
# 4 0.000000 0.000000 0.000000 -0.005186 0.000000 -0.029923
# 5 -0.003420 -0.007588 -0.008626 0.000000 0.031717 0.000000
# 6 0.000000 0.000000 0.000000 -0.029923 0.000000 0.028183
#
#
# Mechanical properties :
#
#
# Convention : Reuss Voigt Hill
#
# Bulk Modulus (GPa) = 30.19074 79.94748 55.06911
# Shear Modulus (GPa) = 31.33750 20.64302 25.99026
#
# Velocity S-wave (km/s) = 3.56773 2.89565 3.24912
# Velocity P-wave (km/s) = 5.40690 6.60704 6.03686
#
# Compressibility (1/GPa) = 0.03312274
#
# Stress axis : x y z
#
# Youngs Moduli (GPa) = 49.67857 30.36442 96.17697
#
# Poissons Ratio (x) = 0.23901 0.43371
# Poissons Ratio (y) = 0.39104 0.26812
# Poissons Ratio (z) = 0.22403 0.08465
#
# Static dielectric constant tensor:
#      x y z
#    x 2.131180 0.000000 -0.138300 
#    y 0.000000 1.908170 0.000000 
#    z -0.138300 0.000000 2.046700 
# 
# From -- ./inp_files/45476.got.cif
#   From: 2010.05.17/outbox.cif.g08.bks.cpg/sg13_23_cif.got.tgz:45476.got - 2010.06.03 16:44:36.
