data_PCOD9226444
_publ_section_title
;
Structure prediction by ZEFSAII (Michael W. Deem and Ramdas Pophale) SiO2 
 PCOD9226444
Probable space group: P 2/C
;
_chemical_formula_sum "Si O2"
_cell_formula_units_Z 20
_cell_length_a 12.581087
_cell_length_b 7.395472
_cell_length_c 9.859926
_cell_angle_alpha 90.000000
_cell_angle_beta 59.490411
_cell_angle_gamma 90.000000
_cell_volume 790.378804
_symmetry_space_group_name_H-M "P 2/C"
_symmetry_group_IT_number 13
_symmetry_cell_setting 'monoclinic'
loop_
_space_group_symop_operation_xyz
x,y,z
-x,y,1/2-z
-x,-y,-z
x,-y,1/2+z
loop_
_atom_site_type_symbol
_atom_site_label
_atom_site_fract_x
_atom_site_fract_y
_atom_site_fract_z
Si Si1 0.097650 0.484177 0.791547
Si Si2 0.290566 0.792887 0.019910
Si Si3 0.947105 0.138798 0.932013
Si Si4 0.349191 0.617604 0.719172
Si Si5 0.525823 0.775692 0.383395
O O1 0.193347 0.354732 0.642932
O O2 0.012016 0.335167 0.924021
O O3 0.200356 0.606825 0.796652
O O4 0.000000 0.572582 0.750000
O O5 0.376064 0.874978 0.080993
O O6 0.197362 0.909982 0.992332
O O7 0.371634 0.696377 0.853856
O O8 0.000000 0.099966 0.750000
O O9 0.000000 0.000000 0.000000
O O10 0.409941 0.721308 0.552914
O O11 0.404176 0.415739 0.685461
O O12 0.500000 0.853048 0.250000
#
# Coordination Sequence:
#
# PCOD9226444 Si02
#       5
#     4   4   4   4   4
#     4   8  17  30  48  74 109 140 169 214 264 314
#     4   9  18  32  50  76 107 139 173 216 262 312
#     4   9  19  38  57  75 102 138 181 225 267 308
#     4  10  17  29  50  81 113 142 171 206 259 320
#     4  10  18  29  48  77 113 144 170 203 255 320
#
# _framework density 25.304324000000001
#
# number of rings (size 3 to 8) (size 9 to 14) (size 15 to 20)
#    0.000    3.200    0.000    4.200    0.000    3.200 
#    0.000   15.000    0.000    0.000    0.000   93.800 
#    0.000    1.600    0.000    0.000    0.000    0.000 
#
# Total GULP energy -111578.010709 kJ/mol
# GULP energy per Si atom -5578.900535 kJ/mol
# Density = 2.524673 g / cm^3
# Si number density = 25.304324 Si / 1000 Ang^3
#
#
#
# Elastic Constant Matrix: (Units=GPa)
#
#
# Indices 1 2 3 4 5 6 
#
# 1 221.1876 33.8919 60.3098 0.0000 11.6156 0.0000
# 2 33.8919 53.7043 20.3326 0.0000 19.8112 0.0000
# 3 60.3098 20.3326 92.9104 0.0000 -0.3150 0.0000
# 4 0.0000 0.0000 0.0000 2.1034 0.0000 15.3608
# 5 11.6156 19.8112 -0.3150 0.0000 66.4110 0.0000
# 6 0.0000 0.0000 0.0000 15.3608 0.0000 21.8068
#
#
#
# Elastic Compliance Matrix: (Units=1/GPa)
#
#
# Indices 1 2 3 4 5 6 
#
# 1 0.005776 -0.002288 -0.003250 0.000000 -0.000343 0.000000
# 2 -0.002288 0.023999 -0.003790 0.000000 -0.006777 0.000000
# 3 -0.003250 -0.003790 0.013708 0.000000 0.001764 0.000000
# 4 0.000000 0.000000 0.000000 -0.114721 0.000000 0.080810
# 5 -0.000343 -0.006777 0.001764 0.000000 0.017148 0.000000
# 6 0.000000 0.000000 0.000000 0.080810 0.000000 -0.011065
#
#
# Mechanical properties :
#
#
# Convention : Reuss Voigt Hill
#
# Bulk Modulus (GPa) = 40.27722 66.31897 53.29810
# Shear Modulus (GPa) = -130.80290 34.94878 -47.92706
#
# Velocity S-wave (km/s) = -7.19751 3.72040 -4.35676
# Velocity P-wave (km/s) = 7.28838 6.68735 2.04938
#
# Compressibility (1/GPa) = 0.02482793
#
# Stress axis : x y z
#
# Youngs Moduli (GPa) = 173.13941 41.66789 72.95164
#
# Poissons Ratio (x) = 0.09534 0.23706
# Poissons Ratio (y) = 0.39616 0.27647
# Poissons Ratio (z) = 0.56262 0.15791
#
# Static dielectric constant tensor:
#      x y z
#    x 2.076740 0.000000 -0.024570 
#    y 0.000000 2.207150 0.000000 
#    z -0.024570 0.000000 1.995420 
# 
# From -- ./inp_files/15303.got.cif
#   From: 2010.05.17/outbox.cif.g08.bks.cpg/sg13_8_cif.got.tgz:15303.got - 2010.06.03 16:44:36.
