data_PCOD9226273
_publ_section_title
;
Structure prediction by ZEFSAII (Michael W. Deem and Ramdas Pophale) SiO2 
 PCOD9226273
Probable space group: P 2/C
;
_chemical_formula_sum "Si O2"
_cell_formula_units_Z 32
_cell_length_a 16.227987
_cell_length_b 11.570759
_cell_length_c 19.751364
_cell_angle_alpha 90.000000
_cell_angle_beta 152.928382
_cell_angle_gamma 90.000000
_cell_volume 1687.851081
_symmetry_space_group_name_H-M "P 2/C"
_symmetry_group_IT_number 13
_symmetry_cell_setting 'monoclinic'
loop_
_space_group_symop_operation_xyz
x,y,z
-x,y,1/2-z
-x,-y,-z
x,-y,1/2+z
loop_
_atom_site_type_symbol
_atom_site_label
_atom_site_fract_x
_atom_site_fract_y
_atom_site_fract_z
Si Si1 0.018820 0.667469 0.428322
Si Si2 0.451724 0.011575 0.290398
Si Si3 0.643591 0.266972 0.252103
Si Si4 0.722804 0.864512 0.225155
Si Si5 0.559203 0.695967 0.539771
Si Si6 0.755103 0.679084 0.038765
Si Si7 0.197658 0.073118 0.864937
Si Si8 0.231868 0.518159 0.336509
O O1 0.877711 0.767020 0.345371
O O2 0.914085 0.552760 0.327349
O O3 0.179485 0.661172 0.599691
O O4 0.124664 0.704596 0.437838
O O5 0.500000 0.970648 0.250000
O O6 0.366261 0.140353 0.221956
O O7 0.637311 0.021484 0.470262
O O8 0.313198 0.936670 0.233640
O O9 0.630592 0.252054 0.162021
O O10 0.455619 0.328447 0.134746
O O11 0.772744 0.939486 0.194292
O O12 0.536942 0.795088 0.073156
O O13 0.401726 0.602360 0.442114
O O14 0.713110 0.614761 0.621230
O O15 0.780021 0.788739 0.106241
O O16 0.811284 0.566124 0.120742
O O17 0.000000 0.039779 0.750000
#
# Coordination Sequence:
#
# PCOD9226273 Si02
#       8
#     4   4   4   4   4   4   4   4
#     4  11  19  31  55  86 115 146 188 243 286 344
#     4  11  24  38  55  84 120 156 192 244 301 351
#     4  10  20  33  53  82 119 146 185 247 299 335
#     4  11  21  37  59  82 113 156 197 235 291 356
#     4   9  18  34  52  78 106 143 189 231 281 345
#     4  10  16  32  53  83 116 142 186 237 289 337
#     4  11  18  35  59  87 111 144 196 244 286 346
#     4   9  17  30  54  77 105 144 183 228 285 342
#
# _framework density 18.959016999999999
#
# number of rings (size 3 to 8) (size 9 to 14) (size 15 to 20)
#    0.000    1.750    6.250    2.625    0.000    1.000 
#    0.000    0.000    0.000   10.500    0.000    0.000 
#    0.000    0.000    0.000    0.000    0.000    0.000 
#
# Total GULP energy -178365.810648 kJ/mol
# GULP energy per Si atom -5573.931583 kJ/mol
# Density = 1.891587 g / cm^3
# Si number density = 18.959017 Si / 1000 Ang^3
#
#
#
# Elastic Constant Matrix: (Units=GPa)
#
#
# Indices 1 2 3 4 5 6 
#
# 1 100.2521 36.2591 16.9666 0.0000 1.3189 0.0000
# 2 36.2591 37.1748 14.4694 0.0000 8.9409 0.0000
# 3 16.9666 14.4694 101.1530 0.0000 14.6990 0.0000
# 4 0.0000 0.0000 0.0000 11.4662 0.0000 3.5795
# 5 1.3189 8.9409 14.6990 0.0000 20.4820 0.0000
# 6 0.0000 0.0000 0.0000 3.5795 0.0000 23.3095
#
#
#
# Elastic Compliance Matrix: (Units=1/GPa)
#
#
# Indices 1 2 3 4 5 6 
#
# 1 0.016318 -0.017172 -0.001359 0.000000 0.007420 0.000000
# 2 -0.017172 0.048786 -0.001300 0.000000 -0.019258 0.000000
# 3 -0.001359 -0.001300 0.011393 0.000000 -0.007521 0.000000
# 4 0.000000 0.000000 0.000000 0.091604 0.000000 -0.014067
# 5 0.007420 -0.019258 -0.007521 0.000000 0.062150 0.000000
# 6 0.000000 0.000000 0.000000 -0.014067 0.000000 0.045061
#
#
# Mechanical properties :
#
#
# Convention : Reuss Voigt Hill
#
# Bulk Modulus (GPa) = 27.14745 41.55223 34.34984
# Shear Modulus (GPa) = 15.27874 22.44385 18.86129
#
# Velocity S-wave (km/s) = 2.84189 3.44438 3.15754
# Velocity P-wave (km/s) = 5.01184 6.14677 5.60809
#
# Compressibility (1/GPa) = 0.03683587
#
# Stress axis : x y z
#
# Youngs Moduli (GPa) = 61.28252 20.49752 87.77439
#
# Poissons Ratio (x) = 0.35198 0.11929
# Poissons Ratio (y) = 1.05232 0.11410
# Poissons Ratio (z) = 0.08328 0.02665
#
# Static dielectric constant tensor:
#      x y z
#    x 1.703960 0.000000 0.019180 
#    y 0.000000 1.648810 0.000000 
#    z 0.019180 0.000000 1.724760 
# 
# From -- ./inp_files/68750.got.cif
#   From: 2010.05.17/outbox.cif.g08.bks.cpg/sg13_35_cif.got.tgz:68750.got - 2010.06.03 16:44:36.
