data_PCOD9226369
_publ_section_title
;
Structure prediction by ZEFSAII (Michael W. Deem and Ramdas Pophale) SiO2 
 PCOD9226369
Probable space group: P 2/C
;
_chemical_formula_sum "Si O2"
_cell_formula_units_Z 28
_cell_length_a 9.100669
_cell_length_b 24.608596
_cell_length_c 5.566791
_cell_angle_alpha 90.000000
_cell_angle_beta 83.697212
_cell_angle_gamma 90.000000
_cell_volume 1239.173345
_symmetry_space_group_name_H-M "P 2/C"
_symmetry_group_IT_number 13
_symmetry_cell_setting 'monoclinic'
loop_
_space_group_symop_operation_xyz
x,y,z
-x,y,1/2-z
-x,-y,-z
x,-y,1/2+z
loop_
_atom_site_type_symbol
_atom_site_label
_atom_site_fract_x
_atom_site_fract_y
_atom_site_fract_z
Si Si1 0.489588 0.394265 0.002054
Si Si2 0.818594 0.192823 0.303482
Si Si3 0.206541 0.683801 0.587835
Si Si4 0.189496 0.644812 0.092290
Si Si5 0.832171 0.481739 0.796845
Si Si6 0.827624 0.143664 0.803608
Si Si7 0.170018 0.019644 0.517394
O O1 0.500000 0.425403 0.750000
O O2 0.631427 0.354087 0.965883
O O3 0.500000 0.425592 0.250000
O O4 0.344743 0.357507 0.039255
O O5 0.764250 0.253159 0.373052
O O6 0.772351 0.155828 0.542262
O O7 0.000000 0.192730 0.250000
O O8 0.764543 0.175218 0.047521
O O9 0.140839 0.677759 0.333772
O O10 0.131346 0.664014 0.847416
O O11 0.157805 0.581611 0.144334
O O12 0.765263 0.490428 0.544996
O O13 0.000000 0.504919 0.750000
O O14 0.000000 0.159356 0.750000
O O15 0.824582 0.080891 0.885455
O O16 0.233740 0.985845 0.734394
O O17 0.000000 0.000000 0.500000
#
# Coordination Sequence:
#
# PCOD9226369 Si02
#       7
#     4   4   4   4   4   4   4
#     4   8  16  30  50  71  90 116 155 200 239 279
#     4  10  21  30  42  62  94 130 160 200 245 292
#     4  10  19  33  50  70  95 124 166 200 244 290
#     4  10  19  33  56  74  94 125 164 203 235 283
#     4  10  21  36  53  77 106 133 159 192 242 287
#     4  10  18  29  40  58  90 123 162 214 243 280
#     4  10  17  24  41  60  78 112 173 220 234 278
#
# _framework density 22.595708999999999
#
# number of rings (size 3 to 8) (size 9 to 14) (size 15 to 20)
#    0.000    2.286    1.429    2.571    4.000    1.143 
#    0.000    0.000    0.000   23.143    0.000    0.000 
#    0.000    0.000    0.000    0.000    0.000  450.000 
#
# Total GULP energy -156028.212931 kJ/mol
# GULP energy per Si atom -5572.436176 kJ/mol
# Density = 2.254428 g / cm^3
# Si number density = 22.595709 Si / 1000 Ang^3
#
#
#
# Elastic Constant Matrix: (Units=GPa)
#
#
# Indices 1 2 3 4 5 6 
#
# 1 36.3523 -11.6835 23.0294 0.0000 -0.0121 0.0000
# 2 -11.6835 114.2551 68.9059 0.0000 4.9675 0.0000
# 3 23.0294 68.9059 281.6249 0.0000 32.1886 0.0000
# 4 0.0000 0.0000 0.0000 47.2760 0.0000 5.0789
# 5 -0.0121 4.9675 32.1886 0.0000 24.9830 0.0000
# 6 0.0000 0.0000 0.0000 5.0789 0.0000 5.6540
#
#
#
# Elastic Compliance Matrix: (Units=1/GPa)
#
#
# Indices 1 2 3 4 5 6 
#
# 1 0.032343 0.005895 -0.004638 0.000000 0.004819 0.000000
# 2 0.005895 0.011384 -0.003529 0.000000 0.002286 0.000000
# 3 -0.004638 -0.003529 0.005527 0.000000 -0.006422 0.000000
# 4 0.000000 0.000000 0.000000 0.023412 0.000000 -0.021030
# 5 0.004819 0.002286 -0.006422 0.000000 0.047850 0.000000
# 6 0.000000 0.000000 0.000000 -0.021030 0.000000 0.195755
#
#
# Mechanical properties :
#
#
# Convention : Reuss Voigt Hill
#
# Bulk Modulus (GPa) = 22.36592 65.85955 44.11274
# Shear Modulus (GPa) = 14.89345 39.04798 26.97072
#
# Velocity S-wave (km/s) = 2.57013 4.16157 3.45863
# Velocity P-wave (km/s) = 4.32750 7.23200 5.95940
#
# Compressibility (1/GPa) = 0.04471088
#
# Stress axis : x y z
#
# Youngs Moduli (GPa) = 30.91871 87.84397 180.91424
#
# Poissons Ratio (x) = -0.51783 0.83906
# Poissons Ratio (y) = -0.18226 0.63837
# Poissons Ratio (z) = 0.14340 0.30997
#
# Static dielectric constant tensor:
#      x y z
#    x 1.915200 0.000000 0.014410 
#    y 0.000000 1.796520 0.000000 
#    z 0.014410 0.000000 1.973270 
# 
# From -- ./inp_files/4088.got.cif
#   From: 2010.05.17/outbox.cif.g08.bks.cpg/sg13_3_cif.got.tgz:4088.got - 2010.06.03 16:44:36.
