data_PCOD9226346
_publ_section_title
;
Structure prediction by ZEFSAII (Michael W. Deem and Ramdas Pophale) SiO2 
 PCOD9226346
Probable space group: P 2/C
;
_chemical_formula_sum "Si O2"
_cell_formula_units_Z 28
_cell_length_a 12.204630
_cell_length_b 11.347717
_cell_length_c 22.105279
_cell_angle_alpha 90.000000
_cell_angle_beta 29.046315
_cell_angle_gamma 90.000000
_cell_volume 1486.391020
_symmetry_space_group_name_H-M "P 2/C"
_symmetry_group_IT_number 13
_symmetry_cell_setting 'monoclinic'
loop_
_space_group_symop_operation_xyz
x,y,z
-x,y,1/2-z
-x,-y,-z
x,-y,1/2+z
loop_
_atom_site_type_symbol
_atom_site_label
_atom_site_fract_x
_atom_site_fract_y
_atom_site_fract_z
Si Si1 0.329420 0.042641 0.633986
Si Si2 0.845178 0.644238 0.205639
Si Si3 0.052045 0.191213 0.291575
Si Si4 0.145713 0.313209 0.932768
Si Si5 0.000000 0.241127 0.750000
Si Si6 0.231060 0.623438 0.788343
Si Si7 0.500000 0.520348 0.750000
Si Si8 0.407165 0.796425 0.409921
O O1 0.452598 0.090267 0.635089
O O2 0.207149 0.152987 0.661424
O O3 0.500000 0.000000 0.500000
O O4 0.154573 0.939620 0.735750
O O5 0.913858 0.706539 0.108734
O O6 0.852308 0.503155 0.195902
O O7 0.582410 0.688551 0.338014
O O8 0.991648 0.683523 0.192460
O O9 0.226328 0.277008 0.240536
O O10 0.000000 0.235166 0.250000
O O11 0.817175 0.200236 0.440954
O O12 0.288542 0.434277 0.860757
O O13 0.308740 0.221458 0.889682
O O14 0.932894 0.333803 0.078356
O O15 0.466703 0.597535 0.706794
#
# Coordination Sequence:
#
# PCOD9226346 Si02
#       8
#     4   4   4   4   2   4   2   4
#     4  11  20  40  59  78 113 161 201 241 298 343
#     4  10  19  37  58  93 117 152 194 236 299 353
#     4  11  22  39  58  85 118 156 196 245 294 347
#     4  10  18  36  61  87 116 160 191 237 292 354
#     4  10  22  34  60  86 114 144 206 248 280 356
#     4  10  22  35  60  88 122 154 193 240 293 355
#     4  10  16  36  56  82 120 156 186 224 292 360
#     4  10  19  35  66  83 109 158 200 239 292 352
#
# _framework density 18.837574
#
# number of rings (size 3 to 8) (size 9 to 14) (size 15 to 20)
#    0.000    1.714    5.000    1.714    1.000    0.000 
#    5.143    0.714    6.286   12.000    0.000    0.000 
#    0.000    0.000    0.000    0.000    0.000    0.000 
#
# Total GULP energy -155934.077309 kJ/mol
# GULP energy per Si atom -5569.074190 kJ/mol
# Density = 1.879470 g / cm^3
# Si number density = 18.837574 Si / 1000 Ang^3
#
#
#
# Elastic Constant Matrix: (Units=GPa)
#
#
# Indices 1 2 3 4 5 6 
#
# 1 157.5397 53.1839 10.5526 0.0000 29.1411 0.0000
# 2 53.1839 64.9165 12.7673 0.0000 15.9094 0.0000
# 3 10.5526 12.7673 56.1495 0.0000 15.7792 0.0000
# 4 0.0000 0.0000 0.0000 19.9924 0.0000 -4.3733
# 5 29.1411 15.9094 15.7792 0.0000 18.9949 0.0000
# 6 0.0000 0.0000 0.0000 -4.3733 0.0000 34.0389
#
#
#
# Elastic Compliance Matrix: (Units=1/GPa)
#
#
# Indices 1 2 3 4 5 6 
#
# 1 0.010798 -0.005994 0.003363 0.000000 -0.014340 0.000000
# 2 -0.005994 0.022712 -0.001665 0.000000 -0.008444 0.000000
# 3 0.003363 -0.001665 0.024283 0.000000 -0.023937 0.000000
# 4 0.000000 0.000000 0.000000 0.051465 0.000000 0.006612
# 5 -0.014340 -0.008444 -0.023937 0.000000 0.101603 0.000000
# 6 0.000000 0.000000 0.000000 0.006612 0.000000 0.030228
#
#
# Mechanical properties :
#
#
# Convention : Reuss Voigt Hill
#
# Bulk Modulus (GPa) = 20.32413 47.95702 34.14058
# Shear Modulus (GPa) = 18.79130 28.07870 23.43500
#
# Velocity S-wave (km/s) = 3.16182 3.86498 3.53094
# Velocity P-wave (km/s) = 4.91345 6.74024 5.89800
#
# Compressibility (1/GPa) = 0.04920260
#
# Stress axis : x y z
#
# Youngs Moduli (GPa) = 92.60686 44.02996 41.18117
#
# Poissons Ratio (x) = 0.26391 -0.13850
# Poissons Ratio (y) = 0.55507 0.06856
# Poissons Ratio (z) = -0.31146 0.07330
#
# Static dielectric constant tensor:
#      x y z
#    x 1.716220 0.000000 -0.013760 
#    y 0.000000 1.657600 0.000000 
#    z -0.013760 0.000000 1.685510 
# 
# From -- ./inp_files/78570.got.cif
#   From: 2010.05.17/outbox.cif.g08.bks.cpg/sg13_40_cif.got.tgz:78570.got - 2010.06.03 16:44:36.
