data_PCOD9226300
_publ_section_title
;
Structure prediction by ZEFSAII (Michael W. Deem and Ramdas Pophale) SiO2 
 PCOD9226300
Probable space group: P 2/C
;
_chemical_formula_sum "Si O2"
_cell_formula_units_Z 22
_cell_length_a 7.059041
_cell_length_b 24.186303
_cell_length_c 5.605986
_cell_angle_alpha 90.000000
_cell_angle_beta 74.988676
_cell_angle_gamma 90.000000
_cell_volume 924.459676
_symmetry_space_group_name_H-M "P 2/C"
_symmetry_group_IT_number 13
_symmetry_cell_setting 'monoclinic'
loop_
_space_group_symop_operation_xyz
x,y,z
-x,y,1/2-z
-x,-y,-z
x,-y,1/2+z
loop_
_atom_site_type_symbol
_atom_site_label
_atom_site_fract_x
_atom_site_fract_y
_atom_site_fract_z
Si Si1 0.730009 0.978417 0.942438
Si Si2 0.304032 0.643507 0.472022
Si Si3 0.000000 0.705312 0.250000
Si Si4 0.782263 0.746562 0.715736
Si Si5 0.773972 0.481007 0.524074
Si Si6 0.392009 0.139951 0.039725
O O1 0.746860 0.912309 0.962069
O O2 0.808961 0.995420 0.659649
O O3 0.500000 0.000000 0.000000
O O4 0.500000 0.644215 0.250000
O O5 0.116321 0.664891 0.385996
O O6 0.317558 0.689550 0.672844
O O7 0.253258 0.581324 0.560976
O O8 0.830205 0.743339 0.420556
O O9 0.683616 0.800208 0.855350
O O10 0.000000 0.747414 0.750000
O O11 0.693873 0.516352 0.324201
O O12 0.000000 0.500000 0.500000
O O13 0.500000 0.121159 0.250000
O O14 0.500000 0.146415 0.750000
#
# Coordination Sequence:
#
# PCOD9226300 Si02
#       6
#     4   4   2   4   4   4
#     4  10  16  33  54  94 127 170 212 277 338 390
#     4  11  25  44  70 101 137 179 232 287 343 416
#     4  10  24  46  66  92 136 184 228 282 358 404
#     4  10  26  43  64  92 135 183 224 279 350 405
#     4  10  23  41  69 100 134 178 224 272 341 405
#     4  12  23  37  67  99 133 168 230 286 330 409
#
# _framework density 23.797684
#
# number of rings (size 3 to 8) (size 9 to 14) (size 15 to 20)
#    0.000    1.455    3.636    1.636   17.818    0.727 
#    0.000    0.000    0.000    1.091    0.000    0.000 
#    0.000    0.000    0.000    0.000    0.000    0.000 
#
# Total GULP energy -122744.157533 kJ/mol
# GULP energy per Si atom -5579.279888 kJ/mol
# Density = 2.374352 g / cm^3
# Si number density = 23.797684 Si / 1000 Ang^3
#
#
#
# Elastic Constant Matrix: (Units=GPa)
#
#
# Indices 1 2 3 4 5 6 
#
# 1 65.2031 8.8737 27.2692 0.0000 3.0559 0.0000
# 2 8.8737 200.7021 65.1526 0.0000 -12.0907 0.0000
# 3 27.2692 65.1526 144.7491 0.0000 -3.2138 0.0000
# 4 0.0000 0.0000 0.0000 62.1363 0.0000 -25.7625
# 5 3.0559 -12.0907 -3.2138 0.0000 45.7986 0.0000
# 6 0.0000 0.0000 0.0000 -25.7625 0.0000 28.4361
#
#
#
# Elastic Compliance Matrix: (Units=1/GPa)
#
#
# Indices 1 2 3 4 5 6 
#
# 1 0.016741 0.000253 -0.003296 0.000000 -0.001282 0.000000
# 2 0.000253 0.005925 -0.002684 0.000000 0.001359 0.000000
# 3 -0.003296 -0.002684 0.008740 0.000000 0.000125 0.000000
# 4 0.000000 0.000000 0.000000 0.025776 0.000000 0.023352
# 5 -0.001282 0.001359 0.000125 0.000000 0.022288 0.000000
# 6 0.000000 0.000000 0.000000 0.023352 0.000000 0.056323
#
#
# Mechanical properties :
#
#
# Convention : Reuss Voigt Hill
#
# Bulk Modulus (GPa) = 50.12340 68.13836 59.13088
# Shear Modulus (GPa) = 32.48916 47.89811 40.19364
#
# Velocity S-wave (km/s) = 3.69890 4.49120 4.11417
# Velocity P-wave (km/s) = 6.27300 7.45581 6.88983
#
# Compressibility (1/GPa) = 0.01995076
#
# Stress axis : x y z
#
# Youngs Moduli (GPa) = 59.73422 168.79010 114.41231
#
# Poissons Ratio (x) = -0.04263 0.37710
# Poissons Ratio (y) = -0.01509 0.30709
# Poissons Ratio (z) = 0.19688 0.45305
#
# Static dielectric constant tensor:
#      x y z
#    x 1.969770 0.000000 -0.043430 
#    y 0.000000 1.866730 0.000000 
#    z -0.043430 0.000000 2.179420 
# 
# From -- ./inp_files/2051.got.cif
#   From: 2010.05.17/outbox.cif.g08.bks.cpg/sg13_2_cif.got.tgz:2051.got - 2010.06.03 16:44:36.
