data_PCOD9226768
_publ_section_title
;
Structure prediction by ZEFSAII (Michael W. Deem and Ramdas Pophale) SiO2 
 PCOD9226768
Probable space group: P 2/C
;
_chemical_formula_sum "Si O2"
_cell_formula_units_Z 24
_cell_length_a 23.375991
_cell_length_b 11.030700
_cell_length_c 28.977184
_cell_angle_alpha 90.000000
_cell_angle_beta 11.516184
_cell_angle_gamma 90.000000
_cell_volume 1491.719312
_symmetry_space_group_name_H-M "P 2/C"
_symmetry_group_IT_number 13
_symmetry_cell_setting 'monoclinic'
loop_
_space_group_symop_operation_xyz
x,y,z
-x,y,1/2-z
-x,-y,-z
x,-y,1/2+z
loop_
_atom_site_type_symbol
_atom_site_label
_atom_site_fract_x
_atom_site_fract_y
_atom_site_fract_z
Si Si1 0.263643 0.641463 0.726177
Si Si2 0.675223 0.641476 0.314587
Si Si3 0.865849 0.809563 0.589434
Si Si4 0.198204 0.228547 0.133268
Si Si5 0.643955 0.057055 0.737368
Si Si6 0.790573 0.228599 0.540902
O O1 0.517677 0.660171 0.488219
O O2 0.254023 0.499994 0.745991
O O3 0.294166 0.724574 0.747149
O O4 0.971540 0.683372 0.931300
O O5 0.445392 0.683382 0.457432
O O6 0.953656 0.724591 0.087640
O O7 0.104831 0.882774 0.430123
O O8 0.675124 0.913038 0.716572
O O9 0.000000 0.284555 0.250000
O O10 0.999890 0.195999 0.333419
O O11 0.354176 0.112740 0.987451
O O12 0.695450 0.112774 0.646154
O O13 0.500000 0.284609 0.750000
#
# Coordination Sequence:
#
# PCOD9226768 Si02
#       6
#     4   4   4   4   4   4
#     4   9  18  31  49  74 100 127 162 200 239 285
#     4   9  18  31  49  74 100 127 162 200 239 285
#     4   9  17  30  48  70  97 123 156 197 238 284
#     4  10  18  30  49  72  95 125 162 202 244 286
#     4   9  18  30  46  72  95 121 158 195 241 287
#     4  10  18  30  49  72  95 125 162 202 244 286
#
# _framework density 16.088816999999999
#
# number of rings (size 3 to 8) (size 9 to 14) (size 15 to 20)
#    0.000    2.667    1.667    0.500    0.000    1.333 
#    0.000    6.667    0.000    2.000    0.000    0.000 
#    0.000    0.000    0.000    0.000    0.000    0.000 
#
# Total GULP energy -133630.563946 kJ/mol
# GULP energy per Si atom -5567.940164 kJ/mol
# Density = 1.605220 g / cm^3
# Si number density = 16.088817 Si / 1000 Ang^3
#
#
#
# Elastic Constant Matrix: (Units=GPa)
#
#
# Indices 1 2 3 4 5 6 
#
# 1 67.6441 54.1148 44.4971 0.0000 11.6914 0.0000
# 2 54.1148 127.8722 56.5353 0.0000 16.6794 0.0000
# 3 44.4971 56.5353 71.2069 0.0000 12.9658 0.0000
# 4 0.0000 0.0000 0.0000 13.2670 0.0000 -1.1881
# 5 11.6914 16.6794 12.9658 0.0000 21.1730 0.0000
# 6 0.0000 0.0000 0.0000 -1.1881 0.0000 13.4376
#
#
#
# Elastic Compliance Matrix: (Units=1/GPa)
#
#
# Indices 1 2 3 4 5 6 
#
# 1 0.028301 -0.006152 -0.012198 0.000000 -0.003311 0.000000
# 2 -0.006152 0.013711 -0.006408 0.000000 -0.003480 0.000000
# 3 -0.012198 -0.006408 0.027696 0.000000 -0.005177 0.000000
# 4 0.000000 0.000000 0.000000 0.075977 0.000000 0.006718
# 5 -0.003311 -0.003480 -0.005177 0.000000 0.054970 0.000000
# 6 0.000000 0.000000 0.000000 0.006718 0.000000 0.075012
#
#
# Mechanical properties :
#
#
# Convention : Reuss Voigt Hill
#
# Bulk Modulus (GPa) = 49.52276 64.11308 56.81792
# Shear Modulus (GPa) = 15.06419 17.01392 16.03905
#
# Velocity S-wave (km/s) = 3.06324 3.25545 3.16081
# Velocity P-wave (km/s) = 6.58475 7.35300 6.97945
#
# Compressibility (1/GPa) = 0.02019274
#
# Stress axis : x y z
#
# Youngs Moduli (GPa) = 35.33439 72.93580 36.10594
#
# Poissons Ratio (x) = 0.44869 0.44042
# Poissons Ratio (y) = 0.21737 0.23136
# Poissons Ratio (z) = 0.43101 0.46735
#
# Static dielectric constant tensor:
#      x y z
#    x 1.557370 0.000000 -0.001840 
#    y 0.000000 1.517620 0.000000 
#    z -0.001840 0.000000 1.557010 
# 
# From -- ./inp_files/75188.got.cif
#   From: 2010.05.17/outbox.cif.g08.bks.cpg/sg13_38_cif.got.tgz:75188.got - 2010.06.03 16:44:36.
