data_PCOD9226177
_publ_section_title
;
Structure prediction by ZEFSAII (Michael W. Deem and Ramdas Pophale) SiO2 
 PCOD9226177
Probable space group: P 2/C
;
_chemical_formula_sum "Si O2"
_cell_formula_units_Z 32
_cell_length_a 23.436388
_cell_length_b 6.911847
_cell_length_c 11.889973
_cell_angle_alpha 90.000000
_cell_angle_beta 138.977810
_cell_angle_gamma 90.000000
_cell_volume 1264.159853
_symmetry_space_group_name_H-M "P 2/C"
_symmetry_group_IT_number 13
_symmetry_cell_setting 'monoclinic'
loop_
_space_group_symop_operation_xyz
x,y,z
-x,y,1/2-z
-x,-y,-z
x,-y,1/2+z
loop_
_atom_site_type_symbol
_atom_site_label
_atom_site_fract_x
_atom_site_fract_y
_atom_site_fract_z
Si Si1 0.374822 0.375606 0.537704
Si Si2 0.773853 0.851010 0.208897
Si Si3 0.422413 0.178292 0.057303
Si Si4 0.483854 0.293314 0.916153
Si Si5 0.000073 0.767449 0.486693
Si Si6 0.869462 0.196009 0.619351
Si Si7 0.179546 0.292120 0.194179
Si Si8 0.098293 0.770083 0.940719
O O1 0.407353 0.595130 0.568414
O O2 0.410083 0.309408 0.710894
O O3 0.426017 0.256421 0.516744
O O4 0.271049 0.371961 0.370692
O O5 0.801915 0.788967 0.123442
O O6 0.798749 0.739792 0.364334
O O7 0.817712 0.060121 0.289279
O O8 0.672409 0.899966 0.058779
O O9 0.500000 0.103216 0.250000
O O10 0.451282 0.165918 0.971162
O O11 0.500000 0.500000 0.000000
O O12 0.959942 0.730080 0.305517
O O13 0.929223 0.721434 0.472399
O O14 0.092889 0.667591 0.637668
O O15 0.000000 0.000000 0.500000
O O16 0.839668 0.317350 0.466973
O O17 0.888148 0.972925 0.607962
O O18 0.000000 0.711418 0.750000
#
# Coordination Sequence:
#
# PCOD9226177 Si02
#       8
#     4   4   4   4   4   4   4   4
#     4  10  21  38  63  83 105 145 198 239 287 351
#     4  10  22  33  51  89 114 143 193 239 292 342
#     4  11  22  40  61  78 108 157 196 234 298 360
#     4   9  18  40  62  77 103 148 194 235 283 355
#     4  11  16  29  50  80 113 155 185 215 278 354
#     4  10  17  31  53  78 120 150 186 229 286 341
#     4  11  21  32  55  88 113 143 191 247 284 332
#     4  10  16  29  52  75 113 152 183 220 276 343
#
# _framework density 25.313254000000001
#
# number of rings (size 3 to 8) (size 9 to 14) (size 15 to 20)
#    0.000    1.750    7.500    0.375    1.750    3.000 
#    2.250    0.625    0.000    4.500    0.000    0.000 
#    0.000    0.250    0.000    0.000    0.000    0.000 
#
# Total GULP energy -178159.182860 kJ/mol
# GULP energy per Si atom -5567.474464 kJ/mol
# Density = 2.525564 g / cm^3
# Si number density = 25.313254 Si / 1000 Ang^3
#
#
#
# Elastic Constant Matrix: (Units=GPa)
#
#
# Indices 1 2 3 4 5 6 
#
# 1 125.6821 7.9384 58.9221 0.0000 3.5223 0.0000
# 2 7.9384 78.4261 -0.5129 0.0000 -0.2067 0.0000
# 3 58.9221 -0.5129 168.4919 0.0000 12.7139 0.0000
# 4 0.0000 0.0000 0.0000 15.9221 0.0000 -16.8653
# 5 3.5223 -0.2067 12.7139 0.0000 49.7127 0.0000
# 6 0.0000 0.0000 0.0000 -16.8653 0.0000 -31.6194
#
#
#
# Elastic Compliance Matrix: (Units=1/GPa)
#
#
# Indices 1 2 3 4 5 6 
#
# 1 0.009595 -0.000993 -0.003372 0.000000 0.000178 0.000000
# 2 -0.000993 0.012854 0.000384 0.000000 0.000025 0.000000
# 3 -0.003372 0.000384 0.007237 0.000000 -0.001610 0.000000
# 4 0.000000 0.000000 0.000000 0.040132 0.000000 -0.021406
# 5 0.000178 0.000025 -0.001610 0.000000 0.020515 0.000000
# 6 0.000000 0.000000 0.000000 -0.021406 0.000000 -0.020209
#
#
# Mechanical properties :
#
#
# Convention : Reuss Voigt Hill
#
# Bulk Modulus (GPa) = 46.02946 56.14392 51.08669
# Shear Modulus (GPa) = 58.59840 27.21990 42.90915
#
# Velocity S-wave (km/s) = 4.81659 3.28277 4.12166
# Velocity P-wave (km/s) = 7.01114 6.04951 6.54800
#
# Compressibility (1/GPa) = 0.02172522
#
# Stress axis : x y z
#
# Youngs Moduli (GPa) = 104.21979 77.79721 138.18167
#
# Poissons Ratio (x) = 0.07724 0.46594
# Poissons Ratio (y) = 0.10347 -0.05312
# Poissons Ratio (z) = 0.35142 -0.02990
#
# Static dielectric constant tensor:
#      x y z
#    x 4.834720 0.000000 3.800550 
#    y 0.000000 2.199650 0.000000 
#    z 3.800550 0.000000 7.188640 
# 
# From -- ./inp_files/40716.got.cif
#   From: 2010.05.17/outbox.cif.g08.bks.cpg/sg13_21_cif.got.tgz:40716.got - 2010.06.03 16:44:36.
