data_PCOD9226651
_publ_section_title
;
Structure prediction by ZEFSAII (Michael W. Deem and Ramdas Pophale) SiO2 
 PCOD9226651
Probable space group: P 2/C
;
_chemical_formula_sum "Si O2"
_cell_formula_units_Z 30
_cell_length_a 21.128172
_cell_length_b 11.480840
_cell_length_c 14.285001
_cell_angle_alpha 90.000000
_cell_angle_beta 151.133721
_cell_angle_gamma 90.000000
_cell_volume 1672.836460
_symmetry_space_group_name_H-M "P 2/C"
_symmetry_group_IT_number 13
_symmetry_cell_setting 'monoclinic'
loop_
_space_group_symop_operation_xyz
x,y,z
-x,y,1/2-z
-x,-y,-z
x,-y,1/2+z
loop_
_atom_site_type_symbol
_atom_site_label
_atom_site_fract_x
_atom_site_fract_y
_atom_site_fract_z
Si Si1 0.722279 0.263702 0.472018
Si Si2 0.177055 0.083202 0.219450
Si Si3 0.607860 0.716619 0.470315
Si Si4 0.500000 0.086385 0.250000
Si Si5 0.602435 0.055988 0.564132
Si Si6 0.503189 0.690057 0.542313
Si Si7 0.368416 0.455645 0.016644
Si Si8 0.944587 0.079012 0.778809
O O1 0.619001 0.169276 0.377341
O O2 0.645480 0.306035 0.279082
O O3 0.729033 0.366943 0.557006
O O4 0.853314 0.189014 0.632698
O O5 0.277649 0.188323 0.369166
O O6 0.250999 0.988928 0.247536
O O7 0.133368 0.018062 0.259204
O O8 0.054474 0.119614 0.996182
O O9 0.500000 0.740762 0.250000
O O10 0.530154 0.697602 0.467566
O O11 0.671234 0.589550 0.532676
O O12 0.547873 0.009906 0.395419
O O13 0.577941 0.193108 0.536051
O O14 0.500000 0.000000 0.500000
O O15 0.416640 0.587783 0.476752
O O16 0.500000 0.445221 0.250000
O O17 0.000000 0.035048 0.750000
#
# Coordination Sequence:
#
# PCOD9226651 Si02
#       8
#     4   4   4   2   4   4   4   4
#     4  10  17  36  62  80 104 136 192 235 267 310
#     4  11  24  38  51  83 117 145 186 223 275 347
#     4  11  23  33  52  82 120 147 169 222 287 337
#     4  10  18  32  58  84 104 142 180 232 272 320
#     4  11  20  31  56  83 112 139 176 228 279 324
#     4  10  18  32  56  86 110 140 180 226 271 335
#     4   9  17  34  56  84 111 139 176 229 281 324
#     4  11  24  39  58  76 107 154 191 229 270 319
#
# _framework density 17.933612
#
# number of rings (size 3 to 8) (size 9 to 14) (size 15 to 20)
#    0.000    1.600    6.000    1.200    2.800    1.067 
#    0.000    0.667    0.000    0.800    0.000    0.000 
#    0.000    0.000    0.000    0.000    0.000    0.000 
#
# Total GULP energy -167007.662489 kJ/mol
# GULP energy per Si atom -5566.922083 kJ/mol
# Density = 1.789279 g / cm^3
# Si number density = 17.933612 Si / 1000 Ang^3
#
#
#
# Elastic Constant Matrix: (Units=GPa)
#
#
# Indices 1 2 3 4 5 6 
#
# 1 86.3294 14.6161 19.0430 0.0000 -9.3410 0.0000
# 2 14.6161 89.8829 33.6087 0.0000 8.3560 0.0000
# 3 19.0430 33.6087 61.7661 0.0000 -4.7273 0.0000
# 4 0.0000 0.0000 0.0000 14.8285 0.0000 -3.0317
# 5 -9.3410 8.3560 -4.7273 0.0000 27.4959 0.0000
# 6 0.0000 0.0000 0.0000 -3.0317 0.0000 13.7580
#
#
#
# Elastic Compliance Matrix: (Units=1/GPa)
#
#
# Indices 1 2 3 4 5 6 
#
# 1 0.012929 -0.001429 -0.002877 0.000000 0.004332 0.000000
# 2 -0.001429 0.015040 -0.008239 0.000000 -0.006473 0.000000
# 3 -0.002877 -0.008239 0.021966 0.000000 0.005303 0.000000
# 4 0.000000 0.000000 0.000000 0.070619 0.000000 0.015562
# 5 0.004332 -0.006473 0.005303 0.000000 0.040720 0.000000
# 6 0.000000 0.000000 0.000000 0.015562 0.000000 0.076114
#
#
# Mechanical properties :
#
#
# Convention : Reuss Voigt Hill
#
# Bulk Modulus (GPa) = 40.24886 41.39045 40.81965
# Shear Modulus (GPa) = 18.46658 22.59717 20.53187
#
# Velocity S-wave (km/s) = 3.21240 3.55356 3.38728
# Velocity P-wave (km/s) = 6.02091 6.32195 6.17326
#
# Compressibility (1/GPa) = 0.02484543
#
# Stress axis : x y z
#
# Youngs Moduli (GPa) = 77.34634 66.48794 45.52552
#
# Poissons Ratio (x) = 0.09504 0.13096
# Poissons Ratio (y) = 0.11057 0.37506
# Poissons Ratio (z) = 0.22250 0.54776
#
# Static dielectric constant tensor:
#      x y z
#    x 1.666040 0.000000 -0.034010 
#    y 0.000000 1.657990 0.000000 
#    z -0.034010 0.000000 1.634430 
# 
# From -- ./inp_files/57631.got.cif
#   From: 2010.05.17/outbox.cif.g08.bks.cpg/sg13_29_cif.got.tgz:57631.got - 2010.06.03 16:44:36.
