data_PCOD9226835
_publ_section_title
;
Structure prediction by ZEFSAII (Michael W. Deem and Ramdas Pophale) SiO2 
 PCOD9226835
Probable space group: P 2/C
;
_chemical_formula_sum "Si O2"
_cell_formula_units_Z 30
_cell_length_a 13.045513
_cell_length_b 5.615859
_cell_length_c 26.047365
_cell_angle_alpha 90.000000
_cell_angle_beta 40.487022
_cell_angle_gamma 90.000000
_cell_volume 1238.997312
_symmetry_space_group_name_H-M "P 2/C"
_symmetry_group_IT_number 13
_symmetry_cell_setting 'monoclinic'
loop_
_space_group_symop_operation_xyz
x,y,z
-x,y,1/2-z
-x,-y,-z
x,-y,1/2+z
loop_
_atom_site_type_symbol
_atom_site_label
_atom_site_fract_x
_atom_site_fract_y
_atom_site_fract_z
Si Si1 0.740492 0.055577 0.306525
Si Si2 0.136563 0.746197 0.843769
Si Si3 0.251219 0.579399 0.603960
Si Si4 0.505745 0.806347 0.043487
Si Si5 0.000000 0.291338 0.750000
Si Si6 0.627198 0.763209 0.155485
Si Si7 0.029908 0.752343 0.420264
Si Si8 0.705383 0.268875 0.107312
O O1 0.771324 0.203741 0.243778
O O2 0.755630 0.221771 0.350104
O O3 0.573984 0.922682 0.376887
O O4 0.876982 0.863994 0.264642
O O5 0.047665 0.492555 0.881198
O O6 0.257507 0.733756 0.845660
O O7 0.033109 0.988036 0.891750
O O8 0.319225 0.693982 0.525851
O O9 0.382624 0.393802 0.572792
O O10 0.088396 0.446065 0.673348
O O11 0.500000 0.000000 0.000000
O O12 0.500000 0.759962 0.250000
O O13 0.809175 0.756339 0.107066
O O14 0.613018 0.513213 0.130610
O O15 0.620341 0.018816 0.131134
O O16 0.873095 0.732427 0.514174
#
# Coordination Sequence:
#
# PCOD9226835 Si02
#       8
#     4   4   4   4   2   4   4   4
#     4  10  20  32  52  85 109 146 184 245 284 336
#     4  10  20  32  56  84 115 140 195 244 276 322
#     4   9  17  32  53  78 100 141 182 233 274 346
#     4   8  16  31  52  78  98 131 188 221 279 336
#     4  10  20  32  52  80 114 138 194 234 294 344
#     4  10  18  30  54  87 108 142 189 241 279 331
#     4  10  20  36  57  85 111 156 197 235 273 347
#     4  10  19  36  56  85 113 155 199 230 275 349
#
# _framework density 24.21313
#
# number of rings (size 3 to 8) (size 9 to 14) (size 15 to 20)
#    0.000    2.400    0.000    4.800    3.733    0.000 
#    0.000    0.000    0.000    3.200  121.333    0.000 
#    0.000    0.000    0.000    0.000    0.000    0.000 
#
# Total GULP energy -167523.417907 kJ/mol
# GULP energy per Si atom -5584.113930 kJ/mol
# Density = 2.415802 g / cm^3
# Si number density = 24.213130 Si / 1000 Ang^3
#
#
#
# Elastic Constant Matrix: (Units=GPa)
#
#
# Indices 1 2 3 4 5 6 
#
# 1 64.4702 25.3720 38.1877 0.0000 2.1146 0.0000
# 2 25.3720 207.6676 72.3560 0.0000 -13.5158 0.0000
# 3 38.1877 72.3560 162.1039 0.0000 -7.4950 0.0000
# 4 0.0000 0.0000 0.0000 65.6254 0.0000 -18.1847
# 5 2.1146 -13.5158 -7.4950 0.0000 17.9289 0.0000
# 6 0.0000 0.0000 0.0000 -18.1847 0.0000 12.9183
#
#
#
# Elastic Compliance Matrix: (Units=1/GPa)
#
#
# Indices 1 2 3 4 5 6 
#
# 1 0.018533 -0.001156 -0.004070 0.000000 -0.004759 0.000000
# 2 -0.001156 0.005972 -0.002222 0.000000 0.003710 0.000000
# 3 -0.004070 -0.002222 0.008223 0.000000 0.002243 0.000000
# 4 0.000000 0.000000 0.000000 0.024983 0.000000 0.035167
# 5 -0.004759 0.003710 0.002243 0.000000 0.060071 0.000000
# 6 0.000000 0.000000 0.000000 0.035167 0.000000 0.126913
#
#
# Mechanical properties :
#
#
# Convention : Reuss Voigt Hill
#
# Bulk Modulus (GPa) = 56.07714 78.45257 67.26486
# Shear Modulus (GPa) = 18.82992 39.18293 29.00642
#
# Velocity S-wave (km/s) = 2.79171 4.02711 3.46491
# Velocity P-wave (km/s) = 5.79669 7.35491 6.62179
#
# Compressibility (1/GPa) = 0.01783258
#
# Stress axis : x y z
#
# Youngs Moduli (GPa) = 53.95850 167.44213 121.60859
#
# Poissons Ratio (x) = 0.19355 0.49494
# Poissons Ratio (y) = 0.06237 0.27020
# Poissons Ratio (z) = 0.21961 0.37204
#
# Static dielectric constant tensor:
#      x y z
#    x 1.991210 0.000000 0.018270 
#    y 0.000000 1.993840 0.000000 
#    z 0.018270 0.000000 1.935800 
# 
# From -- ./inp_files/97179.got.cif
#   From: 2010.05.17/outbox.cif.g08.bks.cpg/sg13_49_cif.got.tgz:97179.got - 2010.06.03 16:44:36.
