data_PCOD9226602
_publ_section_title
;
Structure prediction by ZEFSAII (Michael W. Deem and Ramdas Pophale) SiO2 
 PCOD9226602
Probable space group: P 2/C
;
_chemical_formula_sum "Si O2"
_cell_formula_units_Z 24
_cell_length_a 15.475297
_cell_length_b 8.013013
_cell_length_c 16.605542
_cell_angle_alpha 90.000000
_cell_angle_beta 38.502348
_cell_angle_gamma 90.000000
_cell_volume 1281.916791
_symmetry_space_group_name_H-M "P 2/C"
_symmetry_group_IT_number 13
_symmetry_cell_setting 'monoclinic'
loop_
_space_group_symop_operation_xyz
x,y,z
-x,y,1/2-z
-x,-y,-z
x,-y,1/2+z
loop_
_atom_site_type_symbol
_atom_site_label
_atom_site_fract_x
_atom_site_fract_y
_atom_site_fract_z
Si Si1 0.000000 0.323036 0.250000
Si Si2 0.764127 0.080240 0.480269
Si Si3 0.097200 0.870675 0.976459
Si Si4 0.500000 0.926950 0.250000
Si Si5 0.344900 0.831792 0.078844
Si Si6 0.067546 0.357076 0.785264
Si Si7 0.628844 0.112785 0.306726
O O1 0.129089 0.208855 0.134476
O O2 0.038058 0.447409 0.295476
O O3 0.628125 0.168905 0.617036
O O4 0.836862 0.975862 0.497934
O O5 0.710632 0.952644 0.451650
O O6 0.222872 0.811609 0.826554
O O7 0.009155 0.725550 0.083248
O O8 0.000000 0.000000 0.000000
O O9 0.563262 0.045514 0.272038
O O10 0.230006 0.688333 0.169513
O O11 0.345424 0.949539 0.156938
O O12 0.504753 0.786007 0.941199
O O13 0.000000 0.286688 0.750000
#
# Coordination Sequence:
#
# PCOD9226602 Si02
#       7
#     2   4   4   2   4   4   4
#     4  10  22  34  54  74 108 152 180 200 262 320
#     4  10  18  34  54  78 102 144 178 214 261 320
#     4  11  19  32  57  84 105 131 179 233 269 301
#     4   8  18  32  50  78 110 128 176 222 274 304
#     4  10  17  34  57  78 107 136 184 219 261 314
#     4  10  20  35  51  78 107 143 174 218 257 308
#     4   9  19  29  55  87 103 132 170 235 272 305
#
# _framework density 18.721964
#
# number of rings (size 3 to 8) (size 9 to 14) (size 15 to 20)
#    0.500    1.667    3.333    1.000    0.000    0.000 
#    0.000    2.500    0.000    9.000    0.000    0.000 
#    0.000    0.000    0.000    0.000    0.000    0.000 
#
# Total GULP energy -133647.770060 kJ/mol
# GULP energy per Si atom -5568.657086 kJ/mol
# Density = 1.867935 g / cm^3
# Si number density = 18.721964 Si / 1000 Ang^3
#
#
#
# Elastic Constant Matrix: (Units=GPa)
#
#
# Indices 1 2 3 4 5 6 
#
# 1 49.6297 -14.4553 -11.2884 0.0000 5.1586 0.0000
# 2 -14.4553 35.7169 31.0590 0.0000 -15.4985 0.0000
# 3 -11.2884 31.0590 153.0103 0.0000 -36.1669 0.0000
# 4 0.0000 0.0000 0.0000 -1.5689 0.0000 -3.5421
# 5 5.1586 -15.4985 -36.1669 0.0000 40.2265 0.0000
# 6 0.0000 0.0000 0.0000 -3.5421 0.0000 -14.9376
#
#
#
# Elastic Compliance Matrix: (Units=1/GPa)
#
#
# Indices 1 2 3 4 5 6 
#
# 1 0.022862 0.009645 -0.000109 0.000000 0.000686 0.000000
# 2 0.009645 0.040683 -0.005250 0.000000 0.009718 0.000000
# 3 -0.000109 -0.005250 0.009039 0.000000 0.006118 0.000000
# 4 0.000000 0.000000 0.000000 -1.371863 0.000000 0.325307
# 5 0.000686 0.009718 0.006118 0.000000 0.034016 0.000000
# 6 0.000000 0.000000 0.000000 0.325307 0.000000 -0.144084
#
#
# Mechanical properties :
#
#
# Convention : Reuss Voigt Hill
#
# Bulk Modulus (GPa) = 12.32151 27.66530 19.99340
# Shear Modulus (GPa) = -3.59488 20.28010 8.34261
#
# Velocity S-wave (km/s) = -1.38719 3.29481 2.11323
# Velocity P-wave (km/s) = 2.00745 5.41141 4.08125
#
# Compressibility (1/GPa) = 0.08115891
#
# Stress axis : x y z
#
# Youngs Moduli (GPa) = 43.73983 24.58000 110.62825
#
# Poissons Ratio (x) = -0.23709 0.01206
# Poissons Ratio (y) = -0.42189 0.58076
# Poissons Ratio (z) = 0.00477 0.12904
#
# Static dielectric constant tensor:
#      x y z
#    x 1.669610 0.000000 -0.011390 
#    y 0.000000 1.597280 0.000000 
#    z -0.011390 0.000000 1.715510 
# 
# From -- ./inp_files/52927.got.cif
#   From: 2010.05.17/outbox.cif.g08.bks.cpg/sg13_27_cif.got.tgz:52927.got - 2010.06.03 16:44:36.
