data_PCOD9226224
_publ_section_title
;
Structure prediction by ZEFSAII (Michael W. Deem and Ramdas Pophale) SiO2 
 PCOD9226224
Probable space group: P 2/C
;
_chemical_formula_sum "Si O2"
_cell_formula_units_Z 26
_cell_length_a 22.438354
_cell_length_b 13.250822
_cell_length_c 5.317073
_cell_angle_alpha 90.000000
_cell_angle_beta 103.080496
_cell_angle_gamma 90.000000
_cell_volume 1539.887720
_symmetry_space_group_name_H-M "P 2/C"
_symmetry_group_IT_number 13
_symmetry_cell_setting 'monoclinic'
loop_
_space_group_symop_operation_xyz
x,y,z
-x,y,1/2-z
-x,-y,-z
x,-y,1/2+z
loop_
_atom_site_type_symbol
_atom_site_label
_atom_site_fract_x
_atom_site_fract_y
_atom_site_fract_z
Si Si1 0.500000 0.567317 0.250000
Si Si2 0.199227 0.568715 0.434214
Si Si3 0.727964 0.964160 0.019861
Si Si4 0.936130 0.434119 0.631175
Si Si5 0.307031 0.269912 0.059666
Si Si6 0.611687 0.278701 0.861803
Si Si7 0.589568 0.950415 0.409202
O O1 0.500000 0.500000 0.500000
O O2 0.440422 0.637799 0.187548
O O3 0.205272 0.507697 0.177405
O O4 0.130346 0.613677 0.388365
O O5 0.250398 0.653993 0.499949
O O6 0.714337 0.846562 0.972517
O O7 0.760399 0.011835 0.811558
O O8 0.662751 0.024195 0.984421
O O9 0.937280 0.477417 0.347585
O O10 0.000000 0.377682 0.750000
O O11 0.345952 0.286343 0.350511
O O12 0.348730 0.286908 0.853762
O O13 0.582670 0.166615 0.843622
O O14 0.565542 0.982346 0.657457
#
# Coordination Sequence:
#
# PCOD9226224 Si02
#       7
#     2   4   4   4   4   4   4
#     4  12  30  50  58  72 100 134 178 212 230 304
#     4  10  21  33  45  75 110 132 173 213 236 290
#     4  10  16  30  51  77 105 126 149 195 250 304
#     4   8  14  27  46  64  93 137 170 202 247 283
#     4  12  21  33  59  80 102 133 163 203 262 300
#     4  12  23  39  61  76  96 135 169 202 257 302
#     4  10  16  32  56  80 102 118 148 201 255 300
#
# _framework density 16.884347000000002
#
# number of rings (size 3 to 8) (size 9 to 14) (size 15 to 20)
#    0.000    1.538    6.154    1.846    0.000    3.692 
#    0.000    0.769    0.000    0.000    0.000    0.000 
#    0.000    1.231    0.000    0.000    0.000    2.769 
#
# Total GULP energy -144989.569702 kJ/mol
# GULP energy per Si atom -5576.521912 kJ/mol
# Density = 1.684592 g / cm^3
# Si number density = 16.884347 Si / 1000 Ang^3
#
#
#
# Elastic Constant Matrix: (Units=GPa)
#
#
# Indices 1 2 3 4 5 6 
#
# 1 70.8363 44.5059 32.8255 0.0000 4.0404 0.0000
# 2 44.5059 86.3874 16.5474 0.0000 6.1474 0.0000
# 3 32.8255 16.5474 107.3146 0.0000 -22.6670 0.0000
# 4 0.0000 0.0000 0.0000 12.8415 0.0000 -9.1566
# 5 4.0404 6.1474 -22.6670 0.0000 25.2986 0.0000
# 6 0.0000 0.0000 0.0000 -9.1566 0.0000 -6.7217
#
#
#
# Elastic Compliance Matrix: (Units=1/GPa)
#
#
# Indices 1 2 3 4 5 6 
#
# 1 0.024937 -0.010781 -0.007713 0.000000 -0.008273 0.000000
# 2 -0.010781 0.017271 0.000138 0.000000 -0.002351 0.000000
# 3 -0.007713 0.000138 0.014689 0.000000 0.014360 0.000000
# 4 0.000000 0.000000 0.000000 0.039502 0.000000 -0.053812
# 5 -0.008273 -0.002351 0.014360 0.000000 0.054287 0.000000
# 6 0.000000 0.000000 0.000000 -0.053812 0.000000 -0.075468
#
#
# Mechanical properties :
#
#
# Convention : Reuss Voigt Hill
#
# Bulk Modulus (GPa) = 49.54096 50.25511 49.89803
# Shear Modulus (GPa) = 42.13775 17.66098 29.89936
#
# Velocity S-wave (km/s) = 5.00109 3.23770 4.21269
# Velocity P-wave (km/s) = 7.92167 6.61860 7.29927
#
# Compressibility (1/GPa) = 0.02018532
#
# Stress axis : x y z
#
# Youngs Moduli (GPa) = 40.10151 57.90074 68.07651
#
# Poissons Ratio (x) = 0.62423 0.52506
# Poissons Ratio (y) = 0.43234 -0.00939
# Poissons Ratio (z) = 0.30929 -0.00799
#
# Static dielectric constant tensor:
#      x y z
#    x 1.603830 0.000000 -0.015050 
#    y 0.000000 1.536630 0.000000 
#    z -0.015050 0.000000 1.653050 
# 
# From -- ./inp_files/6875.got.cif
#   From: 2010.05.17/outbox.cif.g08.bks.cpg/sg13_4_cif.got.tgz:6875.got - 2010.06.03 16:44:36.
