data_PCOD9226330
_publ_section_title
;
Structure prediction by ZEFSAII (Michael W. Deem and Ramdas Pophale) SiO2 
 PCOD9226330
Probable space group: P 2/C
;
_chemical_formula_sum "Si O2"
_cell_formula_units_Z 26
_cell_length_a 7.676194
_cell_length_b 15.929951
_cell_length_c 20.092832
_cell_angle_alpha 90.000000
_cell_angle_beta 24.920158
_cell_angle_gamma 90.000000
_cell_volume 1035.260373
_symmetry_space_group_name_H-M "P 2/C"
_symmetry_group_IT_number 13
_symmetry_cell_setting 'monoclinic'
loop_
_space_group_symop_operation_xyz
x,y,z
-x,y,1/2-z
-x,-y,-z
x,-y,1/2+z
loop_
_atom_site_type_symbol
_atom_site_label
_atom_site_fract_x
_atom_site_fract_y
_atom_site_fract_z
Si Si1 0.032228 0.407512 0.659576
Si Si2 0.049660 0.414883 0.123766
Si Si3 0.000000 0.299260 0.250000
Si Si4 0.905376 0.240806 0.933544
Si Si5 0.977004 0.736253 0.563702
Si Si6 0.331454 0.928675 0.972586
Si Si7 0.035326 0.903367 0.624977
O O1 0.527343 0.416528 0.480167
O O2 0.867928 0.492400 0.681833
O O3 0.914390 0.316745 0.672631
O O4 0.000000 0.414899 0.750000
O O5 0.806933 0.354503 0.257381
O O6 0.129034 0.357145 0.032618
O O7 0.593915 0.245932 0.407663
O O8 0.015118 0.255193 0.972151
O O9 0.996290 0.143155 0.892160
O O10 0.500000 0.736507 0.750000
O O11 0.138354 0.816010 0.550853
O O12 0.665922 0.924526 0.916465
O O13 0.579327 0.904955 0.818276
O O14 0.118846 0.019262 0.046211
#
# Coordination Sequence:
#
# PCOD9226330 Si02
#       7
#     4   4   2   4   4   4   4
#     4  10  22  41  63  90 123 166 213 261 311 372
#     4  10  20  36  64  90 120 160 212 260 306 369
#     4  10  16  34  62  88 114 160 222 250 280 378
#     4  11  22  37  62  92 124 167 208 256 316 374
#     4  12  22  37  63  97 128 165 207 261 314 376
#     4  10  20  40  64  92 123 167 216 265 305 380
#     4  10  21  39  64  95 125 163 218 264 314 370
#
# _framework density 25.114453000000001
#
# number of rings (size 3 to 8) (size 9 to 14) (size 15 to 20)
#    0.000    1.538    3.846    2.769    0.000    1.231 
#    8.308    0.769    0.000    0.000    0.000    0.000 
#    0.000    0.000    0.000    0.000    0.000    0.000 
#
# Total GULP energy -145017.014378 kJ/mol
# GULP energy per Si atom -5577.577476 kJ/mol
# Density = 2.505729 g / cm^3
# Si number density = 25.114453 Si / 1000 Ang^3
#
#
#
# Elastic Constant Matrix: (Units=GPa)
#
#
# Indices 1 2 3 4 5 6 
#
# 1 88.6397 43.4047 15.2024 0.0000 15.7699 0.0000
# 2 43.4047 212.4298 33.5646 0.0000 22.5143 0.0000
# 3 15.2024 33.5646 44.8921 0.0000 14.8056 0.0000
# 4 0.0000 0.0000 0.0000 26.5909 0.0000 3.9985
# 5 15.7699 22.5143 14.8056 0.0000 39.5430 0.0000
# 6 0.0000 0.0000 0.0000 3.9985 0.0000 19.7368
#
#
#
# Elastic Compliance Matrix: (Units=1/GPa)
#
#
# Indices 1 2 3 4 5 6 
#
# 1 0.013204 -0.002049 -0.001811 0.000000 -0.003421 0.000000
# 2 -0.002049 0.005766 -0.003199 0.000000 -0.001268 0.000000
# 3 -0.001811 -0.003199 0.027885 0.000000 -0.007897 0.000000
# 4 0.000000 0.000000 0.000000 0.038789 0.000000 -0.007858
# 5 -0.003421 -0.001268 -0.007897 0.000000 0.030332 0.000000
# 6 0.000000 0.000000 0.000000 -0.007858 0.000000 0.052259
#
#
# Mechanical properties :
#
#
# Convention : Reuss Voigt Hill
#
# Bulk Modulus (GPa) = 30.54654 58.92280 44.73467
# Shear Modulus (GPa) = 25.87111 34.09346 29.98229
#
# Velocity S-wave (km/s) = 3.21304 3.68846 3.45893
# Velocity P-wave (km/s) = 5.09453 6.45386 5.81405
#
# Compressibility (1/GPa) = 0.03273693
#
# Stress axis : x y z
#
# Youngs Moduli (GPa) = 75.73260 173.43123 35.86131
#
# Poissons Ratio (x) = 0.35540 0.06495
# Poissons Ratio (y) = 0.15519 0.11472
# Poissons Ratio (z) = 0.13716 0.55479
#
# Static dielectric constant tensor:
#      x y z
#    x 1.986150 0.000000 -0.045790 
#    y 0.000000 2.194270 0.000000 
#    z -0.045790 0.000000 2.202670 
# 
# From -- ./inp_files/76592.got.cif
#   From: 2010.05.17/outbox.cif.g08.bks.cpg/sg13_39_cif.got.tgz:76592.got - 2010.06.03 16:44:36.
