data_PCOD9226017
_publ_section_title
;
Structure prediction by ZEFSAII (Michael W. Deem and Ramdas Pophale) SiO2 
 PCOD9226017
Probable space group: P 2/C
;
_chemical_formula_sum "Si O2"
_cell_formula_units_Z 26
_cell_length_a 26.871286
_cell_length_b 6.912353
_cell_length_c 11.491621
_cell_angle_alpha 90.000000
_cell_angle_beta 32.125163
_cell_angle_gamma 90.000000
_cell_volume 1135.062951
_symmetry_space_group_name_H-M "P 2/C"
_symmetry_group_IT_number 13
_symmetry_cell_setting 'monoclinic'
loop_
_space_group_symop_operation_xyz
x,y,z
-x,y,1/2-z
-x,-y,-z
x,-y,1/2+z
loop_
_atom_site_type_symbol
_atom_site_label
_atom_site_fract_x
_atom_site_fract_y
_atom_site_fract_z
Si Si1 0.527796 0.750205 0.324360
Si Si2 0.000000 0.627797 0.750000
Si Si3 0.366107 0.893627 0.820858
Si Si4 0.857920 0.704436 0.610426
Si Si5 0.693692 0.508783 0.566559
Si Si6 0.007397 0.734376 0.491821
Si Si7 0.791977 0.815790 0.506803
O O1 0.500000 0.680451 0.250000
O O2 0.442355 0.812275 0.576942
O O3 0.597234 0.607482 0.256141
O O4 0.588373 0.946030 0.190142
O O5 0.086434 0.478215 0.558316
O O6 0.016664 0.763941 0.827128
O O7 0.327151 0.706166 0.964596
O O8 0.278421 0.964050 0.915922
O O9 0.932997 0.805547 0.545441
O O10 0.816706 0.838358 0.591497
O O11 0.774115 0.617106 0.850704
O O12 0.735798 0.610339 0.599272
O O13 0.000000 0.500000 0.500000
O O14 0.111225 0.794764 0.253146
#
# Coordination Sequence:
#
# PCOD9226017 Si02
#       7
#     4   2   4   4   4   4   4
#     4  11  22  41  61  80 113 153 190 240 299 349
#     4  10  14  24  44  74 122 150 186 224 270 338
#     4   9  22  41  57  82 116 147 190 241 295 345
#     4  11  16  29  53  88 115 151 195 231 280 342
#     4  10  21  35  58  90 110 147 196 237 286 344
#     4  10  15  26  48  82 118 153 188 231 277 337
#     4  10  18  32  52  87 116 144 196 235 280 343
#
# _framework density 22.906217999999999
#
# number of rings (size 3 to 8) (size 9 to 14) (size 15 to 20)
#    0.923    0.923    6.154    1.385    0.000    0.615 
#    5.538    0.000    0.000    0.923    0.000    3.231 
#    0.000    0.000    0.000    0.000    0.000    0.000 
#
# Total GULP energy -145028.108286 kJ/mol
# GULP energy per Si atom -5578.004165 kJ/mol
# Density = 2.285408 g / cm^3
# Si number density = 22.906218 Si / 1000 Ang^3
#
#
#
# Elastic Constant Matrix: (Units=GPa)
#
#
# Indices 1 2 3 4 5 6 
#
# 1 132.1838 6.3050 44.9913 0.0000 -13.6928 0.0000
# 2 6.3050 49.2417 5.0582 0.0000 -12.9227 0.0000
# 3 44.9913 5.0582 71.9755 0.0000 -34.8021 0.0000
# 4 0.0000 0.0000 0.0000 12.2438 0.0000 -2.1803
# 5 -13.6928 -12.9227 -34.8021 0.0000 34.6830 0.0000
# 6 0.0000 0.0000 0.0000 -2.1803 0.0000 0.6023
#
#
#
# Elastic Compliance Matrix: (Units=1/GPa)
#
#
# Indices 1 2 3 4 5 6 
#
# 1 0.010104 -0.001861 -0.008919 0.000000 -0.005654 0.000000
# 2 -0.001861 0.023741 0.006637 0.000000 0.014771 0.000000
# 3 -0.008919 0.006637 0.035927 0.000000 0.035002 0.000000
# 4 0.000000 0.000000 0.000000 0.229820 0.000000 0.831942
# 5 -0.005654 0.014771 0.035002 0.000000 0.067226 0.000000
# 6 0.000000 0.000000 0.000000 0.831942 0.000000 4.671936
#
#
# Mechanical properties :
#
#
# Convention : Reuss Voigt Hill
#
# Bulk Modulus (GPa) = 16.26401 40.67888 28.47144
# Shear Modulus (GPa) = 0.98667 22.64225 11.81446
#
# Velocity S-wave (km/s) = 0.65702 3.14742 2.27353
# Velocity P-wave (km/s) = 2.77331 5.56828 4.39869
#
# Compressibility (1/GPa) = 0.06148545
#
# Stress axis : x y z
#
# Youngs Moduli (GPa) = 98.96970 42.12130 27.83424
#
# Poissons Ratio (x) = 0.07841 0.24826
# Poissons Ratio (y) = 0.18423 -0.18474
# Poissons Ratio (z) = 0.88273 -0.27957
#
# Static dielectric constant tensor:
#      x y z
#    x 1.912900 0.000000 -0.020040 
#    y 0.000000 1.911750 0.000000 
#    z -0.020040 0.000000 1.860800 
# 
# From -- ./inp_files/42255.got.cif
#   From: 2010.05.17/outbox.cif.g08.bks.cpg/sg13_22_cif.got.tgz:42255.got - 2010.06.03 16:44:36.
