data_PCOD9226319
_publ_section_title
;
Structure prediction by ZEFSAII (Michael W. Deem and Ramdas Pophale) SiO2 
 PCOD9226319
Probable space group: P 2/C
;
_chemical_formula_sum "Si O2"
_cell_formula_units_Z 28
_cell_length_a 21.664442
_cell_length_b 11.902922
_cell_length_c 12.848654
_cell_angle_alpha 90.000000
_cell_angle_beta 151.981083
_cell_angle_gamma 90.000000
_cell_volume 1556.458650
_symmetry_space_group_name_H-M "P 2/C"
_symmetry_group_IT_number 13
_symmetry_cell_setting 'monoclinic'
loop_
_space_group_symop_operation_xyz
x,y,z
-x,y,1/2-z
-x,-y,-z
x,-y,1/2+z
loop_
_atom_site_type_symbol
_atom_site_label
_atom_site_fract_x
_atom_site_fract_y
_atom_site_fract_z
Si Si1 0.935595 0.101317 0.767167
Si Si2 0.167128 0.123276 0.275607
Si Si3 0.500000 0.093675 0.250000
Si Si4 0.410468 0.101881 0.479583
Si Si5 0.650077 0.278934 0.840412
Si Si6 0.538634 0.607068 0.990259
Si Si7 0.500000 0.464367 0.750000
Si Si8 0.323677 0.206424 0.138881
O O1 0.832267 0.202296 0.598583
O O2 0.000000 0.076849 0.750000
O O3 0.857755 0.990938 0.695098
O O4 0.041786 0.133032 0.013388
O O5 0.290353 0.121662 0.379654
O O6 0.213736 0.222967 0.421737
O O7 0.379662 0.165594 0.111788
O O8 0.540198 0.018449 0.408295
O O9 0.533173 0.186279 0.675841
O O10 0.358534 0.121876 0.286332
O O11 0.643191 0.321033 0.710958
O O12 0.600171 0.382272 0.838029
O O13 0.577471 0.549951 0.940334
O O14 0.407066 0.682162 0.785289
O O15 0.500000 0.500000 0.000000
#
# Coordination Sequence:
#
# PCOD9226319 Si02
#       8
#     4   4   2   4   4   4   2   4
#     4  11  23  36  53  79 119 161 196 222 260 343
#     4  11  20  36  55  80 115 160 190 224 273 337
#     4  12  20  32  52  84 116 140 180 240 290 336
#     4  11  18  32  54  81 111 148 186 225 281 343
#     4  10  18  34  58  85 113 145 183 229 292 344
#     4   9  21  34  55  84 110 138 183 243 292 331
#     4  10  16  34  58  88 112 138 176 246 300 330
#     4  11  22  35  52  82 115 147 190 234 290 329
#
# _framework density 17.989557000000001
#
# number of rings (size 3 to 8) (size 9 to 14) (size 15 to 20)
#    0.000    1.429    5.714    0.857    0.000    1.143 
#    0.000    1.429    0.000    3.429    0.000    8.000 
#    0.000    0.000    0.000    0.000    0.000    0.000 
#
# Total GULP energy -155913.636656 kJ/mol
# GULP energy per Si atom -5568.344166 kJ/mol
# Density = 1.794861 g / cm^3
# Si number density = 17.989557 Si / 1000 Ang^3
#
#
#
# Elastic Constant Matrix: (Units=GPa)
#
#
# Indices 1 2 3 4 5 6 
#
# 1 63.4978 25.9165 19.8786 0.0000 -6.5630 0.0000
# 2 25.9165 77.6954 47.5246 0.0000 -8.0278 0.0000
# 3 19.8786 47.5246 114.2732 0.0000 -14.0871 0.0000
# 4 0.0000 0.0000 0.0000 6.4839 0.0000 -25.5505
# 5 -6.5630 -8.0278 -14.0871 0.0000 19.0700 0.0000
# 6 0.0000 0.0000 0.0000 -25.5505 0.0000 -20.4658
#
#
#
# Elastic Compliance Matrix: (Units=1/GPa)
#
#
# Indices 1 2 3 4 5 6 
#
# 1 0.018528 -0.005506 -0.000476 0.000000 0.003707 0.000000
# 2 -0.005506 0.018980 -0.006804 0.000000 0.001069 0.000000
# 3 -0.000476 -0.006804 0.012421 0.000000 0.006148 0.000000
# 4 0.000000 0.000000 0.000000 0.026054 0.000000 -0.032527
# 5 0.003707 0.001069 0.006148 0.000000 0.058705 0.000000
# 6 0.000000 0.000000 0.000000 -0.032527 0.000000 -0.008254
#
#
# Mechanical properties :
#
#
# Convention : Reuss Voigt Hill
#
# Bulk Modulus (GPa) = 41.05630 49.12288 45.08959
# Shear Modulus (GPa) = 31.22574 11.82741 21.52657
#
# Velocity S-wave (km/s) = 4.17078 2.56688 3.46297
# Velocity P-wave (km/s) = 6.78717 6.01255 6.41157
#
# Compressibility (1/GPa) = 0.02435680
#
# Stress axis : x y z
#
# Youngs Moduli (GPa) = 53.97220 52.68828 80.50731
#
# Poissons Ratio (x) = 0.29010 0.03834
# Poissons Ratio (y) = 0.29717 0.54775
# Poissons Ratio (z) = 0.02570 0.35848
#
# Static dielectric constant tensor:
#      x y z
#    x 1.648850 0.000000 -0.044430 
#    y 0.000000 1.643710 0.000000 
#    z -0.044430 0.000000 1.647760 
# 
# From -- ./inp_files/40846.got.cif
#   From: 2010.05.17/outbox.cif.g08.bks.cpg/sg13_21_cif.got.tgz:40846.got - 2010.06.03 16:44:36.
