data_PCOD9226172
_publ_section_title
;
Structure prediction by ZEFSAII (Michael W. Deem and Ramdas Pophale) SiO2 
 PCOD9226172
Probable space group: P 2/C
;
_chemical_formula_sum "Si O2"
_cell_formula_units_Z 26
_cell_length_a 11.453160
_cell_length_b 24.700071
_cell_length_c 5.224135
_cell_angle_alpha 90.000000
_cell_angle_beta 93.710044
_cell_angle_gamma 90.000000
_cell_volume 1474.778544
_symmetry_space_group_name_H-M "P 2/C"
_symmetry_group_IT_number 13
_symmetry_cell_setting 'monoclinic'
loop_
_space_group_symop_operation_xyz
x,y,z
-x,y,1/2-z
-x,-y,-z
x,-y,1/2+z
loop_
_atom_site_type_symbol
_atom_site_label
_atom_site_fract_x
_atom_site_fract_y
_atom_site_fract_z
Si Si1 0.865842 0.757764 0.277914
Si Si2 0.572975 0.357762 0.009818
Si Si3 0.000000 0.962726 0.250000
Si Si4 0.729183 0.261833 0.258045
Si Si5 0.216930 0.881159 0.259116
Si Si6 0.363079 0.860074 0.772788
Si Si7 0.365949 0.523135 0.009516
O O1 0.830866 0.744203 0.562252
O O2 0.844362 0.822114 0.244798
O O3 0.000000 0.744294 0.250000
O O4 0.781674 0.731137 0.050007
O O5 0.500000 0.338598 0.750000
O O6 0.500000 0.375863 0.250000
O O7 0.651011 0.310202 0.137689
O O8 0.633560 0.413436 0.930212
O O9 0.115155 0.925328 0.243860
O O10 0.000000 0.000000 0.500000
O O11 0.658294 0.205096 0.241546
O O12 0.291874 0.885290 0.527487
O O13 0.304392 0.880723 0.027926
O O14 0.500000 0.870734 0.750000
O O15 0.309960 0.510254 0.730439
O O16 0.500000 0.500000 0.000000
#
# Coordination Sequence:
#
# PCOD9226172 Si02
#       7
#     4   4   2   4   4   4   4
#     4  10  19  37  56  74 108 138 179 225 267 338
#     4  12  20  30  47  68 111 145 167 222 258 320
#     4  12  24  40  64  92 118 134 184 256 294 314
#     4  10  22  31  49  83 105 142 183 216 277 320
#     4  10  21  37  60  86 109 150 185 223 287 321
#     4  10  20  36  57  81 117 152 191 215 253 356
#     4  10  16  29  43  64  89 139 182 204 262 311
#
# _framework density 17.629764000000002
#
# number of rings (size 3 to 8) (size 9 to 14) (size 15 to 20)
#    0.000    1.538    3.846    3.231    0.000    2.462 
#    0.000    0.000    0.000    9.231    0.000    0.000 
#    0.000   12.308    0.000    0.000    0.000    0.000 
#
# Total GULP energy -144977.917319 kJ/mol
# GULP energy per Si atom -5576.073743 kJ/mol
# Density = 1.758964 g / cm^3
# Si number density = 17.629764 Si / 1000 Ang^3
#
#
#
# Elastic Constant Matrix: (Units=GPa)
#
#
# Indices 1 2 3 4 5 6 
#
# 1 79.6437 39.1253 23.4786 0.0000 0.6640 0.0000
# 2 39.1253 80.7834 23.7681 0.0000 12.2712 0.0000
# 3 23.4786 23.7681 110.2120 0.0000 5.4693 0.0000
# 4 0.0000 0.0000 0.0000 25.3538 0.0000 5.9158
# 5 0.6640 12.2712 5.4693 0.0000 19.3414 0.0000
# 6 0.0000 0.0000 0.0000 5.9158 0.0000 6.6942
#
#
#
# Elastic Compliance Matrix: (Units=1/GPa)
#
#
# Indices 1 2 3 4 5 6 
#
# 1 0.017368 -0.008622 -0.002112 0.000000 0.005471 0.000000
# 2 -0.008622 0.018729 -0.001651 0.000000 -0.011120 0.000000
# 3 -0.002112 -0.001651 0.009964 0.000000 -0.001698 0.000000
# 4 0.000000 0.000000 0.000000 0.049687 0.000000 -0.043909
# 5 0.005471 -0.011120 -0.001698 0.000000 0.059050 0.000000
# 6 0.000000 0.000000 0.000000 -0.043909 0.000000 0.188186
#
#
# Mechanical properties :
#
#
# Convention : Reuss Voigt Hill
#
# Bulk Modulus (GPa) = 46.96490 49.26479 48.11484
# Shear Modulus (GPa) = 13.33864 22.56235 17.95049
#
# Velocity S-wave (km/s) = 2.75362 3.58129 3.19437
# Velocity P-wave (km/s) = 6.06690 6.71607 6.39972
#
# Compressibility (1/GPa) = 0.02129250
#
# Stress axis : x y z
#
# Youngs Moduli (GPa) = 57.57605 53.39256 100.36535
#
# Poissons Ratio (x) = 0.46032 0.21199
# Poissons Ratio (y) = 0.49639 0.16566
# Poissons Ratio (z) = 0.12161 0.08813
#
# Static dielectric constant tensor:
#      x y z
#    x 1.672740 0.000000 0.234230 
#    y 0.000000 1.598080 0.000000 
#    z 0.234230 0.000000 2.321120 
# 
# From -- ./inp_files/2572.got.cif
#   From: 2010.05.17/outbox.cif.g08.bks.cpg/sg13_2_cif.got.tgz:2572.got - 2010.06.03 16:44:36.
