data_PCOD9226608
_publ_section_title
;
Structure prediction by ZEFSAII (Michael W. Deem and Ramdas Pophale) SiO2 
 PCOD9226608
Probable space group: P 2/C
;
_chemical_formula_sum "Si O2"
_cell_formula_units_Z 24
_cell_length_a 13.267398
_cell_length_b 9.097385
_cell_length_c 13.844668
_cell_angle_alpha 90.000000
_cell_angle_beta 140.240472
_cell_angle_gamma 90.000000
_cell_volume 1068.736941
_symmetry_space_group_name_H-M "P 2/C"
_symmetry_group_IT_number 13
_symmetry_cell_setting 'monoclinic'
loop_
_space_group_symop_operation_xyz
x,y,z
-x,y,1/2-z
-x,-y,-z
x,-y,1/2+z
loop_
_atom_site_type_symbol
_atom_site_label
_atom_site_fract_x
_atom_site_fract_y
_atom_site_fract_z
Si Si1 0.555214 0.480994 0.396200
Si Si2 0.560349 0.974691 0.152459
Si Si3 0.285828 0.163366 0.995596
Si Si4 0.760124 0.542685 0.713138
Si Si5 0.186681 0.216434 0.711915
Si Si6 0.861429 0.181977 0.409479
O O1 0.500000 0.529529 0.250000
O O2 0.606614 0.309297 0.431025
O O3 0.700336 0.560519 0.558347
O O4 0.400977 0.481221 0.347365
O O5 0.712546 0.079788 0.274419
O O6 0.643994 0.815360 0.214571
O O7 0.406054 0.026020 0.098428
O O8 0.500000 0.000000 0.000000
O O9 0.200622 0.147622 0.829687
O O10 0.171303 0.197739 0.999653
O O11 0.847490 0.387972 0.793485
O O12 0.842843 0.678330 0.825298
O O13 0.047303 0.148962 0.545539
#
# Coordination Sequence:
#
# PCOD9226608 Si02
#       6
#     4   4   4   4   4   4
#     4  10  17  34  57  90 116 155 204 250 287 349
#     4  10  21  37  59  84 114 154 202 246 292 354
#     4  10  19  37  63  87 111 159 211 241 284 363
#     4  10  21  33  62  90 121 157 198 246 305 357
#     4  10  23  37  57  92 126 154 189 254 314 353
#     4  12  20  38  64  87 119 159 202 246 299 362
#
# _framework density 22.456413999999999
#
# number of rings (size 3 to 8) (size 9 to 14) (size 15 to 20)
#    0.000    1.667    3.333    2.000    2.333    0.000 
#    0.000    1.667    0.000    0.000    0.000    0.000 
#    0.000    0.000    0.000    0.000    0.000    0.000 
#
# Total GULP energy -133723.930189 kJ/mol
# GULP energy per Si atom -5571.830425 kJ/mol
# Density = 2.240530 g / cm^3
# Si number density = 22.456414 Si / 1000 Ang^3
#
#
#
# Elastic Constant Matrix: (Units=GPa)
#
#
# Indices 1 2 3 4 5 6 
#
# 1 38.3645 13.1940 26.1900 0.0000 0.4553 0.0000
# 2 13.1940 27.5032 14.3339 0.0000 5.7134 0.0000
# 3 26.1900 14.3339 136.6063 0.0000 5.6114 0.0000
# 4 0.0000 0.0000 0.0000 25.1587 0.0000 -2.0663
# 5 0.4553 5.7134 5.6114 0.0000 33.5723 0.0000
# 6 0.0000 0.0000 0.0000 -2.0663 0.0000 17.3574
#
#
#
# Elastic Compliance Matrix: (Units=1/GPa)
#
#
# Indices 1 2 3 4 5 6 
#
# 1 0.034573 -0.014455 -0.005229 0.000000 0.002865 0.000000
# 2 -0.014455 0.045709 -0.001725 0.000000 -0.007294 0.000000
# 3 -0.005229 -0.001725 0.008548 0.000000 -0.001064 0.000000
# 4 0.000000 0.000000 0.000000 0.040140 0.000000 0.004779
# 5 0.002865 -0.007294 -0.001064 0.000000 0.031167 0.000000
# 6 0.000000 0.000000 0.000000 0.004779 0.000000 0.058181
#
#
# Mechanical properties :
#
#
# Convention : Reuss Voigt Hill
#
# Bulk Modulus (GPa) = 21.73463 34.43440 28.08451
# Shear Modulus (GPa) = 18.08492 25.13474 21.60983
#
# Velocity S-wave (km/s) = 2.84092 3.34918 3.10546
# Velocity P-wave (km/s) = 4.52335 5.50664 5.03904
#
# Compressibility (1/GPa) = 0.04600953
#
# Stress axis : x y z
#
# Youngs Moduli (GPa) = 28.92435 21.87775 116.99244
#
# Poissons Ratio (x) = 0.31625 0.61177
# Poissons Ratio (y) = 0.41812 0.20182
# Poissons Ratio (z) = 0.15125 0.03774
#
# Static dielectric constant tensor:
#      x y z
#    x 1.830740 0.000000 -0.026880 
#    y 0.000000 1.894150 0.000000 
#    z -0.026880 0.000000 1.883220 
# 
# From -- ./inp_files/53227.got.cif
#   From: 2010.05.17/outbox.cif.g08.bks.cpg/sg13_27_cif.got.tgz:53227.got - 2010.06.03 16:44:36.
