data_PCOD9226979
_publ_section_title
;
Structure prediction by ZEFSAII (Michael W. Deem and Ramdas Pophale) SiO2 
 PCOD9226979
Probable space group: P 2/C
;
_chemical_formula_sum "Si O2"
_cell_formula_units_Z 24
_cell_length_a 6.103173
_cell_length_b 9.125810
_cell_length_c 20.573994
_cell_angle_alpha 90.000000
_cell_angle_beta 116.293240
_cell_angle_gamma 90.000000
_cell_volume 1027.341313
_symmetry_space_group_name_H-M "P 2/C"
_symmetry_group_IT_number 13
_symmetry_cell_setting 'monoclinic'
loop_
_space_group_symop_operation_xyz
x,y,z
-x,y,1/2-z
-x,-y,-z
x,-y,1/2+z
loop_
_atom_site_type_symbol
_atom_site_label
_atom_site_fract_x
_atom_site_fract_y
_atom_site_fract_z
Si Si1 0.106724 0.763266 0.070070
Si Si2 0.649081 0.681898 0.175309
Si Si3 0.339005 0.805253 0.973282
Si Si4 0.841330 0.497578 0.078174
Si Si5 0.216063 0.586318 0.725120
Si Si6 0.215980 0.065794 0.885123
O O1 0.361675 0.697801 0.128407
O O2 0.927648 0.623739 0.040865
O O3 0.030577 0.881631 0.113575
O O4 0.142456 0.833990 0.004465
O O5 0.740043 0.587053 0.126060
O O6 0.737591 0.583096 0.246211
O O7 0.748380 0.846757 0.177021
O O8 0.338843 0.631235 0.965693
O O9 0.269402 0.894461 0.899507
O O10 0.586209 0.864593 0.037974
O O11 0.078372 0.413245 0.138342
O O12 0.500000 0.643786 0.750000
O O13 0.000000 0.639403 0.750000
#
# Coordination Sequence:
#
# PCOD9226979 Si02
#       6
#     4   4   4   4   4   4
#     4  10  18  32  53  79 111 146 189 231 287 348
#     4   9  19  34  55  80 105 146 191 240 288 344
#     4  10  20  34  51  81 117 151 186 232 292 350
#     4  10  20  32  54  83 108 145 190 247 292 344
#     4  10  19  36  59  86 110 145 195 250 297 340
#     4   9  20  35  52  77 116 154 188 229 285 358
#
# _framework density 23.361272
#
# number of rings (size 3 to 8) (size 9 to 14) (size 15 to 20)
#    0.000    2.333    1.667    1.000    0.000    7.333 
#    0.000    0.000    0.000   15.000    0.000    0.000 
#    0.000    0.000    0.000    0.000    0.000    0.000 
#
# Total GULP energy -133694.197846 kJ/mol
# GULP energy per Si atom -5570.591577 kJ/mol
# Density = 2.330810 g / cm^3
# Si number density = 23.361272 Si / 1000 Ang^3
#
#
#
# Elastic Constant Matrix: (Units=GPa)
#
#
# Indices 1 2 3 4 5 6 
#
# 1 104.7960 5.8657 0.9600 0.0000 12.5989 0.0000
# 2 5.8657 62.5558 0.5377 0.0000 11.8017 0.0000
# 3 0.9600 0.5377 45.4306 0.0000 10.7711 0.0000
# 4 0.0000 0.0000 0.0000 23.4175 0.0000 2.7593
# 5 12.5989 11.8017 10.7711 0.0000 31.5845 0.0000
# 6 0.0000 0.0000 0.0000 2.7593 0.0000 14.7925
#
#
#
# Elastic Compliance Matrix: (Units=1/GPa)
#
#
# Indices 1 2 3 4 5 6 
#
# 1 0.010051 -0.000153 0.000790 0.000000 -0.004222 0.000000
# 2 -0.000153 0.017287 0.001431 0.000000 -0.006887 0.000000
# 3 0.000790 0.001431 0.024131 0.000000 -0.009079 0.000000
# 4 0.000000 0.000000 0.000000 0.043663 0.000000 -0.008145
# 5 -0.004222 -0.006887 -0.009079 0.000000 0.039015 0.000000
# 6 0.000000 0.000000 0.000000 -0.008145 0.000000 0.069121
#
#
# Mechanical properties :
#
#
# Convention : Reuss Voigt Hill
#
# Bulk Modulus (GPa) = 17.98353 25.27884 21.63118
# Shear Modulus (GPa) = 22.97107 27.65348 25.31228
#
# Velocity S-wave (km/s) = 3.13916 3.44427 3.29525
# Velocity P-wave (km/s) = 4.56660 5.16349 4.87419
#
# Compressibility (1/GPa) = 0.05560643
#
# Stress axis : x y z
#
# Youngs Moduli (GPa) = 99.49045 57.84710 41.44131
#
# Poissons Ratio (x) = 0.00884 -0.03275
# Poissons Ratio (y) = 0.01520 -0.05932
# Poissons Ratio (z) = -0.07863 -0.08280
#
# Static dielectric constant tensor:
#      x y z
#    x 2.010690 0.000000 0.001660 
#    y 0.000000 1.915320 0.000000 
#    z 0.001660 0.000000 1.927140 
# 
# From -- ./inp_files/90171.got.cif
#   From: 2010.05.17/outbox.cif.g08.bks.cpg/sg13_46_cif.got.tgz:90171.got - 2010.06.03 16:44:36.
