data_PCOD9226311
_publ_section_title
;
Structure prediction by ZEFSAII (Michael W. Deem and Ramdas Pophale) SiO2 
 PCOD9226311
Probable space group: P 2/C
;
_chemical_formula_sum "Si O2"
_cell_formula_units_Z 16
_cell_length_a 11.399826
_cell_length_b 9.912797
_cell_length_c 5.335504
_cell_angle_alpha 90.000000
_cell_angle_beta 78.073579
_cell_angle_gamma 90.000000
_cell_volume 589.919092
_symmetry_space_group_name_H-M "P 2/C"
_symmetry_group_IT_number 13
_symmetry_cell_setting 'monoclinic'
loop_
_space_group_symop_operation_xyz
x,y,z
-x,y,1/2-z
-x,-y,-z
x,-y,1/2+z
loop_
_atom_site_type_symbol
_atom_site_label
_atom_site_fract_x
_atom_site_fract_y
_atom_site_fract_z
Si Si1 0.551115 0.847088 0.979351
Si Si2 0.701138 0.546956 0.529487
Si Si3 0.877366 0.333103 0.658929
Si Si4 0.169774 0.916862 0.628695
O O1 0.500000 0.782601 0.750000
O O2 0.691826 0.869067 0.931970
O O3 0.500000 0.778138 0.250000
O O4 0.500000 0.000000 0.000000
O O5 0.639988 0.529611 0.824070
O O6 0.822344 0.456799 0.526299
O O7 0.762648 0.684610 0.403127
O O8 0.894515 0.212392 0.458243
O O9 0.000000 0.352204 0.750000
O O10 0.146882 0.027717 0.417985
#
# Coordination Sequence:
#
# PCOD9226311 Si02
#       4
#     4   4   4   4
#     4  10  16  34  56  73 102 134 186 226 251 313
#     4   8  19  36  58  76  97 138 197 236 254 294
#     4  10  22  37  57  80 112 148 186 227 265 314
#     4  12  24  35  53  85 117 144 178 216 281 340
#
# _framework density 27.122366
#
# number of rings (size 3 to 8) (size 9 to 14) (size 15 to 20)
#    1.500    0.500    5.000    0.750    3.500    1.000 
#    0.000    0.000    0.000    0.000    0.000    5.250 
#    0.000    0.000    0.000    0.000    0.000    0.000 
#
# Total GULP energy -89369.820977 kJ/mol
# GULP energy per Si atom -5585.613811 kJ/mol
# Density = 2.706063 g / cm^3
# Si number density = 27.122366 Si / 1000 Ang^3
#
#
#
# Elastic Constant Matrix: (Units=GPa)
#
#
# Indices 1 2 3 4 5 6 
#
# 1 89.5118 30.7478 46.0353 0.0000 5.6516 0.0000
# 2 30.7478 71.0221 4.4396 0.0000 19.8648 0.0000
# 3 46.0353 4.4396 209.2393 0.0000 44.0335 0.0000
# 4 0.0000 0.0000 0.0000 27.9493 0.0000 16.8159
# 5 5.6516 19.8648 44.0335 0.0000 40.9319 0.0000
# 6 0.0000 0.0000 0.0000 16.8159 0.0000 23.4325
#
#
#
# Elastic Compliance Matrix: (Units=1/GPa)
#
#
# Indices 1 2 3 4 5 6 
#
# 1 0.016262 -0.008780 -0.004932 0.000000 0.007322 0.000000
# 2 -0.008780 0.021516 0.004418 0.000000 -0.013982 0.000000
# 3 -0.004932 0.004418 0.007857 0.000000 -0.009916 0.000000
# 4 0.000000 0.000000 0.000000 0.062966 0.000000 -0.045186
# 5 0.007322 -0.013982 -0.009916 0.000000 0.040873 0.000000
# 6 0.000000 0.000000 0.000000 -0.045186 0.000000 0.075103
#
#
# Mechanical properties :
#
#
# Convention : Reuss Voigt Hill
#
# Bulk Modulus (GPa) = 36.97425 59.13540 48.05482
# Shear Modulus (GPa) = 19.82700 37.69944 28.76322
#
# Velocity S-wave (km/s) = 2.70667 3.73228 3.26006
# Velocity P-wave (km/s) = 4.84046 6.35797 5.65039
#
# Compressibility (1/GPa) = 0.02704585
#
# Stress axis : x y z
#
# Youngs Moduli (GPa) = 61.49261 46.47727 127.26852
#
# Poissons Ratio (x) = 0.40807 0.62774
# Poissons Ratio (y) = 0.53991 -0.56223
# Poissons Ratio (z) = 0.30331 -0.20532
#
# Static dielectric constant tensor:
#      x y z
#    x 2.026710 0.000000 -0.225990 
#    y 0.000000 2.125250 0.000000 
#    z -0.225990 0.000000 2.062670 
# 
# From -- ./inp_files/2943.got.cif
#   From: 2010.05.17/outbox.cif.g08.bks.cpg/sg13_2_cif.got.tgz:2943.got - 2010.06.03 16:44:36.
