data_PCOD9226883
_publ_section_title
;
Structure prediction by ZEFSAII (Michael W. Deem and Ramdas Pophale) SiO2 
 PCOD9226883
Probable space group: P 2/C
;
_chemical_formula_sum "Si O2"
_cell_formula_units_Z 24
_cell_length_a 7.823945
_cell_length_b 9.795379
_cell_length_c 15.271104
_cell_angle_alpha 90.000000
_cell_angle_beta 62.492171
_cell_angle_gamma 90.000000
_cell_volume 1038.043360
_symmetry_space_group_name_H-M "P 2/C"
_symmetry_group_IT_number 13
_symmetry_cell_setting 'monoclinic'
loop_
_space_group_symop_operation_xyz
x,y,z
-x,y,1/2-z
-x,-y,-z
x,-y,1/2+z
loop_
_atom_site_type_symbol
_atom_site_label
_atom_site_fract_x
_atom_site_fract_y
_atom_site_fract_z
Si Si1 0.076155 0.586492 0.873199
Si Si2 0.688834 0.580870 0.866471
Si Si3 0.699854 0.920106 0.051784
Si Si4 0.598547 0.864513 0.824478
Si Si5 0.384467 0.615183 0.369768
Si Si6 0.062452 0.897618 0.871774
O O1 0.192846 0.581641 0.753516
O O2 0.189362 0.472845 0.901457
O O3 0.091973 0.742942 0.902706
O O4 0.853355 0.564410 0.900145
O O5 0.586160 0.727864 0.884750
O O6 0.530413 0.464062 0.898747
O O7 0.655050 0.765949 0.087549
O O8 0.511956 0.013306 0.102314
O O9 0.833902 0.987295 0.095322
O O10 0.835394 0.923861 0.934349
O O11 0.500000 0.842621 0.750000
O O12 0.818856 0.894685 0.746031
O O13 0.500000 0.623259 0.250000
#
# Coordination Sequence:
#
# PCOD9226883 Si02
#       6
#     4   4   4   4   4   4
#     4   9  18  33  53  77 104 142 184 217 258 318
#     4   9  17  32  55  77 102 141 186 220 255 315
#     4  10  19  31  53  81 107 138 176 223 275 317
#     4   9  16  32  55  76 102 141 182 217 261 317
#     4  10  18  31  53  79 108 139 174 222 273 315
#     4   9  18  33  51  76 106 140 183 218 259 323
#
# _framework density 23.120422000000001
#
# number of rings (size 3 to 8) (size 9 to 14) (size 15 to 20)
#    0.000    2.667    0.000    5.000    0.000    0.667 
#    0.000    3.333    0.000   10.000    0.000    0.000 
#    0.000    0.000    0.000    0.000    0.000    0.000 
#
# Total GULP energy -134173.513096 kJ/mol
# GULP energy per Si atom -5590.563046 kJ/mol
# Density = 2.306780 g / cm^3
# Si number density = 23.120422 Si / 1000 Ang^3
#
#
#
# Elastic Constant Matrix: (Units=GPa)
#
#
# Indices 1 2 3 4 5 6 
#
# 1 145.4770 106.4594 57.5240 0.0000 -25.4643 0.0000
# 2 106.4594 220.1686 75.8842 0.0000 -33.0018 0.0000
# 3 57.5240 75.8842 131.0880 0.0000 -18.7258 0.0000
# 4 0.0000 0.0000 0.0000 25.7875 0.0000 -10.2679
# 5 -25.4643 -33.0018 -18.7258 0.0000 51.6716 0.0000
# 6 0.0000 0.0000 0.0000 -10.2679 0.0000 20.8960
#
#
#
# Elastic Compliance Matrix: (Units=1/GPa)
#
#
# Indices 1 2 3 4 5 6 
#
# 1 0.011304 -0.004445 -0.002106 0.000000 0.001969 0.000000
# 2 -0.004445 0.007764 -0.002266 0.000000 0.001947 0.000000
# 3 -0.002106 -0.002266 0.010028 0.000000 0.001149 0.000000
# 4 0.000000 0.000000 0.000000 0.048211 0.000000 0.023690
# 5 0.001969 0.001947 0.001149 0.000000 0.021983 0.000000
# 6 0.000000 0.000000 0.000000 0.023690 0.000000 0.059497
#
#
# Mechanical properties :
#
#
# Convention : Reuss Voigt Hill
#
# Bulk Modulus (GPa) = 87.23817 108.49653 97.86735
# Shear Modulus (GPa) = 27.74038 36.79541 32.26789
#
# Velocity S-wave (km/s) = 3.46760 3.99365 3.73989
# Velocity P-wave (km/s) = 7.33801 8.26403 7.81475
#
# Compressibility (1/GPa) = 0.01146287
#
# Stress axis : x y z
#
# Youngs Moduli (GPa) = 88.46317 128.79841 99.71602
#
# Poissons Ratio (x) = 0.57250 0.21002
# Poissons Ratio (y) = 0.39322 0.22593
# Poissons Ratio (z) = 0.18632 0.29183
#
# Static dielectric constant tensor:
#      x y z
#    x 1.884920 0.000000 0.013990 
#    y 0.000000 1.805630 0.000000 
#    z 0.013990 0.000000 1.944030 
# 
# From -- ./inp_files/84725.got.cif
#   From: 2010.05.17/outbox.cif.g08.bks.cpg/sg13_43_cif.got.tgz:84725.got - 2010.06.03 16:44:36.
