data_PCOD9226302
_publ_section_title
;
Structure prediction by ZEFSAII (Michael W. Deem and Ramdas Pophale) SiO2 
 PCOD9226302
Probable space group: P 2/C
;
_chemical_formula_sum "Si O2"
_cell_formula_units_Z 24
_cell_length_a 16.236745
_cell_length_b 8.219834
_cell_length_c 18.306299
_cell_angle_alpha 90.000000
_cell_angle_beta 28.285508
_cell_angle_gamma 90.000000
_cell_volume 1157.757631
_symmetry_space_group_name_H-M "P 2/C"
_symmetry_group_IT_number 13
_symmetry_cell_setting 'monoclinic'
loop_
_space_group_symop_operation_xyz
x,y,z
-x,y,1/2-z
-x,-y,-z
x,-y,1/2+z
loop_
_atom_site_type_symbol
_atom_site_label
_atom_site_fract_x
_atom_site_fract_y
_atom_site_fract_z
Si Si1 0.326165 0.361215 0.682180
Si Si2 0.007276 0.680193 0.328693
Si Si3 0.222921 0.659897 0.855617
Si Si4 0.028384 0.926910 0.809735
Si Si5 0.902843 0.838459 0.047732
Si Si6 0.386613 0.842649 0.608054
O O1 0.177961 0.389084 0.736214
O O2 0.312278 0.500012 0.753977
O O3 0.507359 0.313773 0.504388
O O4 0.263193 0.200094 0.775215
O O5 0.000000 0.626404 0.250000
O O6 0.837220 0.651484 0.513024
O O7 0.029831 0.876788 0.310669
O O8 0.340978 0.805629 0.729024
O O9 0.037498 0.692980 0.960374
O O10 0.207166 0.863348 0.704589
O O11 0.000000 0.872501 0.750000
O O12 0.880374 0.861860 0.979806
O O13 0.000000 0.000000 0.000000
O O14 0.500000 0.000000 0.500000
#
# Coordination Sequence:
#
# PCOD9226302 Si02
#       6
#     4   4   4   4   4   4
#     4  11  20  36  58  86 118 155 196 237 292 351
#     4  10  19  35  59  87 116 152 200 243 290 345
#     4  10  21  35  57  88 116 156 196 236 291 360
#     4  10  20  35  58  87 112 146 199 252 291 334
#     4  10  16  33  57  81 111 148 196 234 276 347
#     4  11  21  37  61  86 115 153 196 245 291 348
#
# _framework density 20.729727
#
# number of rings (size 3 to 8) (size 9 to 14) (size 15 to 20)
#    0.000    1.667    5.000    3.500    0.000    0.000 
#    0.000    9.167    0.000    2.000    0.000    0.000 
#    0.000    0.000    0.000    0.000    0.000    0.000 
#
# Total GULP energy -133810.100056 kJ/mol
# GULP energy per Si atom -5575.420836 kJ/mol
# Density = 2.068255 g / cm^3
# Si number density = 20.729727 Si / 1000 Ang^3
#
#
#
# Elastic Constant Matrix: (Units=GPa)
#
#
# Indices 1 2 3 4 5 6 
#
# 1 81.3533 10.2459 48.5559 0.0000 42.1732 0.0000
# 2 10.2459 69.3889 31.1895 0.0000 6.1584 0.0000
# 3 48.5559 31.1895 155.9537 0.0000 33.7943 0.0000
# 4 0.0000 0.0000 0.0000 43.7054 0.0000 3.4859
# 5 42.1732 6.1584 33.7943 0.0000 42.4740 0.0000
# 6 0.0000 0.0000 0.0000 3.4859 0.0000 15.0425
#
#
#
# Elastic Compliance Matrix: (Units=1/GPa)
#
#
# Indices 1 2 3 4 5 6 
#
# 1 0.026513 -0.000452 -0.002990 0.000000 -0.023881 0.000000
# 2 -0.000452 0.015845 -0.003175 0.000000 0.000677 0.000000
# 3 -0.002990 -0.003175 0.008742 0.000000 -0.003527 0.000000
# 4 0.000000 0.000000 0.000000 0.023311 0.000000 -0.005402
# 5 -0.023881 0.000677 -0.003527 0.000000 0.049964 0.000000
# 6 0.000000 0.000000 0.000000 -0.005402 0.000000 0.067730
#
#
# Mechanical properties :
#
#
# Convention : Reuss Voigt Hill
#
# Bulk Modulus (GPa) = 26.40736 54.07538 40.24137
# Shear Modulus (GPa) = 22.93981 34.69136 28.81559
#
# Velocity S-wave (km/s) = 3.33019 4.09529 3.73240
# Velocity P-wave (km/s) = 5.24914 6.96451 6.16676
#
# Compressibility (1/GPa) = 0.03786823
#
# Stress axis : x y z
#
# Youngs Moduli (GPa) = 37.71697 63.11040 114.38753
#
# Poissons Ratio (x) = 0.02850 0.34197
# Poissons Ratio (y) = 0.01703 0.36319
# Poissons Ratio (z) = 0.11276 0.20038
#
# Static dielectric constant tensor:
#      x y z
#    x 1.708850 0.000000 0.032050 
#    y 0.000000 1.844440 0.000000 
#    z 0.032050 0.000000 1.840810 
# 
# From -- ./inp_files/69416.got.cif
#   From: 2010.05.17/outbox.cif.g08.bks.cpg/sg13_35_cif.got.tgz:69416.got - 2010.06.03 16:44:36.
