data_PCOD9226739
_publ_section_title
;
Structure prediction by ZEFSAII (Michael W. Deem and Ramdas Pophale) SiO2 
 PCOD9226739
Probable space group: P 2/C
;
_chemical_formula_sum "Si O2"
_cell_formula_units_Z 22
_cell_length_a 21.595421
_cell_length_b 9.255866
_cell_length_c 5.521923
_cell_angle_alpha 90.000000
_cell_angle_beta 58.440747
_cell_angle_gamma 90.000000
_cell_volume 940.501126
_symmetry_space_group_name_H-M "P 2/C"
_symmetry_group_IT_number 13
_symmetry_cell_setting 'monoclinic'
loop_
_space_group_symop_operation_xyz
x,y,z
-x,y,1/2-z
-x,-y,-z
x,-y,1/2+z
loop_
_atom_site_type_symbol
_atom_site_label
_atom_site_fract_x
_atom_site_fract_y
_atom_site_fract_z
Si Si1 0.500000 0.404963 0.250000
Si Si2 0.125445 0.315595 0.419299
Si Si3 0.658700 0.323508 0.870925
Si Si4 0.196377 0.001183 0.232589
Si Si5 0.922272 0.251402 0.483199
Si Si6 0.714872 0.350716 0.257067
O O1 0.500000 0.500000 0.500000
O O2 0.426531 0.311520 0.405896
O O3 0.147496 0.146157 0.339978
O O4 0.098915 0.352478 0.202736
O O5 0.201989 0.383741 0.344092
O O6 0.073956 0.323397 0.759221
O O7 0.683028 0.268932 0.556965
O O8 0.673936 0.496550 0.818150
O O9 0.704610 0.279031 0.014379
O O10 0.238492 0.001063 0.396521
O O11 0.139621 0.869144 0.358569
O O12 0.000000 0.187087 0.250000
#
# Coordination Sequence:
#
# PCOD9226739 Si02
#       6
#     2   4   4   4   4   4
#     4  12  16  30  48  74  98 118 150 174 218 268
#     4  10  19  29  44  65  89 118 147 187 219 277
#     4  10  19  30  48  69  92 126 145 178 214 259
#     4   8  16  27  41  61  86 113 137 174 227 274
#     4  10  19  31  46  66  89 114 145 188 243 283
#     4  10  18  30  43  66  93 121 155 173 216 266
#
# _framework density 23.391786
#
# number of rings (size 3 to 8) (size 9 to 14) (size 15 to 20)
#    0.000    2.182    3.636    1.636    0.000    6.545 
#    0.000    0.000    0.000    0.000    0.000   50.909 
#    0.000    0.000    0.000  250.364    0.000    0.000 
#
# Total GULP energy -122731.119376 kJ/mol
# GULP energy per Si atom -5578.687244 kJ/mol
# Density = 2.333854 g / cm^3
# Si number density = 23.391786 Si / 1000 Ang^3
#
#
#
# Elastic Constant Matrix: (Units=GPa)
#
#
# Indices 1 2 3 4 5 6 
#
# 1 106.9527 4.6910 45.3350 0.0000 37.8955 0.0000
# 2 4.6910 57.0300 -1.8907 0.0000 6.0001 0.0000
# 3 45.3350 -1.8907 138.2761 0.0000 43.8941 0.0000
# 4 0.0000 0.0000 0.0000 -7.6899 0.0000 -0.7217
# 5 37.8955 6.0001 43.8941 0.0000 78.2066 0.0000
# 6 0.0000 0.0000 0.0000 -0.7217 0.0000 19.6175
#
#
#
# Elastic Compliance Matrix: (Units=1/GPa)
#
#
# Indices 1 2 3 4 5 6 
#
# 1 0.011998 -0.000617 -0.002569 0.000000 -0.004324 0.000000
# 2 -0.000617 0.017785 0.000954 0.000000 -0.001601 0.000000
# 3 -0.002569 0.000954 0.009388 0.000000 -0.004097 0.000000
# 4 0.000000 0.000000 0.000000 -0.129594 0.000000 -0.004767
# 5 -0.004324 -0.001601 -0.004097 0.000000 0.017304 0.000000
# 6 0.000000 0.000000 0.000000 -0.004767 0.000000 0.050799
#
#
# Mechanical properties :
#
#
# Convention : Reuss Voigt Hill
#
# Bulk Modulus (GPa) = 28.81361 44.28104 36.54733
# Shear Modulus (GPa) = -795.72378 34.96842 -380.37768
#
# Velocity S-wave (km/s) = -18.46377 3.87059 -12.76576
# Velocity P-wave (km/s) = 21.02863 6.24072 14.19959
#
# Compressibility (1/GPa) = 0.03470582
#
# Stress axis : x y z
#
# Youngs Moduli (GPa) = 83.34470 56.22583 106.51925
#
# Poissons Ratio (x) = 0.03470 0.27370
# Poissons Ratio (y) = 0.05144 -0.10158
# Poissons Ratio (z) = 0.21415 -0.05362
#
# Static dielectric constant tensor:
#      x y z
#    x 1.974060 0.000000 0.099770 
#    y 0.000000 1.931160 0.000000 
#    z 0.099770 0.000000 1.933350 
# 
# From -- ./inp_files/7022.got.cif
#   From: 2010.05.17/outbox.cif.g08.bks.cpg/sg13_4_cif.got.tgz:7022.got - 2010.06.03 16:44:36.
