data_PCOD9226837
_publ_section_title
;
Structure prediction by ZEFSAII (Michael W. Deem and Ramdas Pophale) SiO2 
 PCOD9226837
Probable space group: P 2/C
;
_chemical_formula_sum "Si O2"
_cell_formula_units_Z 32
_cell_length_a 19.348698
_cell_length_b 11.351400
_cell_length_c 24.262082
_cell_angle_alpha 90.000000
_cell_angle_beta 19.870125
_cell_angle_gamma 90.000000
_cell_volume 1811.200930
_symmetry_space_group_name_H-M "P 2/C"
_symmetry_group_IT_number 13
_symmetry_cell_setting 'monoclinic'
loop_
_space_group_symop_operation_xyz
x,y,z
-x,y,1/2-z
-x,-y,-z
x,-y,1/2+z
loop_
_atom_site_type_symbol
_atom_site_label
_atom_site_fract_x
_atom_site_fract_y
_atom_site_fract_z
Si Si1 0.067928 0.137618 0.406931
Si Si2 0.358790 0.935789 0.149773
Si Si3 0.485070 0.711683 0.415932
Si Si4 0.831584 0.652850 0.750161
Si Si5 0.847050 0.238145 0.415541
Si Si6 0.107061 0.568636 0.368889
Si Si7 0.968842 0.194777 0.936500
Si Si8 0.741734 0.970913 0.072383
O O1 0.157661 0.246853 0.305051
O O2 0.042738 0.165388 0.489550
O O3 0.857225 0.093037 0.537185
O O4 0.230101 0.034227 0.277319
O O5 0.480657 0.850199 0.098364
O O6 0.189182 0.849917 0.249963
O O7 0.500000 0.000000 0.000000
O O8 0.348017 0.669673 0.570663
O O9 0.358144 0.706396 0.454921
O O10 0.697619 0.642329 0.255740
O O11 0.041632 0.675196 0.625369
O O12 0.820878 0.528746 0.728394
O O13 0.819699 0.110383 0.463694
O O14 0.000000 0.224430 0.250000
O O15 0.967032 0.663756 0.440990
O O16 0.000000 0.500000 0.500000
O O17 0.812095 0.107674 0.023429
O O18 0.500000 0.964254 0.250000
#
# Coordination Sequence:
#
# PCOD9226837 Si02
#       8
#     4   4   4   4   4   4   4   4
#     4  10  19  35  54  81 114 145 182 228 285 337
#     4  10  18  30  55  82 111 138 175 229 283 338
#     4  10  21  35  58  88 110 146 191 229 289 337
#     4  10  19  38  57  82 113 147 188 241 274 325
#     4   9  21  36  57  83 114 145 183 232 288 340
#     4  11  22  37  60  79 111 150 202 237 267 322
#     4  10  22  36  52  80 112 147 183 227 282 331
#     4  10  21  33  54  80 113 146 177 227 287 340
#
# _framework density 17.667835
#
# number of rings (size 3 to 8) (size 9 to 14) (size 15 to 20)
#    0.000    2.000    2.500    1.875    7.000    0.000 
#    0.000    1.250    0.000    2.250    0.000    0.000 
#    0.000    0.000    0.000    0.000    0.000    0.000 
#
# Total GULP energy -178310.877675 kJ/mol
# GULP energy per Si atom -5572.214927 kJ/mol
# Density = 1.762762 g / cm^3
# Si number density = 17.667835 Si / 1000 Ang^3
#
#
#
# Elastic Constant Matrix: (Units=GPa)
#
#
# Indices 1 2 3 4 5 6 
#
# 1 61.5218 28.5388 24.9211 0.0000 0.2765 0.0000
# 2 28.5388 108.5389 24.2313 0.0000 0.5672 0.0000
# 3 24.9211 24.2313 70.5000 0.0000 -4.0560 0.0000
# 4 0.0000 0.0000 0.0000 26.7117 0.0000 3.5268
# 5 0.2765 0.5672 -4.0560 0.0000 19.6687 0.0000
# 6 0.0000 0.0000 0.0000 3.5268 0.0000 25.9455
#
#
#
# Elastic Compliance Matrix: (Units=1/GPa)
#
#
# Indices 1 2 3 4 5 6 
#
# 1 0.020558 -0.004070 -0.005949 0.000000 -0.001398 0.000000
# 2 -0.004070 0.010805 -0.002317 0.000000 -0.000732 0.000000
# 3 -0.005949 -0.002317 0.017297 0.000000 0.003717 0.000000
# 4 0.000000 0.000000 0.000000 0.038121 0.000000 -0.005182
# 5 -0.001398 -0.000732 0.003717 0.000000 0.051649 0.000000
# 6 0.000000 0.000000 0.000000 -0.005182 0.000000 0.039247
#
#
# Mechanical properties :
#
#
# Convention : Reuss Voigt Hill
#
# Bulk Modulus (GPa) = 41.68623 43.99367 42.83995
# Shear Modulus (GPa) = 23.77039 25.32314 24.54677
#
# Velocity S-wave (km/s) = 3.67196 3.78999 3.73144
# Velocity P-wave (km/s) = 6.45161 6.64127 6.54713
#
# Compressibility (1/GPa) = 0.02398874
#
# Stress axis : x y z
#
# Youngs Moduli (GPa) = 48.64174 92.55341 57.81197
#
# Poissons Ratio (x) = 0.37671 0.34391
# Poissons Ratio (y) = 0.19798 0.13395
# Poissons Ratio (z) = 0.28936 0.21444
#
# Static dielectric constant tensor:
#      x y z
#    x 1.614110 0.000000 -0.013770 
#    y 0.000000 1.630480 0.000000 
#    z -0.013770 0.000000 1.631210 
# 
# From -- ./inp_files/88171.got.cif
#   From: 2010.05.17/outbox.cif.g08.bks.cpg/sg13_45_cif.got.tgz:88171.got - 2010.06.03 16:44:36.
