data_PCOD9226494
_publ_section_title
;
Structure prediction by ZEFSAII (Michael W. Deem and Ramdas Pophale) SiO2 
 PCOD9226494
Probable space group: P 2/C
;
_chemical_formula_sum "Si O2"
_cell_formula_units_Z 28
_cell_length_a 16.254491
_cell_length_b 11.178267
_cell_length_c 14.588609
_cell_angle_alpha 90.000000
_cell_angle_beta 149.278102
_cell_angle_gamma 90.000000
_cell_volume 1354.170726
_symmetry_space_group_name_H-M "P 2/C"
_symmetry_group_IT_number 13
_symmetry_cell_setting 'monoclinic'
loop_
_space_group_symop_operation_xyz
x,y,z
-x,y,1/2-z
-x,-y,-z
x,-y,1/2+z
loop_
_atom_site_type_symbol
_atom_site_label
_atom_site_fract_x
_atom_site_fract_y
_atom_site_fract_z
Si Si1 0.370646 0.602434 0.889746
Si Si2 0.892114 0.532139 0.011862
Si Si3 0.829639 0.942565 0.374297
Si Si4 0.965417 0.295745 0.968505
Si Si5 0.316954 0.422480 0.548018
Si Si6 0.709094 0.847088 0.658479
Si Si7 0.810486 0.163934 0.052244
O O1 0.250206 0.577649 0.691425
O O2 0.419476 0.742662 0.943089
O O3 0.500000 0.500000 0.000000
O O4 0.299156 0.581907 0.922437
O O5 0.814730 0.509876 0.035253
O O6 0.941523 0.403896 0.017142
O O7 0.019824 0.636047 0.114138
O O8 0.810241 0.925443 0.465360
O O9 0.831293 0.806321 0.340594
O O10 0.700391 0.033715 0.209614
O O11 0.000000 0.000000 0.500000
O O12 0.125525 0.223694 0.153872
O O13 0.500000 0.454370 0.750000
O O14 0.279649 0.289650 0.551740
O O15 0.732481 0.878484 0.573709
O O16 0.000000 0.190363 0.250000
#
# Coordination Sequence:
#
# PCOD9226494 Si02
#       7
#     4   4   4   4   4   4   4
#     4  10  20  34  56  79 107 147 192 231 287 350
#     4  10  18  33  52  79 113 137 190 232 290 346
#     4  10  17  30  54  82 109 147 181 237 294 328
#     4   9  17  30  52  79 111 145 172 243 289 336
#     4  11  21  34  57  83 109 149 188 241 295 353
#     4   9  19  32  54  83 107 144 188 232 288 344
#     4  11  18  32  56  85 106 142 200 236 276 357
#
# _framework density 20.676862
#
# number of rings (size 3 to 8) (size 9 to 14) (size 15 to 20)
#    0.000    2.000    5.714    0.000    0.000    0.000 
#    0.000    0.000   15.714    7.714    0.000    0.000 
#    0.000    0.000    0.000    0.000    0.000    0.000 
#
# Total GULP energy -155977.162429 kJ/mol
# GULP energy per Si atom -5570.612944 kJ/mol
# Density = 2.062980 g / cm^3
# Si number density = 20.676862 Si / 1000 Ang^3
#
#
#
# Elastic Constant Matrix: (Units=GPa)
#
#
# Indices 1 2 3 4 5 6 
#
# 1 94.0038 63.2395 14.9520 0.0000 -16.9005 0.0000
# 2 63.2395 140.3804 25.5817 0.0000 -10.3208 0.0000
# 3 14.9520 25.5817 29.3851 0.0000 0.1151 0.0000
# 4 0.0000 0.0000 0.0000 28.3810 0.0000 -4.7186
# 5 -16.9005 -10.3208 0.1151 0.0000 20.5716 0.0000
# 6 0.0000 0.0000 0.0000 -4.7186 0.0000 35.6267
#
#
#
# Elastic Compliance Matrix: (Units=1/GPa)
#
#
# Indices 1 2 3 4 5 6 
#
# 1 0.017527 -0.006467 -0.003332 0.000000 0.011174 0.000000
# 2 -0.006467 0.011249 -0.006504 0.000000 0.000367 0.000000
# 3 -0.003332 -0.006504 0.041413 0.000000 -0.006232 0.000000
# 4 0.000000 0.000000 0.000000 0.036028 0.000000 0.004772
# 5 0.011174 0.000367 -0.006232 0.000000 0.058010 0.000000
# 6 0.000000 0.000000 0.000000 0.004772 0.000000 0.028701
#
#
# Mechanical properties :
#
#
# Convention : Reuss Voigt Hill
#
# Bulk Modulus (GPa) = 26.60777 52.36840 39.48808
# Shear Modulus (GPa) = 21.00297 27.58226 24.29262
#
# Velocity S-wave (km/s) = 3.19058 3.65631 3.43136
# Velocity P-wave (km/s) = 5.14484 6.57319 5.90238
#
# Compressibility (1/GPa) = 0.03758300
#
# Stress axis : x y z
#
# Youngs Moduli (GPa) = 57.05347 88.89641 24.14718
#
# Poissons Ratio (x) = 0.57491 0.08046
# Poissons Ratio (y) = 0.36897 0.15705
# Poissons Ratio (z) = 0.19011 0.57816
#
# Static dielectric constant tensor:
#      x y z
#    x 1.820150 0.000000 0.073410 
#    y 0.000000 1.785120 0.000000 
#    z 0.073410 0.000000 1.855330 
# 
# From -- ./inp_files/53535.got.cif
#   From: 2010.05.17/outbox.cif.g08.bks.cpg/sg13_27_cif.got.tgz:53535.got - 2010.06.03 16:44:36.
