data_PCOD9226413
_publ_section_title
;
Structure prediction by ZEFSAII (Michael W. Deem and Ramdas Pophale) SiO2 
 PCOD9226413
Probable space group: P 2/C
;
_chemical_formula_sum "Si O2"
_cell_formula_units_Z 32
_cell_length_a 11.984621
_cell_length_b 7.445227
_cell_length_c 20.282260
_cell_angle_alpha 90.000000
_cell_angle_beta 51.140384
_cell_angle_gamma 90.000000
_cell_volume 1409.226228
_symmetry_space_group_name_H-M "P 2/C"
_symmetry_group_IT_number 13
_symmetry_cell_setting 'monoclinic'
loop_
_space_group_symop_operation_xyz
x,y,z
-x,y,1/2-z
-x,-y,-z
x,-y,1/2+z
loop_
_atom_site_type_symbol
_atom_site_label
_atom_site_fract_x
_atom_site_fract_y
_atom_site_fract_z
Si Si1 0.426669 0.569914 0.874547
Si Si2 0.287588 0.630718 0.794163
Si Si3 0.964522 0.406751 0.408599
Si Si4 0.596605 0.791929 0.447754
Si Si5 0.007030 0.769824 0.035299
Si Si6 0.685848 0.583053 0.947375
Si Si7 0.567455 0.981738 0.585008
Si Si8 0.243080 0.998507 0.875421
O O1 0.311979 0.549864 0.858398
O O2 0.588209 0.532686 0.792074
O O3 0.443313 0.783202 0.881091
O O4 0.373192 0.468591 0.958011
O O5 0.302026 0.846111 0.804037
O O6 0.129088 0.607753 0.825554
O O7 0.960136 0.305417 0.480670
O O8 0.844355 0.345040 0.401920
O O9 0.939191 0.613744 0.437332
O O10 0.438314 0.716597 0.530912
O O11 0.684738 0.607657 0.409918
O O12 0.647877 0.927293 0.486246
O O13 0.564862 0.903345 0.393618
O O14 0.867826 0.866074 0.116784
O O15 0.137617 0.898869 0.967584
O O16 0.640764 0.085253 0.618869
#
# Coordination Sequence:
#
# PCOD9226413 Si02
#       8
#     4   4   4   4   4   4   4   4
#     4   9  17  31  48  68  98 128 151 187 235 287
#     4   9  18  30  46  70  99 128 153 179 232 299
#     4  10  17  28  46  71  98 124 155 191 231 277
#     4   9  18  29  46  71  89 116 163 204 233 263
#     4   9  16  25  42  68  96 121 149 183 228 280
#     4  10  18  30  49  71  95 122 159 201 235 268
#     4   9  16  29  47  66  91 119 155 197 234 267
#     4   9  16  27  44  68  96 122 147 185 230 280
#
# _framework density 22.707495999999999
#
# number of rings (size 3 to 8) (size 9 to 14) (size 15 to 20)
#    0.000    2.750    0.000    4.500    0.000    0.000 
#    0.000    1.250    0.000   11.250    0.000    8.750 
#    0.000    0.000    0.000    0.000    0.000    0.000 
#
# Total GULP energy -178306.315444 kJ/mol
# GULP energy per Si atom -5572.072358 kJ/mol
# Density = 2.265581 g / cm^3
# Si number density = 22.707496 Si / 1000 Ang^3
#
#
#
# Elastic Constant Matrix: (Units=GPa)
#
#
# Indices 1 2 3 4 5 6 
#
# 1 121.3517 -6.2147 15.6060 0.0000 -15.0536 0.0000
# 2 -6.2147 40.2753 -6.7230 0.0000 5.2705 0.0000
# 3 15.6060 -6.7230 28.3718 0.0000 -10.3762 0.0000
# 4 0.0000 0.0000 0.0000 15.1001 0.0000 -1.8750
# 5 -15.0536 5.2705 -10.3762 0.0000 20.8346 0.0000
# 6 0.0000 0.0000 0.0000 -1.8750 0.0000 36.8797
#
#
#
# Elastic Compliance Matrix: (Units=1/GPa)
#
#
# Indices 1 2 3 4 5 6 
#
# 1 0.009292 0.000237 -0.003205 0.000000 0.005058 0.000000
# 2 0.000237 0.026172 0.004539 0.000000 -0.004189 0.000000
# 3 -0.003205 0.004539 0.045018 0.000000 0.018956 0.000000
# 4 0.000000 0.000000 0.000000 0.066645 0.000000 0.003388
# 5 0.005058 -0.004189 0.018956 0.000000 0.062151 0.000000
# 6 0.000000 0.000000 0.000000 0.003388 0.000000 0.027287
#
#
# Mechanical properties :
#
#
# Convention : Reuss Voigt Hill
#
# Bulk Modulus (GPa) = 11.95842 21.70394 16.83118
# Shear Modulus (GPa) = 19.13523 27.05158 23.09340
#
# Velocity S-wave (km/s) = 2.90605 3.45527 3.19250
# Velocity P-wave (km/s) = 4.06668 5.04949 4.58450
#
# Compressibility (1/GPa) = 0.08362311
#
# Stress axis : x y z
#
# Youngs Moduli (GPa) = 107.61646 38.20944 22.21353
#
# Poissons Ratio (x) = -0.00905 0.07120
# Poissons Ratio (y) = -0.02550 -0.10084
# Poissons Ratio (z) = 0.34496 -0.17345
#
# Static dielectric constant tensor:
#      x y z
#    x 1.936530 0.000000 -0.022000 
#    y 0.000000 1.929820 0.000000 
#    z -0.022000 0.000000 1.872200 
# 
# From -- ./inp_files/78030.got.cif
#   From: 2010.05.17/outbox.cif.g08.bks.cpg/sg13_40_cif.got.tgz:78030.got - 2010.06.03 16:44:36.
