data_PCOD9226631
_publ_section_title
;
Structure prediction by ZEFSAII (Michael W. Deem and Ramdas Pophale) SiO2 
 PCOD9226631
Probable space group: P 2/C
;
_chemical_formula_sum "Si O2"
_cell_formula_units_Z 28
_cell_length_a 13.520147
_cell_length_b 10.087449
_cell_length_c 12.616084
_cell_angle_alpha 90.000000
_cell_angle_beta 127.537861
_cell_angle_gamma 90.000000
_cell_volume 1364.374622
_symmetry_space_group_name_H-M "P 2/C"
_symmetry_group_IT_number 13
_symmetry_cell_setting 'monoclinic'
loop_
_space_group_symop_operation_xyz
x,y,z
-x,y,1/2-z
-x,-y,-z
x,-y,1/2+z
loop_
_atom_site_type_symbol
_atom_site_label
_atom_site_fract_x
_atom_site_fract_y
_atom_site_fract_z
Si Si1 0.374830 0.403948 0.234001
Si Si2 0.870093 0.516447 0.542893
Si Si3 0.258140 0.850679 0.184865
Si Si4 0.985634 0.286908 0.942126
Si Si5 0.218003 0.150983 0.199795
Si Si6 0.247446 0.256731 0.435723
Si Si7 0.523110 0.661147 0.138084
O O1 0.500000 0.372809 0.250000
O O2 0.313465 0.269512 0.234648
O O3 0.416285 0.517782 0.344689
O O4 0.264737 0.473480 0.093052
O O5 0.938963 0.612703 0.504054
O O6 0.838090 0.610865 0.620297
O O7 0.950767 0.383509 0.602044
O O8 0.135527 0.797355 0.165005
O O9 0.376385 0.776242 0.311990
O O10 0.265269 0.007863 0.196475
O O11 0.246680 0.805555 0.053562
O O12 0.090289 0.190367 0.058012
O O13 0.201383 0.158237 0.315556
O O14 0.389466 0.300843 0.505954
O O15 0.500000 0.654844 0.250000
#
# Coordination Sequence:
#
# PCOD9226631 Si02
#       7
#     4   4   4   4   4   4   4
#     4  10  17  35  58  85 112 145 191 241 290 339
#     4   9  16  32  60  84 103 148 193 237 282 340
#     4  10  20  38  59  79 118 161 189 233 286 347
#     4   9  18  34  59  81 111 149 195 234 289 336
#     4  11  24  33  57  91 116 150 195 238 286 350
#     4  10  20  37  60  83 117 154 193 236 298 343
#     4   9  16  34  60  78 109 157 185 227 295 344
#
# _framework density 20.522223
#
# number of rings (size 3 to 8) (size 9 to 14) (size 15 to 20)
#    0.000    2.286    5.714    0.429    0.000    5.143 
#    0.000    0.000    3.143    3.429    0.000    0.000 
#    0.000    0.000    0.000    0.000    0.000    0.000 
#
# Total GULP energy -156166.040523 kJ/mol
# GULP energy per Si atom -5577.358590 kJ/mol
# Density = 2.047551 g / cm^3
# Si number density = 20.522223 Si / 1000 Ang^3
#
#
#
# Elastic Constant Matrix: (Units=GPa)
#
#
# Indices 1 2 3 4 5 6 
#
# 1 74.7482 47.3650 32.7642 0.0000 30.4503 0.0000
# 2 47.3650 143.8160 27.3532 0.0000 17.5594 0.0000
# 3 32.7642 27.3532 37.6362 0.0000 7.0156 0.0000
# 4 0.0000 0.0000 0.0000 -1.1124 0.0000 -13.0343
# 5 30.4503 17.5594 7.0156 0.0000 26.0309 0.0000
# 6 0.0000 0.0000 0.0000 -13.0343 0.0000 22.5170
#
#
#
# Elastic Compliance Matrix: (Units=1/GPa)
#
#
# Indices 1 2 3 4 5 6 
#
# 1 0.047226 -0.004529 -0.029578 0.000000 -0.044216 0.000000
# 2 -0.004529 0.008934 -0.002542 0.000000 -0.000043 0.000000
# 3 -0.029578 -0.002542 0.049905 0.000000 0.022865 0.000000
# 4 0.000000 0.000000 0.000000 -0.115506 0.000000 -0.066863
# 5 -0.044216 -0.000043 0.022865 0.000000 0.084006 0.000000
# 6 0.000000 0.000000 0.000000 -0.066863 0.000000 0.005706
#
#
# Mechanical properties :
#
#
# Convention : Reuss Voigt Hill
#
# Bulk Modulus (GPa) = 30.52005 52.35168 41.43586
# Shear Modulus (GPa) = 30.39699 19.40164 24.89931
#
# Velocity S-wave (km/s) = 3.85278 3.07807 3.48700
# Velocity P-wave (km/s) = 5.89032 6.18044 6.03712
#
# Compressibility (1/GPa) = 0.03276535
#
# Stress axis : x y z
#
# Youngs Moduli (GPa) = 21.17498 111.93544 20.03818
#
# Poissons Ratio (x) = 0.50698 0.59269
# Poissons Ratio (y) = 0.09591 0.05094
# Poissons Ratio (z) = 0.62632 0.28453
#
# Static dielectric constant tensor:
#      x y z
#    x 1.756340 0.000000 -0.002980 
#    y 0.000000 1.723900 0.000000 
#    z -0.002980 0.000000 1.730790 
# 
# From -- ./inp_files/53106.got.cif
#   From: 2010.05.17/outbox.cif.g08.bks.cpg/sg13_27_cif.got.tgz:53106.got - 2010.06.03 16:44:36.
