data_PCOD9226735
_publ_section_title
;
Structure prediction by ZEFSAII (Michael W. Deem and Ramdas Pophale) SiO2 
 PCOD9226735
Probable space group: P 2/C
;
_chemical_formula_sum "Si O2"
_cell_formula_units_Z 30
_cell_length_a 26.026765
_cell_length_b 11.929939
_cell_length_c 5.622387
_cell_angle_alpha 90.000000
_cell_angle_beta 57.224993
_cell_angle_gamma 90.000000
_cell_volume 1467.821721
_symmetry_space_group_name_H-M "P 2/C"
_symmetry_group_IT_number 13
_symmetry_cell_setting 'monoclinic'
loop_
_space_group_symop_operation_xyz
x,y,z
-x,y,1/2-z
-x,-y,-z
x,-y,1/2+z
loop_
_atom_site_type_symbol
_atom_site_label
_atom_site_fract_x
_atom_site_fract_y
_atom_site_fract_z
Si Si1 0.787435 0.490473 0.287510
Si Si2 0.304260 0.226133 0.493476
Si Si3 0.751368 0.990674 0.864428
Si Si4 0.877731 0.285326 0.059285
Si Si5 0.159912 0.726246 0.346668
Si Si6 0.523783 0.871723 0.440396
Si Si7 0.000000 0.431500 0.750000
Si Si8 0.341158 0.208596 0.901276
O O1 0.753397 0.500287 0.622748
O O2 0.820499 0.371552 0.204629
O O3 0.839989 0.588389 0.155447
O O4 0.232391 0.252857 0.669198
O O5 0.334627 0.267427 0.661712
O O6 0.301020 0.088575 0.503810
O O7 0.335815 0.266678 0.171819
O O8 0.785329 0.000235 0.529374
O O9 0.717861 0.872201 0.948663
O O10 0.870506 0.229191 0.335614
O O11 0.869381 0.228648 0.823077
O O12 0.939902 0.354684 0.900844
O O13 0.500000 0.821595 0.250000
O O14 0.596666 0.862007 0.257445
O O15 0.500000 0.000000 0.500000
O O16 0.500000 0.821597 0.750000
O O17 0.000000 0.500000 0.500000
#
# Coordination Sequence:
#
# PCOD9226735 Si02
#       8
#     4   4   4   4   4   4   2   4
#     4   8  14  25  39  55  78 109 138 173 200 239
#     4  10  19  28  45  58  81 119 149 189 228 263
#     4   8  16  25  41  53  77 106 137 181 216 255
#     4  10  19  30  45  63  93 119 152 186 210 261
#     4  10  18  30  42  62  85 116 157 182 223 265
#     4  10  21  27  43  62  84 114 153 192 213 252
#     4  12  20  30  48  72  94 126 164 188 220 250
#     4  10  19  31  42  61  87 113 153 192 221 262
#
# _framework density 20.438448999999999
#
# number of rings (size 3 to 8) (size 9 to 14) (size 15 to 20)
#    0.000    2.400    0.000    4.800   11.200    0.000 
#    0.000    0.000    0.000    0.000    0.000    0.000 
#    0.000    0.000    0.000  108.000    0.000  423.600 
#
# Total GULP energy -167029.202003 kJ/mol
# GULP energy per Si atom -5567.640067 kJ/mol
# Density = 2.039193 g / cm^3
# Si number density = 20.438449 Si / 1000 Ang^3
#
#
#
# Elastic Constant Matrix: (Units=GPa)
#
#
# Indices 1 2 3 4 5 6 
#
# 1 109.6328 8.7323 110.2514 0.0000 33.5727 0.0000
# 2 8.7323 16.9178 0.4769 0.0000 -1.9058 0.0000
# 3 110.2514 0.4769 148.6510 0.0000 69.3958 0.0000
# 4 0.0000 0.0000 0.0000 12.2137 0.0000 -12.5610
# 5 33.5727 -1.9058 69.3958 0.0000 65.4847 0.0000
# 6 0.0000 0.0000 0.0000 -12.5610 0.0000 21.7705
#
#
#
# Elastic Compliance Matrix: (Units=1/GPa)
#
#
# Indices 1 2 3 4 5 6 
#
# 1 0.066363 -0.028584 -0.065027 0.000000 0.034055 0.000000
# 2 -0.028584 0.071909 0.026028 0.000000 -0.010835 0.000000
# 3 -0.065027 0.026028 0.077097 0.000000 -0.047606 0.000000
# 4 0.000000 0.000000 0.000000 0.201354 0.000000 0.116176
# 5 0.034055 -0.010835 -0.047606 0.000000 0.047945 0.000000
# 6 0.000000 0.000000 0.000000 0.116176 0.000000 0.112964
#
#
# Mechanical properties :
#
#
# Convention : Reuss Voigt Hill
#
# Bulk Modulus (GPa) = 12.46843 57.12475 34.79659
# Shear Modulus (GPa) = 6.76103 30.27650 18.51877
#
# Velocity S-wave (km/s) = 1.82076 3.85301 3.01337
# Velocity P-wave (km/s) = 3.24561 6.91408 5.40086
#
# Compressibility (1/GPa) = 0.08020255
#
# Stress axis : x y z
#
# Youngs Moduli (GPa) = 15.06867 13.90645 12.97071
#
# Poissons Ratio (x) = 0.39751 0.84344
# Poissons Ratio (y) = 0.43073 -0.33760
# Poissons Ratio (z) = 0.97986 -0.36196
#
# Static dielectric constant tensor:
#      x y z
#    x 1.767410 0.000000 0.130930 
#    y 0.000000 1.800740 0.000000 
#    z 0.130930 0.000000 1.847860 
# 
# From -- ./inp_files/6379.got.cif
#   From: 2010.05.17/outbox.cif.g08.bks.cpg/sg13_4_cif.got.tgz:6379.got - 2010.06.03 16:44:36.
