data_PCOD9226395
_publ_section_title
;
Structure prediction by ZEFSAII (Michael W. Deem and Ramdas Pophale) SiO2 
 PCOD9226395
Probable space group: P 2/C
;
_chemical_formula_sum "Si O2"
_cell_formula_units_Z 20
_cell_length_a 18.575907
_cell_length_b 9.241242
_cell_length_c 8.549293
_cell_angle_alpha 90.000000
_cell_angle_beta 132.981695
_cell_angle_gamma 90.000000
_cell_volume 1073.661502
_symmetry_space_group_name_H-M "P 2/C"
_symmetry_group_IT_number 13
_symmetry_cell_setting 'monoclinic'
loop_
_space_group_symop_operation_xyz
x,y,z
-x,y,1/2-z
-x,-y,-z
x,-y,1/2+z
loop_
_atom_site_type_symbol
_atom_site_label
_atom_site_fract_x
_atom_site_fract_y
_atom_site_fract_z
Si Si1 0.496053 0.838104 0.932606
Si Si2 0.304361 0.657778 0.635447
Si Si3 0.691713 0.669818 0.234738
Si Si4 0.899885 0.645275 0.025557
Si Si5 0.897971 0.316913 0.151667
O O1 0.500000 0.839722 0.750000
O O2 0.396209 0.753389 0.827823
O O3 0.593097 0.754238 0.132434
O O4 0.500000 0.000000 0.000000
O O5 0.300760 0.660263 0.442028
O O6 0.316501 0.491983 0.708613
O O7 0.199868 0.708783 0.549818
O O8 0.791696 0.743973 0.446204
O O9 0.898042 0.474291 0.066526
O O10 0.000000 0.704394 0.250000
O O11 0.900988 0.660539 0.841513
O O12 0.000000 0.243084 0.250000
#
# Coordination Sequence:
#
# PCOD9226395 Si02
#       5
#     4   4   4   4   4
#     4  10  23  38  54  74 102 136 173 212 256 304
#     4  10  19  33  52  78 105 134 170 211 252 300
#     4  10  19  33  52  78 105 134 170 211 252 300
#     4  10  17  27  45  72 103 135 165 204 251 299
#     4  10  17  27  45  72 103 135 165 204 251 299
#
# _framework density 18.627844
#
# number of rings (size 3 to 8) (size 9 to 14) (size 15 to 20)
#    0.000    2.000    0.000    9.000    0.000    3.200 
#    0.000    0.000    0.000    1.200    0.000    8.400 
#    0.000    0.000    0.000    0.000    0.000    0.000 
#
# Total GULP energy -111585.413259 kJ/mol
# GULP energy per Si atom -5579.270663 kJ/mol
# Density = 1.858545 g / cm^3
# Si number density = 18.627844 Si / 1000 Ang^3
#
#
#
# Elastic Constant Matrix: (Units=GPa)
#
#
# Indices 1 2 3 4 5 6 
#
# 1 95.8667 27.4580 58.1437 0.0000 34.3650 0.0000
# 2 27.4580 45.8128 34.4347 0.0000 23.0062 0.0000
# 3 58.1437 34.4347 144.8577 0.0000 34.3212 0.0000
# 4 0.0000 0.0000 0.0000 7.3937 0.0000 -11.7711
# 5 34.3650 23.0062 34.3212 0.0000 55.0541 0.0000
# 6 0.0000 0.0000 0.0000 -11.7711 0.0000 6.9319
#
#
#
# Elastic Compliance Matrix: (Units=1/GPa)
#
#
# Indices 1 2 3 4 5 6 
#
# 1 0.016141 -0.003491 -0.004233 0.000000 -0.005978 0.000000
# 2 -0.003491 0.031123 -0.004027 0.000000 -0.008317 0.000000
# 3 -0.004233 -0.004027 0.010014 0.000000 -0.001918 0.000000
# 4 0.000000 0.000000 0.000000 -0.079397 0.000000 -0.134825
# 5 -0.005978 -0.008317 -0.001918 0.000000 0.026566 0.000000
# 6 0.000000 0.000000 0.000000 -0.134825 0.000000 -0.084687
#
#
# Mechanical properties :
#
#
# Convention : Reuss Voigt Hill
#
# Bulk Modulus (GPa) = 29.60531 58.51223 44.05877
# Shear Modulus (GPa) = -109.93800 24.97601 -42.48100
#
# Velocity S-wave (km/s) = -7.69066 3.66565 -4.78065
# Velocity P-wave (km/s) = 7.93310 7.02818 2.60180
#
# Compressibility (1/GPa) = 0.03377773
#
# Stress axis : x y z
#
# Youngs Moduli (GPa) = 61.95432 32.13025 99.86134
#
# Poissons Ratio (x) = 0.11216 0.42267
# Poissons Ratio (y) = 0.21627 0.40213
# Poissons Ratio (z) = 0.26223 0.12938
#
# Static dielectric constant tensor:
#      x y z
#    x 1.683610 0.000000 0.046930 
#    y 0.000000 1.599900 0.000000 
#    z 0.046930 0.000000 1.676460 
# 
# From -- ./inp_files/21296.got.cif
#   From: 2010.05.17/outbox.cif.g08.bks.cpg/sg13_11_cif.got.tgz:21296.got - 2010.06.03 16:44:36.
