data_PCOD9226353
_publ_section_title
;
Structure prediction by ZEFSAII (Michael W. Deem and Ramdas Pophale) SiO2 
 PCOD9226353
Probable space group: P 2/C
;
_chemical_formula_sum "Si O2"
_cell_formula_units_Z 20
_cell_length_a 12.298966
_cell_length_b 10.653016
_cell_length_c 10.672561
_cell_angle_alpha 90.000000
_cell_angle_beta 43.898411
_cell_angle_gamma 90.000000
_cell_volume 969.576972
_symmetry_space_group_name_H-M "P 2/C"
_symmetry_group_IT_number 13
_symmetry_cell_setting 'monoclinic'
loop_
_space_group_symop_operation_xyz
x,y,z
-x,y,1/2-z
-x,-y,-z
x,-y,1/2+z
loop_
_atom_site_type_symbol
_atom_site_label
_atom_site_fract_x
_atom_site_fract_y
_atom_site_fract_z
Si Si1 0.500000 0.292304 0.250000
Si Si2 0.336470 0.950350 0.577321
Si Si3 0.450741 0.326079 0.931816
Si Si4 0.238007 0.888019 0.913636
Si Si5 0.712269 0.424525 0.883861
Si Si6 0.000000 0.706616 0.250000
O O1 0.608874 0.199497 0.239093
O O2 0.376109 0.380396 0.418141
O O3 0.370837 0.808997 0.503975
O O4 0.217441 0.954385 0.795748
O O5 0.500000 0.000000 0.500000
O O6 0.281561 0.027130 0.499348
O O7 0.500000 0.354648 0.750000
O O8 0.617186 0.340731 0.863862
O O9 0.334306 0.430077 0.089908
O O10 0.100761 0.797156 0.075733
O O11 0.888929 0.381944 0.757526
#
# Coordination Sequence:
#
# PCOD9226353 Si02
#       6
#     2   4   4   4   4   2
#     4  10  16  38  62  86 118 166 216 252 310 380
#     4  12  21  38  64  96 127 164 221 271 312 378
#     4  11  22  38  68 100 124 164 223 279 308 377
#     4  11  22  38  64  92 126 175 213 263 325 387
#     4  10  21  40  66  93 126 167 215 263 325 385
#     4  10  24  42  64  92 136 176 206 260 346 396
#
# _framework density 20.627552999999999
#
# number of rings (size 3 to 8) (size 9 to 14) (size 15 to 20)
#    0.000    1.200    5.000    2.400    0.000    0.800 
#    0.000    5.000    0.000    0.000    0.000    0.000 
#    0.000    0.000    0.000    0.000    0.000    0.000 
#
# Total GULP energy -111478.378226 kJ/mol
# GULP energy per Si atom -5573.918911 kJ/mol
# Density = 2.058060 g / cm^3
# Si number density = 20.627553 Si / 1000 Ang^3
#
#
#
# Elastic Constant Matrix: (Units=GPa)
#
#
# Indices 1 2 3 4 5 6 
#
# 1 100.3683 43.2752 25.9714 0.0000 -7.5168 0.0000
# 2 43.2752 99.6353 16.3595 0.0000 -10.7178 0.0000
# 3 25.9714 16.3595 65.4631 0.0000 -3.3338 0.0000
# 4 0.0000 0.0000 0.0000 23.3305 0.0000 1.5853
# 5 -7.5168 -10.7178 -3.3338 0.0000 36.1403 0.0000
# 6 0.0000 0.0000 0.0000 1.5853 0.0000 25.9489
#
#
#
# Elastic Compliance Matrix: (Units=1/GPa)
#
#
# Indices 1 2 3 4 5 6 
#
# 1 0.013203 -0.004990 -0.003945 0.000000 0.000902 0.000000
# 2 -0.004990 0.012658 -0.001050 0.000000 0.002619 0.000000
# 3 -0.003945 -0.001050 0.017126 0.000000 0.000448 0.000000
# 4 0.000000 0.000000 0.000000 0.043041 0.000000 -0.002630
# 5 0.000902 0.002619 0.000448 0.000000 0.028676 0.000000
# 6 0.000000 0.000000 0.000000 -0.002630 0.000000 0.038698
#
#
# Mechanical properties :
#
#
# Convention : Reuss Voigt Hill
#
# Bulk Modulus (GPa) = 43.44635 48.51986 45.98311
# Shear Modulus (GPa) = 27.61744 29.07464 28.34604
#
# Velocity S-wave (km/s) = 3.66302 3.75841 3.71102
# Velocity P-wave (km/s) = 6.24486 6.51208 6.37987
#
# Compressibility (1/GPa) = 0.02301689
#
# Stress axis : x y z
#
# Youngs Moduli (GPa) = 75.73942 79.00118 58.38988
#
# Poissons Ratio (x) = 0.39420 0.23036
# Poissons Ratio (y) = 0.37792 0.06133
# Poissons Ratio (z) = 0.29881 0.08298
#
# Static dielectric constant tensor:
#      x y z
#    x 1.806590 0.000000 0.081100 
#    y 0.000000 1.783740 0.000000 
#    z 0.081100 0.000000 1.834880 
# 
# From -- ./inp_files/32468.got.cif
#   From: 2010.05.17/outbox.cif.g08.bks.cpg/sg13_17_cif.got.tgz:32468.got - 2010.06.03 16:44:36.
