data_PCOD9226741
_publ_section_title
;
Structure prediction by ZEFSAII (Michael W. Deem and Ramdas Pophale) SiO2 
 PCOD9226741
Probable space group: P 2/C
;
_chemical_formula_sum "Si O2"
_cell_formula_units_Z 24
_cell_length_a 30.718870
_cell_length_b 6.326834
_cell_length_c 5.144026
_cell_angle_alpha 90.000000
_cell_angle_beta 81.103663
_cell_angle_gamma 90.000000
_cell_volume 987.730536
_symmetry_space_group_name_H-M "P 2/C"
_symmetry_group_IT_number 13
_symmetry_cell_setting 'monoclinic'
loop_
_space_group_symop_operation_xyz
x,y,z
-x,y,1/2-z
-x,-y,-z
x,-y,1/2+z
loop_
_atom_site_type_symbol
_atom_site_label
_atom_site_fract_x
_atom_site_fract_y
_atom_site_fract_z
Si Si1 0.500000 0.151174 0.250000
Si Si2 0.718833 0.651138 0.010749
Si Si3 0.629104 0.800654 0.255877
Si Si4 0.000000 0.346898 0.250000
Si Si5 0.814285 0.353393 0.374368
Si Si6 0.906453 0.648449 0.906073
Si Si7 0.593590 0.731356 0.792512
O O1 0.455317 0.284257 0.271964
O O2 0.500000 0.000000 0.500000
O O3 0.716409 0.485193 0.250545
O O4 0.677404 0.805568 0.086712
O O5 0.767297 0.756906 0.964638
O O6 0.630730 0.696517 0.538566
O O7 0.604806 0.018840 0.334398
O O8 0.598385 0.665989 0.089095
O O9 0.047314 0.232513 0.188062
O O10 0.000000 0.500000 0.500000
O O11 0.814734 0.453482 0.085332
O O12 0.860211 0.236028 0.391758
O O13 0.906287 0.455619 0.693295
#
# Coordination Sequence:
#
# PCOD9226741 Si02
#       7
#     2   4   4   2   4   4   4
#     4  12  16  30  48  74  92  98 126 160 206 246
#     4  10  19  30  43  60  81 113 144 167 191 227
#     4  10  18  30  44  65  90 105 132 165 199 237
#     4   8  12  16  24  38  56  78 108 144 192 228
#     4   8  14  23  34  47  66  92 129 162 185 213
#     4   8  12  18  27  40  58  82 112 153 188 220
#     4  10  19  30  48  72  85 103 124 162 209 239
#
# _framework density 24.298124999999999
#
# number of rings (size 3 to 8) (size 9 to 14) (size 15 to 20)
#    0.000    2.667    3.333    1.000    0.000    0.000 
#    0.000    0.000    0.000    0.000    0.000   19.833 
#    0.000    0.000    0.000    0.000    0.000    6.667 
#
# Total GULP energy -133680.656048 kJ/mol
# GULP energy per Si atom -5570.027335 kJ/mol
# Density = 2.424282 g / cm^3
# Si number density = 24.298125 Si / 1000 Ang^3
#
#
#
# Elastic Constant Matrix: (Units=GPa)
#
#
# Indices 1 2 3 4 5 6 
#
# 1 192.8840 -11.8255 3.1871 0.0000 -47.3234 0.0000
# 2 -11.8255 22.8799 -29.5394 0.0000 -8.6572 0.0000
# 3 3.1871 -29.5394 152.1965 0.0000 18.9878 0.0000
# 4 0.0000 0.0000 0.0000 -223.2159 0.0000 -54.1200
# 5 -47.3234 -8.6572 18.9878 0.0000 52.4189 0.0000
# 6 0.0000 0.0000 0.0000 -54.1200 0.0000 -11.9688
#
#
#
# Elastic Compliance Matrix: (Units=1/GPa)
#
#
# Indices 1 2 3 4 5 6 
#
# 1 0.007573 0.007252 0.000258 0.000000 0.007941 0.000000
# 2 0.007252 0.066995 0.011158 0.000000 0.013570 0.000000
# 3 0.000258 0.011158 0.008873 0.000000 -0.001138 0.000000
# 4 0.000000 0.000000 0.000000 0.046505 0.000000 -0.210287
# 5 0.007941 0.013570 -0.001138 0.000000 0.028900 0.000000
# 6 0.000000 0.000000 0.000000 -0.210287 0.000000 0.867320
#
#
# Mechanical properties :
#
#
# Convention : Reuss Voigt Hill
#
# Bulk Modulus (GPa) = 8.27960 32.40052 20.34006
# Shear Modulus (GPa) = 4.85867 -9.47726 -2.30929
#
# Velocity S-wave (km/s) = 1.41561 -1.97709 -0.97594
# Velocity P-wave (km/s) = 2.46715 2.85512 2.66819
#
# Compressibility (1/GPa) = 0.12077880
#
# Stress axis : x y z
#
# Youngs Moduli (GPa) = 132.04473 14.92641 112.70578
#
# Poissons Ratio (x) = -0.10825 -0.02911
# Poissons Ratio (y) = -0.95765 -1.25758
# Poissons Ratio (z) = -0.03411 -0.16655
#
# Static dielectric constant tensor:
#      x y z
#    x 2.056870 0.000000 0.027320 
#    y 0.000000 1.546180 0.000000 
#    z 0.027320 0.000000 2.004470 
# 
# From -- ./inp_files/7974.got.cif
#   From: 2010.05.17/outbox.cif.g08.bks.cpg/sg13_4_cif.got.tgz:7974.got - 2010.06.03 16:44:36.
