data_PCOD9226326
_publ_section_title
;
Structure prediction by ZEFSAII (Michael W. Deem and Ramdas Pophale) SiO2 
 PCOD9226326
Probable space group: P 2/C
;
_chemical_formula_sum "Si O2"
_cell_formula_units_Z 26
_cell_length_a 13.747694
_cell_length_b 8.292028
_cell_length_c 10.968963
_cell_angle_alpha 90.000000
_cell_angle_beta 126.086345
_cell_angle_gamma 90.000000
_cell_volume 1010.502910
_symmetry_space_group_name_H-M "P 2/C"
_symmetry_group_IT_number 13
_symmetry_cell_setting 'monoclinic'
loop_
_space_group_symop_operation_xyz
x,y,z
-x,y,1/2-z
-x,-y,-z
x,-y,1/2+z
loop_
_atom_site_type_symbol
_atom_site_label
_atom_site_fract_x
_atom_site_fract_y
_atom_site_fract_z
Si Si1 0.156476 0.636745 0.229642
Si Si2 0.258241 0.801496 0.649581
Si Si3 0.327316 0.199042 0.468783
Si Si4 0.441891 0.322654 0.955371
Si Si5 0.500000 0.847822 0.750000
Si Si6 0.877397 0.047726 0.641726
Si Si7 0.813139 0.536436 0.507606
O O1 0.301412 0.660522 0.324643
O O2 0.110113 0.803497 0.254753
O O3 0.116293 0.591039 0.062683
O O4 0.130313 0.507006 0.318149
O O5 0.277475 0.746591 0.800334
O O6 0.374206 0.915080 0.706931
O O7 0.143145 0.894325 0.512660
O O8 0.250805 0.631889 0.573645
O O9 0.471733 0.208387 0.564359
O O10 0.282323 0.324063 0.535069
O O11 0.247833 0.038680 0.420717
O O12 0.457949 0.252899 0.102245
O O13 0.500000 0.500000 0.000000
O O14 0.000000 0.948118 0.750000
#
# Coordination Sequence:
#
# PCOD9226326 Si02
#       7
#     4   4   4   4   2   4   4
#     4  11  23  42  71 104 144 183 234 287 353 417
#     4  10  21  42  68  98 136 178 231 288 351 412
#     4  11  24  40  68 103 135 183 227 282 358 420
#     4  11  19  34  66 100 137 171 221 285 353 415
#     4  10  16  34  60  92 136 170 206 280 348 402
#     4  11  27  49  67  93 140 193 240 290 346 413
#     4  11  20  42  69 105 140 177 231 283 349 423
#
# _framework density 25.729762999999998
#
# number of rings (size 3 to 8) (size 9 to 14) (size 15 to 20)
#    0.000    1.231    6.154    0.923    2.154    1.846 
#    0.000    6.154    0.000    0.000    0.000    0.000 
#    0.000    0.000    0.000    0.000    0.000    0.000 
#
# Total GULP energy -145040.042653 kJ/mol
# GULP energy per Si atom -5578.463179 kJ/mol
# Density = 2.567120 g / cm^3
# Si number density = 25.729763 Si / 1000 Ang^3
#
#
#
# Elastic Constant Matrix: (Units=GPa)
#
#
# Indices 1 2 3 4 5 6 
#
# 1 103.3920 21.8505 53.8935 0.0000 8.8753 0.0000
# 2 21.8505 40.1209 5.1566 0.0000 9.1913 0.0000
# 3 53.8935 5.1566 106.4607 0.0000 -16.1773 0.0000
# 4 0.0000 0.0000 0.0000 -8.8717 0.0000 -4.7204
# 5 8.8753 9.1913 -16.1773 0.0000 54.0316 0.0000
# 6 0.0000 0.0000 0.0000 -4.7204 0.0000 9.3738
#
#
#
# Elastic Compliance Matrix: (Units=1/GPa)
#
#
# Indices 1 2 3 4 5 6 
#
# 1 0.015682 -0.006588 -0.008215 0.000000 -0.003915 0.000000
# 2 -0.006588 0.029124 0.001400 0.000000 -0.003453 0.000000
# 3 -0.008215 0.001400 0.014303 0.000000 0.005394 0.000000
# 4 0.000000 0.000000 0.000000 -0.088899 0.000000 -0.044767
# 5 -0.003915 -0.003453 0.005394 0.000000 0.021353 0.000000
# 6 0.000000 0.000000 0.000000 -0.044767 0.000000 0.084137
#
#
# Mechanical properties :
#
#
# Convention : Reuss Voigt Hill
#
# Bulk Modulus (GPa) = 30.95637 45.75274 38.35455
# Shear Modulus (GPa) = 44.14071 22.17827 33.15949
#
# Velocity S-wave (km/s) = 4.14641 2.93912 3.59382
# Velocity P-wave (km/s) = 5.91448 5.41650 5.67096
#
# Compressibility (1/GPa) = 0.03230353
#
# Stress axis : x y z
#
# Youngs Moduli (GPa) = 63.76686 34.33615 69.91360
#
# Poissons Ratio (x) = 0.22621 0.57431
# Poissons Ratio (y) = 0.42011 -0.09786
# Poissons Ratio (z) = 0.52381 -0.04806
#
# Static dielectric constant tensor:
#      x y z
#    x 2.234070 0.000000 -0.052760 
#    y 0.000000 2.128490 0.000000 
#    z -0.052760 0.000000 2.003530 
# 
# From -- ./inp_files/36275.got.cif
#   From: 2010.05.17/outbox.cif.g08.bks.cpg/sg13_19_cif.got.tgz:36275.got - 2010.06.03 16:44:36.
