data_PCOD9226542
_publ_section_title
;
Structure prediction by ZEFSAII (Michael W. Deem and Ramdas Pophale) SiO2 
 PCOD9226542
Probable space group: P 2/C
;
_chemical_formula_sum "Si O2"
_cell_formula_units_Z 32
_cell_length_a 10.149800
_cell_length_b 13.062908
_cell_length_c 14.325893
_cell_angle_alpha 90.000000
_cell_angle_beta 136.326536
_cell_angle_gamma 90.000000
_cell_volume 1311.633844
_symmetry_space_group_name_H-M "P 2/C"
_symmetry_group_IT_number 13
_symmetry_cell_setting 'monoclinic'
loop_
_space_group_symop_operation_xyz
x,y,z
-x,y,1/2-z
-x,-y,-z
x,-y,1/2+z
loop_
_atom_site_type_symbol
_atom_site_label
_atom_site_fract_x
_atom_site_fract_y
_atom_site_fract_z
Si Si1 0.018224 0.864156 0.107536
Si Si2 0.618015 0.606682 0.451127
Si Si3 0.462270 0.044440 0.342634
Si Si4 0.631458 0.246160 0.410984
Si Si5 0.004358 0.678414 0.643403
Si Si6 0.388439 0.425958 0.340501
Si Si7 0.988547 0.918223 0.882962
Si Si8 0.448644 0.821091 0.335646
O O1 0.222381 0.822135 0.243015
O O2 0.854209 0.779132 0.013841
O O3 0.061984 0.904178 0.025788
O O4 0.940191 0.969770 0.115300
O O5 0.452817 0.532673 0.328194
O O6 0.655026 0.560030 0.572547
O O7 0.542744 0.721451 0.426367
O O8 0.820118 0.623744 0.503823
O O9 0.500000 0.040108 0.250000
O O10 0.560539 0.146048 0.430517
O O11 0.238000 0.063015 0.238687
O O12 0.522382 0.932197 0.407259
O O13 0.500000 0.244861 0.250000
O O14 0.571605 0.351744 0.425835
O O15 0.204247 0.635141 0.706618
O O16 0.981947 0.801853 0.634986
O O17 0.000000 0.651236 0.750000
O O18 0.500000 0.814298 0.250000
#
# Coordination Sequence:
#
# PCOD9226542 Si02
#       8
#     4   4   4   4   4   4   4   4
#     4  10  20  30  54  84 114 151 180 219 277 328
#     4  10  23  40  58  81 107 148 190 228 282 328
#     4   9  16  30  53  82 113 146 175 217 273 327
#     4  11  19  34  57  87 111 144 189 225 273 330
#     4  10  20  36  58  80 103 141 187 229 273 327
#     4  10  22  41  60  78 109 147 187 233 278 330
#     4  10  17  32  52  81 116 145 179 221 267 332
#     4  10  21  35  54  83 118 145 185 227 275 322
#
# _framework density 24.397053
#
# number of rings (size 3 to 8) (size 9 to 14) (size 15 to 20)
#    0.000    2.000    3.750    0.750    3.500    1.500 
#    0.000    5.000    0.000    4.500    0.000    0.000 
#    0.000    0.000    0.000    0.000    0.000    0.000 
#
# Total GULP energy -178398.022201 kJ/mol
# GULP energy per Si atom -5574.938194 kJ/mol
# Density = 2.434152 g / cm^3
# Si number density = 24.397053 Si / 1000 Ang^3
#
#
#
# Elastic Constant Matrix: (Units=GPa)
#
#
# Indices 1 2 3 4 5 6 
#
# 1 44.5924 31.0080 25.8291 0.0000 16.8805 0.0000
# 2 31.0080 143.2490 30.1625 0.0000 30.3970 0.0000
# 3 25.8291 30.1625 67.6759 0.0000 33.9945 0.0000
# 4 0.0000 0.0000 0.0000 16.7298 0.0000 -6.5074
# 5 16.8805 30.3970 33.9945 0.0000 49.1592 0.0000
# 6 0.0000 0.0000 0.0000 -6.5074 0.0000 20.1954
#
#
#
# Elastic Compliance Matrix: (Units=1/GPa)
#
#
# Indices 1 2 3 4 5 6 
#
# 1 0.031526 -0.004537 -0.009165 0.000000 -0.001682 0.000000
# 2 -0.004537 0.008812 -0.000370 0.000000 -0.003635 0.000000
# 3 -0.009165 -0.000370 0.025655 0.000000 -0.014365 0.000000
# 4 0.000000 0.000000 0.000000 0.068339 0.000000 0.022020
# 5 -0.001682 -0.003635 -0.014365 0.000000 0.033101 0.000000
# 6 0.000000 0.000000 0.000000 0.022020 0.000000 0.056612
#
#
# Mechanical properties :
#
#
# Convention : Reuss Voigt Hill
#
# Bulk Modulus (GPa) = 26.42106 47.72405 37.07256
# Shear Modulus (GPa) = 18.88183 28.45140 23.66661
#
# Velocity S-wave (km/s) = 2.78499 3.41865 3.11796
# Velocity P-wave (km/s) = 4.60377 5.93184 5.30949
#
# Compressibility (1/GPa) = 0.03784859
#
# Stress axis : x y z
#
# Youngs Moduli (GPa) = 31.72000 113.47815 38.97919
#
# Poissons Ratio (x) = 0.51490 0.35724
# Poissons Ratio (y) = 0.14393 0.01441
# Poissons Ratio (z) = 0.29071 0.04196
#
# Static dielectric constant tensor:
#      x y z
#    x 2.096680 0.000000 0.004910 
#    y 0.000000 1.968330 0.000000 
#    z 0.004910 0.000000 2.047650 
# 
# From -- ./inp_files/78500.got.cif
#   From: 2010.05.17/outbox.cif.g08.bks.cpg/sg13_40_cif.got.tgz:78500.got - 2010.06.03 16:44:36.
