data_PCOD9226777
_publ_section_title
;
Structure prediction by ZEFSAII (Michael W. Deem and Ramdas Pophale) SiO2 
 PCOD9226777
Probable space group: P 2/C
;
_chemical_formula_sum "Si O2"
_cell_formula_units_Z 32
_cell_length_a 11.941256
_cell_length_b 8.537644
_cell_length_c 21.958316
_cell_angle_alpha 90.000000
_cell_angle_beta 146.206309
_cell_angle_gamma 90.000000
_cell_volume 1245.148860
_symmetry_space_group_name_H-M "P 2/C"
_symmetry_group_IT_number 13
_symmetry_cell_setting 'monoclinic'
loop_
_space_group_symop_operation_xyz
x,y,z
-x,y,1/2-z
-x,-y,-z
x,-y,1/2+z
loop_
_atom_site_type_symbol
_atom_site_label
_atom_site_fract_x
_atom_site_fract_y
_atom_site_fract_z
Si Si1 0.150122 0.735746 0.191989
Si Si2 0.266000 0.403781 0.623716
Si Si3 0.393052 0.110131 0.064463
Si Si4 0.864053 0.914858 0.817878
Si Si5 0.736886 0.245197 0.375121
Si Si6 0.621775 0.243359 0.945639
Si Si7 0.548894 0.330365 0.046052
Si Si8 0.917647 0.593411 0.781655
O O1 0.167104 0.715666 0.126563
O O2 0.380482 0.736680 0.322691
O O3 0.050388 0.575594 0.172875
O O4 0.066230 0.909792 0.167852
O O5 0.500000 0.405684 0.750000
O O6 0.189119 0.578685 0.602622
O O7 0.272303 0.355873 0.555927
O O8 0.630464 0.089309 0.188982
O O9 0.274421 0.214043 0.058922
O O10 0.393976 0.201001 0.000680
O O11 0.316159 0.934845 0.038207
O O12 0.847627 0.878950 0.882421
O O13 0.966386 0.759157 0.835905
O O14 0.500000 0.238783 0.250000
O O15 0.646384 0.262761 0.029072
O O16 0.679750 0.379191 0.163814
O O17 0.500000 0.500000 0.000000
O O18 0.000000 0.585985 0.750000
#
# Coordination Sequence:
#
# PCOD9226777 Si02
#       8
#     4   4   4   4   4   4   4   4
#     4  10  18  33  53  79 105 136 175 220 262 310
#     4   9  16  25  49  78 107 135 167 213 265 309
#     4   9  18  27  46  78 110 137 167 213 265 313
#     4   9  18  31  51  75 105 136 174 217 263 309
#     4   9  14  25  44  74 107 134 166 213 264 309
#     4  10  18  30  49  80 109 136 172 213 265 315
#     4  11  20  34  53  75 107 142 174 215 263 311
#     4  11  23  38  54  76 105 141 179 217 262 313
#
# _framework density 25.699736000000001
#
# number of rings (size 3 to 8) (size 9 to 14) (size 15 to 20)
#    0.000    2.250    2.500    1.875    3.500    3.500 
#    0.000    0.000    0.000    0.750    0.000    1.750 
#    0.000    0.000    0.000    0.000    0.000    0.000 
#
# Total GULP energy -178770.471181 kJ/mol
# GULP energy per Si atom -5586.577224 kJ/mol
# Density = 2.564124 g / cm^3
# Si number density = 25.699736 Si / 1000 Ang^3
#
#
#
# Elastic Constant Matrix: (Units=GPa)
#
#
# Indices 1 2 3 4 5 6 
#
# 1 108.3711 70.0499 14.4881 0.0000 -31.0045 0.0000
# 2 70.0499 211.9594 30.1004 0.0000 -25.5486 0.0000
# 3 14.4881 30.1004 71.3998 0.0000 -4.1748 0.0000
# 4 0.0000 0.0000 0.0000 32.4604 0.0000 -2.2047
# 5 -31.0045 -25.5486 -4.1748 0.0000 46.1211 0.0000
# 6 0.0000 0.0000 0.0000 -2.2047 0.0000 38.3607
#
#
#
# Elastic Compliance Matrix: (Units=1/GPa)
#
#
# Indices 1 2 3 4 5 6 
#
# 1 0.013675 -0.003534 -0.000867 0.000000 0.007157 0.000000
# 2 -0.003534 0.006263 -0.001869 0.000000 0.000924 0.000000
# 3 -0.000867 -0.001869 0.014954 0.000000 -0.000264 0.000000
# 4 0.000000 0.000000 0.000000 0.030928 0.000000 0.001777
# 5 0.007157 0.000924 -0.000264 0.000000 0.026981 0.000000
# 6 0.000000 0.000000 0.000000 0.001777 0.000000 0.026170
#
#
# Mechanical properties :
#
#
# Convention : Reuss Voigt Hill
#
# Bulk Modulus (GPa) = 44.73706 69.00080 56.86893
# Shear Modulus (GPa) = 35.98129 41.86124 38.92127
#
# Velocity S-wave (km/s) = 3.74580 4.04029 3.89583
# Velocity P-wave (km/s) = 6.01277 6.97656 6.51252
#
# Compressibility (1/GPa) = 0.02235283
#
# Stress axis : x y z
#
# Youngs Moduli (GPa) = 73.12521 159.67849 66.87175
#
# Poissons Ratio (x) = 0.56426 0.05796
# Poissons Ratio (y) = 0.25840 0.12499
# Poissons Ratio (z) = 0.06338 0.29845
#
# Static dielectric constant tensor:
#      x y z
#    x 2.008380 0.000000 0.145560 
#    y 0.000000 1.848010 0.000000 
#    z 0.145560 0.000000 2.174590 
# 
# From -- ./inp_files/78080.got.cif
#   From: 2010.05.17/outbox.cif.g08.bks.cpg/sg13_40_cif.got.tgz:78080.got - 2010.06.03 16:44:36.
