data_PCOD9226864
_publ_section_title
;
Structure prediction by ZEFSAII (Michael W. Deem and Ramdas Pophale) SiO2 
 PCOD9226864
Probable space group: P 2/C
;
_chemical_formula_sum "Si O2"
_cell_formula_units_Z 28
_cell_length_a 7.670132
_cell_length_b 17.550850
_cell_length_c 10.312738
_cell_angle_alpha 90.000000
_cell_angle_beta 81.347052
_cell_angle_gamma 90.000000
_cell_volume 1372.471673
_symmetry_space_group_name_H-M "P 2/C"
_symmetry_group_IT_number 13
_symmetry_cell_setting 'monoclinic'
loop_
_space_group_symop_operation_xyz
x,y,z
-x,y,1/2-z
-x,-y,-z
x,-y,1/2+z
loop_
_atom_site_type_symbol
_atom_site_label
_atom_site_fract_x
_atom_site_fract_y
_atom_site_fract_z
Si Si1 0.617715 0.332084 0.866613
Si Si2 0.242337 0.079808 0.447109
Si Si3 0.633625 0.338853 0.354893
Si Si4 0.791074 0.824314 0.795460
Si Si5 0.372904 0.503405 0.138794
Si Si6 0.176186 0.909272 0.451174
Si Si7 0.314882 0.831843 0.193974
O O1 0.500000 0.333294 0.750000
O O2 0.717682 0.413585 0.859027
O O3 0.725765 0.253820 0.849765
O O4 0.483258 0.328411 0.002594
O O5 0.291234 0.133206 0.319958
O O6 0.321464 0.112823 0.570305
O O7 0.029966 0.082254 0.491460
O O8 0.272056 0.990317 0.420398
O O9 0.500000 0.342647 0.250000
O O10 0.747649 0.264256 0.317214
O O11 0.726345 0.422191 0.349953
O O12 0.000000 0.831559 0.750000
O O13 0.741790 0.866359 0.934462
O O14 0.500000 0.504743 0.250000
O O15 0.500000 0.500000 0.000000
O O16 0.184418 0.862091 0.318187
O O17 0.500000 0.830553 0.250000
#
# Coordination Sequence:
#
# PCOD9226864 Si02
#       7
#     4   4   4   4   4   4   4
#     4   9  17  30  48  74 103 129 162 202 246 297
#     4  10  21  38  56  72  97 136 179 210 241 301
#     4  10  18  31  51  74 101 131 164 204 249 296
#     4  10  20  33  52  76 100 131 171 212 252 294
#     4   8  15  27  46  71  95 127 165 197 233 291
#     4  10  21  38  56  72  96 137 179 209 243 298
#     4  11  21  33  53  81 107 129 159 212 267 299
#
# _framework density 20.401150000000001
#
# number of rings (size 3 to 8) (size 9 to 14) (size 15 to 20)
#    0.000    2.286    0.000    3.857    0.000    2.857 
#    0.000    2.857    0.000    1.714    0.000   38.000 
#    0.000    0.000    0.000    0.000    0.000    0.000 
#
# Total GULP energy -156123.763234 kJ/mol
# GULP energy per Si atom -5575.848687 kJ/mol
# Density = 2.035472 g / cm^3
# Si number density = 20.401150 Si / 1000 Ang^3
#
#
#
# Elastic Constant Matrix: (Units=GPa)
#
#
# Indices 1 2 3 4 5 6 
#
# 1 10.3134 20.3659 17.5772 0.0000 -0.5719 0.0000
# 2 20.3659 186.1248 38.3395 0.0000 -10.7775 0.0000
# 3 17.5772 38.3395 139.3998 0.0000 1.5355 0.0000
# 4 0.0000 0.0000 0.0000 54.8742 0.0000 25.3934
# 5 -0.5719 -10.7775 1.5355 0.0000 20.0950 0.0000
# 6 0.0000 0.0000 0.0000 25.3934 0.0000 70.4479
#
#
#
# Elastic Compliance Matrix: (Units=1/GPa)
#
#
# Indices 1 2 3 4 5 6 
#
# 1 0.148797 -0.013273 -0.015093 0.000000 -0.001730 0.000000
# 2 -0.013273 0.007089 -0.000314 0.000000 0.003449 0.000000
# 3 -0.015093 -0.000314 0.009177 0.000000 -0.001299 0.000000
# 4 0.000000 0.000000 0.000000 0.021872 0.000000 -0.007884
# 5 -0.001730 0.003449 -0.001299 0.000000 0.051663 0.000000
# 6 0.000000 0.000000 0.000000 -0.007884 0.000000 0.017037
#
#
# Mechanical properties :
#
#
# Convention : Reuss Voigt Hill
#
# Bulk Modulus (GPa) = 9.28463 54.26703 31.77583
# Shear Modulus (GPa) = 14.33088 46.38712 30.35900
#
# Velocity S-wave (km/s) = 2.65326 4.77356 3.86178
# Velocity P-wave (km/s) = 3.73461 7.55250 5.95766
#
# Compressibility (1/GPa) = 0.10770487
#
# Stress axis : x y z
#
# Youngs Moduli (GPa) = 6.72055 141.05436 108.96304
#
# Poissons Ratio (x) = 1.87218 1.64455
# Poissons Ratio (y) = 0.08920 0.03424
# Poissons Ratio (z) = 0.10143 0.04432
#
# Static dielectric constant tensor:
#      x y z
#    x 1.749750 0.000000 -0.006610 
#    y 0.000000 1.814320 0.000000 
#    z -0.006610 0.000000 1.697970 
# 
# From -- ./inp_files/13121.got.cif
#   From: 2010.05.17/outbox.cif.g08.bks.cpg/sg13_7_cif.got.tgz:13121.got - 2010.06.03 16:44:36.
