data_PCOD9226241
_publ_section_title
;
Structure prediction by ZEFSAII (Michael W. Deem and Ramdas Pophale) SiO2 
 PCOD9226241
Probable space group: P 2/C
;
_chemical_formula_sum "Si O2"
_cell_formula_units_Z 24
_cell_length_a 25.856638
_cell_length_b 8.049801
_cell_length_c 18.822588
_cell_angle_alpha 90.000000
_cell_angle_beta 161.342027
_cell_angle_gamma 90.000000
_cell_volume 1253.358672
_symmetry_space_group_name_H-M "P 2/C"
_symmetry_group_IT_number 13
_symmetry_cell_setting 'monoclinic'
loop_
_space_group_symop_operation_xyz
x,y,z
-x,y,1/2-z
-x,-y,-z
x,-y,1/2+z
loop_
_atom_site_type_symbol
_atom_site_label
_atom_site_fract_x
_atom_site_fract_y
_atom_site_fract_z
Si Si1 0.559593 0.926587 0.409763
Si Si2 0.265295 0.888984 0.536664
Si Si3 0.727840 0.417221 0.137415
Si Si4 0.002319 0.537809 0.408136
Si Si5 0.000000 0.667138 0.250000
Si Si6 0.500000 0.349552 0.250000
Si Si7 0.123729 0.097914 0.710592
O O1 0.500000 0.904310 0.250000
O O2 0.643831 0.757694 0.542994
O O3 0.699103 0.067158 0.592826
O O4 0.396914 0.983137 0.237523
O O5 0.156150 0.786762 0.448465
O O6 0.374858 0.759539 0.633258
O O7 0.148427 0.967366 0.323919
O O8 0.872649 0.405017 0.267489
O O9 0.821954 0.485778 0.328709
O O10 0.597727 0.536844 0.932244
O O11 0.003609 0.560055 0.326032
O O12 0.937054 0.714266 0.355831
O O13 0.000000 0.000000 0.500000
#
# Coordination Sequence:
#
# PCOD9226241 Si02
#       7
#     4   4   4   4   2   2   4
#     4  10  18  30  54  86 113 139 196 250 277 328
#     4  10  20  36  58  82 113 161 191 234 296 360
#     4  11  20  32  57  91 111 147 205 246 284 337
#     4  10  21  35  56  85 114 159 193 240 295 358
#     4  10  20  40  60  80 126 160 192 232 314 366
#     4  12  18  34  58  86 112 150 204 240 290 344
#     4  10  16  30  54  82 110 141 198 244 272 334
#
# _framework density 19.148547000000001
#
# number of rings (size 3 to 8) (size 9 to 14) (size 15 to 20)
#    0.000    1.667    8.333    0.000    0.000    0.000 
#    0.000    1.667    0.000   16.000    0.000    0.000 
#    0.000    0.000    0.000    0.000    0.000    0.000 
#
# Total GULP energy -133724.696130 kJ/mol
# GULP energy per Si atom -5571.862339 kJ/mol
# Density = 1.910496 g / cm^3
# Si number density = 19.148547 Si / 1000 Ang^3
#
#
#
# Elastic Constant Matrix: (Units=GPa)
#
#
# Indices 1 2 3 4 5 6 
#
# 1 72.1963 13.8069 23.6650 0.0000 -2.1489 0.0000
# 2 13.8069 53.4544 23.3065 0.0000 -1.3107 0.0000
# 3 23.6650 23.3065 118.6363 0.0000 -12.2034 0.0000
# 4 0.0000 0.0000 0.0000 27.2061 0.0000 -1.2797
# 5 -2.1489 -1.3107 -12.2034 0.0000 29.2180 0.0000
# 6 0.0000 0.0000 0.0000 -1.2797 0.0000 15.7346
#
#
#
# Elastic Compliance Matrix: (Units=1/GPa)
#
#
# Indices 1 2 3 4 5 6 
#
# 1 0.015207 -0.002848 -0.002478 0.000000 -0.000044 0.000000
# 2 -0.002848 0.021011 -0.003641 0.000000 -0.000787 0.000000
# 3 -0.002478 -0.003641 0.010034 0.000000 0.003845 0.000000
# 4 0.000000 0.000000 0.000000 0.036898 0.000000 0.003001
# 5 -0.000044 -0.000787 0.003845 0.000000 0.035793 0.000000
# 6 0.000000 0.000000 0.000000 0.003001 0.000000 0.063798
#
#
# Mechanical properties :
#
#
# Convention : Reuss Voigt Hill
#
# Bulk Modulus (GPa) = 35.31344 40.64929 37.98137
# Shear Modulus (GPa) = 23.79649 26.66566 25.23107
#
# Velocity S-wave (km/s) = 3.52906 3.73576 3.63388
# Velocity P-wave (km/s) = 5.92348 6.31525 6.12250
#
# Compressibility (1/GPa) = 0.02831783
#
# Stress axis : x y z
#
# Youngs Moduli (GPa) = 65.75960 47.59356 99.65859
#
# Poissons Ratio (x) = 0.13556 0.24699
# Poissons Ratio (y) = 0.18730 0.36281
# Poissons Ratio (z) = 0.16298 0.17327
#
# Static dielectric constant tensor:
#      x y z
#    x 1.646930 0.000000 -0.006640 
#    y 0.000000 1.731630 0.000000 
#    z -0.006640 0.000000 1.738370 
# 
# From -- ./inp_files/71343.got.cif
#   From: 2010.05.17/outbox.cif.g08.bks.cpg/sg13_36_cif.got.tgz:71343.got - 2010.06.03 16:44:36.
