data_PCOD9226009
_publ_section_title
;
Structure prediction by ZEFSAII (Michael W. Deem and Ramdas Pophale) SiO2 
 PCOD9226009
Probable space group: P 2/C
;
_chemical_formula_sum "Si O2"
_cell_formula_units_Z 20
_cell_length_a 23.447957
_cell_length_b 8.487271
_cell_length_c 5.471615
_cell_angle_alpha 90.000000
_cell_angle_beta 110.442115
_cell_angle_gamma 90.000000
_cell_volume 1020.328527
_symmetry_space_group_name_H-M "P 2/C"
_symmetry_group_IT_number 13
_symmetry_cell_setting 'monoclinic'
loop_
_space_group_symop_operation_xyz
x,y,z
-x,y,1/2-z
-x,-y,-z
x,-y,1/2+z
loop_
_atom_site_type_symbol
_atom_site_label
_atom_site_fract_x
_atom_site_fract_y
_atom_site_fract_z
Si Si1 0.571920 0.665350 0.857747
Si Si2 0.249296 0.399219 0.374508
Si Si3 0.379131 0.304445 0.568987
Si Si4 0.890302 0.598041 0.834104
Si Si5 0.068906 0.937163 0.603501
O O1 0.500000 0.634684 0.750000
O O2 0.605674 0.494391 0.908306
O O3 0.591484 0.751627 0.639147
O O4 0.591460 0.751610 0.134916
O O5 0.255503 0.500142 0.633668
O O6 0.306669 0.283513 0.460571
O O7 0.179851 0.340779 0.270724
O O8 0.898952 0.500218 0.596854
O O9 0.932392 0.749826 0.897576
O O10 0.098384 0.999599 0.397383
O O11 0.000000 0.000000 0.500000
#
# Coordination Sequence:
#
# PCOD9226009 Si02
#       5
#     4   4   4   4   4
#     4  10  16  20  29  45  72 112 164 194 226 294
#     4  10  16  27  41  61  87 121 155 213 255 298
#     4  10  14  22  31  45  72 107 154 199 240 281
#     4  10  21  35  57  83 110 135 184 231 262 312
#     4  10  21  40  60  82 113 149 177 210 270 336
#
# _framework density 19.601531000000001
#
# number of rings (size 3 to 8) (size 9 to 14) (size 15 to 20)
#    0.000    2.000    4.000    4.200    0.000    0.000 
#    0.000   12.000    0.000    0.000    0.000    0.000 
#    0.000    0.000    0.000    0.000    0.000   34.000 
#
# Total GULP energy -111433.736533 kJ/mol
# GULP energy per Si atom -5571.686827 kJ/mol
# Density = 1.955692 g / cm^3
# Si number density = 19.601531 Si / 1000 Ang^3
#
#
#
# Elastic Constant Matrix: (Units=GPa)
#
#
# Indices 1 2 3 4 5 6 
#
# 1 67.9122 37.4691 55.8101 0.0000 14.0830 0.0000
# 2 37.4691 48.7966 31.4152 0.0000 3.6262 0.0000
# 3 55.8101 31.4152 168.0406 0.0000 -57.5290 0.0000
# 4 0.0000 0.0000 0.0000 10.8076 0.0000 -6.6084
# 5 14.0830 3.6262 -57.5290 0.0000 22.8315 0.0000
# 6 0.0000 0.0000 0.0000 -6.6084 0.0000 -3.9144
#
#
#
# Elastic Compliance Matrix: (Units=1/GPa)
#
#
# Indices 1 2 3 4 5 6 
#
# 1 0.002642 -0.014361 0.014782 0.000000 0.037898 0.000000
# 2 -0.014361 0.034638 -0.004051 0.000000 -0.006849 0.000000
# 3 0.014782 -0.004051 -0.008026 0.000000 -0.028699 0.000000
# 4 0.000000 0.000000 0.000000 0.045529 0.000000 -0.076863
# 5 0.037898 -0.006849 -0.028699 0.000000 -0.050802 0.000000
# 6 0.000000 0.000000 0.000000 -0.076863 0.000000 -0.125705
#
#
# Mechanical properties :
#
#
# Convention : Reuss Voigt Hill
#
# Bulk Modulus (GPa) = 45.46898 59.34871 52.40884
# Shear Modulus (GPa) = -57.38286 16.61527 -20.38379
#
# Velocity S-wave (km/s) = -5.41648 2.91460 -3.22826
# Velocity P-wave (km/s) = 3.98380 6.45522 3.59160
#
# Compressibility (1/GPa) = 0.02199302
#
# Stress axis : x y z
#
# Youngs Moduli (GPa) = 378.55568 28.87030 -124.59120
#
# Poissons Ratio (x) = 0.41462 1.84172
# Poissons Ratio (y) = 5.43661 -0.50468
# Poissons Ratio (z) = -5.59584 0.11694
#
# Static dielectric constant tensor:
#      x y z
#    x 1.704830 0.000000 -0.024420 
#    y 0.000000 1.640320 0.000000 
#    z -0.024420 0.000000 1.758980 
# 
# From -- ./inp_files/7299.got.cif
#   From: 2010.05.17/outbox.cif.g08.bks.cpg/sg13_4_cif.got.tgz:7299.got - 2010.06.03 16:44:36.
