data_PCOD9226530
_publ_section_title
;
Structure prediction by ZEFSAII (Michael W. Deem and Ramdas Pophale) SiO2 
 PCOD9226530
Probable space group: P 2/C
;
_chemical_formula_sum "Si O2"
_cell_formula_units_Z 18
_cell_length_a 6.533504
_cell_length_b 5.118910
_cell_length_c 22.896759
_cell_angle_alpha 90.000000
_cell_angle_beta 67.722453
_cell_angle_gamma 90.000000
_cell_volume 708.610553
_symmetry_space_group_name_H-M "P 2/C"
_symmetry_group_IT_number 13
_symmetry_cell_setting 'monoclinic'
loop_
_space_group_symop_operation_xyz
x,y,z
-x,y,1/2-z
-x,-y,-z
x,-y,1/2+z
loop_
_atom_site_type_symbol
_atom_site_label
_atom_site_fract_x
_atom_site_fract_y
_atom_site_fract_z
Si Si1 0.850946 0.457765 0.923000
Si Si2 0.721260 0.150505 0.626971
Si Si3 0.500000 0.580045 0.250000
Si Si4 0.751459 0.969255 0.002770
Si Si5 0.940557 0.757931 0.693548
O O1 0.112313 0.390097 0.907746
O O2 0.873160 0.566196 0.854566
O O3 0.753602 0.693250 0.970918
O O4 0.722748 0.201546 0.959539
O O5 0.527644 0.244466 0.689734
O O6 0.630049 0.020389 0.578199
O O7 0.876608 0.966635 0.650535
O O8 0.280663 0.408462 0.271781
O O9 0.000000 0.000000 0.000000
O O10 0.000000 0.874742 0.750000
#
# Coordination Sequence:
#
# PCOD9226530 Si02
#       5
#     4   4   2   4   4
#     4  10  19  34  58  95 120 158 212 263 312 370
#     4  10  20  35  61  90 124 165 209 261 312 373
#     4  10  24  40  58  96 128 170 212 254 324 374
#     4  10  17  31  59  91 119 156 215 262 307 374
#     4  11  23  40  64  93 130 169 210 259 317 381
#
# _framework density 25.401821999999999
#
# number of rings (size 3 to 8) (size 9 to 14) (size 15 to 20)
#    0.000    1.778    4.444    3.333    3.111    3.556 
#    0.000    0.000    0.000    2.667    0.000    6.222 
#    0.000    0.000    0.000    0.000    0.000    0.000 
#
# Total GULP energy -100574.593332 kJ/mol
# GULP energy per Si atom -5587.477407 kJ/mol
# Density = 2.534401 g / cm^3
# Si number density = 25.401822 Si / 1000 Ang^3
#
#
#
# Elastic Constant Matrix: (Units=GPa)
#
#
# Indices 1 2 3 4 5 6 
#
# 1 68.9735 21.3005 59.4421 0.0000 20.2102 0.0000
# 2 21.3005 155.9092 80.0196 0.0000 8.3381 0.0000
# 3 59.4421 80.0196 200.0534 0.0000 -4.6618 0.0000
# 4 0.0000 0.0000 0.0000 52.0052 0.0000 -17.3177
# 5 20.2102 8.3381 -4.6618 0.0000 30.2875 0.0000
# 6 0.0000 0.0000 0.0000 -17.3177 0.0000 39.7329
#
#
#
# Elastic Compliance Matrix: (Units=1/GPa)
#
#
# Indices 1 2 3 4 5 6 
#
# 1 0.028519 0.002315 -0.009893 0.000000 -0.021190 0.000000
# 2 0.002315 0.008490 -0.004189 0.000000 -0.004527 0.000000
# 3 -0.009893 -0.004189 0.009830 0.000000 0.009268 0.000000
# 4 0.000000 0.000000 0.000000 0.022494 0.000000 0.009804
# 5 -0.021190 -0.004527 0.009268 0.000000 0.049829 0.000000
# 6 0.000000 0.000000 0.000000 0.009804 0.000000 0.029441
#
#
# Mechanical properties :
#
#
# Convention : Reuss Voigt Hill
#
# Bulk Modulus (GPa) = 42.91323 82.94004 62.92664
# Shear Modulus (GPa) = 27.79232 42.01670 34.90451
#
# Velocity S-wave (km/s) = 3.31132 4.07145 3.71090
# Velocity P-wave (km/s) = 5.61696 7.40435 6.57170
#
# Compressibility (1/GPa) = 0.02330284
#
# Stress axis : x y z
#
# Youngs Moduli (GPa) = 35.06464 117.78705 101.73017
#
# Poissons Ratio (x) = -0.27265 1.00647
# Poissons Ratio (y) = -0.08117 0.42616
# Poissons Ratio (z) = 0.34691 0.49343
#
# Static dielectric constant tensor:
#      x y z
#    x 2.107980 0.000000 0.037250 
#    y 0.000000 2.061500 0.000000 
#    z 0.037250 0.000000 2.103990 
# 
# From -- ./inp_files/74252.got.cif
#   From: 2010.05.17/outbox.cif.g08.bks.cpg/sg13_38_cif.got.tgz:74252.got - 2010.06.03 16:44:36.
