data_PCOD9226591
_publ_section_title
;
Structure prediction by ZEFSAII (Michael W. Deem and Ramdas Pophale) SiO2 
 PCOD9226591
Probable space group: P 2/C
;
_chemical_formula_sum "Si O2"
_cell_formula_units_Z 28
_cell_length_a 11.839394
_cell_length_b 14.786665
_cell_length_c 9.760266
_cell_angle_alpha 90.000000
_cell_angle_beta 117.909949
_cell_angle_gamma 90.000000
_cell_volume 1509.935973
_symmetry_space_group_name_H-M "P 2/C"
_symmetry_group_IT_number 13
_symmetry_cell_setting 'monoclinic'
loop_
_space_group_symop_operation_xyz
x,y,z
-x,y,1/2-z
-x,-y,-z
x,-y,1/2+z
loop_
_atom_site_type_symbol
_atom_site_label
_atom_site_fract_x
_atom_site_fract_y
_atom_site_fract_z
Si Si1 0.592695 0.966395 0.432004
Si Si2 0.415298 0.201724 0.410508
Si Si3 0.703760 0.468461 0.586976
Si Si4 0.070940 0.430195 0.143166
Si Si5 0.115688 0.311503 0.923628
Si Si6 0.542224 0.376845 0.915987
Si Si7 0.687755 0.156592 0.449166
O O1 0.500000 0.957985 0.250000
O O2 0.638736 0.869271 0.509621
O O3 0.500000 0.000000 0.500000
O O4 0.692619 0.047700 0.464954
O O5 0.397354 0.303325 0.449516
O O6 0.568657 0.187804 0.477284
O O7 0.355140 0.180039 0.229752
O O8 0.793664 0.524465 0.741300
O O9 0.787176 0.391610 0.563156
O O10 0.584195 0.419815 0.590054
O O11 0.641854 0.542085 0.450074
O O12 0.000000 0.420868 0.250000
O O13 0.078251 0.338281 0.058151
O O14 0.000000 0.500000 0.000000
O O15 0.000000 0.315688 0.750000
O O16 0.188206 0.216117 0.951799
O O17 0.500000 0.332445 0.750000
#
# Coordination Sequence:
#
# PCOD9226591 Si02
#       7
#     4   4   4   4   4   4   4
#     4  10  17  33  60  88 118 150 187 232 298 360
#     4  10  19  35  58  88 120 156 186 245 298 364
#     4  11  22  38  55  82 122 166 198 247 298 347
#     4  12  22  39  62  82 110 160 214 257 287 343
#     4  12  23  40  63  82 118 167 207 247 297 355
#     4  11  23  34  54  86 128 158 197 244 302 360
#     4  10  20  36  57  87 120 148 200 239 299 358
#
# _framework density 18.543832999999999
#
# number of rings (size 3 to 8) (size 9 to 14) (size 15 to 20)
#    0.000    1.143    7.143    2.143    0.000    1.143 
#    0.000    0.000    0.000    0.857    0.000    2.000 
#    0.000    0.000    0.000    0.000    0.000    0.000 
#
# Total GULP energy -156206.091855 kJ/mol
# GULP energy per Si atom -5578.788995 kJ/mol
# Density = 1.850163 g / cm^3
# Si number density = 18.543833 Si / 1000 Ang^3
#
#
#
# Elastic Constant Matrix: (Units=GPa)
#
#
# Indices 1 2 3 4 5 6 
#
# 1 62.5820 47.9009 38.6225 0.0000 0.5129 0.0000
# 2 47.9009 113.4140 35.9293 0.0000 0.8280 0.0000
# 3 38.6225 35.9293 83.1306 0.0000 -12.3544 0.0000
# 4 0.0000 0.0000 0.0000 24.5186 0.0000 -4.5209
# 5 0.5129 0.8280 -12.3544 0.0000 25.9029 0.0000
# 6 0.0000 0.0000 0.0000 -4.5209 0.0000 29.2592
#
#
#
# Elastic Compliance Matrix: (Units=1/GPa)
#
#
# Indices 1 2 3 4 5 6 
#
# 1 0.029488 -0.009065 -0.010575 0.000000 -0.005338 0.000000
# 2 -0.009065 0.013170 -0.001632 0.000000 -0.001020 0.000000
# 3 -0.010575 -0.001632 0.019036 0.000000 0.009341 0.000000
# 4 0.000000 0.000000 0.000000 0.041981 0.000000 0.006487
# 5 -0.005338 -0.001020 0.009341 0.000000 0.043199 0.000000
# 6 0.000000 0.000000 0.000000 0.006487 0.000000 0.035180
#
#
# Mechanical properties :
#
#
# Convention : Reuss Voigt Hill
#
# Bulk Modulus (GPa) = 52.22184 56.00355 54.11269
# Shear Modulus (GPa) = 21.64659 25.04776 23.34717
#
# Velocity S-wave (km/s) = 3.42031 3.67922 3.55213
# Velocity P-wave (km/s) = 6.61970 6.95090 6.78732
#
# Compressibility (1/GPa) = 0.01914908
#
# Stress axis : x y z
#
# Youngs Moduli (GPa) = 33.91215 75.92740 52.53129
#
# Poissons Ratio (x) = 0.68829 0.55554
# Poissons Ratio (y) = 0.30742 0.08574
# Poissons Ratio (z) = 0.35864 0.12393
#
# Static dielectric constant tensor:
#      x y z
#    x 1.646330 0.000000 -0.016410 
#    y 0.000000 1.673710 0.000000 
#    z -0.016410 0.000000 1.633920 
# 
# From -- ./inp_files/16857.got.cif
#   From: 2010.05.17/outbox.cif.g08.bks.cpg/sg13_9_cif.got.tgz:16857.got - 2010.06.03 16:44:36.
