data_PCOD9226891
_publ_section_title
;
Structure prediction by ZEFSAII (Michael W. Deem and Ramdas Pophale) SiO2 
 PCOD9226891
Probable space group: P 2/C
;
_chemical_formula_sum "Si O2"
_cell_formula_units_Z 18
_cell_length_a 9.323838
_cell_length_b 9.177700
_cell_length_c 11.178947
_cell_angle_alpha 90.000000
_cell_angle_beta 133.643298
_cell_angle_gamma 90.000000
_cell_volume 692.242643
_symmetry_space_group_name_H-M "P 2/C"
_symmetry_group_IT_number 13
_symmetry_cell_setting 'monoclinic'
loop_
_space_group_symop_operation_xyz
x,y,z
-x,y,1/2-z
-x,-y,-z
x,-y,1/2+z
loop_
_atom_site_type_symbol
_atom_site_label
_atom_site_fract_x
_atom_site_fract_y
_atom_site_fract_z
Si Si1 0.398404 0.498522 0.570970
Si Si2 0.578972 0.842789 0.918835
Si Si3 0.005789 0.812192 0.410210
Si Si4 0.163899 0.106972 0.243931
Si Si5 0.000000 0.457622 0.750000
O O1 0.500000 0.435352 0.750000
O O2 0.500000 0.500000 0.500000
O O3 0.388624 0.671722 0.585580
O O4 0.174390 0.452153 0.411454
O O5 0.500000 0.911114 0.750000
O O6 0.396626 0.862766 0.905580
O O7 0.810251 0.881357 0.062853
O O8 0.098982 0.791639 0.594552
O O9 0.930496 0.660337 0.311535
O O10 0.851026 0.943705 0.321664
O O11 0.000000 0.132584 0.250000
#
# Coordination Sequence:
#
# PCOD9226891 Si02
#       5
#     4   4   4   4   2
#     4  10  22  43  66  90 116 155 205 253 308 365
#     4   8  17  35  56  77 115 158 191 234 295 359
#     4   9  18  34  55  80 114 165 199 223 296 365
#     4  10  18  31  53  86 119 151 201 247 281 340
#     4  10  20  42  68  80 120 170 194 230 310 378
#
# _framework density 26.002443
#
# number of rings (size 3 to 8) (size 9 to 14) (size 15 to 20)
#    0.000    2.667    1.111    1.333    0.000    1.778 
#    6.000    0.000    0.000    0.000    0.000    0.000 
#    0.000    0.000    0.000    0.000    0.000    0.000 
#
# Total GULP energy -100302.341537 kJ/mol
# GULP energy per Si atom -5572.352308 kJ/mol
# Density = 2.594326 g / cm^3
# Si number density = 26.002443 Si / 1000 Ang^3
#
#
#
# Elastic Constant Matrix: (Units=GPa)
#
#
# Indices 1 2 3 4 5 6 
#
# 1 144.1714 6.9237 45.3994 0.0000 1.4604 0.0000
# 2 6.9237 25.2510 10.2307 0.0000 8.5548 0.0000
# 3 45.3994 10.2307 185.2491 0.0000 -0.6313 0.0000
# 4 0.0000 0.0000 0.0000 2.0091 0.0000 2.3831
# 5 1.4604 8.5548 -0.6313 0.0000 50.7110 0.0000
# 6 0.0000 0.0000 0.0000 2.3831 0.0000 28.6490
#
#
#
# Elastic Compliance Matrix: (Units=1/GPa)
#
#
# Indices 1 2 3 4 5 6 
#
# 1 0.007561 -0.001348 -0.001779 0.000000 -0.000012 0.000000
# 2 -0.001348 0.043286 -0.002085 0.000000 -0.007289 0.000000
# 3 -0.001779 -0.002085 0.005951 0.000000 0.000477 0.000000
# 4 0.000000 0.000000 0.000000 0.552233 0.000000 -0.045936
# 5 -0.000012 -0.007289 0.000477 0.000000 0.020956 0.000000
# 6 0.000000 0.000000 0.000000 -0.045936 0.000000 0.038726
#
#
# Mechanical properties :
#
#
# Convention : Reuss Voigt Hill
#
# Bulk Modulus (GPa) = 21.56357 53.30879 37.43618
# Shear Modulus (GPa) = 7.19844 35.74833 21.47338
#
# Velocity S-wave (km/s) = 1.66565 3.71186 2.87683
# Velocity P-wave (km/s) = 3.46556 6.23831 5.04612
#
# Compressibility (1/GPa) = 0.04637450
#
# Stress axis : x y z
#
# Youngs Moduli (GPa) = 132.25503 23.10191 168.04489
#
# Poissons Ratio (x) = 0.03115 0.29888
# Poissons Ratio (y) = 0.17833 0.35036
# Poissons Ratio (z) = 0.23523 0.04817
#
# Static dielectric constant tensor:
#      x y z
#    x 2.263890 0.000000 -0.044120 
#    y 0.000000 2.075530 0.000000 
#    z -0.044120 0.000000 2.262800 
# 
# From -- ./inp_files/29186.got.cif
#   From: 2010.05.17/outbox.cif.g08.bks.cpg/sg13_15_cif.got.tgz:29186.got - 2010.06.03 16:44:36.
