data_PCOD9226927
_publ_section_title
;
Structure prediction by ZEFSAII (Michael W. Deem and Ramdas Pophale) SiO2 
 PCOD9226927
Probable space group: P 2/C
;
_chemical_formula_sum "Si O2"
_cell_formula_units_Z 30
_cell_length_a 17.098795
_cell_length_b 13.118625
_cell_length_c 18.453016
_cell_angle_alpha 90.000000
_cell_angle_beta 24.587856
_cell_angle_gamma 90.000000
_cell_volume 1722.290648
_symmetry_space_group_name_H-M "P 2/C"
_symmetry_group_IT_number 13
_symmetry_cell_setting 'monoclinic'
loop_
_space_group_symop_operation_xyz
x,y,z
-x,y,1/2-z
-x,-y,-z
x,-y,1/2+z
loop_
_atom_site_type_symbol
_atom_site_label
_atom_site_fract_x
_atom_site_fract_y
_atom_site_fract_z
Si Si1 0.374470 0.337706 0.286889
Si Si2 0.942122 0.884094 0.157979
Si Si3 0.539078 0.171983 0.945597
Si Si4 0.654531 0.891392 0.743990
Si Si5 0.979165 0.348389 0.681108
Si Si6 0.418940 0.089028 0.893887
Si Si7 0.000000 0.022823 0.250000
Si Si8 0.421779 0.600391 0.029234
O O1 0.500000 0.360426 0.250000
O O2 0.379156 0.215639 0.269140
O O3 0.167356 0.376413 0.479975
O O4 0.461920 0.384879 0.142100
O O5 0.742411 0.882401 0.285416
O O6 0.953211 0.770742 0.182902
O O7 0.955215 0.957124 0.216084
O O8 0.122778 0.908644 0.955743
O O9 0.464562 0.150434 0.928402
O O10 0.556634 0.293257 0.944948
O O11 0.406873 0.126922 0.121027
O O12 0.523255 0.979520 0.820581
O O13 0.797063 0.407169 0.806952
O O14 0.000000 0.358093 0.750000
O O15 0.500000 0.130185 0.750000
O O16 0.195226 0.080423 0.072739
O O17 0.500000 0.500000 0.000000
#
# Coordination Sequence:
#
# PCOD9226927 Si02
#       8
#     4   4   4   4   4   4   2   4
#     4  10  19  31  56  89 116 140 177 233 291 338
#     4  10  20  32  56  88 116 148 183 237 282 333
#     4  10  23  40  57  81 117 151 189 240 290 337
#     4  10  20  33  55  86 117 146 184 230 285 333
#     4  10  18  31  57  89 116 135 178 235 295 336
#     4  12  24  37  54  81 118 164 194 222 270 342
#     4  12  22  32  54  86 116 156 196 230 264 330
#     4  10  22  40  60  82 113 146 186 244 295 340
#
# _framework density 17.418662999999999
#
# number of rings (size 3 to 8) (size 9 to 14) (size 15 to 20)
#    0.000    1.600    4.667    0.800    1.867    2.133 
#    0.000    0.667    1.467    0.000    0.000    0.000 
#    0.000    0.000    0.000    0.000    0.000    0.000 
#
# Total GULP energy -167407.030700 kJ/mol
# GULP energy per Si atom -5580.234357 kJ/mol
# Density = 1.737902 g / cm^3
# Si number density = 17.418663 Si / 1000 Ang^3
#
#
#
# Elastic Constant Matrix: (Units=GPa)
#
#
# Indices 1 2 3 4 5 6 
#
# 1 116.9274 37.1666 65.8012 0.0000 -4.1940 0.0000
# 2 37.1666 49.6561 34.6194 0.0000 -2.8373 0.0000
# 3 65.8012 34.6194 158.4528 0.0000 -14.8270 0.0000
# 4 0.0000 0.0000 0.0000 14.0793 0.0000 3.8793
# 5 -4.1940 -2.8373 -14.8270 0.0000 27.7313 0.0000
# 6 0.0000 0.0000 0.0000 3.8793 0.0000 27.4930
#
#
#
# Elastic Compliance Matrix: (Units=1/GPa)
#
#
# Indices 1 2 3 4 5 6 
#
# 1 0.012962 -0.007010 -0.003932 0.000000 -0.000859 0.000000
# 2 -0.007010 0.027552 -0.003099 0.000000 0.000102 0.000000
# 3 -0.003932 -0.003099 0.008985 0.000000 0.003892 0.000000
# 4 0.000000 0.000000 0.000000 0.073899 0.000000 -0.010427
# 5 -0.000859 0.000102 0.003892 0.000000 0.038022 0.000000
# 6 0.000000 0.000000 0.000000 -0.010427 0.000000 0.037844
#
#
# Mechanical properties :
#
#
# Convention : Reuss Voigt Hill
#
# Bulk Modulus (GPa) = 46.69039 66.69009 56.69024
# Shear Modulus (GPa) = 21.32329 26.35732 23.84030
#
# Velocity S-wave (km/s) = 3.50260 3.89416 3.70356
# Velocity P-wave (km/s) = 6.57424 7.65435 7.13476
#
# Compressibility (1/GPa) = 0.02141768
#
# Stress axis : x y z
#
# Youngs Moduli (GPa) = 77.14695 36.29528 111.29579
#
# Poissons Ratio (x) = 0.25443 0.43758
# Poissons Ratio (y) = 0.54080 0.34491
# Poissons Ratio (z) = 0.30332 0.11248
#
# Static dielectric constant tensor:
#      x y z
#    x 1.572180 0.000000 -0.010840 
#    y 0.000000 1.574470 0.000000 
#    z -0.010840 0.000000 1.612460 
# 
# From -- ./inp_files/53865.got.cif
#   From: 2010.05.17/outbox.cif.g08.bks.cpg/sg13_27_cif.got.tgz:53865.got - 2010.06.03 16:44:36.
