data_PCOD9226847
_publ_section_title
;
Structure prediction by ZEFSAII (Michael W. Deem and Ramdas Pophale) SiO2 
 PCOD9226847
Probable space group: P 2/C
;
_chemical_formula_sum "Si O2"
_cell_formula_units_Z 32
_cell_length_a 28.012921
_cell_length_b 9.203988
_cell_length_c 21.108679
_cell_angle_alpha 90.000000
_cell_angle_beta 164.970184
_cell_angle_gamma 90.000000
_cell_volume 1411.348605
_symmetry_space_group_name_H-M "P 2/C"
_symmetry_group_IT_number 13
_symmetry_cell_setting 'monoclinic'
loop_
_space_group_symop_operation_xyz
x,y,z
-x,y,1/2-z
-x,-y,-z
x,-y,1/2+z
loop_
_atom_site_type_symbol
_atom_site_label
_atom_site_fract_x
_atom_site_fract_y
_atom_site_fract_z
Si Si1 0.965481 0.251770 0.131365
Si Si2 0.882119 0.757336 0.336728
Si Si3 0.902442 0.765412 0.192849
Si Si4 0.700346 0.255339 0.088004
Si Si5 0.711289 0.177966 0.240133
Si Si6 0.222752 0.010939 0.393816
Si Si7 0.176694 0.497641 0.834679
Si Si8 0.359172 0.837276 0.361024
O O1 0.000000 0.262210 0.250000
O O2 0.024639 0.397647 0.170851
O O3 0.756372 0.213423 0.848150
O O4 0.087581 0.124004 0.256239
O O5 0.849900 0.900840 0.253565
O O6 0.880505 0.609723 0.295009
O O7 0.723160 0.755054 0.184884
O O8 0.079442 0.768292 0.621926
O O9 0.085701 0.782688 0.473714
O O10 0.000000 0.770637 0.250000
O O11 0.756817 0.893371 0.023097
O O12 0.792789 0.618102 0.069696
O O13 0.648175 0.262226 0.095193
O O14 0.680104 0.394385 0.016604
O O15 0.640998 0.112458 0.973057
O O16 0.690041 0.007765 0.194445
O O17 0.569529 0.193893 0.116019
#
# Coordination Sequence:
#
# PCOD9226847 Si02
#       8
#     4   4   4   4   4   4   4   4
#     4  11  21  36  56  84 116 149 187 227 275 335
#     4  11  17  33  57  83 109 141 191 235 268 321
#     4  11  21  36  56  84 116 149 187 227 275 335
#     4  11  17  33  57  83 109 141 191 235 268 321
#     4  11  22  35  57  90 117 140 178 241 291 321
#     4  10  18  30  58  83 100 145 196 230 263 316
#     4  10  22  32  58  85 110 145 198 232 265 316
#     4  11  22  35  57  90 117 140 178 241 291 321
#
# _framework density 22.673349000000002
#
# number of rings (size 3 to 8) (size 9 to 14) (size 15 to 20)
#    0.000    1.250    7.500    1.500    0.000    0.000 
#    0.000    2.500    0.000    9.000    0.000    0.000 
#    0.000    0.000    0.000    0.000    0.000    0.000 
#
# Total GULP energy -178232.903613 kJ/mol
# GULP energy per Si atom -5569.778238 kJ/mol
# Density = 2.262174 g / cm^3
# Si number density = 22.673349 Si / 1000 Ang^3
#
#
#
# Elastic Constant Matrix: (Units=GPa)
#
#
# Indices 1 2 3 4 5 6 
#
# 1 155.1122 25.4188 15.7877 0.0000 -3.4787 0.0000
# 2 25.4188 117.0108 5.2250 0.0000 -6.3504 0.0000
# 3 15.7877 5.2250 29.8839 0.0000 -7.3340 0.0000
# 4 0.0000 0.0000 0.0000 -6.1982 0.0000 0.8019
# 5 -3.4787 -6.3504 -7.3340 0.0000 23.7970 0.0000
# 6 0.0000 0.0000 0.0000 0.8019 0.0000 25.7772
#
#
#
# Elastic Compliance Matrix: (Units=1/GPa)
#
#
# Indices 1 2 3 4 5 6 
#
# 1 0.007029 -0.001391 -0.003580 0.000000 -0.000447 0.000000
# 2 -0.001391 0.008976 -0.000321 0.000000 0.002093 0.000000
# 3 -0.003580 -0.000321 0.038146 0.000000 0.011147 0.000000
# 4 0.000000 0.000000 0.000000 -0.160690 0.000000 0.004999
# 5 -0.000447 0.002093 0.011147 0.000000 0.045951 0.000000
# 6 0.000000 0.000000 0.000000 0.004999 0.000000 0.038639
#
#
# Mechanical properties :
#
#
# Convention : Reuss Voigt Hill
#
# Bulk Modulus (GPa) = 22.95292 43.87445 33.41369
# Shear Modulus (GPa) = 1583.32692 25.71355 804.52023
#
# Velocity S-wave (km/s) = 26.45443 3.37127 18.85739
# Velocity P-wave (km/s) = 30.71255 5.87764 22.11117
#
# Compressibility (1/GPa) = 0.04356744
#
# Stress axis : x y z
#
# Youngs Moduli (GPa) = 142.26124 111.40320 26.21509
#
# Poissons Ratio (x) = 0.15501 0.09385
# Poissons Ratio (y) = 0.19794 0.00841
# Poissons Ratio (z) = 0.50930 0.03572
#
# Static dielectric constant tensor:
#      x y z
#    x 1.913140 0.000000 -0.021780 
#    y 0.000000 1.880440 0.000000 
#    z -0.021780 0.000000 1.862950 
# 
# From -- ./inp_files/82554.got.cif
#   From: 2010.05.17/outbox.cif.g08.bks.cpg/sg13_42_cif.got.tgz:82554.got - 2010.06.03 16:44:36.
