data_PCOD9226083
_publ_section_title
;
Structure prediction by ZEFSAII (Michael W. Deem and Ramdas Pophale) SiO2 
 PCOD9226083
Probable space group: P 2/C
;
_chemical_formula_sum "Si O2"
_cell_formula_units_Z 26
_cell_length_a 30.092322
_cell_length_b 6.851050
_cell_length_c 5.333891
_cell_angle_alpha 90.000000
_cell_angle_beta 90.083404
_cell_angle_gamma 90.000000
_cell_volume 1099.655153
_symmetry_space_group_name_H-M "P 2/C"
_symmetry_group_IT_number 13
_symmetry_cell_setting 'monoclinic'
loop_
_space_group_symop_operation_xyz
x,y,z
-x,y,1/2-z
-x,-y,-z
x,-y,1/2+z
loop_
_atom_site_type_symbol
_atom_site_label
_atom_site_fract_x
_atom_site_fract_y
_atom_site_fract_z
Si Si1 0.819949 0.132867 0.248619
Si Si2 0.688046 0.208452 0.640178
Si Si3 0.723270 0.234962 0.139579
Si Si4 0.596946 0.633376 0.274212
Si Si5 0.950041 0.796847 0.345758
Si Si6 0.915265 0.760568 0.845855
Si Si7 0.500000 0.632858 0.250000
O O1 0.773689 0.246642 0.231448
O O2 0.864737 0.258610 0.257813
O O3 0.820579 0.003998 0.502050
O O4 0.691587 0.301435 0.364929
O O5 0.637875 0.219883 0.738096
O O6 0.708382 0.992845 0.605552
O O7 0.717338 0.308682 0.857289
O O8 0.599844 0.520423 0.540918
O O9 0.548228 0.733615 0.255378
O O10 0.947882 0.704053 0.620155
O O11 0.000000 0.822491 0.250000
O O12 0.926796 0.007591 0.380541
O O13 0.923372 0.687733 0.126628
O O14 0.500000 0.500000 0.500000
#
# Coordination Sequence:
#
# PCOD9226083 Si02
#       7
#     4   4   4   4   4   4   2
#     4  12  16  27  38  53  74  95 138 173 218 248
#     4  10  18  30  46  65  90 113 146 174 216 264
#     4  10  19  30  45  64  85 119 143 180 224 254
#     4  10  19  32  50  72  93 117 144 180 216 252
#     4  10  16  22  28  39  59  85 119 159 216 254
#     4  10  16  22  31  44  59  87 119 168 211 242
#     4   8  16  30  48  68  90 114 146 176 210 246
#
# _framework density 23.643774000000001
#
# number of rings (size 3 to 8) (size 9 to 14) (size 15 to 20)
#    0.000    1.846    6.154    3.231    0.000    0.000 
#    0.000    0.000    0.000    3.692    0.000    0.000 
#    0.000    0.000    0.000    0.000    0.000    0.000 
#
# Total GULP energy -145078.431176 kJ/mol
# GULP energy per Si atom -5579.939661 kJ/mol
# Density = 2.358996 g / cm^3
# Si number density = 23.643774 Si / 1000 Ang^3
#
#
#
# Elastic Constant Matrix: (Units=GPa)
#
#
# Indices 1 2 3 4 5 6 
#
# 1 149.0526 -18.8497 -17.3536 0.0000 12.5841 0.0000
# 2 -18.8497 62.1770 -26.2819 0.0000 2.1545 0.0000
# 3 -17.3536 -26.2819 183.0537 0.0000 -8.2007 0.0000
# 4 0.0000 0.0000 0.0000 -255.0293 0.0000 124.7188
# 5 12.5841 2.1545 -8.2007 0.0000 43.5343 0.0000
# 6 0.0000 0.0000 0.0000 124.7188 0.0000 -58.2176
#
#
#
# Elastic Compliance Matrix: (Units=1/GPa)
#
#
# Indices 1 2 3 4 5 6 
#
# 1 0.007343 0.002718 0.000994 0.000000 -0.002070 0.000000
# 2 0.002718 0.018135 0.002810 0.000000 -0.001154 0.000000
# 3 0.000994 0.002810 0.005992 0.000000 0.000702 0.000000
# 4 0.000000 0.000000 0.000000 0.082277 0.000000 0.176261
# 5 -0.002070 -0.001154 0.000702 0.000000 0.023758 0.000000
# 6 0.000000 0.000000 0.000000 0.176261 0.000000 0.360424
#
#
# Mechanical properties :
#
#
# Convention : Reuss Voigt Hill
#
# Bulk Modulus (GPa) = 22.46572 29.92363 26.19468
# Shear Modulus (GPa) = 10.00552 -23.49128 -6.74288
#
# Velocity S-wave (km/s) = 2.05936 -3.15548 -1.69058
# Velocity P-wave (km/s) = 3.89577 0.76980 2.70041
#
# Compressibility (1/GPa) = 0.04451226
#
# Stress axis : x y z
#
# Youngs Moduli (GPa) = 136.18029 55.14288 166.89084
#
# Poissons Ratio (x) = -0.14987 -0.16583
# Poissons Ratio (y) = -0.37013 -0.46891
# Poissons Ratio (z) = -0.13531 -0.15493
#
# Static dielectric constant tensor:
#      x y z
#    x 1.894950 0.000000 0.000500 
#    y 0.000000 0.714840 0.000000 
#    z 0.000500 0.000000 1.987340 
# 
# From -- ./inp_files/8011.got.cif
#   From: 2010.05.17/outbox.cif.g08.bks.cpg/sg13_5_cif.got.tgz:8011.got - 2010.06.03 16:44:36.
