data_PCOD9226194
_publ_section_title
;
Structure prediction by ZEFSAII (Michael W. Deem and Ramdas Pophale) SiO2 
 PCOD9226194
Probable space group: P 2/C
;
_chemical_formula_sum "Si O2"
_cell_formula_units_Z 28
_cell_length_a 19.781356
_cell_length_b 13.366282
_cell_length_c 5.376255
_cell_angle_alpha 90.000000
_cell_angle_beta 81.297196
_cell_angle_gamma 90.000000
_cell_volume 1405.132481
_symmetry_space_group_name_H-M "P 2/C"
_symmetry_group_IT_number 13
_symmetry_cell_setting 'monoclinic'
loop_
_space_group_symop_operation_xyz
x,y,z
-x,y,1/2-z
-x,-y,-z
x,-y,1/2+z
loop_
_atom_site_type_symbol
_atom_site_label
_atom_site_fract_x
_atom_site_fract_y
_atom_site_fract_z
Si Si1 0.544880 0.725648 0.972452
Si Si2 0.882206 0.783665 0.769605
Si Si3 0.577690 0.957605 0.951891
Si Si4 0.073910 0.113314 0.760345
Si Si5 0.793851 0.966362 0.814406
Si Si6 0.663204 0.563849 0.933868
Si Si7 0.824243 0.564750 0.834702
O O1 0.500000 0.704448 0.750000
O O2 0.571426 0.839150 0.938906
O O3 0.609759 0.653393 0.949066
O O4 0.500000 0.716230 0.250000
O O5 0.911655 0.814891 0.484174
O O6 0.812825 0.850488 0.824500
O O7 0.867153 0.666881 0.800370
O O8 0.924390 0.824843 0.983365
O O9 0.609315 0.006388 0.691034
O O10 0.500000 0.000000 0.000000
O O11 0.000000 0.066248 0.750000
O O12 0.134249 0.031023 0.738272
O O13 0.758979 0.992115 0.577169
O O14 0.651884 0.494064 0.699312
O O15 0.743439 0.592763 0.880786
O O16 0.837060 0.497892 0.580772
#
# Coordination Sequence:
#
# PCOD9226194 Si02
#       7
#     4   4   4   4   4   4   4
#     4  12  21  32  56  83 109 146 172 210 270 328
#     4  10  19  32  54  78 100 140 181 218 252 307
#     4  10  16  30  48  73 102 142 178 206 226 298
#     4  10  19  31  51  84 116 140 166 203 264 330
#     4   8  16  27  44  74 106 137 161 202 252 308
#     4  10  23  40  55  79 108 135 174 230 275 316
#     4  10  21  40  62  75  95 137 191 231 262 309
#
# _framework density 19.926949
#
# number of rings (size 3 to 8) (size 9 to 14) (size 15 to 20)
#    0.000    2.000    2.857    2.143    0.000    6.857 
#    0.000    0.000    0.000   13.714    0.000    0.000 
#    0.000    0.000    0.000    0.000    0.000    0.000 
#
# Total GULP energy -156263.690648 kJ/mol
# GULP energy per Si atom -5580.846095 kJ/mol
# Density = 1.988159 g / cm^3
# Si number density = 19.926949 Si / 1000 Ang^3
#
#
#
# Elastic Constant Matrix: (Units=GPa)
#
#
# Indices 1 2 3 4 5 6 
#
# 1 27.6449 22.5415 25.0743 0.0000 -23.9554 0.0000
# 2 22.5415 84.5723 4.4488 0.0000 3.8544 0.0000
# 3 25.0743 4.4488 111.4815 0.0000 57.0250 0.0000
# 4 0.0000 0.0000 0.0000 25.7011 0.0000 -3.2655
# 5 -23.9554 3.8544 57.0250 0.0000 -0.9683 0.0000
# 6 0.0000 0.0000 0.0000 -3.2655 0.0000 43.2858
#
#
#
# Elastic Compliance Matrix: (Units=1/GPa)
#
#
# Indices 1 2 3 4 5 6 
#
# 1 0.016041 -0.003724 0.006655 0.000000 -0.019772 0.000000
# 2 -0.003724 0.012702 -0.002335 0.000000 0.005211 0.000000
# 3 0.006655 -0.002335 0.003102 0.000000 0.008729 0.000000
# 4 0.000000 0.000000 0.000000 0.039285 0.000000 0.002964
# 5 -0.019772 0.005211 0.008729 0.000000 -0.008777 0.000000
# 6 0.000000 0.000000 0.000000 0.002964 0.000000 0.023326
#
#
# Mechanical properties :
#
#
# Convention : Reuss Voigt Hill
#
# Bulk Modulus (GPa) = 30.27042 36.42534 33.34788
# Shear Modulus (GPa) = 52.35643 25.04599 38.70121
#
# Velocity S-wave (km/s) = 5.13140 3.54911 4.41177
# Velocity P-wave (km/s) = 7.09450 5.92571 6.53628
#
# Compressibility (1/GPa) = 0.03303555
#
# Stress axis : x y z
#
# Youngs Moduli (GPa) = 62.34090 78.72646 322.42426
#
# Poissons Ratio (x) = 0.29321 -2.14558
# Poissons Ratio (y) = 0.23218 0.75275
# Poissons Ratio (z) = -0.41485 0.18380
#
# Static dielectric constant tensor:
#      x y z
#    x 1.701110 0.000000 0.011430 
#    y 0.000000 1.277020 0.000000 
#    z 0.011430 0.000000 1.765940 
# 
# From -- ./inp_files/6861.got.cif
#   From: 2010.05.17/outbox.cif.g08.bks.cpg/sg13_4_cif.got.tgz:6861.got - 2010.06.03 16:44:36.
