data_PCOD9226038
_publ_section_title
;
Structure prediction by ZEFSAII (Michael W. Deem and Ramdas Pophale) SiO2 
 PCOD9226038
Probable space group: P 2/C
;
_chemical_formula_sum "Si O2"
_cell_formula_units_Z 24
_cell_length_a 16.926613
_cell_length_b 8.234775
_cell_length_c 16.252872
_cell_angle_alpha 90.000000
_cell_angle_beta 33.633529
_cell_angle_gamma 90.000000
_cell_volume 1254.777484
_symmetry_space_group_name_H-M "P 2/C"
_symmetry_group_IT_number 13
_symmetry_cell_setting 'monoclinic'
loop_
_space_group_symop_operation_xyz
x,y,z
-x,y,1/2-z
-x,-y,-z
x,-y,1/2+z
loop_
_atom_site_type_symbol
_atom_site_label
_atom_site_fract_x
_atom_site_fract_y
_atom_site_fract_z
Si Si1 0.588006 0.434995 0.501705
Si Si2 0.249962 0.869285 0.589862
Si Si3 0.000000 0.647494 0.750000
Si Si4 0.117289 0.615461 0.247430
Si Si5 0.241999 0.834466 0.992819
Si Si6 0.020352 0.927151 0.394107
Si Si7 0.500000 0.402433 0.250000
O O1 0.500000 0.500000 0.500000
O O2 0.630833 0.244391 0.471717
O O3 0.738708 0.523250 0.359373
O O4 0.526539 0.493400 0.643810
O O5 0.142981 0.753005 0.630402
O O6 0.311050 0.012839 0.480469
O O7 0.138790 0.961244 0.746521
O O8 0.004346 0.523857 0.823086
O O9 0.073554 0.741957 0.353853
O O10 0.153635 0.728984 0.136698
O O11 0.362810 0.714065 0.854978
O O12 0.125926 0.908202 0.030905
O O13 0.000000 0.000000 0.500000
#
# Coordination Sequence:
#
# PCOD9226038 Si02
#       7
#     4   4   2   4   4   4   2
#     4  10  23  42  62  87 129 157 206 252 301 370
#     4  10  20  37  62  88 113 158 202 255 303 343
#     4  10  14  32  62  80 106 146 194 234 300 354
#     4   9  18  37  61  81 112 164 190 243 310 348
#     4  10  19  40  61  82 122 152 211 238 293 376
#     4  11  21  36  59  93 119 151 202 256 300 357
#     4  10  24  42  64  88 116 184 194 238 316 368
#
# _framework density 19.126895999999999
#
# number of rings (size 3 to 8) (size 9 to 14) (size 15 to 20)
#    0.000    2.000    3.333    1.000    2.333    0.667 
#    6.000    5.833    0.000    0.000    0.000    0.000 
#    0.000    0.000    0.000    0.000    0.000    0.000 
#
# Total GULP energy -133700.758326 kJ/mol
# GULP energy per Si atom -5570.864930 kJ/mol
# Density = 1.908336 g / cm^3
# Si number density = 19.126896 Si / 1000 Ang^3
#
#
#
# Elastic Constant Matrix: (Units=GPa)
#
#
# Indices 1 2 3 4 5 6 
#
# 1 53.8112 8.1388 -2.8221 0.0000 -0.4220 0.0000
# 2 8.1388 90.0836 13.1618 0.0000 -1.3869 0.0000
# 3 -2.8221 13.1618 44.0388 0.0000 3.4130 0.0000
# 4 0.0000 0.0000 0.0000 1.2107 0.0000 -1.1652
# 5 -0.4220 -1.3869 3.4130 0.0000 18.9058 0.0000
# 6 0.0000 0.0000 0.0000 -1.1652 0.0000 20.0542
#
#
#
# Elastic Compliance Matrix: (Units=1/GPa)
#
#
# Indices 1 2 3 4 5 6 
#
# 1 0.018978 -0.001980 0.001812 0.000000 -0.000049 0.000000
# 2 -0.001980 0.011856 -0.003787 0.000000 0.001509 0.000000
# 3 0.001812 -0.003787 0.024314 0.000000 -0.004627 0.000000
# 4 0.000000 0.000000 0.000000 0.874904 0.000000 0.050832
# 5 -0.000049 0.001509 -0.004627 0.000000 0.053839 0.000000
# 6 0.000000 0.000000 0.000000 0.050832 0.000000 0.052818
#
#
# Mechanical properties :
#
#
# Convention : Reuss Voigt Hill
#
# Bulk Modulus (GPa) = 21.17012 24.98783 23.07897
# Shear Modulus (GPa) = 4.71535 19.33114 12.02325
#
# Velocity S-wave (km/s) = 1.57183 3.18257 2.50992
# Velocity P-wave (km/s) = 3.79295 5.15728 4.52681
#
# Compressibility (1/GPa) = 0.04723640
#
# Stress axis : x y z
#
# Youngs Moduli (GPa) = 52.69367 84.34345 41.12883
#
# Poissons Ratio (x) = 0.16700 -0.07451
# Poissons Ratio (y) = 0.10434 0.15577
# Poissons Ratio (z) = -0.09546 0.31944
#
# Static dielectric constant tensor:
#      x y z
#    x 1.687260 0.000000 -0.009080 
#    y 0.000000 1.712830 0.000000 
#    z -0.009080 0.000000 1.692000 
# 
# From -- ./inp_files/52954.got.cif
#   From: 2010.05.17/outbox.cif.g08.bks.cpg/sg13_27_cif.got.tgz:52954.got - 2010.06.03 16:44:36.
