data_PCOD9226260
_publ_section_title
;
Structure prediction by ZEFSAII (Michael W. Deem and Ramdas Pophale) SiO2 
 PCOD9226260
Probable space group: P 2/C
;
_chemical_formula_sum "Si O2"
_cell_formula_units_Z 30
_cell_length_a 11.846156
_cell_length_b 11.643366
_cell_length_c 8.651696
_cell_angle_alpha 90.000000
_cell_angle_beta 74.951083
_cell_angle_gamma 90.000000
_cell_volume 1152.395370
_symmetry_space_group_name_H-M "P 2/C"
_symmetry_group_IT_number 13
_symmetry_cell_setting 'monoclinic'
loop_
_space_group_symop_operation_xyz
x,y,z
-x,y,1/2-z
-x,-y,-z
x,-y,1/2+z
loop_
_atom_site_type_symbol
_atom_site_label
_atom_site_fract_x
_atom_site_fract_y
_atom_site_fract_z
Si Si1 0.623250 0.589749 0.681893
Si Si2 0.800037 0.166997 0.842351
Si Si3 0.764137 0.957884 0.678546
Si Si4 0.298686 0.244040 0.062558
Si Si5 0.932421 0.653409 0.907048
Si Si6 0.500000 0.048268 0.250000
Si Si7 0.864478 0.411770 0.929692
Si Si8 0.460213 0.776642 0.034729
O O1 0.500000 0.518937 0.750000
O O2 0.665058 0.663583 0.815717
O O3 0.747139 0.552521 0.566960
O O4 0.576544 0.673612 0.564456
O O5 0.846021 0.297121 0.836130
O O6 0.838150 0.067429 0.709918
O O7 0.809057 0.111734 0.012867
O O8 0.662391 0.182670 0.860717
O O9 0.745685 0.868039 0.826764
O O10 0.630943 0.999593 0.686188
O O11 0.186927 0.284716 0.006702
O O12 0.418730 0.244264 0.921369
O O13 0.892268 0.532959 0.842737
O O14 0.000000 0.722759 0.750000
O O15 0.025639 0.623801 0.003827
O O16 0.495139 0.125314 0.098969
#
# Coordination Sequence:
#
# PCOD9226260 Si02
#       8
#     4   4   4   4   4   2   4   4
#     4   9  13  29  54  79 112 145 184 240 293 360
#     4  10  19  36  57  89 123 161 200 246 304 372
#     4  10  18  31  57  86 120 159 198 242 297 359
#     4  10  16  31  55  85 111 151 198 243 291 364
#     4  11  21  36  62  84 108 153 210 258 296 366
#     4   8  12  24  44  78 106 150 188 222 270 340
#     4  10  21  38  58  85 115 155 205 253 309 358
#     4   8  13  26  49  80 115 145 186 234 287 349
#
# _framework density 26.032730999999998
#
# number of rings (size 3 to 8) (size 9 to 14) (size 15 to 20)
#    0.000    2.400    7.333    0.000    0.000    4.800 
#    0.000    9.333    0.000    0.800    5.200    0.000 
#    0.000    0.000    0.000    0.000    0.000    0.000 
#
# Total GULP energy -167206.652761 kJ/mol
# GULP energy per Si atom -5573.555092 kJ/mol
# Density = 2.597348 g / cm^3
# Si number density = 26.032731 Si / 1000 Ang^3
#
#
#
# Elastic Constant Matrix: (Units=GPa)
#
#
# Indices 1 2 3 4 5 6 
#
# 1 122.3193 32.1511 24.6690 0.0000 -19.9053 0.0000
# 2 32.1511 66.2235 25.9448 0.0000 1.1380 0.0000
# 3 24.6690 25.9448 51.1480 0.0000 -8.2918 0.0000
# 4 0.0000 0.0000 0.0000 -83.4187 0.0000 4.3724
# 5 -19.9053 1.1380 -8.2918 0.0000 24.8273 0.0000
# 6 0.0000 0.0000 0.0000 4.3724 0.0000 3.0773
#
#
#
# Elastic Compliance Matrix: (Units=1/GPa)
#
#
# Indices 1 2 3 4 5 6 
#
# 1 0.011209 -0.005028 -0.001439 0.000000 0.008737 0.000000
# 2 -0.005028 0.021543 -0.009850 0.000000 -0.008308 0.000000
# 3 -0.001439 -0.009850 0.026566 0.000000 0.008170 0.000000
# 4 0.000000 0.000000 0.000000 -0.011157 0.000000 0.015852
# 5 0.008737 -0.008308 0.008170 0.000000 0.050392 0.000000
# 6 0.000000 0.000000 0.000000 0.015852 0.000000 0.302434
#
#
# Mechanical properties :
#
#
# Convention : Reuss Voigt Hill
#
# Bulk Modulus (GPa) = 37.47556 45.02448 41.25002
# Shear Modulus (GPa) = 11.29903 -0.64110 5.32897
#
# Velocity S-wave (km/s) = 2.08560 -0.49679 1.43230
# Velocity P-wave (km/s) = 4.49738 4.12357 4.31453
#
# Compressibility (1/GPa) = 0.02668406
#
# Stress axis : x y z
#
# Youngs Moduli (GPa) = 89.21456 46.41863 37.64221
#
# Poissons Ratio (x) = 0.23340 0.05418
# Poissons Ratio (y) = 0.44858 0.37076
# Poissons Ratio (z) = 0.12841 0.45720
#
# Static dielectric constant tensor:
#      x y z
#    x 2.074450 0.000000 -0.038070 
#    y 0.000000 2.093150 0.000000 
#    z -0.038070 0.000000 2.069550 
# 
# From -- ./inp_files/33806.got.cif
#   From: 2010.05.17/outbox.cif.g08.bks.cpg/sg13_17_cif.got.tgz:33806.got - 2010.06.03 16:44:36.
