data_PCOD9226813
_publ_section_title
;
Structure prediction by ZEFSAII (Michael W. Deem and Ramdas Pophale) SiO2 
 PCOD9226813
Probable space group: P 2/C
;
_chemical_formula_sum "Si O2"
_cell_formula_units_Z 30
_cell_length_a 13.866227
_cell_length_b 7.647196
_cell_length_c 18.819051
_cell_angle_alpha 90.000000
_cell_angle_beta 43.265266
_cell_angle_gamma 90.000000
_cell_volume 1367.690387
_symmetry_space_group_name_H-M "P 2/C"
_symmetry_group_IT_number 13
_symmetry_cell_setting 'monoclinic'
loop_
_space_group_symop_operation_xyz
x,y,z
-x,y,1/2-z
-x,-y,-z
x,-y,1/2+z
loop_
_atom_site_type_symbol
_atom_site_label
_atom_site_fract_x
_atom_site_fract_y
_atom_site_fract_z
Si Si1 0.545659 0.289475 0.443304
Si Si2 0.846276 0.837064 0.329927
Si Si3 0.712830 0.303606 0.686984
Si Si4 0.307991 0.677343 0.973230
Si Si5 0.921953 0.417288 0.471707
Si Si6 0.500000 0.400875 0.250000
Si Si7 0.596493 0.916930 0.360983
Si Si8 0.167715 0.488890 0.245156
O O1 0.416528 0.395342 0.476005
O O2 0.500895 0.226143 0.546082
O O3 0.696633 0.374686 0.348471
O O4 0.537885 0.108283 0.403565
O O5 0.773167 0.835126 0.445662
O O6 0.740508 0.919040 0.330159
O O7 0.861147 0.630299 0.301011
O O8 0.000000 0.916696 0.250000
O O9 0.818161 0.275823 0.564552
O O10 0.608294 0.463952 0.727658
O O11 0.628735 0.140583 0.763871
O O12 0.796769 0.378350 0.709553
O O13 0.187215 0.548966 0.008143
O O14 0.408469 0.710420 0.852930
O O15 0.000000 0.500000 0.500000
O O16 0.039137 0.378454 0.348537
#
# Coordination Sequence:
#
# PCOD9226813 Si02
#       8
#     4   4   4   4   4   2   4   4
#     4  10  20  36  56  82 112 147 188 233 283 335
#     4  10  19  33  57  83 108 144 188 234 287 336
#     4   9  18  32  53  76 109 145 180 227 277 329
#     4  10  19  32  54  83 112 138 188 234 279 330
#     4   9  18  32  52  83 112 140 178 232 279 323
#     4  10  18  30  52  82 106 142 178 238 278 312
#     4   9  21  36  54  79 115 152 185 226 287 341
#     4  10  18  32  56  83 104 141 187 240 275 327
#
# _framework density 21.934788999999999
#
# number of rings (size 3 to 8) (size 9 to 14) (size 15 to 20)
#    0.000    2.400    2.667    0.000    1.867    1.600 
#    0.000    2.000    0.000    1.600    0.000    0.000 
#    0.000    0.000    0.000    0.000    0.000    0.000 
#
# Total GULP energy -167069.143087 kJ/mol
# GULP energy per Si atom -5568.971436 kJ/mol
# Density = 2.188486 g / cm^3
# Si number density = 21.934789 Si / 1000 Ang^3
#
#
#
# Elastic Constant Matrix: (Units=GPa)
#
#
# Indices 1 2 3 4 5 6 
#
# 1 57.1903 13.4084 36.1302 0.0000 -11.6578 0.0000
# 2 13.4084 44.4445 18.8728 0.0000 -0.5334 0.0000
# 3 36.1302 18.8728 173.8012 0.0000 -15.2799 0.0000
# 4 0.0000 0.0000 0.0000 23.3182 0.0000 1.6143
# 5 -11.6578 -0.5334 -15.2799 0.0000 32.7763 0.0000
# 6 0.0000 0.0000 0.0000 1.6143 0.0000 15.1842
#
#
#
# Elastic Compliance Matrix: (Units=1/GPa)
#
#
# Indices 1 2 3 4 5 6 
#
# 1 0.022159 -0.005121 -0.003509 0.000000 0.006162 0.000000
# 2 -0.005121 0.024794 -0.001827 0.000000 -0.002270 0.000000
# 3 -0.003509 -0.001827 0.006850 0.000000 0.001916 0.000000
# 4 0.000000 0.000000 0.000000 0.043203 0.000000 -0.004593
# 5 0.006162 -0.002270 0.001916 0.000000 0.033558 0.000000
# 6 0.000000 0.000000 0.000000 -0.004593 0.000000 0.066346
#
#
# Mechanical properties :
#
#
# Convention : Reuss Voigt Hill
#
# Bulk Modulus (GPa) = 30.40591 45.80653 38.10622
# Shear Modulus (GPa) = 21.85446 28.05739 24.95592
#
# Velocity S-wave (km/s) = 3.15991 3.58037 3.37669
# Velocity P-wave (km/s) = 5.21588 6.16607 5.71077
#
# Compressibility (1/GPa) = 0.03288834
#
# Stress axis : x y z
#
# Youngs Moduli (GPa) = 45.12865 40.33288 145.98742
#
# Poissons Ratio (x) = 0.20655 0.51221
# Poissons Ratio (y) = 0.23111 0.26676
# Poissons Ratio (z) = 0.15834 0.07370
#
# Static dielectric constant tensor:
#      x y z
#    x 2.325840 0.000000 -0.119990 
#    y 0.000000 1.832630 0.000000 
#    z -0.119990 0.000000 1.917520 
# 
# From -- ./inp_files/79647.got.cif
#   From: 2010.05.17/outbox.cif.g08.bks.cpg/sg13_40_cif.got.tgz:79647.got - 2010.06.03 16:44:36.
