data_PCOD9226223
_publ_section_title
;
Structure prediction by ZEFSAII (Michael W. Deem and Ramdas Pophale) SiO2 
 PCOD9226223
Probable space group: P 2/C
;
_chemical_formula_sum "Si O2"
_cell_formula_units_Z 28
_cell_length_a 25.283185
_cell_length_b 13.241431
_cell_length_c 5.303595
_cell_angle_alpha 90.000000
_cell_angle_beta 101.399122
_cell_angle_gamma 90.000000
_cell_volume 1740.542494
_symmetry_space_group_name_H-M "P 2/C"
_symmetry_group_IT_number 13
_symmetry_cell_setting 'monoclinic'
loop_
_space_group_symop_operation_xyz
x,y,z
-x,y,1/2-z
-x,-y,-z
x,-y,1/2+z
loop_
_atom_site_type_symbol
_atom_site_label
_atom_site_fract_x
_atom_site_fract_y
_atom_site_fract_z
Si Si1 0.170506 0.729691 0.910712
Si Si2 0.798803 0.963798 0.509269
Si Si3 0.920854 0.049442 0.602817
Si Si4 0.734053 0.569022 0.471089
Si Si5 0.901367 0.278629 0.658068
Si Si6 0.384851 0.566654 0.074822
Si Si7 0.500000 0.570042 0.250000
Si Si8 0.000000 0.432379 0.750000
O O1 0.132738 0.712515 0.118020
O O2 0.189429 0.846162 0.943358
O O3 0.220377 0.653480 0.967017
O O4 0.136936 0.713789 0.622600
O O5 0.770188 0.987523 0.220873
O O6 0.856379 0.023581 0.535542
O O7 0.926727 0.166294 0.670960
O O8 0.942161 0.018702 0.350428
O O9 0.739122 0.508535 0.211794
O O10 0.673600 0.615347 0.436057
O O11 0.947467 0.361842 0.695924
O O12 0.385268 0.478213 0.290777
O O13 0.441550 0.623541 0.178570
O O14 0.500000 0.500000 0.500000
O O15 0.000000 0.500000 0.500000
#
# Coordination Sequence:
#
# PCOD9226223 Si02
#       8
#     4   4   4   4   4   4   2   2
#     4  12  21  33  59  78  95 127 159 184 236 294
#     4  10  16  30  51  77 103 118 140 183 233 282
#     4  10  16  32  56  80 102 113 137 185 236 283
#     4  10  21  33  43  68 102 128 162 202 228 259
#     4  12  23  39  61  76  93 125 161 185 235 292
#     4   8  14  25  39  56  87 120 155 200 231 262
#     4   8  12  20  38  58  74 116 164 188 232 276
#     4  12  30  50  58  72 100 128 158 202 228 254
#
# _framework density 16.086936999999999
#
# number of rings (size 3 to 8) (size 9 to 14) (size 15 to 20)
#    0.000    1.714    5.714    1.714    0.000    3.429 
#    0.000    0.714    0.000    0.000    0.000    0.000 
#    0.000    0.000    0.000    1.286    0.000    0.429 
#
# Total GULP energy -156026.651985 kJ/mol
# GULP energy per Si atom -5572.380428 kJ/mol
# Density = 1.605032 g / cm^3
# Si number density = 16.086937 Si / 1000 Ang^3
#
#
#
# Elastic Constant Matrix: (Units=GPa)
#
#
# Indices 1 2 3 4 5 6 
#
# 1 64.0449 34.2430 9.0001 0.0000 8.1347 0.0000
# 2 34.2430 68.0585 2.8437 0.0000 4.0371 0.0000
# 3 9.0001 2.8437 94.3277 0.0000 -14.5086 0.0000
# 4 0.0000 0.0000 0.0000 12.0860 0.0000 -6.0111
# 5 8.1347 4.0371 -14.5086 0.0000 19.0695 0.0000
# 6 0.0000 0.0000 0.0000 -6.0111 0.0000 -6.0149
#
#
#
# Elastic Compliance Matrix: (Units=1/GPa)
#
#
# Indices 1 2 3 4 5 6 
#
# 1 0.023255 -0.010949 -0.003463 0.000000 -0.010237 0.000000
# 2 -0.010949 0.020128 0.000567 0.000000 0.000841 0.000000
# 3 -0.003463 0.000567 0.012598 0.000000 0.010942 0.000000
# 4 0.000000 0.000000 0.000000 0.055269 0.000000 -0.055234
# 5 -0.010237 0.000841 0.010942 0.000000 0.064954 0.000000
# 6 0.000000 0.000000 0.000000 -0.055234 0.000000 -0.111055
#
#
# Mechanical properties :
#
#
# Convention : Reuss Voigt Hill
#
# Bulk Modulus (GPa) = 35.34641 35.40051 35.37346
# Shear Modulus (GPa) = 48.89059 17.05107 32.97083
#
# Velocity S-wave (km/s) = 5.51883 3.25919 4.53210
# Velocity P-wave (km/s) = 7.91390 6.01803 7.03016
#
# Compressibility (1/GPa) = 0.02829142
#
# Stress axis : x y z
#
# Youngs Moduli (GPa) = 43.00171 49.68123 79.37955
#
# Poissons Ratio (x) = 0.54394 0.27492
# Poissons Ratio (y) = 0.47080 -0.04502
# Poissons Ratio (z) = 0.14893 -0.02818
#
# Static dielectric constant tensor:
#      x y z
#    x 1.585320 0.000000 -0.010570 
#    y 0.000000 1.502870 0.000000 
#    z -0.010570 0.000000 1.623320 
# 
# From -- ./inp_files/7444.got.cif
#   From: 2010.05.17/outbox.cif.g08.bks.cpg/sg13_4_cif.got.tgz:7444.got - 2010.06.03 16:44:36.
