data_PCOD9226351
_publ_section_title
;
Structure prediction by ZEFSAII (Michael W. Deem and Ramdas Pophale) SiO2 
 PCOD9226351
Probable space group: P 2/C
;
_chemical_formula_sum "Si O2"
_cell_formula_units_Z 18
_cell_length_a 10.250651
_cell_length_b 5.169139
_cell_length_c 20.361892
_cell_angle_alpha 90.000000
_cell_angle_beta 141.717310
_cell_angle_gamma 90.000000
_cell_volume 668.433916
_symmetry_space_group_name_H-M "P 2/C"
_symmetry_group_IT_number 13
_symmetry_cell_setting 'monoclinic'
loop_
_space_group_symop_operation_xyz
x,y,z
-x,y,1/2-z
-x,-y,-z
x,-y,1/2+z
loop_
_atom_site_type_symbol
_atom_site_label
_atom_site_fract_x
_atom_site_fract_y
_atom_site_fract_z
Si Si1 0.850509 0.201395 0.978328
Si Si2 0.500000 0.101275 0.750000
Si Si3 0.193949 0.287208 0.205402
Si Si4 0.252177 0.604869 0.347464
Si Si5 0.772214 0.098973 0.086587
O O1 0.734783 0.062883 0.994309
O O2 0.018860 0.387171 0.082309
O O3 0.665169 0.273209 0.855940
O O4 0.000000 0.000000 0.000000
O O5 0.640090 0.906515 0.760911
O O6 0.298039 0.504315 0.292262
O O7 0.030945 0.121323 0.186722
O O8 0.302126 0.376566 0.418141
O O9 0.000000 0.617061 0.250000
O O10 0.315273 0.878666 0.401336
#
# Coordination Sequence:
#
# PCOD9226351 Si02
#       5
#     4   2   4   4   4
#     4   8  17  34  58  94 120 172 212 259 315 388
#     4  10  16  36  66  82 142 160 218 266 320 378
#     4   8  18  32  60  98 118 169 209 261 324 382
#     4  10  17  34  62  90 121 160 207 255 316 375
#     4   9  19  34  62  92 118 162 211 253 313 381
#
# _framework density 26.928615000000001
#
# number of rings (size 3 to 8) (size 9 to 14) (size 15 to 20)
#    1.333    1.778    0.000    2.000    0.000    0.000 
#    0.000    3.333    0.000   20.000    0.000    0.000 
#    0.000    0.000    0.000    0.000    0.000    0.000 
#
# Total GULP energy -100574.084716 kJ/mol
# GULP energy per Si atom -5587.449151 kJ/mol
# Density = 2.686732 g / cm^3
# Si number density = 26.928615 Si / 1000 Ang^3
#
#
#
# Elastic Constant Matrix: (Units=GPa)
#
#
# Indices 1 2 3 4 5 6 
#
# 1 153.5918 60.3875 68.2044 0.0000 5.6651 0.0000
# 2 60.3875 119.1742 44.3144 0.0000 -9.8200 0.0000
# 3 68.2044 44.3144 148.9941 0.0000 -22.8910 0.0000
# 4 0.0000 0.0000 0.0000 16.2925 0.0000 18.5158
# 5 5.6651 -9.8200 -22.8910 0.0000 44.2042 0.0000
# 6 0.0000 0.0000 0.0000 18.5158 0.0000 36.1598
#
#
#
# Elastic Compliance Matrix: (Units=1/GPa)
#
#
# Indices 1 2 3 4 5 6 
#
# 1 0.010016 -0.003911 -0.004077 0.000000 -0.004264 0.000000
# 2 -0.003911 0.010981 -0.001113 0.000000 0.002364 0.000000
# 3 -0.004077 -0.001113 0.009725 0.000000 0.005311 0.000000
# 4 0.000000 0.000000 0.000000 0.146813 0.000000 -0.075176
# 5 -0.004264 0.002364 0.005311 0.000000 0.026444 0.000000
# 6 0.000000 0.000000 0.000000 -0.075176 0.000000 0.066149
#
#
# Mechanical properties :
#
#
# Convention : Reuss Voigt Hill
#
# Bulk Modulus (GPa) = 79.86115 85.28585 82.57350
# Shear Modulus (GPa) = 17.09386 35.92156 26.50771
#
# Velocity S-wave (km/s) = 2.52223 3.65630 3.14087
# Velocity P-wave (km/s) = 6.18087 7.04021 6.62449
#
# Compressibility (1/GPa) = 0.01252173
#
# Stress axis : x y z
#
# Youngs Moduli (GPa) = 99.84089 91.06462 102.82904
#
# Poissons Ratio (x) = 0.35612 0.41922
# Poissons Ratio (y) = 0.39044 0.11441
# Poissons Ratio (z) = 0.40704 0.10133
#
# Static dielectric constant tensor:
#      x y z
#    x 2.101940 0.000000 -0.049950 
#    y 0.000000 2.231450 0.000000 
#    z -0.049950 0.000000 2.380480 
# 
# From -- ./inp_files/77062.got.cif
#   From: 2010.05.17/outbox.cif.g08.bks.cpg/sg13_39_cif.got.tgz:77062.got - 2010.06.03 16:44:36.
