data_PCOD9226917
_publ_section_title
;
Structure prediction by ZEFSAII (Michael W. Deem and Ramdas Pophale) SiO2 
 PCOD9226917
Probable space group: P 2/C
;
_chemical_formula_sum "Si O2"
_cell_formula_units_Z 30
_cell_length_a 24.649142
_cell_length_b 8.843875
_cell_length_c 14.919479
_cell_angle_alpha 90.000000
_cell_angle_beta 31.862992
_cell_angle_gamma 90.000000
_cell_volume 1716.885699
_symmetry_space_group_name_H-M "P 2/C"
_symmetry_group_IT_number 13
_symmetry_cell_setting 'monoclinic'
loop_
_space_group_symop_operation_xyz
x,y,z
-x,y,1/2-z
-x,-y,-z
x,-y,1/2+z
loop_
_atom_site_type_symbol
_atom_site_label
_atom_site_fract_x
_atom_site_fract_y
_atom_site_fract_z
Si Si1 0.587644 0.179699 0.055908
Si Si2 0.437452 0.177329 0.927319
Si Si3 0.000000 0.499870 0.250000
Si Si4 0.226459 0.497636 0.940763
Si Si5 0.770667 0.643775 0.756990
Si Si6 0.564946 0.345792 0.898595
Si Si7 0.781615 0.336284 0.857682
Si Si8 0.994108 0.653338 0.449988
O O1 0.500000 0.224845 0.250000
O O2 0.575923 0.002742 0.051902
O O3 0.577641 0.272689 0.978336
O O4 0.695612 0.218406 0.950511
O O5 0.500000 0.217973 0.750000
O O6 0.501943 0.237083 0.921263
O O7 0.327109 0.257858 0.080945
O O8 0.887807 0.421137 0.402162
O O9 0.995752 0.601643 0.344501
O O10 0.233985 0.602181 0.841739
O O11 0.322975 0.385757 0.799007
O O12 0.231727 0.598406 0.023094
O O13 0.769323 0.483607 0.811126
O O14 0.881068 0.719901 0.624575
O O15 0.500000 0.500000 0.000000
O O16 0.896735 0.269431 0.685227
O O17 0.000000 0.500000 0.500000
#
# Coordination Sequence:
#
# PCOD9226917 Si02
#       8
#     4   4   2   4   4   4   4   4
#     4  11  24  38  53  78 112 148 182 219 269 325
#     4  11  24  39  53  76 114 148 179 219 273 323
#     4   8  16  28  46  82 114 134 164 226 280 318
#     4  10  18  31  56  85 109 138 181 227 276 315
#     4  10  18  35  55  82 109 139 182 227 271 316
#     4  12  21  36  59  85 107 138 184 229 269 317
#     4  10  18  34  56  82 111 140 182 224 266 322
#     4   8  16  28  52  80 107 136 173 225 270 312
#
# _framework density 17.473499
#
# number of rings (size 3 to 8) (size 9 to 14) (size 15 to 20)
#    0.000    1.867    2.667    2.000    0.000    1.067 
#    0.000    0.667    0.000    0.000    0.000    0.000 
#    0.000    0.000    0.000    0.000    0.000    0.000 
#
# Total GULP energy -167204.320183 kJ/mol
# GULP energy per Si atom -5573.477339 kJ/mol
# Density = 1.743373 g / cm^3
# Si number density = 17.473499 Si / 1000 Ang^3
#
#
#
# Elastic Constant Matrix: (Units=GPa)
#
#
# Indices 1 2 3 4 5 6 
#
# 1 121.7947 37.2622 62.5709 0.0000 -9.6039 0.0000
# 2 37.2622 38.2961 43.1912 0.0000 -8.1958 0.0000
# 3 62.5709 43.1912 157.9764 0.0000 -37.4974 0.0000
# 4 0.0000 0.0000 0.0000 0.9827 0.0000 8.9376
# 5 -9.6039 -8.1958 -37.4974 0.0000 46.9398 0.0000
# 6 0.0000 0.0000 0.0000 8.9376 0.0000 19.0604
#
#
#
# Elastic Compliance Matrix: (Units=1/GPa)
#
#
# Indices 1 2 3 4 5 6 
#
# 1 0.012298 -0.009265 -0.002622 0.000000 -0.001196 0.000000
# 2 -0.009265 0.044893 -0.008877 0.000000 -0.001148 0.000000
# 3 -0.002622 -0.008877 0.011476 0.000000 0.007081 0.000000
# 4 0.000000 0.000000 0.000000 -0.311695 0.000000 0.146157
# 5 -0.001196 -0.001148 0.007081 0.000000 0.026516 0.000000
# 6 0.000000 0.000000 0.000000 0.146157 0.000000 -0.016069
#
#
# Mechanical properties :
#
#
# Convention : Reuss Voigt Hill
#
# Bulk Modulus (GPa) = 36.84586 67.12399 51.98492
# Shear Modulus (GPa) = -27.47107 25.06608 -1.20249
#
# Velocity S-wave (km/s) = -3.96934 3.79161 -0.83047
# Velocity P-wave (km/s) = 0.35341 7.59385 5.37548
#
# Compressibility (1/GPa) = 0.02714009
#
# Stress axis : x y z
#
# Youngs Moduli (GPa) = 81.31687 22.27532 87.13671
#
# Poissons Ratio (x) = 0.20638 0.22844
# Poissons Ratio (y) = 0.75338 0.77350
# Poissons Ratio (z) = 0.21318 0.19773
#
# Static dielectric constant tensor:
#      x y z
#    x 1.603970 0.000000 -0.027120 
#    y 0.000000 1.542790 0.000000 
#    z -0.027120 0.000000 1.643540 
# 
# From -- ./inp_files/58681.got.cif
#   From: 2010.05.17/outbox.cif.g08.bks.cpg/sg13_30_cif.got.tgz:58681.got - 2010.06.03 16:44:36.
