data_PCOD9226515
_publ_section_title
;
Structure prediction by ZEFSAII (Michael W. Deem and Ramdas Pophale) SiO2 
 PCOD9226515
Probable space group: P 2/C
;
_chemical_formula_sum "Si O2"
_cell_formula_units_Z 26
_cell_length_a 22.422532
_cell_length_b 5.604627
_cell_length_c 13.817831
_cell_angle_alpha 90.000000
_cell_angle_beta 37.746091
_cell_angle_gamma 90.000000
_cell_volume 1063.012955
_symmetry_space_group_name_H-M "P 2/C"
_symmetry_group_IT_number 13
_symmetry_cell_setting 'monoclinic'
loop_
_space_group_symop_operation_xyz
x,y,z
-x,y,1/2-z
-x,-y,-z
x,-y,1/2+z
loop_
_atom_site_type_symbol
_atom_site_label
_atom_site_fract_x
_atom_site_fract_y
_atom_site_fract_z
Si Si1 0.000000 0.656267 0.750000
Si Si2 0.820196 0.904809 0.057788
Si Si3 0.413645 0.327030 0.032142
Si Si4 0.057168 0.288697 0.524641
Si Si5 0.157200 0.833164 0.236969
Si Si6 0.218070 0.337167 0.157061
Si Si7 0.603445 0.176537 0.829023
O O1 0.098077 0.798136 0.615299
O O2 0.009530 0.503531 0.642216
O O3 0.826881 0.833370 0.165058
O O4 0.715893 0.818912 0.157505
O O5 0.859123 0.175386 0.014485
O O6 0.319915 0.327642 0.084421
O O7 0.412919 0.598624 0.075736
O O8 0.403801 0.096749 0.119200
O O9 0.521408 0.250491 0.855705
O O10 0.120562 0.349593 0.350599
O O11 0.959050 0.140311 0.630534
O O12 0.206828 0.599504 0.126033
O O13 0.209477 0.068144 0.130910
#
# Coordination Sequence:
#
# PCOD9226515 Si02
#       7
#     2   4   4   4   4   4   4
#     4  12  24  36  56  72 122 150 192 220 280 338
#     4  11  21  38  53  83 114 152 185 235 277 338
#     4  10  17  31  51  83 112 140 174 227 289 330
#     4  11  23  36  52  81 112 148 186 231 275 338
#     4  11  22  34  59  78 113 143 186 231 282 323
#     4  11  18  35  55  81 112 139 178 232 279 326
#     4  10  19  30  53  78 115 144 174 225 286 331
#
# _framework density 24.458780999999998
#
# number of rings (size 3 to 8) (size 9 to 14) (size 15 to 20)
#    0.000    1.231    6.154    2.769    2.154    0.000 
#    0.000    0.000    0.000    0.000    0.000    1.077 
#    0.000    0.000    0.000    0.000    0.000    0.000 
#
# Total GULP energy -144793.904388 kJ/mol
# GULP energy per Si atom -5568.996323 kJ/mol
# Density = 2.440311 g / cm^3
# Si number density = 24.458781 Si / 1000 Ang^3
#
#
#
# Elastic Constant Matrix: (Units=GPa)
#
#
# Indices 1 2 3 4 5 6 
#
# 1 86.7683 39.3674 49.9423 0.0000 -56.4449 0.0000
# 2 39.3674 169.1810 24.2599 0.0000 9.9174 0.0000
# 3 49.9423 24.2599 106.4708 0.0000 -40.2334 0.0000
# 4 0.0000 0.0000 0.0000 28.0906 0.0000 -33.9038
# 5 -56.4449 9.9174 -40.2334 0.0000 20.3676 0.0000
# 6 0.0000 0.0000 0.0000 -33.9038 0.0000 19.9860
#
#
#
# Elastic Compliance Matrix: (Units=1/GPa)
#
#
# Indices 1 2 3 4 5 6 
#
# 1 -0.001965 0.003520 -0.010199 0.000000 -0.027305 0.000000
# 2 0.003520 0.004431 0.000829 0.000000 0.009236 0.000000
# 3 -0.010199 0.000829 0.012441 0.000000 -0.004091 0.000000
# 4 0.000000 0.000000 0.000000 -0.033987 0.000000 -0.057655
# 5 -0.027305 0.009236 -0.004091 0.000000 -0.039153 0.000000
# 6 0.000000 0.000000 0.000000 -0.057655 0.000000 -0.047769
#
#
# Mechanical properties :
#
#
# Convention : Reuss Voigt Hill
#
# Bulk Modulus (GPa) = 311.62056 65.50658 188.56357
# Shear Modulus (GPa) = -53.62901 30.27887 -11.67507
#
# Velocity S-wave (km/s) = -4.68763 3.52228 -2.18717
# Velocity P-wave (km/s) = 9.91890 6.58654 8.41923
#
# Compressibility (1/GPa) = 0.00320903
#
# Stress axis : x y z
#
# Youngs Moduli (GPa) = -508.94875 225.66176 80.37840
#
# Poissons Ratio (x) = -0.79440 0.81975
# Poissons Ratio (y) = 1.79165 -0.06663
# Poissons Ratio (z) = -5.19058 -0.18707
#
# Static dielectric constant tensor:
#      x y z
#    x 2.128440 0.000000 -0.081750 
#    y 0.000000 2.154860 0.000000 
#    z -0.081750 0.000000 1.939840 
# 
# From -- ./inp_files/71669.got.cif
#   From: 2010.05.17/outbox.cif.g08.bks.cpg/sg13_36_cif.got.tgz:71669.got - 2010.06.03 16:44:36.
