data_PCOD9226287
_publ_section_title
;
Structure prediction by ZEFSAII (Michael W. Deem and Ramdas Pophale) SiO2 
 PCOD9226287
Probable space group: P 2/C
;
_chemical_formula_sum "Si O2"
_cell_formula_units_Z 26
_cell_length_a 9.284664
_cell_length_b 8.711281
_cell_length_c 19.357742
_cell_angle_alpha 90.000000
_cell_angle_beta 55.379633
_cell_angle_gamma 90.000000
_cell_volume 1288.451760
_symmetry_space_group_name_H-M "P 2/C"
_symmetry_group_IT_number 13
_symmetry_cell_setting 'monoclinic'
loop_
_space_group_symop_operation_xyz
x,y,z
-x,y,1/2-z
-x,-y,-z
x,-y,1/2+z
loop_
_atom_site_type_symbol
_atom_site_label
_atom_site_fract_x
_atom_site_fract_y
_atom_site_fract_z
Si Si1 0.944100 0.965943 0.907523
Si Si2 0.756232 0.148158 0.074961
Si Si3 0.929935 0.731733 0.190548
Si Si4 0.166614 0.667635 0.619424
Si Si5 0.500000 0.207854 0.250000
Si Si6 0.147483 0.554464 0.013663
Si Si7 0.762754 0.433949 0.254016
O O1 0.064496 0.091832 0.835701
O O2 0.844921 0.850278 0.883723
O O3 0.803016 0.047850 0.995603
O O4 0.072304 0.870040 0.923121
O O5 0.589850 0.107159 0.166117
O O6 0.732499 0.325057 0.058913
O O7 0.763638 0.615697 0.235960
O O8 0.000000 0.724052 0.250000
O O9 0.059102 0.654388 0.098996
O O10 0.228218 0.590531 0.531073
O O11 0.268530 0.600639 0.656824
O O12 0.963664 0.617575 0.685324
O O13 0.644081 0.321872 0.242273
O O14 0.000000 0.500000 0.000000
#
# Coordination Sequence:
#
# PCOD9226287 Si02
#       7
#     4   4   4   4   2   4   4
#     4  10  20  34  60  92 118 155 205 245 300 353
#     4  10  21  35  55  89 120 159 197 247 299 362
#     4  10  19  33  57  89 119 145 201 259 288 342
#     4  10  18  36  62  89 110 154 209 248 282 354
#     4  12  22  40  60  82 124 160 192 250 314 358
#     4  10  16  32  59  84 114 147 203 246 279 339
#     4  10  20  36  58  87 114 157 201 242 296 354
#
# _framework density 20.179257
#
# number of rings (size 3 to 8) (size 9 to 14) (size 15 to 20)
#    0.000    1.846    6.154    0.923    2.154    0.000 
#    0.000    2.308    0.000    0.000    0.000    0.000 
#    0.000    0.000    0.000    0.000    0.000    0.000 
#
# Total GULP energy -144812.008775 kJ/mol
# GULP energy per Si atom -5569.692645 kJ/mol
# Density = 2.013333 g / cm^3
# Si number density = 20.179257 Si / 1000 Ang^3
#
#
#
# Elastic Constant Matrix: (Units=GPa)
#
#
# Indices 1 2 3 4 5 6 
#
# 1 34.2512 4.9432 13.8275 0.0000 14.6538 0.0000
# 2 4.9432 101.4178 27.8223 0.0000 9.8334 0.0000
# 3 13.8275 27.8223 91.2960 0.0000 16.4982 0.0000
# 4 0.0000 0.0000 0.0000 28.5490 0.0000 9.7045
# 5 14.6538 9.8334 16.4982 0.0000 25.7419 0.0000
# 6 0.0000 0.0000 0.0000 9.7045 0.0000 11.5026
#
#
#
# Elastic Compliance Matrix: (Units=1/GPa)
#
#
# Indices 1 2 3 4 5 6 
#
# 1 0.039018 0.000780 -0.002352 0.000000 -0.021002 0.000000
# 2 0.000780 0.010894 -0.002947 0.000000 -0.002717 0.000000
# 3 -0.002352 -0.002947 0.013303 0.000000 -0.006061 0.000000
# 4 0.000000 0.000000 0.000000 0.049112 0.000000 -0.041435
# 5 -0.021002 -0.002717 -0.006061 0.000000 0.055725 0.000000
# 6 0.000000 0.000000 0.000000 -0.041435 0.000000 0.121895
#
#
# Mechanical properties :
#
#
# Convention : Reuss Voigt Hill
#
# Bulk Modulus (GPa) = 18.45802 35.57231 27.01516
# Shear Modulus (GPa) = 15.77060 25.18350 20.47705
#
# Velocity S-wave (km/s) = 2.79861 3.53652 3.18898
# Velocity P-wave (km/s) = 4.42830 5.86024 5.19385
#
# Compressibility (1/GPa) = 0.05417701
#
# Stress axis : x y z
#
# Youngs Moduli (GPa) = 25.62890 91.79285 75.17041
#
# Poissons Ratio (x) = -0.07158 0.17680
# Poissons Ratio (y) = -0.01999 0.22154
# Poissons Ratio (z) = 0.06028 0.27053
#
# Static dielectric constant tensor:
#      x y z
#    x 1.704770 0.000000 0.020940 
#    y 0.000000 1.789720 0.000000 
#    z 0.020940 0.000000 1.772860 
# 
# From -- ./inp_files/75630.got.cif
#   From: 2010.05.17/outbox.cif.g08.bks.cpg/sg13_38_cif.got.tgz:75630.got - 2010.06.03 16:44:36.
