data_PCOD9226937
_publ_section_title
;
Structure prediction by ZEFSAII (Michael W. Deem and Ramdas Pophale) SiO2 
 PCOD9226937
Probable space group: P 2/C
;
_chemical_formula_sum "Si O2"
_cell_formula_units_Z 32
_cell_length_a 15.017926
_cell_length_b 14.382768
_cell_length_c 8.553708
_cell_angle_alpha 90.000000
_cell_angle_beta 93.181878
_cell_angle_gamma 90.000000
_cell_volume 1844.747021
_symmetry_space_group_name_H-M "P 2/C"
_symmetry_group_IT_number 13
_symmetry_cell_setting 'monoclinic'
loop_
_space_group_symop_operation_xyz
x,y,z
-x,y,1/2-z
-x,-y,-z
x,-y,1/2+z
loop_
_atom_site_type_symbol
_atom_site_label
_atom_site_fract_x
_atom_site_fract_y
_atom_site_fract_z
Si Si1 0.423642 0.629115 0.487926
Si Si2 0.067727 0.468980 0.873711
Si Si3 0.650210 0.517132 0.312592
Si Si4 0.601736 0.063219 0.193888
Si Si5 0.624971 0.690851 0.474500
Si Si6 0.824631 0.393981 0.338047
Si Si7 0.309013 0.757922 0.685978
Si Si8 0.402522 0.874097 0.168713
O O1 0.381275 0.574441 0.339264
O O2 0.424498 0.550569 0.622954
O O3 0.520425 0.666665 0.456070
O O4 0.362027 0.712532 0.545995
O O5 0.108953 0.557085 0.781589
O O6 0.000000 0.415721 0.750000
O O7 0.140980 0.413214 0.981418
O O8 0.000000 0.500000 0.000000
O O9 0.675382 0.597223 0.438015
O O10 0.735190 0.453040 0.302313
O O11 0.500000 0.072510 0.250000
O O12 0.667960 0.133415 0.291841
O O13 0.632926 0.957798 0.228410
O O14 0.594445 0.086781 0.009267
O O15 0.644933 0.720189 0.651469
O O16 0.645230 0.775269 0.358495
O O17 0.790273 0.287192 0.320685
O O18 0.500000 0.854973 0.250000
#
# Coordination Sequence:
#
# PCOD9226937 Si02
#       8
#     4   4   4   4   4   4   4   4
#     4  11  21  32  42  60  88 127 174 207 233 268
#     4   9  18  32  52  70  90 122 148 174 212 272
#     4  11  21  30  45  63  91 128 158 203 239 268
#     4  10  19  31  47  64  86 122 166 209 249 280
#     4  11  21  32  43  62  89 128 174 208 239 273
#     4  10  18  32  46  69  96 120 152 180 225 276
#     4  10  20  32  47  64  90 123 155 201 242 275
#     4  10  19  31  46  62  83 116 165 218 251 278
#
# _framework density 17.346550000000001
#
# number of rings (size 3 to 8) (size 9 to 14) (size 15 to 20)
#    0.000    1.750    0.000    8.625    0.000    3.000 
#    0.000    0.000    0.000    0.000    0.000    0.000 
#    0.000    0.000    0.000  148.500    0.000    5.125 
#
# Total GULP energy -178314.975790 kJ/mol
# GULP energy per Si atom -5572.342993 kJ/mol
# Density = 1.730707 g / cm^3
# Si number density = 17.346550 Si / 1000 Ang^3
#
#
#
# Elastic Constant Matrix: (Units=GPa)
#
#
# Indices 1 2 3 4 5 6 
#
# 1 43.1428 14.4218 13.6444 0.0000 7.8509 0.0000
# 2 14.4218 85.2580 9.7080 0.0000 3.4406 0.0000
# 3 13.6444 9.7080 78.7315 0.0000 16.2931 0.0000
# 4 0.0000 0.0000 0.0000 29.8806 0.0000 2.3295
# 5 7.8509 3.4406 16.2931 0.0000 27.3738 0.0000
# 6 0.0000 0.0000 0.0000 2.3295 0.0000 4.6791
#
#
#
# Elastic Compliance Matrix: (Units=1/GPa)
#
#
# Indices 1 2 3 4 5 6 
#
# 1 0.026397 -0.003910 -0.002997 0.000000 -0.005296 0.000000
# 2 -0.003910 0.012487 -0.000877 0.000000 0.000074 0.000000
# 3 -0.002997 -0.000877 0.014972 0.000000 -0.007942 0.000000
# 4 0.000000 0.000000 0.000000 0.034818 0.000000 -0.017335
# 5 -0.005296 0.000074 -0.007942 0.000000 0.042768 0.000000
# 6 0.000000 0.000000 0.000000 -0.017335 0.000000 0.222348
#
#
# Mechanical properties :
#
#
# Convention : Reuss Voigt Hill
#
# Bulk Modulus (GPa) = 26.11752 31.40899 28.76325
# Shear Modulus (GPa) = 13.08480 23.67724 18.38102
#
# Velocity S-wave (km/s) = 2.74946 3.69854 3.25874
# Velocity P-wave (km/s) = 5.01681 6.03200 5.54767
#
# Compressibility (1/GPa) = 0.03828847
#
# Stress axis : x y z
#
# Youngs Moduli (GPa) = 37.88251 80.08029 66.78921
#
# Poissons Ratio (x) = 0.31314 0.20014
# Poissons Ratio (y) = 0.14813 0.05860
# Poissons Ratio (z) = 0.11352 0.07027
#
# Static dielectric constant tensor:
#      x y z
#    x 1.602960 0.000000 0.004300 
#    y 0.000000 1.653020 0.000000 
#    z 0.004300 0.000000 1.695820 
# 
# From -- ./inp_files/19369.got.cif
#   From: 2010.05.17/outbox.cif.g08.bks.cpg/sg13_10_cif.got.tgz:19369.got - 2010.06.03 16:44:36.
