data_PCOD9226117
_publ_section_title
;
Structure prediction by ZEFSAII (Michael W. Deem and Ramdas Pophale) SiO2 
 PCOD9226117
Probable space group: P 2/C
;
_chemical_formula_sum "Si O2"
_cell_formula_units_Z 20
_cell_length_a 22.426435
_cell_length_b 6.998320
_cell_length_c 5.385769
_cell_angle_alpha 90.000000
_cell_angle_beta 104.343338
_cell_angle_gamma 90.000000
_cell_volume 818.933663
_symmetry_space_group_name_H-M "P 2/C"
_symmetry_group_IT_number 13
_symmetry_cell_setting 'monoclinic'
loop_
_space_group_symop_operation_xyz
x,y,z
-x,y,1/2-z
-x,-y,-z
x,-y,1/2+z
loop_
_atom_site_type_symbol
_atom_site_label
_atom_site_fract_x
_atom_site_fract_y
_atom_site_fract_z
Si Si1 0.382133 0.783514 0.035809
Si Si2 0.881912 0.729222 0.539532
Si Si3 0.253163 0.372677 0.521040
Si Si4 0.430299 0.217042 0.085178
Si Si5 0.069924 0.706393 0.410649
O O1 0.423720 0.700779 0.302040
O O2 0.405006 0.000912 0.025166
O O3 0.312517 0.761201 0.053942
O O4 0.390275 0.697533 0.769031
O O5 0.811281 0.739231 0.546967
O O6 0.893172 0.805427 0.274818
O O7 0.900425 0.504387 0.526425
O O8 0.924472 0.795324 0.810827
O O9 0.254500 0.485918 0.784273
O O10 0.500000 0.213945 0.250000
O O11 0.000000 0.688216 0.250000
#
# Coordination Sequence:
#
# PCOD9226117 Si02
#       5
#     4   4   4   4   4
#     4  10  20  32  56  81  95 129 164 204 246 298
#     4  10  16  27  38  58  88 131 165 185 235 275
#     4  12  21  34  47  68 110 144 168 181 231 324
#     4  10  19  38  62  79  94 115 163 223 265 280
#     4  10  16  25  41  60  83 125 176 207 227 259
#
# _framework density 24.422003
#
# number of rings (size 3 to 8) (size 9 to 14) (size 15 to 20)
#    0.000    1.600    4.000    7.200    0.000    0.000 
#    0.000    0.000    0.000   20.400    0.000    0.000 
#    0.000    0.000    0.000  122.400    0.000    0.000 
#
# Total GULP energy -111765.884879 kJ/mol
# GULP energy per Si atom -5588.294244 kJ/mol
# Density = 2.436642 g / cm^3
# Si number density = 24.422003 Si / 1000 Ang^3
#
#
#
# Elastic Constant Matrix: (Units=GPa)
#
#
# Indices 1 2 3 4 5 6 
#
# 1 121.2727 -25.1285 -16.7289 0.0000 1.3139 0.0000
# 2 -25.1285 69.7967 -25.8197 0.0000 -0.7860 0.0000
# 3 -16.7289 -25.8197 172.3856 0.0000 -31.0931 0.0000
# 4 0.0000 0.0000 0.0000 -9.3113 0.0000 5.2494
# 5 1.3139 -0.7860 -31.0931 0.0000 55.3821 0.0000
# 6 0.0000 0.0000 0.0000 5.2494 0.0000 6.4048
#
#
#
# Elastic Compliance Matrix: (Units=1/GPa)
#
#
# Indices 1 2 3 4 5 6 
#
# 1 0.009281 0.003952 0.001628 0.000000 0.000750 0.000000
# 2 0.003952 0.016989 0.003288 0.000000 0.001993 0.000000
# 3 0.001628 0.003288 0.007180 0.000000 0.004039 0.000000
# 4 0.000000 0.000000 0.000000 -0.073456 0.000000 0.060204
# 5 0.000750 0.001993 0.004039 0.000000 0.020335 0.000000
# 6 0.000000 0.000000 0.000000 0.060204 0.000000 0.106790
#
#
# Mechanical properties :
#
#
# Convention : Reuss Voigt Hill
#
# Bulk Modulus (GPa) = 19.53702 25.34456 22.44079
# Shear Modulus (GPa) = 57.84036 39.23725 48.53880
#
# Velocity S-wave (km/s) = 4.87187 4.01263 4.46298
# Velocity P-wave (km/s) = 6.29793 5.64523 5.98049
#
# Compressibility (1/GPa) = 0.05118487
#
# Stress axis : x y z
#
# Youngs Moduli (GPa) = 107.74460 58.86241 139.27882
#
# Poissons Ratio (x) = -0.23263 -0.22673
# Poissons Ratio (y) = -0.42582 -0.45789
# Poissons Ratio (z) = -0.17539 -0.19351
#
# Static dielectric constant tensor:
#      x y z
#    x 1.896620 0.000000 -0.041300 
#    y 0.000000 1.257220 0.000000 
#    z -0.041300 0.000000 2.031650 
# 
# From -- ./inp_files/5867.got.cif
#   From: 2010.05.17/outbox.cif.g08.bks.cpg/sg13_3_cif.got.tgz:5867.got - 2010.06.03 16:44:36.
