data_PCOD9226208
_publ_section_title
;
Structure prediction by ZEFSAII (Michael W. Deem and Ramdas Pophale) SiO2 
 PCOD9226208
Probable space group: P 2/C
;
_chemical_formula_sum "Si O2"
_cell_formula_units_Z 28
_cell_length_a 13.123629
_cell_length_b 17.519568
_cell_length_c 5.507294
_cell_angle_alpha 90.000000
_cell_angle_beta 107.573188
_cell_angle_gamma 90.000000
_cell_volume 1207.145993
_symmetry_space_group_name_H-M "P 2/C"
_symmetry_group_IT_number 13
_symmetry_cell_setting 'monoclinic'
loop_
_space_group_symop_operation_xyz
x,y,z
-x,y,1/2-z
-x,-y,-z
x,-y,1/2+z
loop_
_atom_site_type_symbol
_atom_site_label
_atom_site_fract_x
_atom_site_fract_y
_atom_site_fract_z
Si Si1 0.162997 0.669883 0.014587
Si Si2 0.299531 0.521849 0.115729
Si Si3 0.387055 0.702957 0.690411
Si Si4 0.955855 0.086915 0.969948
Si Si5 0.841601 0.618767 0.987845
Si Si6 0.338328 0.215087 0.656045
Si Si7 0.293846 0.046156 0.683415
O O1 0.263842 0.609361 0.088984
O O2 0.108415 0.647139 0.226341
O O3 0.214716 0.753656 0.058776
O O4 0.107975 0.649742 0.722133
O O5 0.355218 0.500059 0.405821
O O6 0.189172 0.470613 0.036350
O O7 0.500000 0.659984 0.750000
O O8 0.278185 0.655428 0.604966
O O9 0.380352 0.753794 0.442853
O O10 0.384909 0.750081 0.940776
O O11 0.829818 0.073688 0.893145
O O12 0.000000 0.122482 0.750000
O O13 0.000000 0.123818 0.250000
O O14 0.000000 0.000000 0.000000
O O15 0.353887 0.124990 0.676968
O O16 0.312677 0.992518 0.460765
#
# Coordination Sequence:
#
# PCOD9226208 Si02
#       7
#     4   4   4   4   4   4   4
#     4   8  14  25  39  56  85 111 139 177 221 272
#     4   8  12  20  36  56  79 107 135 173 221 263
#     4  10  19  34  51  64  87 122 158 199 241 284
#     4  10  16  30  49  75 102 125 140 162 204 276
#     4   8  14  23  40  61  77 103 146 181 226 270
#     4  10  21  33  48  70  87 117 158 191 239 279
#     4  12  21  33  53  74 100 121 148 192 221 267
#
# _framework density 23.195205000000001
#
# number of rings (size 3 to 8) (size 9 to 14) (size 15 to 20)
#    0.000    2.571    2.857    1.286    0.000    0.000 
#    0.000    0.000    0.000   30.000    0.000    0.000 
#    0.000    0.000    0.000    0.000    0.000  107.143 
#
# Total GULP energy -156070.551016 kJ/mol
# GULP energy per Si atom -5573.948251 kJ/mol
# Density = 2.314241 g / cm^3
# Si number density = 23.195205 Si / 1000 Ang^3
#
#
#
# Elastic Constant Matrix: (Units=GPa)
#
#
# Indices 1 2 3 4 5 6 
#
# 1 77.9769 14.9247 17.8041 0.0000 -32.2164 0.0000
# 2 14.9247 97.2504 20.7054 0.0000 -22.4123 0.0000
# 3 17.8041 20.7054 243.9723 0.0000 -41.3763 0.0000
# 4 0.0000 0.0000 0.0000 18.4584 0.0000 -2.2865
# 5 -32.2164 -22.4123 -41.3763 0.0000 54.4908 0.0000
# 6 0.0000 0.0000 0.0000 -2.2865 0.0000 7.2477
#
#
#
# Elastic Compliance Matrix: (Units=1/GPa)
#
#
# Indices 1 2 3 4 5 6 
#
# 1 0.017040 -0.000347 0.000540 0.000000 0.010342 0.000000
# 2 -0.000347 0.011375 -0.000208 0.000000 0.004315 0.000000
# 3 0.000540 -0.000208 0.004725 0.000000 0.003822 0.000000
# 4 0.000000 0.000000 0.000000 0.056379 0.000000 0.017787
# 5 0.010342 0.004315 0.003822 0.000000 0.029143 0.000000
# 6 0.000000 0.000000 0.000000 0.017787 0.000000 0.143586
#
#
# Mechanical properties :
#
#
# Convention : Reuss Voigt Hill
#
# Bulk Modulus (GPa) = 30.20213 58.45198 44.32706
# Shear Modulus (GPa) = 18.29389 40.42374 29.35881
#
# Velocity S-wave (km/s) = 2.81141 4.17917 3.56157
# Velocity P-wave (km/s) = 4.85673 6.96721 6.00541
#
# Compressibility (1/GPa) = 0.03311025
#
# Stress axis : x y z
#
# Youngs Moduli (GPa) = 58.68471 87.91359 211.63107
#
# Poissons Ratio (x) = 0.03047 -0.11424
# Poissons Ratio (y) = 0.02034 0.04406
# Poissons Ratio (z) = -0.03168 0.01830
#
# Static dielectric constant tensor:
#      x y z
#    x 1.877190 0.000000 -0.063330 
#    y 0.000000 1.931010 0.000000 
#    z -0.063330 0.000000 2.001000 
# 
# From -- ./inp_files/5259.got.cif
#   From: 2010.05.17/outbox.cif.g08.bks.cpg/sg13_3_cif.got.tgz:5259.got - 2010.06.03 16:44:36.
