data_PCOD9226244
_publ_section_title
;
Structure prediction by ZEFSAII (Michael W. Deem and Ramdas Pophale) SiO2 
 PCOD9226244
Probable space group: P 2/C
;
_chemical_formula_sum "Si O2"
_cell_formula_units_Z 30
_cell_length_a 6.180019
_cell_length_b 7.167924
_cell_length_c 36.538363
_cell_angle_alpha 90.000000
_cell_angle_beta 116.303914
_cell_angle_gamma 90.000000
_cell_volume 1450.979728
_symmetry_space_group_name_H-M "P 2/C"
_symmetry_group_IT_number 13
_symmetry_cell_setting 'monoclinic'
loop_
_space_group_symop_operation_xyz
x,y,z
-x,y,1/2-z
-x,-y,-z
x,-y,1/2+z
loop_
_atom_site_type_symbol
_atom_site_label
_atom_site_fract_x
_atom_site_fract_y
_atom_site_fract_z
Si Si1 0.573646 0.030175 0.635384
Si Si2 0.936593 0.513279 0.594945
Si Si3 0.837116 0.787410 0.436426
Si Si4 0.959782 0.291208 0.826804
Si Si5 0.588757 0.504686 0.965430
Si Si6 0.519639 0.041745 0.712157
Si Si7 0.000000 0.290778 0.750000
Si Si8 0.787766 0.194537 0.433698
O O1 0.538067 0.949529 0.673607
O O2 0.477754 0.873922 0.600122
O O3 0.374342 0.188324 0.610392
O O4 0.830587 0.133280 0.651041
O O5 0.972540 0.345631 0.568403
O O6 0.033843 0.442667 0.640876
O O7 0.076770 0.687018 0.587467
O O8 0.651700 0.536282 0.576258
O O9 0.715469 0.684309 0.461485
O O10 0.080875 0.002349 0.549967
O O11 0.000985 0.384602 0.789934
O O12 0.708431 0.180267 0.807371
O O13 0.761425 0.675184 0.966960
O O14 0.500000 0.500000 0.000000
O O15 0.500000 0.937855 0.750000
O O16 0.763389 0.161970 0.732449
#
# Coordination Sequence:
#
# PCOD9226244 Si02
#       8
#     4   4   4   4   4   4   2   4
#     4   9  17  34  54  81 113 142 186 236 273 332
#     4  11  20  36  63  83 110 153 197 234 285 348
#     4   9  20  39  56  82 112 143 188 237 283 339
#     4  10  16  30  56  82 113 151 190 233 279 340
#     4  11  24  40  58  84 117 150 190 242 297 345
#     4   9  16  28  52  85 112 148 190 227 284 334
#     4   8  18  26  46  86 120 144 186 236 276 334
#     4   9  22  37  57  87 111 144 190 233 284 338
#
# _framework density 20.675684
#
# number of rings (size 3 to 8) (size 9 to 14) (size 15 to 20)
#    0.800    1.600    2.667    0.000    0.000    5.867 
#    0.000    1.333    0.000    4.000    0.000    4.667 
#    0.000    0.000    0.000    0.000    0.000    0.000 
#
# Total GULP energy -167016.014919 kJ/mol
# GULP energy per Si atom -5567.200497 kJ/mol
# Density = 2.062863 g / cm^3
# Si number density = 20.675684 Si / 1000 Ang^3
#
#
#
# Elastic Constant Matrix: (Units=GPa)
#
#
# Indices 1 2 3 4 5 6 
#
# 1 75.8595 26.4848 8.7888 0.0000 8.8480 0.0000
# 2 26.4848 110.3689 24.0395 0.0000 -18.4996 0.0000
# 3 8.7888 24.0395 86.5826 0.0000 -21.5622 0.0000
# 4 0.0000 0.0000 0.0000 14.9870 0.0000 -1.7456
# 5 8.8480 -18.4996 -21.5622 0.0000 51.9880 0.0000
# 6 0.0000 0.0000 0.0000 -1.7456 0.0000 13.1259
#
#
#
# Elastic Compliance Matrix: (Units=1/GPa)
#
#
# Indices 1 2 3 4 5 6 
#
# 1 0.015365 -0.004136 -0.001594 0.000000 -0.004748 0.000000
# 2 -0.004136 0.011080 -0.001672 0.000000 0.003953 0.000000
# 3 -0.001594 -0.001672 0.013488 0.000000 0.005271 0.000000
# 4 0.000000 0.000000 0.000000 0.067774 0.000000 0.009013
# 5 -0.004748 0.003953 0.005271 0.000000 0.023636 0.000000
# 6 0.000000 0.000000 0.000000 0.009013 0.000000 0.077384
#
#
# Mechanical properties :
#
#
# Convention : Reuss Voigt Hill
#
# Bulk Modulus (GPa) = 39.79336 43.49303 41.64319
# Shear Modulus (GPa) = 21.56048 30.25336 25.90692
#
# Velocity S-wave (km/s) = 3.23274 3.82937 3.54363
# Velocity P-wave (km/s) = 5.76388 6.37445 6.07684
#
# Compressibility (1/GPa) = 0.02512982
#
# Stress axis : x y z
#
# Youngs Moduli (GPa) = 65.08502 90.25512 74.13866
#
# Poissons Ratio (x) = 0.37326 0.11815
# Poissons Ratio (y) = 0.26917 0.12396
# Poissons Ratio (z) = 0.10373 0.15091
#
# Static dielectric constant tensor:
#      x y z
#    x 1.733250 0.000000 -0.007920 
#    y 0.000000 1.710080 0.000000 
#    z -0.007920 0.000000 1.813060 
# 
# From -- ./inp_files/95088.got.cif
#   From: 2010.05.17/outbox.cif.g08.bks.cpg/sg13_48_cif.got.tgz:95088.got - 2010.06.03 16:44:36.
