data_PCOD9226821
_publ_section_title
;
Structure prediction by ZEFSAII (Michael W. Deem and Ramdas Pophale) SiO2 
 PCOD9226821
Probable space group: P 2/C
;
_chemical_formula_sum "Si O2"
_cell_formula_units_Z 28
_cell_length_a 8.834365
_cell_length_b 21.992916
_cell_length_c 13.732806
_cell_angle_alpha 90.000000
_cell_angle_beta 153.380115
_cell_angle_gamma 90.000000
_cell_volume 1195.536143
_symmetry_space_group_name_H-M "P 2/C"
_symmetry_group_IT_number 13
_symmetry_cell_setting 'monoclinic'
loop_
_space_group_symop_operation_xyz
x,y,z
-x,y,1/2-z
-x,-y,-z
x,-y,1/2+z
loop_
_atom_site_type_symbol
_atom_site_label
_atom_site_fract_x
_atom_site_fract_y
_atom_site_fract_z
Si Si1 0.135312 0.369684 0.084254
Si Si2 0.325699 0.970110 0.045904
Si Si3 0.964413 0.904980 0.328885
Si Si4 0.304542 0.440643 0.350481
Si Si5 0.213290 0.266114 0.501044
Si Si6 0.908985 0.139844 0.004057
Si Si7 0.715234 0.328791 0.656264
O O1 0.500000 0.355656 0.250000
O O2 0.163337 0.433593 0.158935
O O3 0.021553 0.321093 0.100124
O O4 0.875886 0.359641 0.846140
O O5 0.500000 0.981006 0.250000
O O6 0.596513 0.934968 0.136290
O O7 0.029469 0.921297 0.898559
O O8 0.197473 0.036089 0.946520
O O9 0.054601 0.868659 0.479347
O O10 0.000000 0.867730 0.250000
O O11 0.500000 0.500000 0.500000
O O12 0.562176 0.384983 0.509377
O O13 0.000000 0.431471 0.250000
O O14 0.500000 0.262971 0.750000
O O15 0.023456 0.201708 0.399908
O O16 0.422520 0.283155 0.524891
O O17 0.500000 0.140108 0.750000
O O18 0.000000 0.300506 0.750000
#
# Coordination Sequence:
#
# PCOD9226821 Si02
#       7
#     4   4   4   4   4   4   4
#     4  11  23  42  67  94 134 175 218 266 329 384
#     4   9  17  31  51  78 111 163 198 246 322 383
#     4  10  18  30  53  81 117 155 201 261 322 375
#     4  12  26  45  68 102 140 172 222 270 318 394
#     4   9  19  38  62  88 119 169 218 265 323 391
#     4   8  16  33  54  79 113 158 210 251 311 387
#     4  11  22  42  69 100 128 178 216 267 337 392
#
# _framework density 23.420455
#
# number of rings (size 3 to 8) (size 9 to 14) (size 15 to 20)
#    0.000    2.286    2.857    2.571    0.000    0.571 
#    0.000   13.571    3.143    0.000    7.429    0.000 
#    0.000    0.000    0.000    0.000    0.000    0.000 
#
# Total GULP energy -156241.746159 kJ/mol
# GULP energy per Si atom -5580.062363 kJ/mol
# Density = 2.336715 g / cm^3
# Si number density = 23.420455 Si / 1000 Ang^3
#
#
#
# Elastic Constant Matrix: (Units=GPa)
#
#
# Indices 1 2 3 4 5 6 
#
# 1 180.4356 38.7160 22.8396 0.0000 9.2270 0.0000
# 2 38.7160 94.6628 15.7310 0.0000 -3.6969 0.0000
# 3 22.8396 15.7310 53.9493 0.0000 -10.6284 0.0000
# 4 0.0000 0.0000 0.0000 42.9826 0.0000 -63.4632
# 5 9.2270 -3.6969 -10.6284 0.0000 38.7183 0.0000
# 6 0.0000 0.0000 0.0000 -63.4632 0.0000 153.4209
#
#
#
# Elastic Compliance Matrix: (Units=1/GPa)
#
#
# Indices 1 2 3 4 5 6 
#
# 1 0.006491 -0.002327 -0.002557 0.000000 -0.002471 0.000000
# 2 -0.002327 0.011937 -0.002286 0.000000 0.001067 0.000000
# 3 -0.002557 -0.002286 0.021526 0.000000 0.006300 0.000000
# 4 0.000000 0.000000 0.000000 0.059770 0.000000 0.024724
# 5 -0.002471 0.001067 0.006300 0.000000 0.028248 0.000000
# 6 0.000000 0.000000 0.000000 0.024724 0.000000 0.016745
#
#
# Mechanical properties :
#
#
# Convention : Reuss Voigt Hill
#
# Bulk Modulus (GPa) = 39.03686 53.73562 46.38624
# Shear Modulus (GPa) = 29.83421 63.80844 46.82133
#
# Velocity S-wave (km/s) = 3.57298 5.22531 4.47605
# Velocity P-wave (km/s) = 5.80738 7.70707 6.82365
#
# Compressibility (1/GPa) = 0.02561681
#
# Stress axis : x y z
#
# Youngs Moduli (GPa) = 154.05236 83.77455 46.45588
#
# Poissons Ratio (x) = 0.19490 0.11876
# Poissons Ratio (y) = 0.35841 0.10618
# Poissons Ratio (z) = 0.39383 0.19147
#
# Static dielectric constant tensor:
#      x y z
#    x 1.937270 0.000000 -0.056610 
#    y 0.000000 1.934960 0.000000 
#    z -0.056610 0.000000 1.978290 
# 
# From -- ./inp_files/48257.got.cif
#   From: 2010.05.17/outbox.cif.g08.bks.cpg/sg13_25_cif.got.tgz:48257.got - 2010.06.03 16:44:36.
