data_PCOD9226092
_publ_section_title
;
Structure prediction by ZEFSAII (Michael W. Deem and Ramdas Pophale) SiO2 
 PCOD9226092
Probable space group: P 2/C
;
_chemical_formula_sum "Si O2"
_cell_formula_units_Z 28
_cell_length_a 20.217314
_cell_length_b 16.522261
_cell_length_c 5.471515
_cell_angle_alpha 90.000000
_cell_angle_beta 77.356048
_cell_angle_gamma 90.000000
_cell_volume 1783.358697
_symmetry_space_group_name_H-M "P 2/C"
_symmetry_group_IT_number 13
_symmetry_cell_setting 'monoclinic'
loop_
_space_group_symop_operation_xyz
x,y,z
-x,y,1/2-z
-x,-y,-z
x,-y,1/2+z
loop_
_atom_site_type_symbol
_atom_site_label
_atom_site_fract_x
_atom_site_fract_y
_atom_site_fract_z
Si Si1 0.405475 0.547852 0.672800
Si Si2 0.189865 0.405019 0.834071
Si Si3 0.754260 0.412073 0.211074
Si Si4 0.422268 0.031044 0.597580
Si Si5 0.426111 0.727898 0.760092
Si Si6 0.421230 0.783393 0.264587
Si Si7 0.971892 0.593192 0.022726
O O1 0.421431 0.503017 0.405227
O O2 0.325010 0.567748 0.737144
O O3 0.437516 0.636146 0.667064
O O4 0.219778 0.370422 0.557392
O O5 0.209629 0.500130 0.812193
O O6 0.108996 0.403067 0.910681
O O7 0.224305 0.371117 0.052122
O O8 0.420352 0.123757 0.682675
O O9 0.500000 0.000000 0.500000
O O10 0.392136 0.018378 0.351581
O O11 0.500000 0.768049 0.750000
O O12 0.390006 0.769891 0.558928
O O13 0.393352 0.732585 0.056324
O O14 0.500000 0.759331 0.250000
O O15 0.000000 0.630156 0.250000
O O16 0.000000 0.630117 0.750000
O O17 0.000000 0.500000 0.000000
#
# Coordination Sequence:
#
# PCOD9226092 Si02
#       7
#     4   4   4   4   4   4   4
#     4  12  21  35  49  59  71  88 137 180 210 242
#     4  10  16  25  38  53  69  89 112 143 205 220
#     4  10  16  27  39  55  63  84 112 167 200 222
#     4  10  17  24  44  72  85 108 121 141 155 191
#     4  10  23  34  46  61  78 109 118 154 211 252
#     4  10  18  32  45  61  92 102 122 136 176 241
#     4  10  16  22  31  49  73  95 109 126 160 243
#
# _framework density 15.700711999999999
#
# number of rings (size 3 to 8) (size 9 to 14) (size 15 to 20)
#    0.000    1.714    4.286    6.000    4.000    0.571 
#    0.000    0.000    0.000    0.000    0.000    0.000 
#    0.000    0.000    0.000    0.000    0.000    0.000 
#
# Total GULP energy -155935.660873 kJ/mol
# GULP energy per Si atom -5569.130745 kJ/mol
# Density = 1.566498 g / cm^3
# Si number density = 15.700712 Si / 1000 Ang^3
#
#
#
# Elastic Constant Matrix: (Units=GPa)
#
#
# Indices 1 2 3 4 5 6 
#
# 1 38.2675 4.8506 27.8061 0.0000 5.0531 0.0000
# 2 4.8506 48.0657 21.5232 0.0000 12.2916 0.0000
# 3 27.8061 21.5232 159.2150 0.0000 41.2632 0.0000
# 4 0.0000 0.0000 0.0000 16.6160 0.0000 6.1747
# 5 5.0531 12.2916 41.2632 0.0000 28.9174 0.0000
# 6 0.0000 0.0000 0.0000 6.1747 0.0000 0.5787
#
#
#
# Elastic Compliance Matrix: (Units=1/GPa)
#
#
# Indices 1 2 3 4 5 6 
#
# 1 0.030236 -0.001335 -0.006153 0.000000 0.004065 0.000000
# 2 -0.001335 0.023488 -0.000659 0.000000 -0.008811 0.000000
# 3 -0.006153 -0.000659 0.011256 0.000000 -0.014706 0.000000
# 4 0.000000 0.000000 0.000000 -0.020298 0.000000 0.216573
# 5 0.004065 -0.008811 -0.014706 0.000000 0.058601 0.000000
# 6 0.000000 0.000000 0.000000 0.216573 0.000000 -0.582797
#
#
# Mechanical properties :
#
#
# Convention : Reuss Voigt Hill
#
# Bulk Modulus (GPa) = 20.54038 39.32310 29.93174
# Shear Modulus (GPa) = -11.18588 21.98032 5.39722
#
# Velocity S-wave (km/s) = -2.67206 3.74566 1.85608
# Velocity P-wave (km/s) = 1.89499 6.61864 4.86813
#
# Compressibility (1/GPa) = 0.04868460
#
# Stress axis : x y z
#
# Youngs Moduli (GPa) = 33.07363 42.57571 88.84286
#
# Poissons Ratio (x) = 0.05685 0.54669
# Poissons Ratio (y) = 0.04416 0.05850
# Poissons Ratio (z) = 0.20352 0.02804
#
# Static dielectric constant tensor:
#      x y z
#    x 1.823450 0.000000 0.205050 
#    y 0.000000 1.504040 0.000000 
#    z 0.205050 0.000000 1.789540 
# 
# From -- ./inp_files/6994.got.cif
#   From: 2010.05.17/outbox.cif.g08.bks.cpg/sg13_4_cif.got.tgz:6994.got - 2010.06.03 16:44:36.
