data_PCOD9226736
_publ_section_title
;
Structure prediction by ZEFSAII (Michael W. Deem and Ramdas Pophale) SiO2 
 PCOD9226736
Probable space group: P 2/C
;
_chemical_formula_sum "Si O2"
_cell_formula_units_Z 26
_cell_length_a 23.189221
_cell_length_b 9.430459
_cell_length_c 5.573672
_cell_angle_alpha 90.000000
_cell_angle_beta 96.905185
_cell_angle_gamma 90.000000
_cell_volume 1210.037273
_symmetry_space_group_name_H-M "P 2/C"
_symmetry_group_IT_number 13
_symmetry_cell_setting 'monoclinic'
loop_
_space_group_symop_operation_xyz
x,y,z
-x,y,1/2-z
-x,-y,-z
x,-y,1/2+z
loop_
_atom_site_type_symbol
_atom_site_label
_atom_site_fract_x
_atom_site_fract_y
_atom_site_fract_z
Si Si1 0.152785 0.752941 0.076551
Si Si2 0.371491 0.171491 0.685734
Si Si3 0.325294 0.849656 0.662629
Si Si4 0.022929 0.337796 0.511468
Si Si5 0.500000 0.091162 0.750000
Si Si6 0.191639 0.804469 0.595984
Si Si7 0.246396 0.495471 0.623475
O O1 0.092300 0.669571 0.046177
O O2 0.159290 0.835071 0.330886
O O3 0.206710 0.643836 0.103600
O O4 0.159330 0.835125 0.828810
O O5 0.344340 0.222881 0.421255
O O6 0.440757 0.180360 0.720385
O O7 0.355890 0.002979 0.677920
O O8 0.344331 0.222873 0.923034
O O9 0.256055 0.869872 0.628060
O O10 0.000000 0.273018 0.750000
O O11 0.000000 0.500000 0.500000
O O12 0.000000 0.273017 0.250000
O O13 0.500000 0.000000 0.500000
O O14 0.203979 0.633221 0.602238
O O15 0.279271 0.500004 0.389919
#
# Coordination Sequence:
#
# PCOD9226736 Si02
#       7
#     4   4   4   4   2   4   4
#     4  10  19  31  42  61  87 120 156 182 224 278
#     4  10  19  30  48  66 102 120 154 179 215 281
#     4  10  18  30  42  67  88 129 151 188 219 251
#     4  10  21  27  43  62  82 116 153 185 218 272
#     4  12  16  30  48  74  88 142 148 172 222 268
#     4  10  19  28  45  58  86 122 157 184 220 265
#     4   8  16  25  41  53  77 111 145 182 203 266
#
# _framework density 21.486940000000001
#
# number of rings (size 3 to 8) (size 9 to 14) (size 15 to 20)
#    0.000    2.154    3.077    1.846   12.923    0.000 
#    0.000    0.000    0.000    0.000    0.000    0.000 
#    0.000    0.000    0.000  405.692    0.000    0.000 
#
# Total GULP energy -144948.651768 kJ/mol
# GULP energy per Si atom -5574.948145 kJ/mol
# Density = 2.143804 g / cm^3
# Si number density = 21.486940 Si / 1000 Ang^3
#
#
#
# Elastic Constant Matrix: (Units=GPa)
#
#
# Indices 1 2 3 4 5 6 
#
# 1 130.3195 8.8755 50.0052 0.0000 0.7207 0.0000
# 2 8.8755 47.4213 11.6120 0.0000 -0.1783 0.0000
# 3 50.0052 11.6120 276.0299 0.0000 -10.9200 0.0000
# 4 0.0000 0.0000 0.0000 -11.0057 0.0000 0.9264
# 5 0.7207 -0.1783 -10.9200 0.0000 36.1345 0.0000
# 6 0.0000 0.0000 0.0000 0.9264 0.0000 2.3848
#
#
#
# Elastic Compliance Matrix: (Units=1/GPa)
#
#
# Indices 1 2 3 4 5 6 
#
# 1 0.008327 -0.001198 -0.001483 0.000000 -0.000620 0.000000
# 2 -0.001198 0.021480 -0.000690 0.000000 -0.000079 0.000000
# 3 -0.001483 -0.000690 0.003969 0.000000 0.001226 0.000000
# 4 0.000000 0.000000 0.000000 -0.087985 0.000000 0.034179
# 5 -0.000620 -0.000079 0.001226 0.000000 0.028057 0.000000
# 6 0.000000 0.000000 0.000000 0.034179 0.000000 0.406049
#
#
# Mechanical properties :
#
#
# Convention : Reuss Voigt Hill
#
# Bulk Modulus (GPa) = 36.98763 66.08401 51.53582
# Shear Modulus (GPa) = 12.63740 31.05457 21.84599
#
# Velocity S-wave (km/s) = 2.42780 3.80580 3.19205
# Velocity P-wave (km/s) = 5.01102 7.08056 6.13371
#
# Compressibility (1/GPa) = 0.02703606
#
# Stress axis : x y z
#
# Youngs Moduli (GPa) = 120.08552 46.55414 251.95870
#
# Poissons Ratio (x) = 0.05576 0.37358
# Poissons Ratio (y) = 0.14384 0.17379
# Poissons Ratio (z) = 0.17805 0.03211
#
# Static dielectric constant tensor:
#      x y z
#    x 1.716990 0.000000 -0.015620 
#    y 0.000000 1.773320 0.000000 
#    z -0.015620 0.000000 1.937980 
# 
# From -- ./inp_files/6136.got.cif
#   From: 2010.05.17/outbox.cif.g08.bks.cpg/sg13_4_cif.got.tgz:6136.got - 2010.06.03 16:44:36.
