data_PCOD9226404
_publ_section_title
;
Structure prediction by ZEFSAII (Michael W. Deem and Ramdas Pophale) SiO2 
 PCOD9226404
Probable space group: P 2/C
;
_chemical_formula_sum "Si O2"
_cell_formula_units_Z 24
_cell_length_a 21.739552
_cell_length_b 9.408576
_cell_length_c 5.601995
_cell_angle_alpha 90.000000
_cell_angle_beta 114.657624
_cell_angle_gamma 90.000000
_cell_volume 1041.342609
_symmetry_space_group_name_H-M "P 2/C"
_symmetry_group_IT_number 13
_symmetry_cell_setting 'monoclinic'
loop_
_space_group_symop_operation_xyz
x,y,z
-x,y,1/2-z
-x,-y,-z
x,-y,1/2+z
loop_
_atom_site_type_symbol
_atom_site_label
_atom_site_fract_x
_atom_site_fract_y
_atom_site_fract_z
Si Si1 0.077167 0.054458 0.617411
Si Si2 0.722993 0.003943 0.517539
Si Si3 0.576971 0.674324 0.941099
Si Si4 0.173906 0.725627 0.293597
Si Si5 0.625919 0.647962 0.519722
Si Si6 0.223506 0.684874 0.871884
O O1 0.097743 0.217807 0.629555
O O2 0.106018 0.989201 0.421150
O O3 0.000000 0.000000 0.500000
O O4 0.773981 0.138467 0.607696
O O5 0.684247 0.000312 0.704883
O O6 0.764315 0.855575 0.590303
O O7 0.500000 0.705045 0.750000
O O8 0.620846 0.715316 0.776867
O O9 0.588130 0.503313 0.982494
O O10 0.595753 0.726993 0.237707
O O11 0.178693 0.660395 0.564448
O O12 0.197188 0.645502 0.092114
O O13 0.703259 0.620917 0.570747
#
# Coordination Sequence:
#
# PCOD9226404 Si02
#       6
#     4   4   4   4   4   4
#     4  10  18  27  41  60  82 118 168 194 211 256
#     4   8  14  23  36  51  76 108 136 165 207 244
#     4  10  19  33  50  66  92 117 138 176 225 279
#     4  10  17  28  40  57  88 120 150 184 222 254
#     4  10  18  29  45  68  89 112 147 177 219 273
#     4  10  18  26  41  62  86 113 148 186 216 261
#
# _framework density 23.047172
#
# number of rings (size 3 to 8) (size 9 to 14) (size 15 to 20)
#    0.000    2.333    0.000    7.500    0.000    0.000 
#    0.000    0.000    0.000    0.000    0.000    0.000 
#    0.000  204.000    0.000    0.000    0.000 1546.667 
#
# Total GULP energy -133709.416131 kJ/mol
# GULP energy per Si atom -5571.225672 kJ/mol
# Density = 2.299472 g / cm^3
# Si number density = 23.047172 Si / 1000 Ang^3
#
#
#
# Elastic Constant Matrix: (Units=GPa)
#
#
# Indices 1 2 3 4 5 6 
#
# 1 71.8839 -6.5789 53.1242 0.0000 -16.4284 0.0000
# 2 -6.5789 57.7766 -7.6086 0.0000 -2.1055 0.0000
# 3 53.1242 -7.6086 154.7390 0.0000 -68.0577 0.0000
# 4 0.0000 0.0000 0.0000 -14.7180 0.0000 4.6859
# 5 -16.4284 -2.1055 -68.0577 0.0000 62.7742 0.0000
# 6 0.0000 0.0000 0.0000 4.6859 0.0000 27.7997
#
#
#
# Elastic Compliance Matrix: (Units=1/GPa)
#
#
# Indices 1 2 3 4 5 6 
#
# 1 0.019216 0.000957 -0.008265 0.000000 -0.003900 0.000000
# 2 0.000957 0.017748 0.001751 0.000000 0.002744 0.000000
# 3 -0.008265 0.001751 0.016172 0.000000 0.015429 0.000000
# 4 0.000000 0.000000 0.000000 -0.064484 0.000000 0.010869
# 5 -0.003900 0.002744 0.015429 0.000000 0.031729 0.000000
# 6 0.000000 0.000000 0.000000 0.010869 0.000000 0.034140
#
#
# Mechanical properties :
#
#
# Convention : Reuss Voigt Hill
#
# Bulk Modulus (GPa) = 23.79715 40.25253 32.02484
# Shear Modulus (GPa) = 62.78094 31.53538 47.15816
#
# Velocity S-wave (km/s) = 5.22488 3.70306 4.52836
# Velocity P-wave (km/s) = 6.83717 5.98220 6.42393
#
# Compressibility (1/GPa) = 0.04202184
#
# Stress axis : x y z
#
# Youngs Moduli (GPa) = 52.04008 56.34554 61.83447
#
# Poissons Ratio (x) = -0.05395 0.51108
# Poissons Ratio (y) = -0.04983 -0.10826
# Poissons Ratio (z) = 0.43013 -0.09865
#
# Static dielectric constant tensor:
#      x y z
#    x 2.020050 0.000000 0.045800 
#    y 0.000000 1.913630 0.000000 
#    z 0.045800 0.000000 2.013680 
# 
# From -- ./inp_files/6112.got.cif
#   From: 2010.05.17/outbox.cif.g08.bks.cpg/sg13_4_cif.got.tgz:6112.got - 2010.06.03 16:44:36.
