data_PCOD9226099
_publ_section_title
;
Structure prediction by ZEFSAII (Michael W. Deem and Ramdas Pophale) SiO2 
 PCOD9226099
Probable space group: P 2/C
;
_chemical_formula_sum "Si O2"
_cell_formula_units_Z 28
_cell_length_a 16.489468
_cell_length_b 24.182875
_cell_length_c 5.320856
_cell_angle_alpha 90.000000
_cell_angle_beta 73.754775
_cell_angle_gamma 90.000000
_cell_volume 2037.044024
_symmetry_space_group_name_H-M "P 2/C"
_symmetry_group_IT_number 13
_symmetry_cell_setting 'monoclinic'
loop_
_space_group_symop_operation_xyz
x,y,z
-x,y,1/2-z
-x,-y,-z
x,-y,1/2+z
loop_
_atom_site_type_symbol
_atom_site_label
_atom_site_fract_x
_atom_site_fract_y
_atom_site_fract_z
Si Si1 0.812646 0.538473 0.909440
Si Si2 0.000000 0.537187 0.750000
Si Si3 0.403664 0.197924 0.539277
Si Si4 0.598699 0.323930 0.149243
Si Si5 0.404560 0.152787 0.042909
Si Si6 0.656897 0.619426 0.098209
Si Si7 0.500000 0.463403 0.750000
Si Si8 0.595700 0.023029 0.454709
O O1 0.803418 0.501084 0.664377
O O2 0.907430 0.564370 0.829759
O O3 0.742876 0.586091 0.979806
O O4 0.000000 0.500000 0.500000
O O5 0.403479 0.260201 0.438504
O O6 0.363705 0.162344 0.350018
O O7 0.500007 0.176208 0.498967
O O8 0.365217 0.186731 0.846486
O O9 0.500000 0.342249 0.250000
O O10 0.638122 0.337326 0.387814
O O11 0.648540 0.354420 0.882553
O O12 0.407753 0.087886 0.985515
O O13 0.581834 0.574827 0.158646
O O14 0.500000 0.500000 0.500000
O O15 0.500000 0.000000 0.500000
O O16 0.635899 0.990467 0.651351
#
# Coordination Sequence:
#
# PCOD9226099 Si02
#       8
#     4   2   4   4   4   4   2   4
#     4  10  19  35  52  70  88 104 127 155 194 244
#     4   8  16  30  54  74  86 102 122 152 188 236
#     4  10  18  27  40  50  64  88 129 167 193 228
#     4  12  21  34  43  57  76 106 140 172 199 228
#     4  10  17  25  38  51  64  90 124 164 204 244
#     4  12  23  33  46  60  83 107 132 163 199 236
#     4  12  22  32  42  56  76 106 132 150 178 224
#     4  10  16  23  32  48  69  86 107 147 208 269
#
# _framework density 13.745405999999999
#
# number of rings (size 3 to 8) (size 9 to 14) (size 15 to 20)
#    0.000    1.429    2.857    7.714    2.000    0.000 
#    0.000    0.000    0.000    0.000    0.000    0.000 
#    0.000    0.000    0.000    0.000    0.000    0.000 
#
# Total GULP energy -155886.698710 kJ/mol
# GULP energy per Si atom -5567.382097 kJ/mol
# Density = 1.371412 g / cm^3
# Si number density = 13.745406 Si / 1000 Ang^3
#
#
#
# Elastic Constant Matrix: (Units=GPa)
#
#
# Indices 1 2 3 4 5 6 
#
# 1 53.0988 18.7155 21.3294 0.0000 -9.3402 0.0000
# 2 18.7155 66.3679 22.4698 0.0000 -1.2710 0.0000
# 3 21.3294 22.4698 106.8684 0.0000 24.3685 0.0000
# 4 0.0000 0.0000 0.0000 25.4963 0.0000 6.7376
# 5 -9.3402 -1.2710 24.3685 0.0000 26.0763 0.0000
# 6 0.0000 0.0000 0.0000 6.7376 0.0000 -48.2928
#
#
#
# Elastic Compliance Matrix: (Units=1/GPa)
#
#
# Indices 1 2 3 4 5 6 
#
# 1 0.026739 -0.004395 -0.008321 0.000000 0.017139 0.000000
# 2 -0.004395 0.017487 -0.003348 0.000000 0.002407 0.000000
# 3 -0.008321 -0.003348 0.015807 0.000000 -0.017916 0.000000
# 4 0.000000 0.000000 0.000000 0.037827 0.000000 0.005277
# 5 0.017139 0.002407 -0.017916 0.000000 0.061348 0.000000
# 6 0.000000 0.000000 0.000000 0.005277 0.000000 -0.019971
#
#
# Mechanical properties :
#
#
# Convention : Reuss Voigt Hill
#
# Bulk Modulus (GPa) = 35.83644 39.04052 37.43848
# Shear Modulus (GPa) = 27.67529 11.57730 19.62629
#
# Velocity S-wave (km/s) = 4.49198 2.90533 3.78278
# Velocity P-wave (km/s) = 7.28231 6.30229 6.80995
#
# Compressibility (1/GPa) = 0.02790455
#
# Stress axis : x y z
#
# Youngs Moduli (GPa) = 37.39840 57.18648 63.26223
#
# Poissons Ratio (x) = 0.25133 0.52639
# Poissons Ratio (y) = 0.16436 0.21183
# Poissons Ratio (z) = 0.31119 0.19148
#
# Static dielectric constant tensor:
#      x y z
#    x 1.445470 0.000000 -0.005960 
#    y 0.000000 1.467450 0.000000 
#    z -0.005960 0.000000 1.601850 
# 
# From -- ./inp_files/5485.got.cif
#   From: 2010.05.17/outbox.cif.g08.bks.cpg/sg13_3_cif.got.tgz:5485.got - 2010.06.03 16:44:36.
