data_PCOD9226731
_publ_section_title
;
Structure prediction by ZEFSAII (Michael W. Deem and Ramdas Pophale) SiO2 
 PCOD9226731
Probable space group: P 2/C
;
_chemical_formula_sum "Si O2"
_cell_formula_units_Z 26
_cell_length_a 19.678580
_cell_length_b 8.716884
_cell_length_c 11.791375
_cell_angle_alpha 90.000000
_cell_angle_beta 140.135374
_cell_angle_gamma 90.000000
_cell_volume 1296.466064
_symmetry_space_group_name_H-M "P 2/C"
_symmetry_group_IT_number 13
_symmetry_cell_setting 'monoclinic'
loop_
_space_group_symop_operation_xyz
x,y,z
-x,y,1/2-z
-x,-y,-z
x,-y,1/2+z
loop_
_atom_site_type_symbol
_atom_site_label
_atom_site_fract_x
_atom_site_fract_y
_atom_site_fract_z
Si Si1 0.500000 0.399819 0.750000
Si Si2 0.318951 0.630992 0.166153
Si Si3 0.847501 0.219608 0.451508
Si Si4 0.397407 0.690549 0.500706
Si Si5 0.112339 0.708545 0.757503
Si Si6 0.000000 0.029176 0.250000
Si Si7 0.000000 0.464159 0.750000
Si Si8 0.636868 0.266598 0.293202
O O1 0.579431 0.307101 0.773182
O O2 0.430037 0.516343 0.581887
O O3 0.320353 0.689451 0.296076
O O4 0.341569 0.448246 0.199256
O O5 0.215160 0.668075 0.963540
O O6 0.858354 0.270207 0.335451
O O7 0.726784 0.187935 0.334170
O O8 0.900058 0.357220 0.592534
O O9 0.919894 0.075460 0.575872
O O10 0.351066 0.762328 0.556205
O O11 0.511918 0.760403 0.612665
O O12 0.029418 0.573261 0.681961
O O13 0.063071 0.863317 0.744210
#
# Coordination Sequence:
#
# PCOD9226731 Si02
#       8
#     2   4   4   4   4   2   2   4
#     4   8  16  26  48  82 128 156 182 220 294 362
#     4  10  18  29  54  88 123 149 183 240 302 345
#     4  11  22  40  65  84 115 158 205 242 297 358
#     4   8  17  31  47  87 130 149 174 233 295 364
#     4  11  23  39  61  88 120 152 200 251 301 344
#     4  10  26  48  54  80 114 170 206 248 296 340
#     4  10  22  38  58  96 116 142 196 262 302 342
#     4   9  18  31  56  88 118 156 187 229 297 357
#
# _framework density 20.054514999999999
#
# number of rings (size 3 to 8) (size 9 to 14) (size 15 to 20)
#    0.000    2.769    1.538    2.769    6.462    0.000 
#   13.846    0.000    0.000    2.769    0.000    0.000 
#    0.000    0.000    0.000    0.000    0.000    0.000 
#
# Total GULP energy -145010.375308 kJ/mol
# GULP energy per Si atom -5577.322127 kJ/mol
# Density = 2.000887 g / cm^3
# Si number density = 20.054515 Si / 1000 Ang^3
#
#
#
# Elastic Constant Matrix: (Units=GPa)
#
#
# Indices 1 2 3 4 5 6 
#
# 1 91.5847 4.5678 10.1801 0.0000 -3.1416 0.0000
# 2 4.5678 35.5424 5.5083 0.0000 -3.5230 0.0000
# 3 10.1801 5.5083 50.7471 0.0000 -19.1521 0.0000
# 4 0.0000 0.0000 0.0000 5.6828 0.0000 0.8378
# 5 -3.1416 -3.5230 -19.1521 0.0000 20.7902 0.0000
# 6 0.0000 0.0000 0.0000 0.8378 0.0000 33.5487
#
#
#
# Elastic Compliance Matrix: (Units=1/GPa)
#
#
# Indices 1 2 3 4 5 6 
#
# 1 0.011217 -0.001141 -0.002391 0.000000 -0.000701 0.000000
# 2 -0.001141 0.028859 -0.001722 0.000000 0.003132 0.000000
# 3 -0.002391 -0.001722 0.030852 0.000000 0.027768 0.000000
# 4 0.000000 0.000000 0.000000 0.176618 0.000000 -0.004410
# 5 -0.000701 0.003132 0.027768 0.000000 0.074104 0.000000
# 6 0.000000 0.000000 0.000000 -0.004410 0.000000 0.029918
#
#
# Mechanical properties :
#
#
# Convention : Reuss Voigt Hill
#
# Bulk Modulus (GPa) = 16.55025 24.26520 20.40772
# Shear Modulus (GPa) = 13.08161 22.51220 17.79690
#
# Velocity S-wave (km/s) = 2.55679 3.35408 2.98220
# Velocity P-wave (km/s) = 4.12150 5.20824 4.69641
#
# Compressibility (1/GPa) = 0.06042205
#
# Stress axis : x y z
#
# Youngs Moduli (GPa) = 89.14662 34.65087 32.41313
#
# Poissons Ratio (x) = 0.03952 0.07750
# Poissons Ratio (y) = 0.10168 0.05581
# Poissons Ratio (z) = 0.21315 0.05966
#
# Static dielectric constant tensor:
#      x y z
#    x 1.759520 0.000000 0.013280 
#    y 0.000000 1.721740 0.000000 
#    z 0.013280 0.000000 1.704900 
# 
# From -- ./inp_files/40561.got.cif
#   From: 2010.05.17/outbox.cif.g08.bks.cpg/sg13_21_cif.got.tgz:40561.got - 2010.06.03 16:44:36.
