data_PCOD9226377
_publ_section_title
;
Structure prediction by ZEFSAII (Michael W. Deem and Ramdas Pophale) SiO2 
 PCOD9226377
Probable space group: P 2/C
;
_chemical_formula_sum "Si O2"
_cell_formula_units_Z 28
_cell_length_a 9.996152
_cell_length_b 25.495202
_cell_length_c 5.558897
_cell_angle_alpha 90.000000
_cell_angle_beta 66.732248
_cell_angle_gamma 90.000000
_cell_volume 1301.484296
_symmetry_space_group_name_H-M "P 2/C"
_symmetry_group_IT_number 13
_symmetry_cell_setting 'monoclinic'
loop_
_space_group_symop_operation_xyz
x,y,z
-x,y,1/2-z
-x,-y,-z
x,-y,1/2+z
loop_
_atom_site_type_symbol
_atom_site_label
_atom_site_fract_x
_atom_site_fract_y
_atom_site_fract_z
Si Si1 0.500000 0.605054 0.250000
Si Si2 0.835756 0.516859 0.901562
Si Si3 0.219993 0.676021 0.960560
Si Si4 0.322478 0.027580 0.877256
Si Si5 0.181191 0.639098 0.490677
Si Si6 0.676179 0.795297 0.623363
Si Si7 0.677343 0.850462 0.122802
Si Si8 0.500000 0.401505 0.250000
O O1 0.358776 0.641620 0.360333
O O2 0.504048 0.571557 0.489156
O O3 0.769932 0.512237 0.680282
O O4 0.000000 0.494889 0.750000
O O5 0.847335 0.577167 0.971430
O O6 0.135651 0.664092 0.774296
O O7 0.273211 0.735425 0.919377
O O8 0.357651 0.635882 0.855599
O O9 0.140773 0.663521 0.266142
O O10 0.500000 0.025647 0.750000
O O11 0.279740 0.088554 0.910508
O O12 0.275498 0.000384 0.659730
O O13 0.500000 0.796572 0.750000
O O14 0.724393 0.823615 0.340827
O O15 0.724299 0.822334 0.840672
O O16 0.500000 0.848739 0.250000
#
# Coordination Sequence:
#
# PCOD9226377 Si02
#       8
#     2   4   4   4   4   4   4   2
#     4   8  16  26  42  63  88 112 132 163 196 242
#     4  10  21  38  57  73  90 113 142 178 218 251
#     4  10  17  27  42  62  86 112 137 165 203 252
#     4   9  15  23  33  42  57  86 127 176 230 269
#     4  10  19  31  48  69  90 113 143 170 204 256
#     4  10  17  25  36  53  78 104 133 165 208 258
#     4   9  17  24  32  48  69  95 132 178 219 261
#     4   8  14  24  36  55  80 108 136 155 190 238
#
# _framework density 21.513898000000001
#
# number of rings (size 3 to 8) (size 9 to 14) (size 15 to 20)
#    0.000    2.571    0.714    2.571    0.000    3.429 
#    0.000    0.714    0.000    0.000    0.000    0.000 
#    0.000    0.000    0.000    0.000    0.000    0.000 
#
# Total GULP energy -156174.684504 kJ/mol
# GULP energy per Si atom -5577.667304 kJ/mol
# Density = 2.146493 g / cm^3
# Si number density = 21.513898 Si / 1000 Ang^3
#
#
#
# Elastic Constant Matrix: (Units=GPa)
#
#
# Indices 1 2 3 4 5 6 
#
# 1 46.8638 6.0184 43.2017 0.0000 10.8110 0.0000
# 2 6.0184 125.3372 82.4565 0.0000 23.0963 0.0000
# 3 43.2017 82.4565 255.6499 0.0000 61.7615 0.0000
# 4 0.0000 0.0000 0.0000 43.1223 0.0000 -2.6249
# 5 10.8110 23.0963 61.7615 0.0000 39.9707 0.0000
# 6 0.0000 0.0000 0.0000 -2.6249 0.0000 41.9523
#
#
#
# Elastic Compliance Matrix: (Units=1/GPa)
#
#
# Indices 1 2 3 4 5 6 
#
# 1 0.025698 0.002081 -0.004857 0.000000 -0.000648 0.000000
# 2 0.002081 0.010337 -0.003362 0.000000 -0.001342 0.000000
# 3 -0.004857 -0.003362 0.008026 0.000000 -0.009145 0.000000
# 4 0.000000 0.000000 0.000000 0.023279 0.000000 0.001457
# 5 -0.000648 -0.001342 -0.009145 0.000000 0.040100 0.000000
# 6 0.000000 0.000000 0.000000 0.001457 0.000000 0.023928
#
#
# Mechanical properties :
#
#
# Convention : Reuss Voigt Hill
#
# Bulk Modulus (GPa) = 31.46084 76.80046 54.13065
# Shear Modulus (GPa) = 32.41705 44.75400 38.58552
#
# Velocity S-wave (km/s) = 3.88596 4.56591 4.23959
# Velocity P-wave (km/s) = 5.89826 7.97322 7.01291
#
# Compressibility (1/GPa) = 0.03178555
#
# Stress axis : x y z
#
# Youngs Moduli (GPa) = 38.91287 96.73628 124.59292
#
# Poissons Ratio (x) = -0.20130 0.60520
# Poissons Ratio (y) = -0.08098 0.41885
# Poissons Ratio (z) = 0.18902 0.32520
#
# Static dielectric constant tensor:
#      x y z
#    x 1.859940 0.000000 0.015300 
#    y 0.000000 1.717110 0.000000 
#    z 0.015300 0.000000 1.844190 
# 
# From -- ./inp_files/4125.got.cif
#   From: 2010.05.17/outbox.cif.g08.bks.cpg/sg13_3_cif.got.tgz:4125.got - 2010.06.03 16:44:36.
