data_PCOD9226030
_publ_section_title
;
Structure prediction by ZEFSAII (Michael W. Deem and Ramdas Pophale) SiO2 
 PCOD9226030
Probable space group: P 2/C
;
_chemical_formula_sum "Si O2"
_cell_formula_units_Z 24
_cell_length_a 5.224025
_cell_length_b 7.083759
_cell_length_c 28.700889
_cell_angle_alpha 90.000000
_cell_angle_beta 102.870150
_cell_angle_gamma 90.000000
_cell_volume 1035.414786
_symmetry_space_group_name_H-M "P 2/C"
_symmetry_group_IT_number 13
_symmetry_cell_setting 'monoclinic'
loop_
_space_group_symop_operation_xyz
x,y,z
-x,y,1/2-z
-x,-y,-z
x,-y,1/2+z
loop_
_atom_site_type_symbol
_atom_site_label
_atom_site_fract_x
_atom_site_fract_y
_atom_site_fract_z
Si Si1 0.823333 0.675917 0.893355
Si Si2 0.690051 0.182070 0.954213
Si Si3 0.261996 0.246474 0.007470
Si Si4 0.500000 0.627011 0.250000
Si Si5 0.269071 0.720053 0.850927
Si Si6 0.546386 0.666582 0.352956
Si Si7 0.000000 0.359760 0.250000
O O1 0.777860 0.643084 0.945975
O O2 0.567944 0.790151 0.864871
O O3 0.796666 0.474198 0.867017
O O4 0.095976 0.767379 0.889132
O O5 0.566902 0.201739 0.898193
O O6 0.698914 0.966258 0.971536
O O7 0.505943 0.288941 0.984126
O O8 0.990494 0.249259 0.968425
O O9 0.520481 0.739321 0.299416
O O10 0.245037 0.490602 0.244055
O O11 0.322746 0.493063 0.851729
O O12 0.105969 0.761068 0.797910
#
# Coordination Sequence:
#
# PCOD9226030 Si02
#       7
#     4   4   4   2   4   4   2
#     4  10  19  32  51  77 106 128 173 208 260 297
#     4  10  22  37  55  72 105 139 179 207 262 310
#     4  10  22  38  52  75 103 145 172 213 255 314
#     4  10  18  30  52  76 106 130 164 212 262 306
#     4   9  18  29  49  77 102 134 163 215 254 301
#     4   9  21  32  55  79 103 133 172 215 260 305
#     4  10  14  30  46  72 106 134 164 200 256 316
#
# _framework density 23.179117000000002
#
# number of rings (size 3 to 8) (size 9 to 14) (size 15 to 20)
#    1.000    1.333    1.667    1.000    2.333    1.333 
#    0.000    0.000    0.000    3.000    0.000    1.167 
#    0.000    0.000    0.000    0.000    0.000    0.000 
#
# Total GULP energy -133791.824815 kJ/mol
# GULP energy per Si atom -5574.659367 kJ/mol
# Density = 2.312636 g / cm^3
# Si number density = 23.179117 Si / 1000 Ang^3
#
#
#
# Elastic Constant Matrix: (Units=GPa)
#
#
# Indices 1 2 3 4 5 6 
#
# 1 95.7947 4.6112 11.8258 0.0000 -30.6689 0.0000
# 2 4.6112 34.6277 17.5404 0.0000 6.8073 0.0000
# 3 11.8258 17.5404 165.5324 0.0000 2.2858 0.0000
# 4 0.0000 0.0000 0.0000 0.7818 0.0000 2.7008
# 5 -30.6689 6.8073 2.2858 0.0000 26.9106 0.0000
# 6 0.0000 0.0000 0.0000 2.7008 0.0000 -0.0415
#
#
#
# Elastic Compliance Matrix: (Units=1/GPa)
#
#
# Indices 1 2 3 4 5 6 
#
# 1 0.017928 -0.006264 -0.000922 0.000000 0.022095 0.000000
# 2 -0.006264 0.034275 -0.002970 0.000000 -0.015556 0.000000
# 3 -0.000922 -0.002970 0.006433 0.000000 -0.000846 0.000000
# 4 0.000000 0.000000 0.000000 0.005666 0.000000 0.368621
# 5 0.022095 -0.015556 -0.000846 0.000000 0.066347 0.000000
# 6 0.000000 0.000000 0.000000 0.368621 0.000000 -0.106707
#
#
# Mechanical properties :
#
#
# Convention : Reuss Voigt Hill
#
# Bulk Modulus (GPa) = 26.09227 40.43437 33.26332
# Shear Modulus (GPa) = 87.67402 22.99534 55.33468
#
# Velocity S-wave (km/s) = 6.15684 3.15313 4.89126
# Velocity P-wave (km/s) = 7.86279 5.54423 6.80301
#
# Compressibility (1/GPa) = 0.03832552
#
# Stress axis : x y z
#
# Youngs Moduli (GPa) = 55.77867 29.17567 155.44000
#
# Poissons Ratio (x) = 0.18275 0.14334
# Poissons Ratio (y) = 0.34938 0.46160
# Poissons Ratio (z) = 0.05144 0.08664
#
# Static dielectric constant tensor:
#      x y z
#    x 1.881570 0.000000 0.003030 
#    y 0.000000 1.924600 0.000000 
#    z 0.003030 0.000000 1.917090 
# 
# From -- ./inp_files/90167.got.cif
#   From: 2010.05.17/outbox.cif.g08.bks.cpg/sg13_46_cif.got.tgz:90167.got - 2010.06.03 16:44:36.
