data_PCOD9226692
_publ_section_title
;
Structure prediction by ZEFSAII (Michael W. Deem and Ramdas Pophale) SiO2 
 PCOD9226692
Probable space group: P 2/C
;
_chemical_formula_sum "Si O2"
_cell_formula_units_Z 20
_cell_length_a 7.387865
_cell_length_b 13.094203
_cell_length_c 10.866100
_cell_angle_alpha 90.000000
_cell_angle_beta 125.669198
_cell_angle_gamma 90.000000
_cell_volume 853.965042
_symmetry_space_group_name_H-M "P 2/C"
_symmetry_group_IT_number 13
_symmetry_cell_setting 'monoclinic'
loop_
_space_group_symop_operation_xyz
x,y,z
-x,y,1/2-z
-x,-y,-z
x,-y,1/2+z
loop_
_atom_site_type_symbol
_atom_site_label
_atom_site_fract_x
_atom_site_fract_y
_atom_site_fract_z
Si Si1 0.195736 0.421613 0.920095
Si Si2 0.306266 0.344713 0.440926
Si Si3 0.770524 0.720272 0.856637
Si Si4 0.330775 0.914817 0.565543
Si Si5 0.384850 0.864224 0.070860
O O1 0.220451 0.543069 0.938031
O O2 0.000000 0.395850 0.750000
O O3 0.428028 0.369092 0.969629
O O4 0.145093 0.373405 0.030962
O O5 0.198960 0.303427 0.272556
O O6 0.277632 0.247544 0.517407
O O7 0.500000 0.718777 0.750000
O O8 0.830155 0.825844 0.948945
O O9 0.500000 0.925261 0.750000
O O10 0.453326 0.877560 0.487286
O O11 0.245016 0.029745 0.508197
O O12 0.500000 0.864301 0.250000
#
# Coordination Sequence:
#
# PCOD9226692 Si02
#       5
#     4   4   4   4   4
#     4  10  21  35  55  82 109 150 193 238 279 334
#     4  10  20  36  56  82 116 149 186 233 285 338
#     4   9  16  34  55  75 110 148 180 222 286 336
#     4   9  15  30  52  81 112 144 185 225 287 336
#     4  10  18  27  52  88 111 137 191 237 266 338
#
# _framework density 23.420164
#
# number of rings (size 3 to 8) (size 9 to 14) (size 15 to 20)
#    0.000    2.400    6.000    0.000    0.000    4.800 
#    0.000    0.000    0.000    1.200    0.000   22.400 
#    0.000    0.000    0.000    0.000    0.000    0.000 
#
# Total GULP energy -111525.208676 kJ/mol
# GULP energy per Si atom -5576.260434 kJ/mol
# Density = 2.336686 g / cm^3
# Si number density = 23.420164 Si / 1000 Ang^3
#
#
#
# Elastic Constant Matrix: (Units=GPa)
#
#
# Indices 1 2 3 4 5 6 
#
# 1 105.8943 48.8406 42.7911 0.0000 -5.0728 0.0000
# 2 48.8406 206.0532 56.5506 0.0000 -26.7442 0.0000
# 3 42.7911 56.5506 127.2534 0.0000 -28.2811 0.0000
# 4 0.0000 0.0000 0.0000 28.1762 0.0000 -1.6623
# 5 -5.0728 -26.7442 -28.2811 0.0000 22.8222 0.0000
# 6 0.0000 0.0000 0.0000 -1.6623 0.0000 9.8592
#
#
#
# Elastic Compliance Matrix: (Units=1/GPa)
#
#
# Indices 1 2 3 4 5 6 
#
# 1 0.011960 -0.002383 -0.004130 0.000000 -0.005252 0.000000
# 2 -0.002383 0.006400 -0.000681 0.000000 0.006126 0.000000
# 3 -0.004130 -0.000681 0.012653 0.000000 0.013963 0.000000
# 4 0.000000 0.000000 0.000000 0.035848 0.000000 0.006044
# 5 -0.005252 0.006126 0.013963 0.000000 0.067131 0.000000
# 6 0.000000 0.000000 0.000000 0.006044 0.000000 0.102447
#
#
# Mechanical properties :
#
#
# Convention : Reuss Voigt Hill
#
# Bulk Modulus (GPa) = 60.15282 81.72951 70.94117
# Shear Modulus (GPa) = 19.50317 31.57276 25.53797
#
# Velocity S-wave (km/s) = 2.88887 3.67563 3.30574
# Velocity P-wave (km/s) = 6.07185 7.27919 6.70276
#
# Compressibility (1/GPa) = 0.01662432
#
# Stress axis : x y z
#
# Youngs Moduli (GPa) = 83.61388 156.24862 79.03211
#
# Poissons Ratio (x) = 0.37235 0.32639
# Poissons Ratio (y) = 0.19925 0.05385
# Poissons Ratio (z) = 0.34531 0.10647
#
# Static dielectric constant tensor:
#      x y z
#    x 2.061490 0.000000 0.000540 
#    y 0.000000 1.922830 0.000000 
#    z 0.000540 0.000000 1.840480 
# 
# From -- ./inp_files/29784.got.cif
#   From: 2010.05.17/outbox.cif.g08.bks.cpg/sg13_15_cif.got.tgz:29784.got - 2010.06.03 16:44:36.
