data_PCOD9226957
_publ_section_title
;
Structure prediction by ZEFSAII (Michael W. Deem and Ramdas Pophale) SiO2 
 PCOD9226957
Probable space group: P 2/C
;
_chemical_formula_sum "Si O2"
_cell_formula_units_Z 24
_cell_length_a 13.686236
_cell_length_b 16.129006
_cell_length_c 10.141849
_cell_angle_alpha 90.000000
_cell_angle_beta 149.792627
_cell_angle_gamma 90.000000
_cell_volume 1126.393104
_symmetry_space_group_name_H-M "P 2/C"
_symmetry_group_IT_number 13
_symmetry_cell_setting 'monoclinic'
loop_
_space_group_symop_operation_xyz
x,y,z
-x,y,1/2-z
-x,-y,-z
x,-y,1/2+z
loop_
_atom_site_type_symbol
_atom_site_label
_atom_site_fract_x
_atom_site_fract_y
_atom_site_fract_z
Si Si1 0.251217 0.452541 0.686795
Si Si2 0.577988 0.286624 0.489199
Si Si3 0.623431 0.891847 0.028277
Si Si4 0.655767 0.067890 0.050394
Si Si5 0.795131 0.576526 0.655290
Si Si6 0.679505 0.244342 0.063132
O O1 0.319102 0.369054 0.838946
O O2 0.301798 0.533894 0.830257
O O3 0.306262 0.451302 0.597968
O O4 0.017446 0.451077 0.410624
O O5 0.705015 0.200968 0.642112
O O6 0.406007 0.265066 0.391872
O O7 0.500000 0.299138 0.250000
O O8 0.500000 0.885567 0.750000
O O9 0.472081 0.912207 0.969017
O O10 0.749423 0.976461 0.168294
O O11 0.773901 0.152981 0.167858
O O12 0.500000 0.061990 0.750000
O O13 0.799866 0.675665 0.664741
O O14 0.500000 0.242043 0.750000
#
# Coordination Sequence:
#
# PCOD9226957 Si02
#       6
#     4   4   4   4   4   4
#     4  10  22  39  53  72  98 134 167 204 253 305
#     4  10  20  32  51  78 106 129 163 207 249 287
#     4   8  14  26  42  68 100 130 155 191 240 289
#     4   8  14  24  44  68  98 128 157 194 238 287
#     4  10  22  38  55  71  98 132 170 204 251 307
#     4  10  18  32  51  78 102 127 167 210 247 287
#
# _framework density 21.306947999999998
#
# number of rings (size 3 to 8) (size 9 to 14) (size 15 to 20)
#    0.000    2.667    1.667    0.000    2.333    1.333 
#    0.000    0.000    0.000    1.000    0.000    0.000 
#    0.000    0.000    0.000    0.000    0.000    0.000 
#
# Total GULP energy -133654.943498 kJ/mol
# GULP energy per Si atom -5568.955979 kJ/mol
# Density = 2.125845 g / cm^3
# Si number density = 21.306948 Si / 1000 Ang^3
#
#
#
# Elastic Constant Matrix: (Units=GPa)
#
#
# Indices 1 2 3 4 5 6 
#
# 1 48.4187 -1.3075 30.4920 0.0000 -31.3639 0.0000
# 2 -1.3075 175.0859 30.2863 0.0000 -6.9050 0.0000
# 3 30.4920 30.2863 75.6222 0.0000 -25.1730 0.0000
# 4 0.0000 0.0000 0.0000 12.5245 0.0000 -14.7725
# 5 -31.3639 -6.9050 -25.1730 0.0000 34.8546 0.0000
# 6 0.0000 0.0000 0.0000 -14.7725 0.0000 14.8072
#
#
#
# Elastic Compliance Matrix: (Units=1/GPa)
#
#
# Indices 1 2 3 4 5 6 
#
# 1 0.054392 0.003671 -0.009041 0.000000 0.043142 0.000000
# 2 0.003671 0.006399 -0.003319 0.000000 0.002174 0.000000
# 3 -0.009041 -0.003319 0.020105 0.000000 0.005727 0.000000
# 4 0.000000 0.000000 0.000000 -0.451805 0.000000 -0.450745
# 5 0.043142 0.002174 0.005727 0.000000 0.072079 0.000000
# 6 0.000000 0.000000 0.000000 -0.450745 0.000000 -0.382152
#
#
# Mechanical properties :
#
#
# Convention : Reuss Voigt Hill
#
# Bulk Modulus (GPa) = 15.74360 46.45205 31.09782
# Shear Modulus (GPa) = -7.78292 28.41432 10.31570
#
# Velocity S-wave (km/s) = -1.91329 3.65577 2.20272
# Velocity P-wave (km/s) = 1.58873 6.29827 4.59305
#
# Compressibility (1/GPa) = 0.06351787
#
# Stress axis : x y z
#
# Youngs Moduli (GPa) = 18.38519 156.27873 49.73896
#
# Poissons Ratio (x) = -0.57377 0.44968
# Poissons Ratio (y) = -0.06750 0.16510
# Poissons Ratio (z) = 0.16622 0.51875
#
# Static dielectric constant tensor:
#      x y z
#    x 1.789720 0.000000 -0.011480 
#    y 0.000000 1.869870 0.000000 
#    z -0.011480 0.000000 1.757310 
# 
# From -- ./inp_files/12543.got.cif
#   From: 2010.05.17/outbox.cif.g08.bks.cpg/sg13_7_cif.got.tgz:12543.got - 2010.06.03 16:44:36.
