data_PCOD9226108
_publ_section_title
;
Structure prediction by ZEFSAII (Michael W. Deem and Ramdas Pophale) SiO2 
 PCOD9226108
Probable space group: P 2/C
;
_chemical_formula_sum "Si O2"
_cell_formula_units_Z 26
_cell_length_a 22.279938
_cell_length_b 13.068475
_cell_length_c 5.445020
_cell_angle_alpha 90.000000
_cell_angle_beta 118.638506
_cell_angle_gamma 90.000000
_cell_volume 1391.442305
_symmetry_space_group_name_H-M "P 2/C"
_symmetry_group_IT_number 13
_symmetry_cell_setting 'monoclinic'
loop_
_space_group_symop_operation_xyz
x,y,z
-x,y,1/2-z
-x,-y,-z
x,-y,1/2+z
loop_
_atom_site_type_symbol
_atom_site_label
_atom_site_fract_x
_atom_site_fract_y
_atom_site_fract_z
Si Si1 0.368213 0.559022 0.473831
Si Si2 0.709054 0.037457 0.720344
Si Si3 0.571577 0.899376 0.456494
Si Si4 0.792930 0.392995 0.843608
Si Si5 0.607663 0.206225 0.523737
Si Si6 0.150937 0.623930 0.546223
Si Si7 0.000000 0.568283 0.250000
O O1 0.386831 0.504454 0.766172
O O2 0.285866 0.574650 0.311235
O O3 0.396129 0.673178 0.511778
O O4 0.684223 0.155064 0.658516
O O5 0.743629 0.995721 0.541949
O O6 0.636129 0.975046 0.590092
O O7 0.500000 0.952037 0.250000
O O8 0.570347 0.841649 0.713251
O O9 0.583222 0.824850 0.247322
O O10 0.834265 0.500860 0.924711
O O11 0.813980 0.337374 0.634124
O O12 0.814048 0.337488 0.135804
O O13 0.069598 0.633348 0.386509
O O14 0.000000 0.500000 0.500000
#
# Coordination Sequence:
#
# PCOD9226108 Si02
#       7
#     4   4   4   4   4   4   2
#     4  12  21  33  49  61  84 120 157 192 215 221
#     4   8  16  29  47  71  96 107 122 160 211 269
#     4  10  19  34  55  75  91 106 125 165 224 282
#     4  10  16  27  39  53  72 104 146 184 208 227
#     4  10  21  32  47  74  91 108 142 177 210 262
#     4  10  16  25  36  56  77  98 141 181 222 249
#     4  12  16  20  34  52  78 102 118 180 232 258
#
# _framework density 18.685645000000001
#
# number of rings (size 3 to 8) (size 9 to 14) (size 15 to 20)
#    0.000    1.846    6.154    1.385    0.000    5.538 
#    0.000    0.000    0.000    9.231    0.000    0.000 
#    0.000    0.000    0.000    0.000    0.000    0.000 
#
# Total GULP energy -144949.957520 kJ/mol
# GULP energy per Si atom -5574.998366 kJ/mol
# Density = 1.864312 g / cm^3
# Si number density = 18.685645 Si / 1000 Ang^3
#
#
#
# Elastic Constant Matrix: (Units=GPa)
#
#
# Indices 1 2 3 4 5 6 
#
# 1 31.7104 15.2610 36.8678 0.0000 -29.5245 0.0000
# 2 15.2610 76.0409 19.6156 0.0000 -20.5131 0.0000
# 3 36.8678 19.6156 109.0173 0.0000 -59.6841 0.0000
# 4 0.0000 0.0000 0.0000 13.3041 0.0000 -11.1243
# 5 -29.5245 -20.5131 -59.6841 0.0000 49.0497 0.0000
# 6 0.0000 0.0000 0.0000 -11.1243 0.0000 2.2738
#
#
#
# Elastic Compliance Matrix: (Units=1/GPa)
#
#
# Indices 1 2 3 4 5 6 
#
# 1 0.072597 -0.003323 -0.002367 0.000000 0.039428 0.000000
# 2 -0.003323 0.015150 0.002311 0.000000 0.007148 0.000000
# 3 -0.002367 0.002311 0.027878 0.000000 0.033464 0.000000
# 4 0.000000 0.000000 0.000000 -0.024319 0.000000 -0.118978
# 5 0.039428 0.007148 0.033464 0.000000 0.087829 0.000000
# 6 0.000000 0.000000 0.000000 -0.118978 0.000000 -0.142291
#
#
# Mechanical properties :
#
#
# Convention : Reuss Voigt Hill
#
# Bulk Modulus (GPa) = 9.18558 40.02860 24.60709
# Shear Modulus (GPa) = 62.58500 22.59379 42.58940
#
# Velocity S-wave (km/s) = 5.79365 3.48106 4.77934
# Velocity P-wave (km/s) = 7.04852 6.13398 6.60709
#
# Compressibility (1/GPa) = 0.10886631
#
# Stress axis : x y z
#
# Youngs Moduli (GPa) = 13.77467 66.00768 35.87008
#
# Poissons Ratio (x) = 0.21934 0.08492
# Poissons Ratio (y) = 0.04577 -0.08290
# Poissons Ratio (z) = 0.03261 -0.15254
#
# Static dielectric constant tensor:
#      x y z
#    x 1.707290 0.000000 -0.063980 
#    y 0.000000 1.642080 0.000000 
#    z -0.063980 0.000000 1.751700 
# 
# From -- ./inp_files/6926.got.cif
#   From: 2010.05.17/outbox.cif.g08.bks.cpg/sg13_4_cif.got.tgz:6926.got - 2010.06.03 16:44:36.
