data_PCOD9226802
_publ_section_title
;
Structure prediction by ZEFSAII (Michael W. Deem and Ramdas Pophale) SiO2 
 PCOD9226802
Probable space group: P 2/C
;
_chemical_formula_sum "Si O2"
_cell_formula_units_Z 32
_cell_length_a 15.522215
_cell_length_b 22.598679
_cell_length_c 8.944364
_cell_angle_alpha 90.000000
_cell_angle_beta 31.470224
_cell_angle_gamma 90.000000
_cell_volume 1637.958122
_symmetry_space_group_name_H-M "P 2/C"
_symmetry_group_IT_number 13
_symmetry_cell_setting 'monoclinic'
loop_
_space_group_symop_operation_xyz
x,y,z
-x,y,1/2-z
-x,-y,-z
x,-y,1/2+z
loop_
_atom_site_type_symbol
_atom_site_label
_atom_site_fract_x
_atom_site_fract_y
_atom_site_fract_z
Si Si1 0.166632 0.837082 0.099297
Si Si2 0.813627 0.521169 0.292273
Si Si3 0.639549 0.040006 0.720544
Si Si4 0.504337 0.829300 0.408623
Si Si5 0.325913 0.754067 0.096942
Si Si6 0.375805 0.622641 0.076091
Si Si7 0.836839 0.038012 0.717289
Si Si8 0.377138 0.552431 0.634451
O O1 0.195752 0.785909 0.180450
O O2 0.163674 0.900335 0.190332
O O3 0.000000 0.830818 0.250000
O O4 0.326318 0.833311 0.753773
O O5 0.760800 0.572230 0.251793
O O6 0.765171 0.547080 0.526770
O O7 0.700410 0.465227 0.409064
O O8 0.000000 0.500000 0.000000
O O9 0.571578 0.104613 0.793111
O O10 0.790587 0.046890 0.613692
O O11 0.698595 0.004829 0.489784
O O12 0.500000 0.000000 0.000000
O O13 0.500000 0.802157 0.250000
O O14 0.631498 0.794442 0.325022
O O15 0.294410 0.686924 0.193148
O O16 0.500000 0.751889 0.750000
O O17 0.500000 0.617233 0.750000
O O18 0.505100 0.609311 0.018839
O O19 0.000000 0.000000 0.500000
O O20 0.500000 0.500000 0.500000
#
# Coordination Sequence:
#
# PCOD9226802 Si02
#       8
#     4   4   4   4   4   4   4   4
#     4  11  23  41  61  85 116 148 194 242 296 354
#     4  10  18  30  51  86 120 148 182 234 288 327
#     4  12  23  38  60  85 118 146 189 237 288 353
#     4  11  23  40  61  87 112 151 194 241 291 349
#     4   9  19  40  64  80 110 157 203 239 286 345
#     4   8  16  33  57  82 110 152 199 235 273 344
#     4  12  25  40  56  90 117 148 185 238 299 354
#     4   9  17  31  52  79 112 150 191 227 276 332
#
# _framework density 19.536519999999999
#
# number of rings (size 3 to 8) (size 9 to 14) (size 15 to 20)
#    0.000    1.750    2.500    3.750    1.750    0.000 
#    0.000    8.125    0.000    3.000    0.000    0.000 
#    0.000    0.000    0.000    0.000    0.000    0.000 
#
# Total GULP energy -178496.681416 kJ/mol
# GULP energy per Si atom -5578.021294 kJ/mol
# Density = 1.949205 g / cm^3
# Si number density = 19.536520 Si / 1000 Ang^3
#
#
#
# Elastic Constant Matrix: (Units=GPa)
#
#
# Indices 1 2 3 4 5 6 
#
# 1 134.5821 47.2851 21.3190 0.0000 -14.5086 0.0000
# 2 47.2851 123.9193 23.6958 0.0000 -14.0884 0.0000
# 3 21.3190 23.6958 57.0482 0.0000 -13.7169 0.0000
# 4 0.0000 0.0000 0.0000 15.8957 0.0000 -4.2535
# 5 -14.5086 -14.0884 -13.7169 0.0000 32.5196 0.0000
# 6 0.0000 0.0000 0.0000 -4.2535 0.0000 24.1709
#
#
#
# Elastic Compliance Matrix: (Units=1/GPa)
#
#
# Indices 1 2 3 4 5 6 
#
# 1 0.008915 -0.002853 -0.001655 0.000000 0.002043 0.000000
# 2 -0.002853 0.009868 -0.002572 0.000000 0.001918 0.000000
# 3 -0.001655 -0.002572 0.020889 0.000000 0.006958 0.000000
# 4 0.000000 0.000000 0.000000 0.066019 0.000000 0.011618
# 5 0.002043 0.001918 0.006958 0.000000 0.035428 0.000000
# 6 0.000000 0.000000 0.000000 0.011618 0.000000 0.043416
#
#
# Mechanical properties :
#
#
# Convention : Reuss Voigt Hill
#
# Bulk Modulus (GPa) = 39.19664 55.57216 47.38440
# Shear Modulus (GPa) = 24.13124 29.40055 26.76590
#
# Velocity S-wave (km/s) = 3.51833 3.88352 3.70543
# Velocity P-wave (km/s) = 6.05076 6.97251 6.52793
#
# Compressibility (1/GPa) = 0.02551239
#
# Stress axis : x y z
#
# Youngs Moduli (GPa) = 112.16644 101.33558 47.87232
#
# Poissons Ratio (x) = 0.28912 0.07924
# Poissons Ratio (y) = 0.32002 0.12311
# Poissons Ratio (z) = 0.18567 0.26060
#
# Static dielectric constant tensor:
#      x y z
#    x 1.728640 0.000000 0.024840 
#    y 0.000000 1.689960 0.000000 
#    z 0.024840 0.000000 1.694790 
# 
# From -- ./inp_files/20231.got.cif
#   From: 2010.05.17/outbox.cif.g08.bks.cpg/sg13_11_cif.got.tgz:20231.got - 2010.06.03 16:44:36.
