data_PCOD9226641
_publ_section_title
;
Structure prediction by ZEFSAII (Michael W. Deem and Ramdas Pophale) SiO2 
 PCOD9226641
Probable space group: P 2/C
;
_chemical_formula_sum "Si O2"
_cell_formula_units_Z 32
_cell_length_a 9.299257
_cell_length_b 10.178393
_cell_length_c 18.489159
_cell_angle_alpha 90.000000
_cell_angle_beta 91.390231
_cell_angle_gamma 90.000000
_cell_volume 1749.511356
_symmetry_space_group_name_H-M "P 2/C"
_symmetry_group_IT_number 13
_symmetry_cell_setting 'monoclinic'
loop_
_space_group_symop_operation_xyz
x,y,z
-x,y,1/2-z
-x,-y,-z
x,-y,1/2+z
loop_
_atom_site_type_symbol
_atom_site_label
_atom_site_fract_x
_atom_site_fract_y
_atom_site_fract_z
Si Si1 0.288580 0.697472 0.694549
Si Si2 0.074500 0.931764 0.432207
Si Si3 0.157332 0.728071 0.061646
Si Si4 0.353577 0.930089 0.974707
Si Si5 0.088960 0.443744 0.680650
Si Si6 0.863055 0.398176 0.087423
Si Si7 0.599166 0.709207 0.645486
Si Si8 0.023140 0.155836 0.164984
O O1 0.187905 0.569332 0.701432
O O2 0.433872 0.669843 0.652924
O O3 0.338388 0.743791 0.774533
O O4 0.189225 0.806156 0.654760
O O5 0.001802 0.790797 0.432021
O O6 0.241830 0.958659 0.446065
O O7 0.000000 0.000000 0.500000
O O8 0.021163 0.012911 0.361974
O O9 0.184676 0.662471 0.139498
O O10 0.269592 0.839604 0.034131
O O11 0.149956 0.619380 0.998275
O O12 0.386115 0.829712 0.909602
O O13 0.500000 0.000000 0.000000
O O14 0.000000 0.399717 0.750000
O O15 0.970202 0.496390 0.621909
O O16 0.702730 0.405269 0.117195
O O17 0.927552 0.259098 0.118441
O O18 0.000000 0.174961 0.250000
#
# Coordination Sequence:
#
# PCOD9226641 Si02
#       8
#     4   4   4   4   4   4   4   4
#     4  10  20  31  58  83 112 141 197 238 294 329
#     4  10  19  35  54  79 116 150 186 233 287 336
#     4  10  22  36  57  83 116 151 194 232 295 350
#     4  10  21  36  59  84 123 150 189 237 292 354
#     4  11  21  37  58  83 113 150 194 241 288 342
#     4  10  17  36  55  82 111 143 190 242 284 330
#     4  10  18  34  53  88 109 147 189 239 292 340
#     4  11  17  31  56  84 105 144 193 248 275 335
#
# _framework density 18.290823
#
# number of rings (size 3 to 8) (size 9 to 14) (size 15 to 20)
#    0.000    1.750    6.250    1.125    3.500    0.500 
#    0.000    3.750    0.000    0.000    0.000    0.000 
#    0.000    0.000    0.000    0.000    0.000    0.000 
#
# Total GULP energy -178305.650464 kJ/mol
# GULP energy per Si atom -5572.051577 kJ/mol
# Density = 1.824919 g / cm^3
# Si number density = 18.290823 Si / 1000 Ang^3
#
#
#
# Elastic Constant Matrix: (Units=GPa)
#
#
# Indices 1 2 3 4 5 6 
#
# 1 129.8105 23.1601 40.6119 0.0000 -3.7867 0.0000
# 2 23.1601 40.0908 24.0880 0.0000 -2.7472 0.0000
# 3 40.6119 24.0880 80.9948 0.0000 -10.1836 0.0000
# 4 0.0000 0.0000 0.0000 22.3005 0.0000 -0.0153
# 5 -3.7867 -2.7472 -10.1836 0.0000 26.0046 0.0000
# 6 0.0000 0.0000 0.0000 -0.0153 0.0000 17.3261
#
#
#
# Elastic Compliance Matrix: (Units=1/GPa)
#
#
# Indices 1 2 3 4 5 6 
#
# 1 0.009465 -0.003181 -0.003858 0.000000 -0.000469 0.000000
# 2 -0.003181 0.031443 -0.007780 0.000000 -0.000188 0.000000
# 3 -0.003858 -0.007780 0.017271 0.000000 0.005380 0.000000
# 4 0.000000 0.000000 0.000000 0.044842 0.000000 0.000040
# 5 -0.000469 -0.000188 0.005380 0.000000 0.040473 0.000000
# 6 0.000000 0.000000 0.000000 0.000040 0.000000 0.057717
#
#
# Mechanical properties :
#
#
# Convention : Reuss Voigt Hill
#
# Bulk Modulus (GPa) = 35.03908 47.40178 41.22043
# Shear Modulus (GPa) = 20.80192 23.99531 22.39862
#
# Velocity S-wave (km/s) = 3.37603 3.62591 3.50320
# Velocity P-wave (km/s) = 5.86472 6.59557 6.24085
#
# Compressibility (1/GPa) = 0.02853956
#
# Stress axis : x y z
#
# Youngs Moduli (GPa) = 105.65661 31.80397 57.89978
#
# Poissons Ratio (x) = 0.10118 0.22340
# Poissons Ratio (y) = 0.33614 0.45043
# Poissons Ratio (z) = 0.40767 0.24742
#
# Static dielectric constant tensor:
#      x y z
#    x 1.688830 0.000000 -0.072190 
#    y 0.000000 1.679080 0.000000 
#    z -0.072190 0.000000 1.764330 
# 
# From -- ./inp_files/64276.got.cif
#   From: 2010.05.17/outbox.cif.g08.bks.cpg/sg13_33_cif.got.tgz:64276.got - 2010.06.03 16:44:36.
