data_PCOD9226485
_publ_section_title
;
Structure prediction by ZEFSAII (Michael W. Deem and Ramdas Pophale) SiO2 
 PCOD9226485
Probable space group: P 2/C
;
_chemical_formula_sum "Si O2"
_cell_formula_units_Z 28
_cell_length_a 23.396366
_cell_length_b 7.866203
_cell_length_c 18.108018
_cell_angle_alpha 90.000000
_cell_angle_beta 160.943451
_cell_angle_gamma 90.000000
_cell_volume 1088.101085
_symmetry_space_group_name_H-M "P 2/C"
_symmetry_group_IT_number 13
_symmetry_cell_setting 'monoclinic'
loop_
_space_group_symop_operation_xyz
x,y,z
-x,y,1/2-z
-x,-y,-z
x,-y,1/2+z
loop_
_atom_site_type_symbol
_atom_site_label
_atom_site_fract_x
_atom_site_fract_y
_atom_site_fract_z
Si Si1 0.612652 0.927164 0.326577
Si Si2 0.805712 0.559927 0.732352
Si Si3 0.042782 0.885691 0.216606
Si Si4 0.022857 0.512430 0.692542
Si Si5 0.327488 0.390948 0.283716
Si Si6 0.692424 0.077512 0.755541
Si Si7 0.565338 0.244546 0.462962
O O1 0.500000 0.824289 0.250000
O O2 0.786210 0.999643 0.577883
O O3 0.667607 0.859893 0.310982
O O4 0.485950 0.088330 0.151283
O O5 0.724796 0.676887 0.698879
O O6 0.657849 0.411808 0.543449
O O7 0.852703 0.622157 0.707566
O O8 0.000000 0.500000 0.000000
O O9 0.000000 0.882491 0.250000
O O10 0.073059 0.686102 0.237116
O O11 0.869132 0.965418 0.968267
O O12 0.825929 0.515373 0.424844
O O13 0.000000 0.551835 0.750000
O O14 0.500000 0.500000 0.500000
O O15 0.376889 0.280076 0.272960
O O16 0.700398 0.195456 0.692990
O O17 0.500000 0.000000 0.500000
#
# Coordination Sequence:
#
# PCOD9226485 Si02
#       7
#     4   4   4   4   4   4   4
#     4  10  19  32  51  81 109 130 168 221 269 313
#     4   9  19  33  51  77 104 134 175 220 257 303
#     4   9  17  30  50  78 104 129 166 214 264 312
#     4  10  17  30  52  77 102 128 163 214 270 309
#     4   9  18  32  50  72 101 135 171 216 257 298
#     4   9  18  32  50  74 104 139 171 203 255 326
#     4  10  18  33  55  75 103 143 176 210 264 315
#
# _framework density 25.732903
#
# number of rings (size 3 to 8) (size 9 to 14) (size 15 to 20)
#    0.000    2.571    0.000    4.286    0.000    0.000 
#    0.000   11.429    0.000   28.286    0.000    0.000 
#    0.000    0.000    0.000    0.000    0.000    0.000 
#
# Total GULP energy -156012.858097 kJ/mol
# GULP energy per Si atom -5571.887789 kJ/mol
# Density = 2.567433 g / cm^3
# Si number density = 25.732903 Si / 1000 Ang^3
#
#
#
# Elastic Constant Matrix: (Units=GPa)
#
#
# Indices 1 2 3 4 5 6 
#
# 1 211.6696 13.0142 40.4642 0.0000 16.3956 0.0000
# 2 13.0142 40.9184 33.1126 0.0000 -2.0707 0.0000
# 3 40.4642 33.1126 135.3835 0.0000 8.0596 0.0000
# 4 0.0000 0.0000 0.0000 36.1039 0.0000 2.1231
# 5 16.3956 -2.0707 8.0596 0.0000 35.5557 0.0000
# 6 0.0000 0.0000 0.0000 2.1231 0.0000 17.9424
#
#
#
# Elastic Compliance Matrix: (Units=1/GPa)
#
#
# Indices 1 2 3 4 5 6 
#
# 1 0.005173 -0.000756 -0.001233 0.000000 -0.002150 0.000000
# 2 -0.000756 0.031019 -0.007591 0.000000 0.003876 0.000000
# 3 -0.001233 -0.007591 0.009736 0.000000 -0.002080 0.000000
# 4 0.000000 0.000000 0.000000 0.027892 0.000000 -0.003300
# 5 -0.002150 0.003876 -0.002080 0.000000 0.029814 0.000000
# 6 0.000000 0.000000 0.000000 -0.003300 0.000000 0.056124
#
#
# Mechanical properties :
#
#
# Convention : Reuss Voigt Hill
#
# Bulk Modulus (GPa) = 37.36103 62.35039 49.85571
# Shear Modulus (GPa) = 26.61828 38.01244 32.31536
#
# Velocity S-wave (km/s) = 3.21971 3.84760 3.54757
# Velocity P-wave (km/s) = 5.32657 6.63484 6.01637
#
# Compressibility (1/GPa) = 0.02676585
#
# Stress axis : x y z
#
# Youngs Moduli (GPa) = 193.30691 32.23859 102.71580
#
# Poissons Ratio (x) = 0.02438 0.12667
# Poissons Ratio (y) = 0.14617 0.77976
# Poissons Ratio (z) = 0.23839 0.24474
#
# Static dielectric constant tensor:
#      x y z
#    x 2.143280 0.000000 -0.019000 
#    y 0.000000 2.295020 0.000000 
#    z -0.019000 0.000000 2.004170 
# 
# From -- ./inp_files/71432.got.cif
#   From: 2010.05.17/outbox.cif.g08.bks.cpg/sg13_36_cif.got.tgz:71432.got - 2010.06.03 16:44:36.
