data_PCOD9226941
_publ_section_title
;
Structure prediction by ZEFSAII (Michael W. Deem and Ramdas Pophale) SiO2 
 PCOD9226941
Probable space group: P 2/C
;
_chemical_formula_sum "Si O2"
_cell_formula_units_Z 30
_cell_length_a 15.747920
_cell_length_b 17.572526
_cell_length_c 5.549857
_cell_angle_alpha 90.000000
_cell_angle_beta 99.735872
_cell_angle_gamma 90.000000
_cell_volume 1513.696851
_symmetry_space_group_name_H-M "P 2/C"
_symmetry_group_IT_number 13
_symmetry_cell_setting 'monoclinic'
loop_
_space_group_symop_operation_xyz
x,y,z
-x,y,1/2-z
-x,-y,-z
x,-y,1/2+z
loop_
_atom_site_type_symbol
_atom_site_label
_atom_site_fract_x
_atom_site_fract_y
_atom_site_fract_z
Si Si1 0.106293 0.708929 0.060702
Si Si2 0.181930 0.755785 0.599275
Si Si3 0.500000 0.822098 0.250000
Si Si4 0.664446 0.820523 0.086433
Si Si5 0.417864 0.065128 0.326802
Si Si6 0.755116 0.030213 0.735617
Si Si7 0.975788 0.855713 0.986271
Si Si8 0.903618 0.468974 0.971048
O O1 0.169880 0.726631 0.865718
O O2 0.032803 0.775294 0.011459
O O3 0.141834 0.710950 0.351088
O O4 0.083034 0.621587 0.007621
O O5 0.278365 0.769379 0.560093
O O6 0.123770 0.832187 0.566987
O O7 0.415509 0.780040 0.317180
O O8 0.550261 0.878354 0.453873
O O9 0.614809 0.878404 0.892846
O O10 0.732191 0.879291 0.252957
O O11 0.500000 0.023434 0.250000
O O12 0.337537 0.012397 0.343480
O O13 0.796516 0.005158 0.498333
O O14 0.000000 0.895680 0.750000
O O15 0.000000 0.893199 0.250000
O O16 0.862542 0.496964 0.697098
O O17 0.000000 0.500000 0.000000
#
# Coordination Sequence:
#
# PCOD9226941 Si02
#       8
#     4   4   2   4   4   4   4   4
#     4  10  20  34  50  71 103 139 169 199 239 283
#     4  10  21  31  50  65 101 136 177 206 238 288
#     4  10  18  32  48  64 102 126 176 204 264 306
#     4  10  21  31  45  70  95 135 173 212 252 304
#     4   9  19  30  46  67  94 128 166 209 265 317
#     4  10  19  30  45  65  93 119 165 203 260 309
#     4   8  16  28  47  63  88 122 167 190 236 266
#     4  10  21  28  49  77 107 132 171 191 224 291
#
# _framework density 19.819027999999999
#
# number of rings (size 3 to 8) (size 9 to 14) (size 15 to 20)
#    0.000    2.400    1.333    0.800   14.000    1.600 
#    0.000    0.000    0.000    0.000    0.000    0.000 
#    0.000  115.200    0.000   12.000    0.000    0.000 
#
# Total GULP energy -167008.490453 kJ/mol
# GULP energy per Si atom -5566.949682 kJ/mol
# Density = 1.977392 g / cm^3
# Si number density = 19.819028 Si / 1000 Ang^3
#
#
#
# Elastic Constant Matrix: (Units=GPa)
#
#
# Indices 1 2 3 4 5 6 
#
# 1 62.2818 5.8906 7.7800 0.0000 -33.2296 0.0000
# 2 5.8906 30.2010 -0.4848 0.0000 -10.8710 0.0000
# 3 7.7800 -0.4848 130.4460 0.0000 -25.0935 0.0000
# 4 0.0000 0.0000 0.0000 6.7002 0.0000 -6.5316
# 5 -33.2296 -10.8710 -25.0935 0.0000 27.3831 0.0000
# 6 0.0000 0.0000 0.0000 -6.5316 0.0000 15.3167
#
#
#
# Elastic Compliance Matrix: (Units=1/GPa)
#
#
# Indices 1 2 3 4 5 6 
#
# 1 0.073853 0.028228 0.018327 0.000000 0.117622 0.000000
# 2 0.028228 0.050999 0.010914 0.000000 0.064503 0.000000
# 3 0.018327 0.010914 0.014235 0.000000 0.039617 0.000000
# 4 0.000000 0.000000 0.000000 0.255438 0.000000 0.108928
# 5 0.117622 0.064503 0.039617 0.000000 0.241167 0.000000
# 6 0.000000 0.000000 0.000000 0.108928 0.000000 0.111739
#
#
# Mechanical properties :
#
#
# Convention : Reuss Voigt Hill
#
# Bulk Modulus (GPa) = 3.93663 27.70006 15.81835
# Shear Modulus (GPa) = 6.97188 23.86286 15.41737
#
# Velocity S-wave (km/s) = 1.87761 3.47369 2.79212
# Velocity P-wave (km/s) = 2.58672 5.48594 4.28875
#
# Compressibility (1/GPa) = 0.25402441
#
# Stress axis : x y z
#
# Youngs Moduli (GPa) = 13.54049 19.60817 70.25170
#
# Poissons Ratio (x) = -0.55350 -1.28749
# Poissons Ratio (y) = -0.38222 -0.76675
# Poissons Ratio (z) = -0.24815 -0.21401
#
# Static dielectric constant tensor:
#      x y z
#    x 1.837150 0.000000 -0.069300 
#    y 0.000000 1.701250 0.000000 
#    z -0.069300 0.000000 1.933890 
# 
# From -- ./inp_files/5240.got.cif
#   From: 2010.05.17/outbox.cif.g08.bks.cpg/sg13_3_cif.got.tgz:5240.got - 2010.06.03 16:44:36.
