data_PCOD9226002
_publ_section_title
;
Structure prediction by ZEFSAII (Michael W. Deem and Ramdas Pophale) SiO2 
 PCOD9226002
Probable space group: P 2/C
;
_chemical_formula_sum "Si O2"
_cell_formula_units_Z 24
_cell_length_a 25.360188
_cell_length_b 8.395875
_cell_length_c 5.471521
_cell_angle_alpha 90.000000
_cell_angle_beta 65.843525
_cell_angle_gamma 90.000000
_cell_volume 1062.983824
_symmetry_space_group_name_H-M "P 2/C"
_symmetry_group_IT_number 13
_symmetry_cell_setting 'monoclinic'
loop_
_space_group_symop_operation_xyz
x,y,z
-x,y,1/2-z
-x,-y,-z
x,-y,1/2+z
loop_
_atom_site_type_symbol
_atom_site_label
_atom_site_fract_x
_atom_site_fract_y
_atom_site_fract_z
Si Si1 0.792972 0.545602 0.980864
Si Si2 0.783668 0.899721 0.945456
Si Si3 0.065675 0.054727 0.653526
Si Si4 0.079017 0.580304 0.239350
Si Si5 0.476343 0.813079 0.044870
Si Si6 0.349725 0.094876 0.834658
O O1 0.761627 0.490778 0.794221
O O2 0.813145 0.728428 0.924962
O O3 0.851344 0.439121 0.883072
O O4 0.792317 0.987318 0.667059
O O5 0.715653 0.845950 0.073741
O O6 0.063660 0.237639 0.729271
O O7 0.000000 0.990634 0.750000
O O8 0.093011 0.032049 0.334955
O O9 0.058952 0.514837 0.537878
O O10 0.500000 0.742193 0.250000
O O11 0.407177 0.805091 0.180135
O O12 0.500000 0.742626 0.750000
O O13 0.500000 0.000000 0.000000
O O14 0.354195 0.965372 0.606001
#
# Coordination Sequence:
#
# PCOD9226002 Si02
#       6
#     4   4   4   4   4   4
#     4  10  21  40  58  78 110 145 188 232 273 331
#     4  10  21  35  55  79 108 139 177 232 280 326
#     4  10  21  38  60  87 120 151 184 229 280 327
#     4  10  21  38  58  85 114 149 190 229 269 329
#     4  10  14  20  34  55  91 132 154 189 253 323
#     4  10  16  25  39  64  95 132 161 204 260 324
#
# _framework density 22.577954999999999
#
# number of rings (size 3 to 8) (size 9 to 14) (size 15 to 20)
#    0.000    2.000    3.333    2.000    0.000    0.667 
#    0.000   20.000    0.000    0.000    0.000    0.000 
#    0.000    4.000    0.000    0.000    0.000    0.000 
#
# Total GULP energy -133972.416497 kJ/mol
# GULP energy per Si atom -5582.184021 kJ/mol
# Density = 2.252657 g / cm^3
# Si number density = 22.577955 Si / 1000 Ang^3
#
#
#
# Elastic Constant Matrix: (Units=GPa)
#
#
# Indices 1 2 3 4 5 6 
#
# 1 80.6658 -3.3860 20.4423 0.0000 12.9378 0.0000
# 2 -3.3860 88.5239 37.2044 0.0000 23.9587 0.0000
# 3 20.4423 37.2044 169.7353 0.0000 46.2661 0.0000
# 4 0.0000 0.0000 0.0000 26.8491 0.0000 12.8337
# 5 12.9378 23.9587 46.2661 0.0000 49.3424 0.0000
# 6 0.0000 0.0000 0.0000 12.8337 0.0000 10.7874
#
#
#
# Elastic Compliance Matrix: (Units=1/GPa)
#
#
# Indices 1 2 3 4 5 6 
#
# 1 0.013294 0.001881 -0.001094 0.000000 -0.003374 0.000000
# 2 0.001881 0.013569 -0.001707 0.000000 -0.005482 0.000000
# 3 -0.001094 -0.001707 0.008185 0.000000 -0.006560 0.000000
# 4 0.000000 0.000000 0.000000 0.086348 0.000000 -0.102726
# 5 -0.003374 -0.005482 -0.006560 0.000000 0.029963 0.000000
# 6 0.000000 0.000000 0.000000 -0.102726 0.000000 0.214912
#
#
# Mechanical properties :
#
#
# Convention : Reuss Voigt Hill
#
# Bulk Modulus (GPa) = 30.11131 49.71625 39.91378
# Shear Modulus (GPa) = 13.18634 36.37342 24.77988
#
# Velocity S-wave (km/s) = 2.41931 4.01810 3.31649
# Velocity P-wave (km/s) = 4.60104 6.60261 5.69052
#
# Compressibility (1/GPa) = 0.03321012
#
# Stress axis : x y z
#
# Youngs Moduli (GPa) = 75.22143 73.69634 122.16985
#
# Poissons Ratio (x) = -0.13864 0.13364
# Poissons Ratio (y) = -0.14151 0.20850
# Poissons Ratio (z) = 0.08228 0.12577
#
# Static dielectric constant tensor:
#      x y z
#    x 1.929780 0.000000 -0.020170 
#    y 0.000000 1.822940 0.000000 
#    z -0.020170 0.000000 1.929900 
# 
# From -- ./inp_files/7731.got.cif
#   From: 2010.05.17/outbox.cif.g08.bks.cpg/sg13_4_cif.got.tgz:7731.got - 2010.06.03 16:44:36.
