data_PCOD9226061
_publ_section_title
;
Structure prediction by ZEFSAII (Michael W. Deem and Ramdas Pophale) SiO2 
 PCOD9226061
Probable space group: P 2/C
;
_chemical_formula_sum "Si O2"
_cell_formula_units_Z 32
_cell_length_a 9.989644
_cell_length_b 11.652118
_cell_length_c 17.001357
_cell_angle_alpha 90.000000
_cell_angle_beta 136.396663
_cell_angle_gamma 90.000000
_cell_volume 1364.817534
_symmetry_space_group_name_H-M "P 2/C"
_symmetry_group_IT_number 13
_symmetry_cell_setting 'monoclinic'
loop_
_space_group_symop_operation_xyz
x,y,z
-x,y,1/2-z
-x,-y,-z
x,-y,1/2+z
loop_
_atom_site_type_symbol
_atom_site_label
_atom_site_fract_x
_atom_site_fract_y
_atom_site_fract_z
Si Si1 0.762534 0.392499 0.896493
Si Si2 0.761397 0.735511 0.238267
Si Si3 0.715700 0.054811 0.824560
Si Si4 0.205073 0.169653 0.207579
Si Si5 0.766307 0.031799 0.131408
Si Si6 0.771976 0.770730 0.075359
Si Si7 0.217653 0.199052 0.492915
Si Si8 0.233971 0.344686 0.090897
O O1 0.704199 0.347490 0.785383
O O2 0.704266 0.523475 0.882011
O O3 0.690942 0.317625 0.940298
O O4 0.996710 0.363821 0.995610
O O5 0.702848 0.862689 0.243358
O O6 0.698430 0.706824 0.122964
O O7 0.995637 0.748400 0.332594
O O8 0.500000 0.013145 0.750000
O O9 0.839201 0.941855 0.865212
O O10 0.787597 0.133289 0.925874
O O11 0.306909 0.104786 0.323338
O O12 0.294645 0.268710 0.192051
O O13 0.992299 0.219083 0.136283
O O14 0.690145 0.112543 0.028896
O O15 0.000000 0.029609 0.250000
O O16 0.737246 0.903939 0.083735
O O17 0.706043 0.722887 0.962905
#
# Coordination Sequence:
#
# PCOD9226061 Si02
#       8
#     4   4   4   4   4   4   4   4
#     4   8  16  30  44  71 104 125 173 207 256 301
#     4   9  16  29  48  70  99 134 162 210 247 303
#     4  11  20  32  50  77 108 131 166 215 264 310
#     4  10  18  31  50  72 105 134 171 207 254 313
#     4  10  16  27  48  75 100 124 170 209 245 308
#     4  10  15  27  50  74  99 130 174 206 251 302
#     4   9  18  31  52  73  96 138 167 209 255 305
#     4   9  17  28  47  72 100 135 164 216 255 298
#
# _framework density 23.446356000000002
#
# number of rings (size 3 to 8) (size 9 to 14) (size 15 to 20)
#    0.000    2.500    2.500    2.625    0.000    0.000 
#    2.250    0.625    0.000    3.000    0.000    3.500 
#    0.000    0.000    0.000    0.000    0.000    0.000 
#
# Total GULP energy -178300.963421 kJ/mol
# GULP energy per Si atom -5571.905107 kJ/mol
# Density = 2.339299 g / cm^3
# Si number density = 23.446356 Si / 1000 Ang^3
#
#
#
# Elastic Constant Matrix: (Units=GPa)
#
#
# Indices 1 2 3 4 5 6 
#
# 1 62.4096 30.3643 43.1347 0.0000 -22.1741 0.0000
# 2 30.3643 177.8850 55.8416 0.0000 -49.6751 0.0000
# 3 43.1347 55.8416 102.6148 0.0000 -19.8412 0.0000
# 4 0.0000 0.0000 0.0000 -2.3718 0.0000 -22.1236
# 5 -22.1741 -49.6751 -19.8412 0.0000 47.1399 0.0000
# 6 0.0000 0.0000 0.0000 -22.1236 0.0000 7.2182
#
#
#
# Elastic Compliance Matrix: (Units=1/GPa)
#
#
# Indices 1 2 3 4 5 6 
#
# 1 0.025261 0.001240 -0.009518 0.000000 0.009184 0.000000
# 2 0.001240 0.008943 -0.003759 0.000000 0.008425 0.000000
# 3 -0.009518 -0.003759 0.015415 0.000000 -0.001950 0.000000
# 4 0.000000 0.000000 0.000000 -0.014249 0.000000 -0.043673
# 5 0.009184 0.008425 -0.001950 0.000000 0.033590 0.000000
# 6 0.000000 0.000000 0.000000 -0.043673 0.000000 0.004682
#
#
# Mechanical properties :
#
#
# Convention : Reuss Voigt Hill
#
# Bulk Modulus (GPa) = 39.14607 66.84340 52.99474
# Shear Modulus (GPa) = 47.06813 24.63519 35.85166
#
# Velocity S-wave (km/s) = 4.48535 3.24497 3.91460
# Velocity P-wave (km/s) = 6.59976 6.52769 6.56382
#
# Compressibility (1/GPa) = 0.02554535
#
# Stress axis : x y z
#
# Youngs Moduli (GPa) = 39.58682 111.82547 64.87382
#
# Poissons Ratio (x) = -0.13871 0.61746
# Poissons Ratio (y) = -0.04911 0.24385
# Poissons Ratio (z) = 0.37678 0.42033
#
# Static dielectric constant tensor:
#      x y z
#    x 1.997180 0.000000 0.015410 
#    y 0.000000 1.853350 0.000000 
#    z 0.015410 0.000000 1.925240 
# 
# From -- ./inp_files/66521.got.cif
#   From: 2010.05.17/outbox.cif.g08.bks.cpg/sg13_34_cif.got.tgz:66521.got - 2010.06.03 16:44:36.
