data_PCOD9226815
_publ_section_title
;
Structure prediction by ZEFSAII (Michael W. Deem and Ramdas Pophale) SiO2 
 PCOD9226815
Probable space group: P 2/C
;
_chemical_formula_sum "Si O2"
_cell_formula_units_Z 30
_cell_length_a 15.103701
_cell_length_b 8.734640
_cell_length_c 19.271053
_cell_angle_alpha 90.000000
_cell_angle_beta 38.974240
_cell_angle_gamma 90.000000
_cell_volume 1599.058697
_symmetry_space_group_name_H-M "P 2/C"
_symmetry_group_IT_number 13
_symmetry_cell_setting 'monoclinic'
loop_
_space_group_symop_operation_xyz
x,y,z
-x,y,1/2-z
-x,-y,-z
x,-y,1/2+z
loop_
_atom_site_type_symbol
_atom_site_label
_atom_site_fract_x
_atom_site_fract_y
_atom_site_fract_z
Si Si1 0.758800 0.574348 0.510392
Si Si2 0.002883 0.755393 0.049690
Si Si3 0.216151 0.534100 0.272997
Si Si4 0.612873 0.771935 0.821087
Si Si5 0.974585 0.335605 0.346365
Si Si6 0.391240 0.363671 0.544693
Si Si7 0.500000 0.702702 0.750000
Si Si8 0.099074 0.914506 0.849437
O O1 0.879773 0.684389 0.470010
O O2 0.830509 0.408463 0.461507
O O3 0.706781 0.605405 0.463109
O O4 0.623996 0.600112 0.641269
O O5 0.877751 0.630766 0.115847
O O6 0.071089 0.814816 0.936735
O O7 0.934864 0.909300 0.121139
O O8 0.327091 0.403109 0.227061
O O9 0.293103 0.647835 0.172010
O O10 0.100133 0.434796 0.303171
O O11 0.552560 0.806747 0.781922
O O12 0.739688 0.879813 0.765696
O O13 0.495142 0.766204 0.952294
O O14 0.000000 0.351501 0.250000
O O15 0.997115 0.162476 0.355791
O O16 0.500000 0.500000 0.500000
#
# Coordination Sequence:
#
# PCOD9226815 Si02
#       8
#     4   4   4   4   4   4   2   4
#     4  10  19  32  56  82 104 133 179 221 264 320
#     4  10  21  35  55  77 104 143 180 226 262 312
#     4   9  18  32  54  78 102 135 176 220 270 312
#     4   9  18  31  55  76 103 136 174 217 266 318
#     4  10  19  33  54  79 106 133 171 227 274 314
#     4   9  17  32  52  80 109 137 166 217 268 318
#     4  10  18  30  52  84 102 128 180 218 260 322
#     4  10  21  37  52  75 110 142 179 220 271 314
#
# _framework density 18.761037999999999
#
# number of rings (size 3 to 8) (size 9 to 14) (size 15 to 20)
#    0.000    2.400    2.667    0.000    1.867    1.600 
#    2.400    0.667    0.000   11.200    0.000    0.000 
#    0.000    0.000    0.000    0.000    0.000    0.000 
#
# Total GULP energy -167007.552797 kJ/mol
# GULP energy per Si atom -5566.918427 kJ/mol
# Density = 1.871834 g / cm^3
# Si number density = 18.761038 Si / 1000 Ang^3
#
#
#
# Elastic Constant Matrix: (Units=GPa)
#
#
# Indices 1 2 3 4 5 6 
#
# 1 54.3977 7.1122 5.5283 0.0000 -3.1080 0.0000
# 2 7.1122 41.0400 6.8394 0.0000 -0.9094 0.0000
# 3 5.5283 6.8394 67.4118 0.0000 -11.4793 0.0000
# 4 0.0000 0.0000 0.0000 17.7986 0.0000 2.3213
# 5 -3.1080 -0.9094 -11.4793 0.0000 23.2702 0.0000
# 6 0.0000 0.0000 0.0000 2.3213 0.0000 10.7842
#
#
#
# Elastic Compliance Matrix: (Units=1/GPa)
#
#
# Indices 1 2 3 4 5 6 
#
# 1 0.018993 -0.003096 -0.000908 0.000000 0.001968 0.000000
# 2 -0.003096 0.025292 -0.002417 0.000000 -0.000618 0.000000
# 3 -0.000908 -0.002417 0.016504 0.000000 0.007925 0.000000
# 4 0.000000 0.000000 0.000000 0.057807 0.000000 -0.012443
# 5 0.001968 -0.000618 0.007925 0.000000 0.047122 0.000000
# 6 0.000000 0.000000 0.000000 -0.012443 0.000000 0.095407
#
#
# Mechanical properties :
#
#
# Convention : Reuss Voigt Hill
#
# Bulk Modulus (GPa) = 20.85754 22.42326 21.64040
# Shear Modulus (GPa) = 17.24438 19.92857 18.58647
#
# Velocity S-wave (km/s) = 3.03505 3.26273 3.15095
# Velocity P-wave (km/s) = 4.83980 5.11584 4.97973
#
# Compressibility (1/GPa) = 0.04794428
#
# Stress axis : x y z
#
# Youngs Moduli (GPa) = 52.65175 39.53783 60.59303
#
# Poissons Ratio (x) = 0.12243 0.05504
# Poissons Ratio (y) = 0.16303 0.14647
# Poissons Ratio (z) = 0.04783 0.09557
#
# Static dielectric constant tensor:
#      x y z
#    x 1.686770 0.000000 -0.004790 
#    y 0.000000 1.632300 0.000000 
#    z -0.004790 0.000000 1.680520 
# 
# From -- ./inp_files/79656.got.cif
#   From: 2010.05.17/outbox.cif.g08.bks.cpg/sg13_40_cif.got.tgz:79656.got - 2010.06.03 16:44:36.
