data_PCOD9226201
_publ_section_title
;
Structure prediction by ZEFSAII (Michael W. Deem and Ramdas Pophale) SiO2 
 PCOD9226201
Probable space group: P 2/C
;
_chemical_formula_sum "Si O2"
_cell_formula_units_Z 18
_cell_length_a 8.124534
_cell_length_b 20.508372
_cell_length_c 5.355203
_cell_angle_alpha 90.000000
_cell_angle_beta 59.778814
_cell_angle_gamma 90.000000
_cell_volume 771.016963
_symmetry_space_group_name_H-M "P 2/C"
_symmetry_group_IT_number 13
_symmetry_cell_setting 'monoclinic'
loop_
_space_group_symop_operation_xyz
x,y,z
-x,y,1/2-z
-x,-y,-z
x,-y,1/2+z
loop_
_atom_site_type_symbol
_atom_site_label
_atom_site_fract_x
_atom_site_fract_y
_atom_site_fract_z
Si Si1 0.721704 0.527057 0.318027
Si Si2 0.500000 0.000000 0.000000
Si Si3 0.230285 0.884893 0.566881
Si Si4 0.616760 0.330473 0.912850
Si Si5 0.227110 0.809886 0.070589
O O1 0.500000 0.500000 0.500000
O O2 0.805303 0.511309 0.522099
O O3 0.730593 0.603997 0.260648
O O4 0.500000 0.045917 0.250000
O O5 0.331658 0.044796 0.987916
O O6 0.289694 0.852642 0.259809
O O7 0.000000 0.893803 0.750000
O O8 0.282656 0.837342 0.756650
O O9 0.500000 0.315414 0.750000
O O10 0.718472 0.264571 0.920836
O O11 0.500000 0.350579 0.250000
O O12 0.000000 0.814267 0.250000
#
# Coordination Sequence:
#
# PCOD9226201 Si02
#       5
#     4   2   4   4   4
#     4  10  16  30  48  76 117 151 193 247 297 352
#     4  12  26  40  68  98 124 158 204 256 294 370
#     4  10  23  45  65  88 125 166 199 248 315 365
#     4  12  21  32  58  91 112 157 208 255 291 350
#     4  10  23  42  62  86 126 165 196 241 305 367
#
# _framework density 23.345787999999999
#
# number of rings (size 3 to 8) (size 9 to 14) (size 15 to 20)
#    0.000    1.333    4.444    2.667    0.000    6.222 
#    0.000    0.000    0.000    1.333    0.000    0.000 
#    0.000    0.000    0.000    0.000    0.000    0.000 
#
# Total GULP energy -100231.266080 kJ/mol
# GULP energy per Si atom -5568.403671 kJ/mol
# Density = 2.329265 g / cm^3
# Si number density = 23.345788 Si / 1000 Ang^3
#
#
#
# Elastic Constant Matrix: (Units=GPa)
#
#
# Indices 1 2 3 4 5 6 
#
# 1 83.0537 54.1710 46.4658 0.0000 30.1403 0.0000
# 2 54.1710 174.4913 26.5013 0.0000 12.3694 0.0000
# 3 46.4658 26.5013 108.8626 0.0000 18.0287 0.0000
# 4 0.0000 0.0000 0.0000 70.9852 0.0000 28.0866
# 5 30.1403 12.3694 18.0287 0.0000 40.0318 0.0000
# 6 0.0000 0.0000 0.0000 28.0866 0.0000 13.0371
#
#
#
# Elastic Compliance Matrix: (Units=1/GPa)
#
#
# Indices 1 2 3 4 5 6 
#
# 1 0.024433 -0.005586 -0.006817 0.000000 -0.013600 0.000000
# 2 -0.005586 0.007290 0.000309 0.000000 0.001814 0.000000
# 3 -0.006817 0.000309 0.012088 0.000000 -0.000407 0.000000
# 4 0.000000 0.000000 0.000000 0.095453 0.000000 -0.205641
# 5 -0.013600 0.001814 -0.000407 0.000000 0.034842 0.000000
# 6 0.000000 0.000000 0.000000 -0.205641 0.000000 0.519730
#
#
# Mechanical properties :
#
#
# Convention : Reuss Voigt Hill
#
# Bulk Modulus (GPa) = 50.95935 68.96486 59.96211
# Shear Modulus (GPa) = 6.90072 40.76210 23.83141
#
# Velocity S-wave (km/s) = 1.72113 4.18307 3.19846
# Velocity P-wave (km/s) = 5.08185 7.27568 6.27537
#
# Compressibility (1/GPa) = 0.01962348
#
# Stress axis : x y z
#
# Youngs Moduli (GPa) = 40.92869 137.18343 82.72986
#
# Poissons Ratio (x) = 0.76628 0.56393
# Poissons Ratio (y) = 0.22862 -0.02558
# Poissons Ratio (z) = 0.27899 -0.04242
#
# Static dielectric constant tensor:
#      x y z
#    x 2.007770 0.000000 -0.014330 
#    y 0.000000 1.478940 0.000000 
#    z -0.014330 0.000000 2.535180 
# 
# From -- ./inp_files/1486.got.cif
#   From: 2010.05.17/outbox.cif.g08.bks.cpg/sg13_1_cif.got.tgz:1486.got - 2010.06.03 16:44:36.
