data_PCOD9226496
_publ_section_title
;
Structure prediction by ZEFSAII (Michael W. Deem and Ramdas Pophale) SiO2 
 PCOD9226496
Probable space group: P 2/C
;
_chemical_formula_sum "Si O2"
_cell_formula_units_Z 32
_cell_length_a 16.871262
_cell_length_b 11.042751
_cell_length_c 18.757982
_cell_angle_alpha 90.000000
_cell_angle_beta 31.326740
_cell_angle_gamma 90.000000
_cell_volume 1816.961300
_symmetry_space_group_name_H-M "P 2/C"
_symmetry_group_IT_number 13
_symmetry_cell_setting 'monoclinic'
loop_
_space_group_symop_operation_xyz
x,y,z
-x,y,1/2-z
-x,-y,-z
x,-y,1/2+z
loop_
_atom_site_type_symbol
_atom_site_label
_atom_site_fract_x
_atom_site_fract_y
_atom_site_fract_z
Si Si1 0.893039 0.828962 0.263930
Si Si2 0.356237 0.036190 0.064263
Si Si3 0.968341 0.424353 0.095320
Si Si4 0.136044 0.847027 0.837923
Si Si5 0.843704 0.649194 0.916560
Si Si6 0.842473 0.442090 0.824263
Si Si7 0.646620 0.888719 0.089995
Si Si8 0.873980 0.041853 0.007611
O O1 0.812336 0.698980 0.334870
O O2 0.000000 0.853476 0.250000
O O3 0.762762 0.926962 0.353530
O O4 0.014800 0.851260 0.106764
O O5 0.257779 0.136868 0.181503
O O6 0.405742 0.073553 0.947983
O O7 0.500000 0.000000 0.000000
O O8 0.903979 0.293151 0.124156
O O9 0.861231 0.498951 0.232127
O O10 0.109123 0.398444 0.041357
O O11 0.000000 0.500000 0.000000
O O12 0.194008 0.909235 0.866232
O O13 0.984943 0.926192 0.935603
O O14 0.758296 0.542426 0.937813
O O15 0.000000 0.676461 0.750000
O O16 0.751189 0.771063 0.998103
O O17 0.000000 0.434311 0.750000
O O18 0.500000 0.861828 0.250000
O O19 0.747415 0.994353 0.049886
#
# Coordination Sequence:
#
# PCOD9226496 Si02
#       8
#     4   4   4   4   4   4   4   4
#     4  10  18  34  61  86 111 154 198 235 286 351
#     4  11  23  38  58  84 120 152 190 242 304 346
#     4  10  17  30  54  86 113 142 183 249 293 323
#     4  10  20  34  56  82 117 147 192 242 288 341
#     4   9  19  36  60  82 113 149 203 237 280 349
#     4   8  17  31  53  85 108 141 194 242 274 338
#     4  12  23  37  59  83 120 157 197 238 297 351
#     4  10  20  33  54  87 113 148 196 240 282 350
#
# _framework density 17.611823000000001
#
# number of rings (size 3 to 8) (size 9 to 14) (size 15 to 20)
#    0.000    2.250    2.500    3.000    1.750    0.000 
#    2.250    0.000    2.750    1.500    0.000    0.000 
#    0.000    0.000    0.000    0.000    0.000    0.000 
#
# Total GULP energy -178148.838434 kJ/mol
# GULP energy per Si atom -5567.151201 kJ/mol
# Density = 1.757174 g / cm^3
# Si number density = 17.611823 Si / 1000 Ang^3
#
#
#
# Elastic Constant Matrix: (Units=GPa)
#
#
# Indices 1 2 3 4 5 6 
#
# 1 110.2593 46.2796 39.0651 0.0000 24.5139 0.0000
# 2 46.2796 104.5223 39.5507 0.0000 8.2527 0.0000
# 3 39.0651 39.5507 82.1568 0.0000 20.3476 0.0000
# 4 0.0000 0.0000 0.0000 18.9634 0.0000 11.1901
# 5 24.5139 8.2527 20.3476 0.0000 27.9411 0.0000
# 6 0.0000 0.0000 0.0000 11.1901 0.0000 18.7144
#
#
#
# Elastic Compliance Matrix: (Units=1/GPa)
#
#
# Indices 1 2 3 4 5 6 
#
# 1 0.013779 -0.004595 -0.002052 0.000000 -0.009237 0.000000
# 2 -0.004595 0.013245 -0.005150 0.000000 0.003870 0.000000
# 3 -0.002052 -0.005150 0.018062 0.000000 -0.009832 0.000000
# 4 0.000000 0.000000 0.000000 0.081484 0.000000 -0.048723
# 5 -0.009237 0.003870 -0.009832 0.000000 0.049911 0.000000
# 6 0.000000 0.000000 0.000000 -0.048723 0.000000 0.082568
#
#
# Mechanical properties :
#
#
# Convention : Reuss Voigt Hill
#
# Bulk Modulus (GPa) = 46.52847 60.74770 53.63808
# Shear Modulus (GPa) = 17.25293 24.59332 20.92312
#
# Velocity S-wave (km/s) = 3.13329 3.74091 3.45050
# Velocity P-wave (km/s) = 6.29017 7.29566 6.81149
#
# Compressibility (1/GPa) = 0.02149222
#
# Stress axis : x y z
#
# Youngs Moduli (GPa) = 72.57404 75.50012 55.36624
#
# Poissons Ratio (x) = 0.34694 0.11361
# Poissons Ratio (y) = 0.33349 0.28511
# Poissons Ratio (z) = 0.14891 0.38879
#
# Static dielectric constant tensor:
#      x y z
#    x 1.607300 0.000000 0.020210 
#    y 0.000000 1.631410 0.000000 
#    z 0.020210 0.000000 1.614200 
# 
# From -- ./inp_files/69839.got.cif
#   From: 2010.05.17/outbox.cif.g08.bks.cpg/sg13_35_cif.got.tgz:69839.got - 2010.06.03 16:44:36.
