data_PCOD9226786
_publ_section_title
;
Structure prediction by ZEFSAII (Michael W. Deem and Ramdas Pophale) SiO2 
 PCOD9226786
Probable space group: P 2/C
;
_chemical_formula_sum "Si O2"
_cell_formula_units_Z 30
_cell_length_a 5.364478
_cell_length_b 11.843052
_cell_length_c 27.146893
_cell_angle_alpha 90.000000
_cell_angle_beta 63.011504
_cell_angle_gamma 90.000000
_cell_volume 1536.867897
_symmetry_space_group_name_H-M "P 2/C"
_symmetry_group_IT_number 13
_symmetry_cell_setting 'monoclinic'
loop_
_space_group_symop_operation_xyz
x,y,z
-x,y,1/2-z
-x,-y,-z
x,-y,1/2+z
loop_
_atom_site_type_symbol
_atom_site_label
_atom_site_fract_x
_atom_site_fract_y
_atom_site_fract_z
Si Si1 0.526890 0.102312 0.187814
Si Si2 0.829806 0.479934 0.713834
Si Si3 0.000000 0.181248 0.250000
Si Si4 0.332301 0.843409 0.559440
Si Si5 0.014665 0.865130 0.004623
Si Si6 0.165771 0.215655 0.785736
Si Si7 0.007303 0.064613 0.888535
Si Si8 0.904655 0.700610 0.660034
O O1 0.500000 0.084278 0.250000
O O2 0.206890 0.100639 0.201742
O O3 0.638709 0.228034 0.164201
O O4 0.724190 0.016100 0.143247
O O5 0.500000 0.503338 0.750000
O O6 0.855762 0.348063 0.698532
O O7 0.920274 0.566757 0.662823
O O8 0.000000 0.496070 0.750000
O O9 0.118378 0.261810 0.280821
O O10 0.664416 0.829787 0.533533
O O11 0.204997 0.820881 0.516052
O O12 0.166082 0.758436 0.609966
O O13 0.243254 0.973881 0.580345
O O14 0.956557 0.853657 0.067795
O O15 0.000000 0.000000 0.000000
O O16 0.500000 0.189316 0.750000
O O17 0.011294 0.139808 0.839810
O O18 0.000000 0.199679 0.750000
#
# Coordination Sequence:
#
# PCOD9226786 Si02
#       8
#     4   4   2   4   4   4   4   4
#     4   9  19  33  44  83 110 142 174 222 274 341
#     4  10  20  36  57  80 112 146 186 225 269 341
#     4  10  18  30  50  78 116 138 176 216 284 348
#     4  10  23  36  55  84 110 140 187 237 275 330
#     4  10  21  38  55  79 109 146 193 228 273 327
#     4  10  23  40  56  84 114 149 191 224 268 333
#     4  10  20  38  56  76 112 153 183 226 276 327
#     4  10  20  32  55  79 113 144 177 227 291 328
#
# _framework density 19.520219000000001
#
# number of rings (size 3 to 8) (size 9 to 14) (size 15 to 20)
#    0.000    2.133    0.667    3.200    5.600    3.200 
#   19.200    0.000    0.000    1.600    0.000    0.000 
#    0.000    0.000    0.000    0.000    0.000    0.000 
#
# Total GULP energy -167184.864874 kJ/mol
# GULP energy per Si atom -5572.828829 kJ/mol
# Density = 1.947579 g / cm^3
# Si number density = 19.520219 Si / 1000 Ang^3
#
#
#
# Elastic Constant Matrix: (Units=GPa)
#
#
# Indices 1 2 3 4 5 6 
#
# 1 88.6840 19.2232 26.5911 0.0000 -2.1686 0.0000
# 2 19.2232 76.6798 27.4686 0.0000 11.2005 0.0000
# 3 26.5911 27.4686 76.4611 0.0000 10.5593 0.0000
# 4 0.0000 0.0000 0.0000 19.7186 0.0000 1.0539
# 5 -2.1686 11.2005 10.5593 0.0000 31.6917 0.0000
# 6 0.0000 0.0000 0.0000 1.0539 0.0000 1.2586
#
#
#
# Elastic Compliance Matrix: (Units=1/GPa)
#
#
# Indices 1 2 3 4 5 6 
#
# 1 0.013087 -0.002235 -0.004173 0.000000 0.003076 0.000000
# 2 -0.002235 0.015767 -0.004294 0.000000 -0.004295 0.000000
# 3 -0.004173 -0.004294 0.016669 0.000000 -0.004322 0.000000
# 4 0.000000 0.000000 0.000000 0.053089 0.000000 -0.044453
# 5 0.003076 -0.004295 -0.004322 0.000000 0.034722 0.000000
# 6 0.000000 0.000000 0.000000 -0.044453 0.000000 0.831756
#
#
# Mechanical properties :
#
#
# Convention : Reuss Voigt Hill
#
# Bulk Modulus (GPa) = 41.46110 43.15454 42.30782
# Shear Modulus (GPa) = 5.02748 21.76991 13.39869
#
# Velocity S-wave (km/s) = 1.60658 3.34316 2.62277
# Velocity P-wave (km/s) = 4.97269 6.08752 5.55813
#
# Compressibility (1/GPa) = 0.02411899
#
# Stress axis : x y z
#
# Youngs Moduli (GPa) = 76.41182 63.42323 59.99059
#
# Poissons Ratio (x) = 0.14176 0.25035
# Poissons Ratio (y) = 0.17080 0.25759
# Poissons Ratio (z) = 0.31887 0.27233
#
# Static dielectric constant tensor:
#      x y z
#    x 1.845860 0.000000 0.021290 
#    y 0.000000 1.728170 0.000000 
#    z 0.021290 0.000000 1.744350 
# 
# From -- ./inp_files/95230.got.cif
#   From: 2010.05.17/outbox.cif.g08.bks.cpg/sg13_48_cif.got.tgz:95230.got - 2010.06.03 16:44:36.
