data_PCOD9226977
_publ_section_title
;
Structure prediction by ZEFSAII (Michael W. Deem and Ramdas Pophale) SiO2 
 PCOD9226977
Probable space group: P 2/C
;
_chemical_formula_sum "Si O2"
_cell_formula_units_Z 28
_cell_length_a 26.405433
_cell_length_b 8.834082
_cell_length_c 8.310672
_cell_angle_alpha 90.000000
_cell_angle_beta 42.064827
_cell_angle_gamma 90.000000
_cell_volume 1298.813726
_symmetry_space_group_name_H-M "P 2/C"
_symmetry_group_IT_number 13
_symmetry_cell_setting 'monoclinic'
loop_
_space_group_symop_operation_xyz
x,y,z
-x,y,1/2-z
-x,-y,-z
x,-y,1/2+z
loop_
_atom_site_type_symbol
_atom_site_label
_atom_site_fract_x
_atom_site_fract_y
_atom_site_fract_z
Si Si1 0.296210 0.402470 0.681592
Si Si2 0.421889 0.772134 0.067153
Si Si3 0.206869 0.136473 0.809307
Si Si4 0.892598 0.086620 0.745336
Si Si5 0.647374 0.667911 0.807232
Si Si6 0.000000 0.902967 0.250000
Si Si7 0.500000 0.514106 0.750000
Si Si8 0.632994 0.029369 0.512432
O O1 0.347678 0.328018 0.700621
O O2 0.222688 0.300927 0.844665
O O3 0.289054 0.577778 0.740664
O O4 0.338628 0.372850 0.411614
O O5 0.408412 0.873866 0.253290
O O6 0.486851 0.643490 0.920512
O O7 0.419122 0.893730 0.928439
O O8 0.171593 0.158433 0.716021
O O9 0.286237 0.042458 0.627074
O O10 0.150126 0.043232 0.053906
O O11 0.941660 0.176891 0.763510
O O12 0.949958 0.008516 0.484699
O O13 0.571851 0.592996 0.062103
O O14 0.646379 0.845553 0.842070
#
# Coordination Sequence:
#
# PCOD9226977 Si02
#       8
#     4   4   4   4   4   2   2   4
#     4  10  21  36  52  77 106 138 178 229 279 322
#     4  10  22  37  54  75 103 132 178 232 280 342
#     4  10  18  32  53  78 109 144 177 213 276 325
#     4   9  16  28  51  77 118 151 171 210 255 318
#     4  11  22  37  57  75 107 141 182 240 280 336
#     4   8  16  28  44  84 122 144 174 210 256 290
#     4  10  24  40  54  74 100 144 188 222 298 352
#     4  11  21  36  56  80 106 139 181 237 281 319
#
# _framework density 21.558135
#
# number of rings (size 3 to 8) (size 9 to 14) (size 15 to 20)
#    0.000    2.000    0.000    6.000    0.000    6.286 
#    0.000    0.000    0.000    0.000    0.000    0.000 
#    0.000  265.143    0.000    0.000    0.000    0.000 
#
# Total GULP energy -156109.299449 kJ/mol
# GULP energy per Si atom -5575.332123 kJ/mol
# Density = 2.150907 g / cm^3
# Si number density = 21.558135 Si / 1000 Ang^3
#
#
#
# Elastic Constant Matrix: (Units=GPa)
#
#
# Indices 1 2 3 4 5 6 
#
# 1 98.2791 31.0430 14.4666 0.0000 -2.5333 0.0000
# 2 31.0430 98.5758 11.2614 0.0000 -6.1329 0.0000
# 3 14.4666 11.2614 85.3160 0.0000 3.7761 0.0000
# 4 0.0000 0.0000 0.0000 17.8879 0.0000 16.4159
# 5 -2.5333 -6.1329 3.7761 0.0000 30.0938 0.0000
# 6 0.0000 0.0000 0.0000 16.4159 0.0000 17.4577
#
#
#
# Elastic Compliance Matrix: (Units=1/GPa)
#
#
# Indices 1 2 3 4 5 6 
#
# 1 0.011489 -0.003416 -0.001518 0.000000 0.000461 0.000000
# 2 -0.003416 0.011474 -0.001032 0.000000 0.002180 0.000000
# 3 -0.001518 -0.001032 0.012197 0.000000 -0.001869 0.000000
# 4 0.000000 0.000000 0.000000 0.407903 0.000000 -0.383562
# 5 0.000461 0.002180 -0.001869 0.000000 0.033947 0.000000
# 6 0.000000 0.000000 0.000000 -0.383562 0.000000 0.417955
#
#
# Mechanical properties :
#
#
# Convention : Reuss Voigt Hill
#
# Bulk Modulus (GPa) = 43.04880 43.96811 43.50845
# Shear Modulus (GPa) = 5.46663 28.11454 16.79059
#
# Velocity S-wave (km/s) = 1.59414 3.61519 2.79382
# Velocity P-wave (km/s) = 4.83740 6.15350 5.53471
#
# Compressibility (1/GPa) = 0.02322945
#
# Stress axis : x y z
#
# Youngs Moduli (GPa) = 87.03648 87.15536 81.98489
#
# Poissons Ratio (x) = 0.29773 0.12443
# Poissons Ratio (y) = 0.29733 0.08459
# Poissons Ratio (z) = 0.13210 0.08992
#
# Static dielectric constant tensor:
#      x y z
#    x 1.892820 0.000000 0.017610 
#    y 0.000000 1.765560 0.000000 
#    z 0.017610 0.000000 1.847080 
# 
# From -- ./inp_files/21130.got.cif
#   From: 2010.05.17/outbox.cif.g08.bks.cpg/sg13_11_cif.got.tgz:21130.got - 2010.06.03 16:44:36.
