data_PCOD9226190
_publ_section_title
;
Structure prediction by ZEFSAII (Michael W. Deem and Ramdas Pophale) SiO2 
 PCOD9226190
Probable space group: P 2/C
;
_chemical_formula_sum "Si O2"
_cell_formula_units_Z 18
_cell_length_a 20.839967
_cell_length_b 7.051106
_cell_length_c 5.427896
_cell_angle_alpha 90.000000
_cell_angle_beta 83.119323
_cell_angle_gamma 90.000000
_cell_volume 791.856699
_symmetry_space_group_name_H-M "P 2/C"
_symmetry_group_IT_number 13
_symmetry_cell_setting 'monoclinic'
loop_
_space_group_symop_operation_xyz
x,y,z
-x,y,1/2-z
-x,-y,-z
x,-y,1/2+z
loop_
_atom_site_type_symbol
_atom_site_label
_atom_site_fract_x
_atom_site_fract_y
_atom_site_fract_z
Si Si1 0.676433 0.877113 0.434177
Si Si2 0.000000 0.624933 0.750000
Si Si3 0.858350 0.727421 0.733491
Si Si4 0.527675 0.216288 0.987290
Si Si5 0.807208 0.293434 0.757716
O O1 0.604795 0.791336 0.452947
O O2 0.732983 0.723242 0.372223
O O3 0.682506 0.979458 0.697552
O O4 0.066867 0.738018 0.728377
O O5 0.000000 0.500000 0.500000
O O6 0.835699 0.505756 0.718449
O O7 0.846539 0.800908 0.464006
O O8 0.816646 0.796675 0.984169
O O9 0.500000 0.299919 0.750000
O O10 0.500000 0.300095 0.250000
O O11 0.500000 0.000000 0.000000
#
# Coordination Sequence:
#
# PCOD9226190 Si02
#       5
#     4   2   4   4   4
#     4  12  21  32  50  77 104 138 168 200 265 302
#     4  12  16  30  58  82 100 120 166 230 258 280
#     4  10  19  35  52  81 100 127 170 208 261 291
#     4  10  16  30  48  67  99 118 166 224 242 284
#     4  10  20  32  49  74 110 132 160 210 254 306
#
# _framework density 22.731385
#
# number of rings (size 3 to 8) (size 9 to 14) (size 15 to 20)
#    0.000    1.333    8.889    1.333    0.000    0.000 
#    0.000    0.000    0.000    0.000    0.000   45.111 
#    0.000    0.000    0.000    0.000    0.000    0.000 
#
# Total GULP energy -100496.876180 kJ/mol
# GULP energy per Si atom -5583.159788 kJ/mol
# Density = 2.267965 g / cm^3
# Si number density = 22.731385 Si / 1000 Ang^3
#
#
#
# Elastic Constant Matrix: (Units=GPa)
#
#
# Indices 1 2 3 4 5 6 
#
# 1 146.4101 -7.8226 -12.8742 0.0000 -9.5835 0.0000
# 2 -7.8226 71.7425 -11.5450 0.0000 -0.1573 0.0000
# 3 -12.8742 -11.5450 196.9959 0.0000 5.3220 0.0000
# 4 0.0000 0.0000 0.0000 14.3794 0.0000 -37.5871
# 5 -9.5835 -0.1573 5.3220 0.0000 45.1189 0.0000
# 6 0.0000 0.0000 0.0000 -37.5871 0.0000 44.6085
#
#
#
# Elastic Compliance Matrix: (Units=1/GPa)
#
#
# Indices 1 2 3 4 5 6 
#
# 1 0.007010 0.000843 0.000469 0.000000 0.001437 0.000000
# 2 0.000843 0.014173 0.000882 0.000000 0.000124 0.000000
# 3 0.000469 0.000882 0.005172 0.000000 -0.000507 0.000000
# 4 0.000000 0.000000 0.000000 -0.057832 0.000000 -0.048729
# 5 0.001437 0.000124 -0.000507 0.000000 0.022529 0.000000
# 6 0.000000 0.000000 0.000000 -0.048729 0.000000 -0.018642
#
#
# Mechanical properties :
#
#
# Convention : Reuss Voigt Hill
#
# Bulk Modulus (GPa) = 32.52693 38.96276 35.74485
# Shear Modulus (GPa) = -230.10753 50.64739 -89.73007
#
# Velocity S-wave (km/s) = -10.07218 4.72538 -6.28966
# Velocity P-wave (km/s) = 10.99658 6.85201 6.08172
#
# Compressibility (1/GPa) = 0.03074376
#
# Stress axis : x y z
#
# Youngs Moduli (GPa) = 142.64466 70.55714 193.33759
#
# Poissons Ratio (x) = -0.05948 -0.09063
# Poissons Ratio (y) = -0.12025 -0.17059
# Poissons Ratio (z) = -0.06686 -0.06226
#
# Static dielectric constant tensor:
#      x y z
#    x 1.798180 0.000000 0.007890 
#    y 0.000000 1.209920 0.000000 
#    z 0.007890 0.000000 1.903390 
# 
# From -- ./inp_files/5860.got.cif
#   From: 2010.05.17/outbox.cif.g08.bks.cpg/sg13_3_cif.got.tgz:5860.got - 2010.06.03 16:44:36.
