data_PCOD9226718
_publ_section_title
;
Structure prediction by ZEFSAII (Michael W. Deem and Ramdas Pophale) SiO2 
 PCOD9226718
Probable space group: P 2/C
;
_chemical_formula_sum "Si O2"
_cell_formula_units_Z 32
_cell_length_a 6.237799
_cell_length_b 15.063074
_cell_length_c 22.434660
_cell_angle_alpha 90.000000
_cell_angle_beta 68.939949
_cell_angle_gamma 90.000000
_cell_volume 1967.166932
_symmetry_space_group_name_H-M "P 2/C"
_symmetry_group_IT_number 13
_symmetry_cell_setting 'monoclinic'
loop_
_space_group_symop_operation_xyz
x,y,z
-x,y,1/2-z
-x,-y,-z
x,-y,1/2+z
loop_
_atom_site_type_symbol
_atom_site_label
_atom_site_fract_x
_atom_site_fract_y
_atom_site_fract_z
Si Si1 0.349789 0.419880 0.598002
Si Si2 0.728913 0.708482 0.006375
Si Si3 0.928653 0.313687 0.688242
Si Si4 0.966826 0.547944 0.939445
Si Si5 0.621633 0.520666 0.182305
Si Si6 0.082360 0.170142 0.903722
Si Si7 0.256954 0.013542 0.949105
Si Si8 0.430755 0.861980 0.997860
O O1 0.560644 0.366648 0.549310
O O2 0.251902 0.499641 0.568460
O O3 0.429221 0.455840 0.653548
O O4 0.144971 0.350830 0.629305
O O5 0.827143 0.766457 0.051438
O O6 0.924413 0.651793 0.954454
O O7 0.576887 0.772093 0.979668
O O8 0.735830 0.388674 0.696721
O O9 0.000000 0.305803 0.750000
O O10 0.869501 0.221248 0.662346
O O11 0.178909 0.529098 0.874096
O O12 0.000000 0.500000 0.000000
O O13 0.500000 0.473291 0.250000
O O14 0.213738 0.075767 0.896275
O O15 0.810928 0.155440 0.943966
O O16 0.371018 0.916282 0.943469
O O17 0.410475 0.074186 0.977497
O O18 0.000000 0.000000 0.000000
#
# Coordination Sequence:
#
# PCOD9226718 Si02
#       8
#     4   4   4   4   4   4   4   4
#     4  11  20  33  50  66 102 144 176 213 261 304
#     4  11  19  30  48  72  99 136 172 214 258 311
#     4  11  20  30  47  71  96 139 185 205 239 310
#     4  11  23  32  48  74  99 137 184 221 265 313
#     4  11  22  36  49  65  98 147 184 214 263 308
#     4  10  18  29  47  72 103 136 166 202 255 313
#     4   8  16  30  45  69  96 135 156 189 250 323
#     4   9  17  28  48  67  99 135 156 198 256 309
#
# _framework density 16.267047999999999
#
# number of rings (size 3 to 8) (size 9 to 14) (size 15 to 20)
#    0.000    1.750    5.000    1.125    0.000    0.000 
#    0.000    0.000    0.000    0.000    0.000    0.000 
#    0.000    0.000  352.750    0.000    0.000    0.000 
#
# Total GULP energy -178219.149979 kJ/mol
# GULP energy per Si atom -5569.348437 kJ/mol
# Density = 1.623002 g / cm^3
# Si number density = 16.267048 Si / 1000 Ang^3
#
#
#
# Elastic Constant Matrix: (Units=GPa)
#
#
# Indices 1 2 3 4 5 6 
#
# 1 74.4065 13.2416 21.6682 0.0000 10.3555 0.0000
# 2 13.2416 57.3933 30.0187 0.0000 12.9742 0.0000
# 3 21.6682 30.0187 72.5210 0.0000 5.5426 0.0000
# 4 0.0000 0.0000 0.0000 18.1891 0.0000 5.9616
# 5 10.3555 12.9742 5.5426 0.0000 31.5393 0.0000
# 6 0.0000 0.0000 0.0000 5.9616 0.0000 34.6500
#
#
#
# Elastic Compliance Matrix: (Units=1/GPa)
#
#
# Indices 1 2 3 4 5 6 
#
# 1 0.015276 -0.000476 -0.004053 0.000000 -0.004108 0.000000
# 2 -0.000476 0.024227 -0.009261 0.000000 -0.008182 0.000000
# 3 -0.004053 -0.009261 0.018692 0.000000 0.001856 0.000000
# 4 0.000000 0.000000 0.000000 0.058263 0.000000 -0.010024
# 5 -0.004108 -0.008182 0.001856 0.000000 0.036095 0.000000
# 6 0.000000 0.000000 0.000000 -0.010024 0.000000 0.030585
#
#
# Mechanical properties :
#
#
# Convention : Reuss Voigt Hill
#
# Bulk Modulus (GPa) = 32.66380 37.13088 34.89734
# Shear Modulus (GPa) = 22.63231 26.16852 24.40042
#
# Velocity S-wave (km/s) = 3.73406 4.01519 3.87717
# Velocity P-wave (km/s) = 6.22208 6.66116 6.44536
#
# Compressibility (1/GPa) = 0.03061493
#
# Stress axis : x y z
#
# Youngs Moduli (GPa) = 65.46011 41.27667 53.49970
#
# Poissons Ratio (x) = 0.01964 0.21686
# Poissons Ratio (y) = 0.03115 0.49544
# Poissons Ratio (z) = 0.26534 0.38225
#
# Static dielectric constant tensor:
#      x y z
#    x 1.585190 0.000000 -0.004810 
#    y 0.000000 1.580950 0.000000 
#    z -0.004810 0.000000 1.550340 
# 
# From -- ./inp_files/73913.got.cif
#   From: 2010.05.17/outbox.cif.g08.bks.cpg/sg13_37_cif.got.tgz:73913.got - 2010.06.03 16:44:36.
