data_PCOD9226504
_publ_section_title
;
Structure prediction by ZEFSAII (Michael W. Deem and Ramdas Pophale) SiO2 
 PCOD9226504
Probable space group: P 2/C
;
_chemical_formula_sum "Si O2"
_cell_formula_units_Z 30
_cell_length_a 7.995535
_cell_length_b 13.903772
_cell_length_c 14.031881
_cell_angle_alpha 90.000000
_cell_angle_beta 50.892501
_cell_angle_gamma 90.000000
_cell_volume 1210.424071
_symmetry_space_group_name_H-M "P 2/C"
_symmetry_group_IT_number 13
_symmetry_cell_setting 'monoclinic'
loop_
_space_group_symop_operation_xyz
x,y,z
-x,y,1/2-z
-x,-y,-z
x,-y,1/2+z
loop_
_atom_site_type_symbol
_atom_site_label
_atom_site_fract_x
_atom_site_fract_y
_atom_site_fract_z
Si Si1 0.386862 0.507239 0.881136
Si Si2 0.097938 0.050679 0.088949
Si Si3 0.500000 0.012060 0.750000
Si Si4 0.641659 0.874802 0.839378
Si Si5 0.266621 0.688666 0.383643
Si Si6 0.230895 0.537205 0.131822
Si Si7 0.887010 0.127789 0.630914
Si Si8 0.231543 0.304725 0.122101
O O1 0.500000 0.556388 0.750000
O O2 0.224917 0.426148 0.899197
O O3 0.573464 0.442731 0.866790
O O4 0.284006 0.565637 0.004355
O O5 0.295340 0.085791 0.080191
O O6 0.867343 0.099361 0.202209
O O7 0.125994 0.083337 0.971069
O O8 0.065896 0.936500 0.116006
O O9 0.659237 0.085421 0.747276
O O10 0.459795 0.932823 0.848493
O O11 0.610840 0.761340 0.870592
O O12 0.500000 0.703792 0.250000
O O13 0.108963 0.758763 0.381655
O O14 0.250899 0.715783 0.501983
O O15 0.238660 0.419897 0.130400
O O16 0.000000 0.570096 0.250000
O O17 0.000000 0.278174 0.250000
#
# Coordination Sequence:
#
# PCOD9226504 Si02
#       8
#     4   4   2   4   4   4   4   4
#     4   9  19  35  55  84 113 147 185 233 295 335
#     4   9  18  29  51  66 101 133 179 224 270 314
#     4  10  22  28  46  70 106 132 182 214 270 318
#     4  10  17  33  45  72  97 140 167 227 271 315
#     4  10  18  31  53  79 107 140 178 223 274 340
#     4   9  19  34  57  84 110 146 192 238 278 348
#     4  10  17  31  46  74  94 140 176 221 262 333
#     4  10  17  32  55  76 103 142 185 222 276 329
#
# _framework density 24.784701999999999
#
# number of rings (size 3 to 8) (size 9 to 14) (size 15 to 20)
#    0.000    2.400    3.333    0.000    0.000    1.067 
#    1.200    0.000    0.000    3.200   13.867    0.000 
#    0.000    0.000    0.000    0.000    0.000    0.000 
#
# Total GULP energy -167083.218881 kJ/mol
# GULP energy per Si atom -5569.440629 kJ/mol
# Density = 2.472829 g / cm^3
# Si number density = 24.784702 Si / 1000 Ang^3
#
#
#
# Elastic Constant Matrix: (Units=GPa)
#
#
# Indices 1 2 3 4 5 6 
#
# 1 49.8026 8.1478 17.5703 0.0000 3.0572 0.0000
# 2 8.1478 84.1926 -2.7690 0.0000 4.2669 0.0000
# 3 17.5703 -2.7690 152.0617 0.0000 11.5553 0.0000
# 4 0.0000 0.0000 0.0000 8.7313 0.0000 5.5389
# 5 3.0572 4.2669 11.5553 0.0000 32.3353 0.0000
# 6 0.0000 0.0000 0.0000 5.5389 0.0000 34.2766
#
#
#
# Elastic Compliance Matrix: (Units=1/GPa)
#
#
# Indices 1 2 3 4 5 6 
#
# 1 0.021336 -0.002101 -0.002438 0.000000 -0.000869 0.000000
# 2 -0.002101 0.012182 0.000588 0.000000 -0.001619 0.000000
# 3 -0.002438 0.000588 0.007048 0.000000 -0.002366 0.000000
# 4 0.000000 0.000000 0.000000 0.127613 0.000000 -0.020622
# 5 -0.000869 -0.001619 -0.002366 0.000000 0.032067 0.000000
# 6 0.000000 0.000000 0.000000 -0.020622 0.000000 0.032507
#
#
# Mechanical properties :
#
#
# Convention : Reuss Voigt Hill
#
# Bulk Modulus (GPa) = 30.61370 36.88389 33.74879
# Shear Modulus (GPa) = 19.87723 32.60915 26.24319
#
# Velocity S-wave (km/s) = 2.83503 3.63119 3.25752
# Velocity P-wave (km/s) = 4.80574 5.70041 5.27209
#
# Compressibility (1/GPa) = 0.03266512
#
# Stress axis : x y z
#
# Youngs Moduli (GPa) = 46.86844 82.08682 141.87573
#
# Poissons Ratio (x) = 0.17246 0.34583
# Poissons Ratio (y) = 0.09847 -0.08337
# Poissons Ratio (z) = 0.11425 -0.04824
#
# Static dielectric constant tensor:
#      x y z
#    x 2.124500 0.000000 -0.172660 
#    y 0.000000 1.999870 0.000000 
#    z -0.172660 0.000000 2.228250 
# 
# From -- ./inp_files/48026.got.cif
#   From: 2010.05.17/outbox.cif.g08.bks.cpg/sg13_25_cif.got.tgz:48026.got - 2010.06.03 16:44:36.
