data_PCOD9226257
_publ_section_title
;
Structure prediction by ZEFSAII (Michael W. Deem and Ramdas Pophale) SiO2 
 PCOD9226257
Probable space group: P 2/C
;
_chemical_formula_sum "Si O2"
_cell_formula_units_Z 24
_cell_length_a 7.607470
_cell_length_b 7.743872
_cell_length_c 26.797744
_cell_angle_alpha 90.000000
_cell_angle_beta 132.131709
_cell_angle_gamma 90.000000
_cell_volume 1170.763351
_symmetry_space_group_name_H-M "P 2/C"
_symmetry_group_IT_number 13
_symmetry_cell_setting 'monoclinic'
loop_
_space_group_symop_operation_xyz
x,y,z
-x,y,1/2-z
-x,-y,-z
x,-y,1/2+z
loop_
_atom_site_type_symbol
_atom_site_label
_atom_site_fract_x
_atom_site_fract_y
_atom_site_fract_z
Si Si1 0.095401 0.789132 0.914474
Si Si2 0.416230 0.918089 0.650273
Si Si3 0.924541 0.553834 0.041858
Si Si4 0.094019 0.958306 0.713261
Si Si5 0.725269 0.259072 0.822005
Si Si6 0.764366 0.930112 0.985684
O O1 0.819503 0.809343 0.881145
O O2 0.062992 0.830308 0.850182
O O3 0.194184 0.608880 0.953535
O O4 0.243932 0.938581 0.970182
O O5 0.648059 0.873803 0.726202
O O6 0.436689 0.923276 0.594611
O O7 0.363867 0.114888 0.656101
O O8 0.794820 0.736478 0.011058
O O9 0.136219 0.601281 0.120122
O O10 0.000000 0.500000 0.000000
O O11 0.000000 0.997619 0.750000
O O12 0.127554 0.135988 0.688189
O O13 0.500000 0.331489 0.750000
O O14 0.000000 0.000000 0.000000
#
# Coordination Sequence:
#
# PCOD9226257 Si02
#       6
#     4   4   4   4   4   4
#     4  10  19  32  56  80 109 130 172 219 260 310
#     4   9  16  32  54  78 105 131 174 221 257 310
#     4  12  18  29  56  87 106 134 164 218 279 303
#     4  10  20  36  54  72 105 150 179 209 257 306
#     4   9  18  32  52  80 107 131 176 221 256 308
#     4  10  16  31  51  81 111 127 166 218 263 310
#
# _framework density 20.499442999999999
#
# number of rings (size 3 to 8) (size 9 to 14) (size 15 to 20)
#    0.000    2.000    8.333    1.500    0.000    1.333 
#    0.000    1.667    0.000    1.000    0.000    0.000 
#    0.000    0.000    0.000    0.000    0.000    0.000 
#
# Total GULP energy -133715.249149 kJ/mol
# GULP energy per Si atom -5571.468715 kJ/mol
# Density = 2.045279 g / cm^3
# Si number density = 20.499443 Si / 1000 Ang^3
#
#
#
# Elastic Constant Matrix: (Units=GPa)
#
#
# Indices 1 2 3 4 5 6 
#
# 1 42.6634 15.3566 38.2103 0.0000 -2.9059 0.0000
# 2 15.3566 130.5412 59.6652 0.0000 -16.1038 0.0000
# 3 38.2103 59.6652 150.9845 0.0000 -42.7491 0.0000
# 4 0.0000 0.0000 0.0000 38.7093 0.0000 -6.8563
# 5 -2.9059 -16.1038 -42.7491 0.0000 16.7887 0.0000
# 6 0.0000 0.0000 0.0000 -6.8563 0.0000 1.6467
#
#
#
# Elastic Compliance Matrix: (Units=1/GPa)
#
#
# Indices 1 2 3 4 5 6 
#
# 1 0.050975 0.000514 -0.037505 0.000000 -0.086184 0.000000
# 2 0.000514 0.009366 -0.004524 0.000000 -0.002446 0.000000
# 3 -0.037505 -0.004524 0.053166 0.000000 0.124546 0.000000
# 4 0.000000 0.000000 0.000000 0.098400 0.000000 0.409698
# 5 -0.086184 -0.002446 0.124546 0.000000 0.359432 0.000000
# 6 0.000000 0.000000 0.000000 0.409698 0.000000 2.313077
#
#
# Mechanical properties :
#
#
# Convention : Reuss Voigt Hill
#
# Bulk Modulus (GPa) = 32.81270 61.18370 46.99820
# Shear Modulus (GPa) = 1.67920 25.49274 13.58597
#
# Velocity S-wave (km/s) = 0.90605 3.53027 2.57718
# Velocity P-wave (km/s) = 4.13956 6.82117 5.64200
#
# Compressibility (1/GPa) = 0.03047600
#
# Stress axis : x y z
#
# Youngs Moduli (GPa) = 19.61757 106.77091 18.80907
#
# Poissons Ratio (x) = -0.05486 0.70544
# Poissons Ratio (y) = -0.01008 0.08509
# Poissons Ratio (z) = 0.73576 0.48301
#
# Static dielectric constant tensor:
#      x y z
#    x 1.838110 0.000000 0.058540 
#    y 0.000000 1.728550 0.000000 
#    z 0.058540 0.000000 1.820350 
# 
# From -- ./inp_files/91056.got.cif
#   From: 2010.05.17/outbox.cif.g08.bks.cpg/sg13_46_cif.got.tgz:91056.got - 2010.06.03 16:44:36.
