data_PCOD9226018
_publ_section_title
;
Structure prediction by ZEFSAII (Michael W. Deem and Ramdas Pophale) SiO2 
 PCOD9226018
Probable space group: P 2/C
;
_chemical_formula_sum "Si O2"
_cell_formula_units_Z 24
_cell_length_a 7.661822
_cell_length_b 8.106719
_cell_length_c 29.397075
_cell_angle_alpha 90.000000
_cell_angle_beta 137.987743
_cell_angle_gamma 90.000000
_cell_volume 1222.067949
_symmetry_space_group_name_H-M "P 2/C"
_symmetry_group_IT_number 13
_symmetry_cell_setting 'monoclinic'
loop_
_space_group_symop_operation_xyz
x,y,z
-x,y,1/2-z
-x,-y,-z
x,-y,1/2+z
loop_
_atom_site_type_symbol
_atom_site_label
_atom_site_fract_x
_atom_site_fract_y
_atom_site_fract_z
Si Si1 0.500000 0.673045 0.750000
Si Si2 0.556505 0.240224 0.877489
Si Si3 0.180308 0.901893 0.190656
Si Si4 0.298388 0.113230 0.134717
Si Si5 0.901289 0.371293 0.018518
Si Si6 0.903707 0.571877 0.368749
Si Si7 0.000000 0.162571 0.750000
O O1 0.492253 0.785044 0.794201
O O2 0.254305 0.555937 0.693009
O O3 0.711443 0.351210 0.870547
O O4 0.252870 0.268394 0.811093
O O5 0.608385 0.046812 0.875238
O O6 0.658989 0.283061 0.947432
O O7 0.500000 0.876225 0.250000
O O8 0.039217 0.732504 0.149519
O O9 0.083128 0.940680 0.221957
O O10 0.122796 0.036848 0.141494
O O11 0.128174 0.237636 0.072119
O O12 0.876767 0.473831 0.060651
O O13 0.000000 0.500000 0.000000
#
# Coordination Sequence:
#
# PCOD9226018 Si02
#       7
#     2   4   4   4   4   4   2
#     4  10  14  24  50  78  96 146 176 224 278 318
#     4  10  19  34  51  84 110 146 189 229 280 329
#     4  11  19  36  55  84 111 148 187 227 277 328
#     4  10  18  32  55  79 113 142 188 229 272 331
#     4   9  19  33  58  84 108 150 191 227 278 337
#     4   9  17  32  54  77 112 142 189 227 277 332
#     4  12  20  32  60  82 116 142 188 236 274 338
#
# _framework density 19.638840999999999
#
# number of rings (size 3 to 8) (size 9 to 14) (size 15 to 20)
#    0.000    2.000    5.000    0.500    0.000    0.000 
#    0.000    1.667    0.000   49.000    0.000    0.000 
#    0.000    0.000    0.000    0.000    0.000    0.000 
#
# Total GULP energy -133609.794166 kJ/mol
# GULP energy per Si atom -5567.074757 kJ/mol
# Density = 1.959414 g / cm^3
# Si number density = 19.638841 Si / 1000 Ang^3
#
#
#
# Elastic Constant Matrix: (Units=GPa)
#
#
# Indices 1 2 3 4 5 6 
#
# 1 58.8844 13.0730 20.2416 0.0000 -11.8748 0.0000
# 2 13.0730 115.6112 60.1953 0.0000 -12.1738 0.0000
# 3 20.2416 60.1953 153.2322 0.0000 -9.4427 0.0000
# 4 0.0000 0.0000 0.0000 45.5712 0.0000 -10.6687
# 5 -11.8748 -12.1738 -9.4427 0.0000 20.9958 0.0000
# 6 0.0000 0.0000 0.0000 -10.6687 0.0000 5.4887
#
#
#
# Elastic Compliance Matrix: (Units=1/GPa)
#
#
# Indices 1 2 3 4 5 6 
#
# 1 0.019735 -0.000159 -0.001915 0.000000 0.010208 0.000000
# 2 -0.000159 0.011307 -0.004137 0.000000 0.004605 0.000000
# 3 -0.001915 -0.004137 0.008423 0.000000 0.000306 0.000000
# 4 0.000000 0.000000 0.000000 0.040268 0.000000 0.078270
# 5 0.010208 0.004605 0.000306 0.000000 0.056210 0.000000
# 6 0.000000 0.000000 0.000000 0.078270 0.000000 0.334329
#
#
# Mechanical properties :
#
#
# Convention : Reuss Voigt Hill
#
# Bulk Modulus (GPa) = 36.98053 57.19418 47.08735
# Shear Modulus (GPa) = 10.16866 30.02568 20.09717
#
# Velocity S-wave (km/s) = 2.27795 3.91435 3.20244
# Velocity P-wave (km/s) = 5.07838 7.04384 6.14026
#
# Compressibility (1/GPa) = 0.02704126
#
# Stress axis : x y z
#
# Youngs Moduli (GPa) = 50.67221 88.44450 118.72251
#
# Poissons Ratio (x) = 0.01411 0.22738
# Poissons Ratio (y) = 0.00808 0.49113
# Poissons Ratio (z) = 0.09705 0.36588
#
# Static dielectric constant tensor:
#      x y z
#    x 1.693580 0.000000 -0.012030 
#    y 0.000000 1.745410 0.000000 
#    z -0.012030 0.000000 1.753230 
# 
# From -- ./inp_files/95833.got.cif
#   From: 2010.05.17/outbox.cif.g08.bks.cpg/sg13_48_cif.got.tgz:95833.got - 2010.06.03 16:44:36.
