data_PCOD9226280
_publ_section_title
;
Structure prediction by ZEFSAII (Michael W. Deem and Ramdas Pophale) SiO2 
 PCOD9226280
Probable space group: P 2/C
;
_chemical_formula_sum "Si O2"
_cell_formula_units_Z 26
_cell_length_a 16.824766
_cell_length_b 6.428950
_cell_length_c 13.309569
_cell_angle_alpha 90.000000
_cell_angle_beta 52.297551
_cell_angle_gamma 90.000000
_cell_volume 1139.037234
_symmetry_space_group_name_H-M "P 2/C"
_symmetry_group_IT_number 13
_symmetry_cell_setting 'monoclinic'
loop_
_space_group_symop_operation_xyz
x,y,z
-x,y,1/2-z
-x,-y,-z
x,-y,1/2+z
loop_
_atom_site_type_symbol
_atom_site_label
_atom_site_fract_x
_atom_site_fract_y
_atom_site_fract_z
Si Si1 0.000000 0.976437 0.750000
Si Si2 0.294612 0.979358 0.882033
Si Si3 0.363963 0.060641 0.123287
Si Si4 0.421252 0.295379 0.900677
Si Si5 0.841657 0.318900 0.253773
Si Si6 0.707139 0.331836 0.934507
Si Si7 0.086526 0.126332 0.487032
O O1 0.049358 0.127806 0.629517
O O2 0.083948 0.822512 0.735351
O O3 0.278282 0.796886 0.974613
O O4 0.188432 0.008727 0.910804
O O5 0.375451 0.920345 0.734043
O O6 0.329839 0.178421 0.915412
O O7 0.264653 0.199974 0.176144
O O8 0.330364 0.828983 0.120230
O O9 0.444088 0.151235 0.980972
O O10 0.500000 0.316855 0.750000
O O11 0.383857 0.512073 0.972087
O O12 0.805995 0.539482 0.325508
O O13 0.888315 0.321008 0.104664
O O14 0.000000 0.000000 0.500000
#
# Coordination Sequence:
#
# PCOD9226280 Si02
#       7
#     2   4   4   4   4   4   4
#     4  10  16  32  56  82 120 158 192 236 286 338
#     4  10  21  39  62  83 113 157 195 234 289 342
#     4   9  20  39  60  82 112 151 193 237 287 344
#     4  10  22  38  58  87 118 150 192 239 290 346
#     4   9  19  35  55  83 115 153 197 238 284 337
#     4  10  20  37  59  83 115 150 191 240 288 342
#     4   9  18  33  59  86 114 152 191 234 283 335
#
# _framework density 22.826297
#
# number of rings (size 3 to 8) (size 9 to 14) (size 15 to 20)
#    0.000    2.462    0.000    2.769    0.000    6.769 
#    0.000    7.692    0.000   24.000    0.000    0.000 
#    0.000    0.000    0.000    0.000    0.000    0.000 
#
# Total GULP energy -145065.770221 kJ/mol
# GULP energy per Si atom -5579.452701 kJ/mol
# Density = 2.277434 g / cm^3
# Si number density = 22.826297 Si / 1000 Ang^3
#
#
#
# Elastic Constant Matrix: (Units=GPa)
#
#
# Indices 1 2 3 4 5 6 
#
# 1 35.2397 13.2443 16.8463 0.0000 10.3027 0.0000
# 2 13.2443 93.5788 51.7025 0.0000 5.1235 0.0000
# 3 16.8463 51.7025 201.0196 0.0000 16.0992 0.0000
# 4 0.0000 0.0000 0.0000 21.2271 0.0000 -13.6817
# 5 10.3027 5.1235 16.0992 0.0000 33.7502 0.0000
# 6 0.0000 0.0000 0.0000 -13.6817 0.0000 7.8017
#
#
#
# Elastic Compliance Matrix: (Units=1/GPa)
#
#
# Indices 1 2 3 4 5 6 
#
# 1 0.032864 -0.003538 -0.001127 0.000000 -0.008958 0.000000
# 2 -0.003538 0.012842 -0.003053 0.000000 0.000587 0.000000
# 3 -0.001127 -0.003053 0.006020 0.000000 -0.002064 0.000000
# 4 0.000000 0.000000 0.000000 -0.361503 0.000000 -0.633962
# 5 -0.008958 0.000587 -0.002064 0.000000 0.033259 0.000000
# 6 0.000000 0.000000 0.000000 -0.633962 0.000000 -0.983592
#
#
# Mechanical properties :
#
#
# Convention : Reuss Voigt Hill
#
# Bulk Modulus (GPa) = 27.55661 54.82493 41.19077
# Shear Modulus (GPa) = -4.05654 29.09214 12.51780
#
# Velocity S-wave (km/s) = -1.33454 3.57389 2.34432
# Velocity P-wave (km/s) = 3.11831 6.41098 5.04106
#
# Compressibility (1/GPa) = 0.03628894
#
# Stress axis : x y z
#
# Youngs Moduli (GPa) = 30.42806 77.87041 166.12097
#
# Poissons Ratio (x) = 0.27553 0.18717
# Poissons Ratio (y) = 0.10767 0.50724
# Poissons Ratio (z) = 0.03428 0.23777
#
# Static dielectric constant tensor:
#      x y z
#    x 1.946510 0.000000 -0.021270 
#    y 0.000000 1.807580 0.000000 
#    z -0.021270 0.000000 1.988120 
# 
# From -- ./inp_files/52218.got.cif
#   From: 2010.05.17/outbox.cif.g08.bks.cpg/sg13_27_cif.got.tgz:52218.got - 2010.06.03 16:44:36.
