data_PCOD9226831
_publ_section_title
;
Structure prediction by ZEFSAII (Michael W. Deem and Ramdas Pophale) SiO2 
 PCOD9226831
Probable space group: P 2/C
;
_chemical_formula_sum "Si O2"
_cell_formula_units_Z 28
_cell_length_a 5.612258
_cell_length_b 12.547529
_cell_length_c 21.035068
_cell_angle_alpha 90.000000
_cell_angle_beta 107.833344
_cell_angle_gamma 90.000000
_cell_volume 1410.114896
_symmetry_space_group_name_H-M "P 2/C"
_symmetry_group_IT_number 13
_symmetry_cell_setting 'monoclinic'
loop_
_space_group_symop_operation_xyz
x,y,z
-x,y,1/2-z
-x,-y,-z
x,-y,1/2+z
loop_
_atom_site_type_symbol
_atom_site_label
_atom_site_fract_x
_atom_site_fract_y
_atom_site_fract_z
Si Si1 0.710045 0.916072 0.218351
Si Si2 0.504192 0.353290 0.455552
Si Si3 0.755170 0.930279 0.082715
Si Si4 0.713439 0.850773 0.532978
Si Si5 0.602229 0.571074 0.414561
Si Si6 0.994286 0.263917 0.940770
Si Si7 0.714749 0.340288 0.717601
O O1 0.500000 0.956113 0.250000
O O2 0.628403 0.944575 0.140301
O O3 0.712767 0.787594 0.223159
O O4 0.000000 0.952613 0.250000
O O5 0.342933 0.248760 0.425124
O O6 0.562022 0.444538 0.409253
O O7 0.375269 0.404564 0.508034
O O8 0.765322 0.312013 0.505048
O O9 0.941259 0.829469 0.103790
O O10 0.856130 0.045629 0.070371
O O11 0.555946 0.892606 0.013763
O O12 0.843270 0.801054 0.482055
O O13 0.835081 0.635443 0.403892
O O14 0.371977 0.626419 0.360188
O O15 0.500000 0.379922 0.750000
O O16 0.000000 0.377514 0.750000
#
# Coordination Sequence:
#
# PCOD9226831 Si02
#       7
#     4   4   4   4   4   4   4
#     4  10  22  36  54  80 113 145 185 228 279 336
#     4   9  19  34  52  80 109 141 181 229 284 338
#     4  10  20  33  54  78 111 143 183 229 283 340
#     4   9  19  34  52  80 109 141 181 229 284 338
#     4  10  20  33  54  78 111 143 183 229 283 340
#     4  10  18  30  54  84 110 142 178 230 288 348
#     4  10  22  36  54  80 113 145 185 228 279 336
#
# _framework density 19.856536999999999
#
# number of rings (size 3 to 8) (size 9 to 14) (size 15 to 20)
#    0.000    2.286    0.000    3.429   10.000    0.000 
#    0.000    0.000    0.000    1.714    0.000    0.000 
#    0.000    0.000    0.000    0.000    0.000    0.000 
#
# Total GULP energy -155944.912745 kJ/mol
# GULP energy per Si atom -5569.461169 kJ/mol
# Density = 1.981134 g / cm^3
# Si number density = 19.856537 Si / 1000 Ang^3
#
#
#
# Elastic Constant Matrix: (Units=GPa)
#
#
# Indices 1 2 3 4 5 6 
#
# 1 53.2910 19.7027 2.8384 0.0000 -12.7353 0.0000
# 2 19.7027 60.7340 0.4686 0.0000 -19.3224 0.0000
# 3 2.8384 0.4686 23.8324 0.0000 -7.8291 0.0000
# 4 0.0000 0.0000 0.0000 4.9053 0.0000 0.9057
# 5 -12.7353 -19.3224 -7.8291 0.0000 24.6672 0.0000
# 6 0.0000 0.0000 0.0000 0.9057 0.0000 11.6992
#
#
#
# Elastic Compliance Matrix: (Units=1/GPa)
#
#
# Indices 1 2 3 4 5 6 
#
# 1 0.022401 -0.004779 -0.000005 0.000000 0.007820 0.000000
# 2 -0.004779 0.023698 0.006018 0.000000 0.018006 0.000000
# 3 -0.000005 0.006018 0.048440 0.000000 0.020086 0.000000
# 4 0.000000 0.000000 0.000000 0.206817 0.000000 -0.016011
# 5 0.007820 0.018006 0.020086 0.000000 0.065056 0.000000
# 6 0.000000 0.000000 0.000000 -0.016011 0.000000 0.086715
#
#
# Mechanical properties :
#
#
# Convention : Reuss Voigt Hill
#
# Bulk Modulus (GPa) = 10.30853 20.43076 15.36965
# Shear Modulus (GPa) = 10.35208 15.91086 13.13147
#
# Velocity S-wave (km/s) = 2.28577 2.83378 2.57440
# Velocity P-wave (km/s) = 3.48843 4.58460 4.07356
#
# Compressibility (1/GPa) = 0.09700700
#
# Stress axis : x y z
#
# Youngs Moduli (GPa) = 44.64103 42.19837 20.64398
#
# Poissons Ratio (x) = 0.20167 0.00010
# Poissons Ratio (y) = 0.21334 -0.12424
# Poissons Ratio (z) = 0.00022 -0.25396
#
# Static dielectric constant tensor:
#      x y z
#    x 1.804610 0.000000 -0.017300 
#    y 0.000000 1.744130 0.000000 
#    z -0.017300 0.000000 1.698400 
# 
# From -- ./inp_files/73664.got.cif
#   From: 2010.05.17/outbox.cif.g08.bks.cpg/sg13_37_cif.got.tgz:73664.got - 2010.06.03 16:44:36.
