data_PCOD9226966
_publ_section_title
;
Structure prediction by ZEFSAII (Michael W. Deem and Ramdas Pophale) SiO2 
 PCOD9226966
Probable space group: P 2/C
;
_chemical_formula_sum "Si O2"
_cell_formula_units_Z 22
_cell_length_a 27.825422
_cell_length_b 6.875799
_cell_length_c 5.207865
_cell_angle_alpha 90.000000
_cell_angle_beta 79.253192
_cell_angle_gamma 90.000000
_cell_volume 978.903487
_symmetry_space_group_name_H-M "P 2/C"
_symmetry_group_IT_number 13
_symmetry_cell_setting 'monoclinic'
loop_
_space_group_symop_operation_xyz
x,y,z
-x,y,1/2-z
-x,-y,-z
x,-y,1/2+z
loop_
_atom_site_type_symbol
_atom_site_label
_atom_site_fract_x
_atom_site_fract_y
_atom_site_fract_z
Si Si1 0.445806 0.274271 0.415087
Si Si2 0.306341 0.133062 0.895444
Si Si3 0.799526 0.125166 0.402977
Si Si4 0.000000 0.637828 0.750000
Si Si5 0.895430 0.628846 0.920561
Si Si6 0.593820 0.712121 0.045840
O O1 0.500000 0.269141 0.250000
O O2 0.427510 0.496473 0.476913
O O3 0.440967 0.192469 0.705100
O O4 0.409761 0.195655 0.232004
O O5 0.351615 0.275445 0.901005
O O6 0.309146 0.033786 0.613494
O O7 0.252729 0.226126 0.988820
O O8 0.847293 0.248457 0.415322
O O9 0.800078 0.948687 0.609346
O O10 0.052866 0.740063 0.681626
O O11 0.000000 0.500000 0.500000
O O12 0.895004 0.455487 0.709514
#
# Coordination Sequence:
#
# PCOD9226966 Si02
#       6
#     4   4   4   2   4   4
#     4  10  19  33  55  76 101 128 154 207 269 302
#     4  10  21  37  54  71 101 142 172 204 256 313
#     4  10  21  38  56  77 111 153 186 224 283 335
#     4   8  16  30  52  76 114 146 180 220 290 334
#     4  10  19  35  56  85 110 148 188 237 274 325
#     4  10  18  32  52  76  95 128 166 199 245 308
#
# _framework density 22.474126999999999
#
# number of rings (size 3 to 8) (size 9 to 14) (size 15 to 20)
#    0.000    2.182    0.000    4.909    0.000    0.000 
#    6.545    0.909    0.000   18.545    0.000    0.000 
#    0.000    0.000    0.000    0.000    0.000    0.000 
#
# Total GULP energy -122741.749600 kJ/mol
# GULP energy per Si atom -5579.170436 kJ/mol
# Density = 2.242297 g / cm^3
# Si number density = 22.474127 Si / 1000 Ang^3
#
#
#
# Elastic Constant Matrix: (Units=GPa)
#
#
# Indices 1 2 3 4 5 6 
#
# 1 155.7696 -4.8518 7.6659 0.0000 -32.5656 0.0000
# 2 -4.8518 26.3524 -11.9881 0.0000 -9.5604 0.0000
# 3 7.6659 -11.9881 122.4336 0.0000 15.3800 0.0000
# 4 0.0000 0.0000 0.0000 6.7633 0.0000 -9.5100
# 5 -32.5656 -9.5604 15.3800 0.0000 54.0576 0.0000
# 6 0.0000 0.0000 0.0000 -9.5100 0.0000 13.1028
#
#
#
# Elastic Compliance Matrix: (Units=1/GPa)
#
#
# Indices 1 2 3 4 5 6 
#
# 1 0.007685 0.002980 -0.000868 0.000000 0.005404 0.000000
# 2 0.002980 0.042937 0.002943 0.000000 0.008552 0.000000
# 3 -0.000868 0.002943 0.008826 0.000000 -0.002514 0.000000
# 4 0.000000 0.000000 0.000000 -7.189061 0.000000 -5.217835
# 5 0.005404 0.008552 -0.002514 0.000000 0.023982 0.000000
# 6 0.000000 0.000000 0.000000 -5.217835 0.000000 -3.710796
#
#
# Mechanical properties :
#
#
# Convention : Reuss Voigt Hill
#
# Bulk Modulus (GPa) = 14.37616 31.80086 23.08851
# Shear Modulus (GPa) = -0.46282 35.70002 17.61860
#
# Velocity S-wave (km/s) = -0.45429 3.98992 2.80295
# Velocity P-wave (km/s) = 2.47699 5.95035 4.55753
#
# Compressibility (1/GPa) = 0.06955962
#
# Stress axis : x y z
#
# Youngs Moduli (GPa) = 130.12328 23.28967 113.30165
#
# Poissons Ratio (x) = -0.06941 0.09837
# Poissons Ratio (y) = -0.38782 -0.33348
# Poissons Ratio (z) = 0.11297 -0.06855
#
# Static dielectric constant tensor:
#      x y z
#    x 1.870560 0.000000 0.005660 
#    y 0.000000 25.783750 0.000000 
#    z 0.005660 0.000000 1.885050 
# 
# From -- ./inp_files/6721.got.cif
#   From: 2010.05.17/outbox.cif.g08.bks.cpg/sg13_4_cif.got.tgz:6721.got - 2010.06.03 16:44:36.
