data_PCOD9226033
_publ_section_title
;
Structure prediction by ZEFSAII (Michael W. Deem and Ramdas Pophale) SiO2 
 PCOD9226033
Probable space group: P 2/C
;
_chemical_formula_sum "Si O2"
_cell_formula_units_Z 30
_cell_length_a 27.311475
_cell_length_b 12.086981
_cell_length_c 13.850593
_cell_angle_alpha 90.000000
_cell_angle_beta 20.260303
_cell_angle_gamma 90.000000
_cell_volume 1583.310141
_symmetry_space_group_name_H-M "P 2/C"
_symmetry_group_IT_number 13
_symmetry_cell_setting 'monoclinic'
loop_
_space_group_symop_operation_xyz
x,y,z
-x,y,1/2-z
-x,-y,-z
x,-y,1/2+z
loop_
_atom_site_type_symbol
_atom_site_label
_atom_site_fract_x
_atom_site_fract_y
_atom_site_fract_z
Si Si1 0.123143 0.809125 0.694617
Si Si2 0.637935 0.362657 0.747255
Si Si3 0.166836 0.181837 0.658737
Si Si4 0.155085 0.025961 0.509873
Si Si5 0.667738 0.106455 0.961281
Si Si6 0.338044 0.604497 0.865100
Si Si7 0.710631 0.356704 0.831975
Si Si8 0.000000 0.658596 0.750000
O O1 0.263575 0.740433 0.465217
O O2 0.055048 0.733773 0.735982
O O3 0.160970 0.925375 0.576049
O O4 0.996291 0.828977 0.005176
O O5 0.687856 0.476271 0.607015
O O6 0.653415 0.382055 0.833232
O O7 0.467864 0.354195 0.057127
O O8 0.185432 0.133034 0.517899
O O9 0.271561 0.118304 0.541761
O O10 0.211425 0.309980 0.582204
O O11 0.000000 0.029806 0.750000
O O12 0.260793 0.993750 0.228251
O O13 0.720746 0.222854 0.818181
O O14 0.500000 0.104240 0.250000
O O15 0.367359 0.613219 0.925833
O O16 0.868400 0.406140 0.537614
#
# Coordination Sequence:
#
# PCOD9226033 Si02
#       8
#     4   4   4   4   4   4   4   2
#     4  11  18  36  57  87 108 152 198 245 285 343
#     4  10  21  35  63  85 117 152 199 245 291 352
#     4  11  23  38  61  87 124 157 197 248 300 358
#     4  12  22  39  61  85 121 157 199 247 302 354
#     4  11  21  36  59  89 114 151 207 249 291 348
#     4  10  21  39  55  90 120 153 193 241 302 354
#     4  10  17  33  58  82 109 147 192 244 283 334
#     4  10  14  30  56  82 106 130 188 248 274 318
#
# _framework density 18.947645000000001
#
# number of rings (size 3 to 8) (size 9 to 14) (size 15 to 20)
#    0.000    1.333    7.333    2.400    0.000    1.067 
#    0.000    1.333    1.467    0.000    0.000    0.000 
#    0.000    0.000    0.000    0.000    0.000    0.000 
#
# Total GULP energy -167090.196491 kJ/mol
# GULP energy per Si atom -5569.673216 kJ/mol
# Density = 1.890452 g / cm^3
# Si number density = 18.947645 Si / 1000 Ang^3
#
#
#
# Elastic Constant Matrix: (Units=GPa)
#
#
# Indices 1 2 3 4 5 6 
#
# 1 44.8984 22.2072 11.4966 0.0000 8.8149 0.0000
# 2 22.2072 32.9514 6.7377 0.0000 6.8924 0.0000
# 3 11.4966 6.7377 94.0583 0.0000 -9.3475 0.0000
# 4 0.0000 0.0000 0.0000 30.2236 0.0000 7.7133
# 5 8.8149 6.8924 -9.3475 0.0000 22.8050 0.0000
# 6 0.0000 0.0000 0.0000 7.7133 0.0000 23.6221
#
#
#
# Elastic Compliance Matrix: (Units=1/GPa)
#
#
# Indices 1 2 3 4 5 6 
#
# 1 0.035488 -0.021327 -0.003683 0.000000 -0.008781 0.000000
# 2 -0.021327 0.046312 -0.001337 0.000000 -0.006301 0.000000
# 3 -0.003683 -0.001337 0.011842 0.000000 0.006681 0.000000
# 4 0.000000 0.000000 0.000000 0.036095 0.000000 -0.011786
# 5 -0.008781 -0.006301 0.006681 0.000000 0.051887 0.000000
# 6 0.000000 0.000000 0.000000 -0.011786 0.000000 0.046182
#
#
# Mechanical properties :
#
#
# Convention : Reuss Voigt Hill
#
# Bulk Modulus (GPa) = 24.42079 28.08790 26.25434
# Shear Modulus (GPa) = 16.99824 24.09458 20.54641
#
# Velocity S-wave (km/s) = 2.99844 3.56987 3.29656
# Velocity P-wave (km/s) = 4.99040 5.64342 5.32692
#
# Compressibility (1/GPa) = 0.04094872
#
# Stress axis : x y z
#
# Youngs Moduli (GPa) = 28.17853 21.59257 84.44828
#
# Poissons Ratio (x) = 0.46050 0.31099
# Poissons Ratio (y) = 0.60096 0.11290
# Poissons Ratio (z) = 0.10377 0.02887
#
# Static dielectric constant tensor:
#      x y z
#    x 1.690570 0.000000 -0.038790 
#    y 0.000000 1.638390 0.000000 
#    z -0.038790 0.000000 1.754070 
# 
# From -- ./inp_files/59987.got.cif
#   From: 2010.05.17/outbox.cif.g08.bks.cpg/sg13_30_cif.got.tgz:59987.got - 2010.06.03 16:44:36.
