data_PCOD9226972
_publ_section_title
;
Structure prediction by ZEFSAII (Michael W. Deem and Ramdas Pophale) SiO2 
 PCOD9226972
Probable space group: P 2/C
;
_chemical_formula_sum "Si O2"
_cell_formula_units_Z 28
_cell_length_a 17.144307
_cell_length_b 5.374918
_cell_length_c 18.994758
_cell_angle_alpha 90.000000
_cell_angle_beta 141.683162
_cell_angle_gamma 90.000000
_cell_volume 1085.235472
_symmetry_space_group_name_H-M "P 2/C"
_symmetry_group_IT_number 13
_symmetry_cell_setting 'monoclinic'
loop_
_space_group_symop_operation_xyz
x,y,z
-x,y,1/2-z
-x,-y,-z
x,-y,1/2+z
loop_
_atom_site_type_symbol
_atom_site_label
_atom_site_fract_x
_atom_site_fract_y
_atom_site_fract_z
Si Si1 0.695920 0.349557 0.885752
Si Si2 0.500000 0.041107 0.250000
Si Si3 0.251328 0.715782 0.452688
Si Si4 0.911816 0.950302 0.584056
Si Si5 0.661504 0.674197 0.198890
Si Si6 0.527119 0.813059 0.611292
Si Si7 0.000000 0.593415 0.750000
Si Si8 0.956087 0.746915 0.427383
O O1 0.648322 0.369743 0.773536
O O2 0.605434 0.144147 0.854583
O O3 0.704402 0.585229 0.942318
O O4 0.830795 0.218220 0.974538
O O5 0.454373 0.173188 0.289168
O O6 0.184825 0.974646 0.423189
O O7 0.378034 0.751966 0.497906
O O8 0.131438 0.555249 0.343262
O O9 0.964282 0.200112 0.587431
O O10 0.010160 0.770207 0.688981
O O11 0.608856 0.409588 0.135031
O O12 0.811035 0.728447 0.299304
O O13 0.578371 0.917830 0.122761
O O14 0.000000 0.500000 0.500000
O O15 0.000000 0.000000 0.500000
#
# Coordination Sequence:
#
# PCOD9226972 Si02
#       8
#     4   2   4   4   4   4   2   4
#     4  10  19  32  55  88 133 162 213 255 331 404
#     4  10  18  32  52  90 128 172 194 258 324 416
#     4  11  21  40  62  96 122 174 221 289 344 384
#     4  11  23  41  64  95 129 176 223 283 335 397
#     4  11  23  37  56  96 130 181 207 253 334 408
#     4  11  22  35  60  86 135 165 215 266 327 409
#     4  10  26  42  68  94 128 168 238 290 348 386
#     4  12  25  42  67  97 142 184 224 271 332 415
#
# _framework density 25.800854000000001
#
# number of rings (size 3 to 8) (size 9 to 14) (size 15 to 20)
#    0.000    1.143    2.857    4.714    8.000    0.571 
#    0.000    0.000    0.000    1.714    0.000    0.000 
#    0.000    0.000    0.000    0.000    0.000    0.000 
#
# Total GULP energy -156468.491271 kJ/mol
# GULP energy per Si atom -5588.160403 kJ/mol
# Density = 2.574213 g / cm^3
# Si number density = 25.800854 Si / 1000 Ang^3
#
#
#
# Elastic Constant Matrix: (Units=GPa)
#
#
# Indices 1 2 3 4 5 6 
#
# 1 74.9414 34.3769 26.8235 0.0000 29.3025 0.0000
# 2 34.3769 158.0504 59.5214 0.0000 22.6232 0.0000
# 3 26.8235 59.5214 123.4130 0.0000 27.1083 0.0000
# 4 0.0000 0.0000 0.0000 54.5874 0.0000 2.5674
# 5 29.3025 22.6232 27.1083 0.0000 44.5945 0.0000
# 6 0.0000 0.0000 0.0000 2.5674 0.0000 40.8719
#
#
#
# Elastic Compliance Matrix: (Units=1/GPa)
#
#
# Indices 1 2 3 4 5 6 
#
# 1 0.018869 -0.002326 -0.000594 0.000000 -0.010857 0.000000
# 2 -0.002326 0.008162 -0.003297 0.000000 -0.000608 0.000000
# 3 -0.000594 -0.003297 0.010813 0.000000 -0.004510 0.000000
# 4 0.000000 0.000000 0.000000 0.018374 0.000000 -0.001154
# 5 -0.010857 -0.000608 -0.004510 0.000000 0.032608 0.000000
# 6 0.000000 0.000000 0.000000 -0.001154 0.000000 0.024539
#
#
# Mechanical properties :
#
#
# Convention : Reuss Voigt Hill
#
# Bulk Modulus (GPa) = 39.35816 66.42762 52.89289
# Shear Modulus (GPa) = 37.23868 43.72296 40.48082
#
# Velocity S-wave (km/s) = 3.80322 4.12106 3.96532
# Velocity P-wave (km/s) = 5.87994 6.96034 6.44282
#
# Compressibility (1/GPa) = 0.02540769
#
# Stress axis : x y z
#
# Youngs Moduli (GPa) = 52.99783 122.52203 92.48195
#
# Poissons Ratio (x) = 0.28500 0.05497
# Poissons Ratio (y) = 0.12328 0.30494
# Poissons Ratio (z) = 0.03150 0.40400
#
# Static dielectric constant tensor:
#      x y z
#    x 2.167510 0.000000 -0.025140 
#    y 0.000000 1.997050 0.000000 
#    z -0.025140 0.000000 2.130430 
# 
# From -- ./inp_files/77572.got.cif
#   From: 2010.05.17/outbox.cif.g08.bks.cpg/sg13_39_cif.got.tgz:77572.got - 2010.06.03 16:44:36.
