data_PCOD9226642
_publ_section_title
;
Structure prediction by ZEFSAII (Michael W. Deem and Ramdas Pophale) SiO2 
 PCOD9226642
Probable space group: P 2/C
;
_chemical_formula_sum "Si O2"
_cell_formula_units_Z 30
_cell_length_a 11.589971
_cell_length_b 7.915943
_cell_length_c 17.094022
_cell_angle_alpha 90.000000
_cell_angle_beta 76.489364
_cell_angle_gamma 90.000000
_cell_volume 1524.900192
_symmetry_space_group_name_H-M "P 2/C"
_symmetry_group_IT_number 13
_symmetry_cell_setting 'monoclinic'
loop_
_space_group_symop_operation_xyz
x,y,z
-x,y,1/2-z
-x,-y,-z
x,-y,1/2+z
loop_
_atom_site_type_symbol
_atom_site_label
_atom_site_fract_x
_atom_site_fract_y
_atom_site_fract_z
Si Si1 0.928235 0.356401 0.058005
Si Si2 0.500000 0.635002 0.750000
Si Si3 0.922781 0.813445 0.834753
Si Si4 0.380927 0.159874 0.971348
Si Si5 0.333745 0.311801 0.146555
Si Si6 0.813659 0.905811 0.464977
Si Si7 0.371518 0.328909 0.564994
Si Si8 0.669866 0.500405 0.094617
O O1 0.796561 0.424216 0.094467
O O2 0.998854 0.310666 0.124596
O O3 0.902340 0.190444 0.009055
O O4 0.000000 0.500000 0.000000
O O5 0.587178 0.738961 0.792285
O O6 0.416986 0.525645 0.819643
O O7 0.805416 0.720181 0.821398
O O8 0.000000 0.878075 0.750000
O O9 0.878495 0.956465 0.901935
O O10 0.369457 0.204717 0.064771
O O11 0.302152 0.991471 0.973610
O O12 0.520245 0.200448 0.932986
O O13 0.316069 0.306695 0.933226
O O14 0.360750 0.508305 0.122235
O O15 0.752083 0.769109 0.418277
O O16 0.382510 0.406679 0.474878
#
# Coordination Sequence:
#
# PCOD9226642 Si02
#       8
#     4   2   4   4   4   4   4   4
#     4  11  22  42  65  90 115 159 223 259 287 355
#     4  12  18  34  56  90 118 148 192 242 312 354
#     4  11  23  41  58  87 127 165 198 247 319 366
#     4  10  17  36  56  89 117 148 189 245 306 356
#     4  10  20  34  61  83 116 153 198 246 290 359
#     4  10  22  35  64  84 115 159 203 251 300 365
#     4  10  17  36  55  88 114 152 197 245 297 352
#     4  10  20  32  60  87 116 151 194 251 295 356
#
# _framework density 19.673418000000002
#
# number of rings (size 3 to 8) (size 9 to 14) (size 15 to 20)
#    0.000    1.600    2.667    5.600    0.000    0.000 
#    0.000    5.333    0.000    1.600    0.000    0.000 
#    0.000    0.000    0.000    0.000    0.000    0.000 
#
# Total GULP energy -167373.765933 kJ/mol
# GULP energy per Si atom -5579.125531 kJ/mol
# Density = 1.962864 g / cm^3
# Si number density = 19.673418 Si / 1000 Ang^3
#
#
#
# Elastic Constant Matrix: (Units=GPa)
#
#
# Indices 1 2 3 4 5 6 
#
# 1 133.3485 29.9720 42.6694 0.0000 8.3013 0.0000
# 2 29.9720 52.8469 12.0027 0.0000 -4.1000 0.0000
# 3 42.6694 12.0027 63.4211 0.0000 -0.8621 0.0000
# 4 0.0000 0.0000 0.0000 4.0324 0.0000 1.9867
# 5 8.3013 -4.1000 -0.8621 0.0000 28.8088 0.0000
# 6 0.0000 0.0000 0.0000 1.9867 0.0000 40.6225
#
#
#
# Elastic Compliance Matrix: (Units=1/GPa)
#
#
# Indices 1 2 3 4 5 6 
#
# 1 0.010962 -0.005063 -0.006472 0.000000 -0.004073 0.000000
# 2 -0.005063 0.022324 -0.000756 0.000000 0.004613 0.000000
# 3 -0.006472 -0.000756 0.020297 0.000000 0.002365 0.000000
# 4 0.000000 0.000000 0.000000 0.254113 0.000000 -0.012428
# 5 -0.004073 0.004613 0.002365 0.000000 0.036613 0.000000
# 6 0.000000 0.000000 0.000000 -0.012428 0.000000 0.025225
#
#
# Mechanical properties :
#
#
# Convention : Reuss Voigt Hill
#
# Bulk Modulus (GPa) = 34.48188 46.54498 40.51343
# Shear Modulus (GPa) = 12.38293 25.69089 19.03691
#
# Velocity S-wave (km/s) = 2.51156 3.61760 3.11408
# Velocity P-wave (km/s) = 5.09664 6.41557 5.79376
#
# Compressibility (1/GPa) = 0.02900074
#
# Stress axis : x y z
#
# Youngs Moduli (GPa) = 91.22736 44.79575 49.26781
#
# Poissons Ratio (x) = 0.22680 0.31887
# Poissons Ratio (y) = 0.46187 0.03724
# Poissons Ratio (z) = 0.59043 0.03386
#
# Static dielectric constant tensor:
#      x y z
#    x 1.731350 0.000000 0.000830 
#    y 0.000000 1.722500 0.000000 
#    z 0.000830 0.000000 1.677420 
# 
# From -- ./inp_files/66029.got.cif
#   From: 2010.05.17/outbox.cif.g08.bks.cpg/sg13_34_cif.got.tgz:66029.got - 2010.06.03 16:44:36.
