data_PCOD9226695
_publ_section_title
;
Structure prediction by ZEFSAII (Michael W. Deem and Ramdas Pophale) SiO2 
 PCOD9226695
Probable space group: P 2/C
;
_chemical_formula_sum "Si O2"
_cell_formula_units_Z 30
_cell_length_a 18.786124
_cell_length_b 11.029378
_cell_length_c 7.587888
_cell_angle_alpha 90.000000
_cell_angle_beta 63.515018
_cell_angle_gamma 90.000000
_cell_volume 1407.203927
_symmetry_space_group_name_H-M "P 2/C"
_symmetry_group_IT_number 13
_symmetry_cell_setting 'monoclinic'
loop_
_space_group_symop_operation_xyz
x,y,z
-x,y,1/2-z
-x,-y,-z
x,-y,1/2+z
loop_
_atom_site_type_symbol
_atom_site_label
_atom_site_fract_x
_atom_site_fract_y
_atom_site_fract_z
Si Si1 0.918035 0.463058 0.446422
Si Si2 0.397716 0.147252 0.640648
Si Si3 0.501894 0.358916 0.039051
Si Si4 0.083720 0.291874 0.705261
Si Si5 0.740811 0.411283 0.609209
Si Si6 0.747200 0.782896 0.405315
Si Si7 0.500000 0.007172 0.250000
Si Si8 0.674498 0.332074 0.317442
O O1 0.923558 0.383326 0.618126
O O2 0.906060 0.609790 0.464986
O O3 0.833509 0.428612 0.456837
O O4 0.000000 0.439707 0.250000
O O5 0.422803 0.288372 0.620829
O O6 0.310919 0.132379 0.648891
O O7 0.465461 0.094673 0.436163
O O8 0.423567 0.075052 0.784573
O O9 0.500000 0.347215 0.250000
O O10 0.418701 0.309438 0.062891
O O11 0.500000 0.500000 0.000000
O O12 0.158452 0.205323 0.661576
O O13 0.000000 0.230094 0.750000
O O14 0.742615 0.338772 0.791078
O O15 0.707670 0.339790 0.477609
O O16 0.695810 0.537483 0.701739
O O17 0.708678 0.763396 0.639430
#
# Coordination Sequence:
#
# PCOD9226695 Si02
#       8
#     4   4   4   4   4   4   2   4
#     4  10  18  28  44  67 105 155 220 241 270 347
#     4  11  23  46  63  94 115 156 208 261 312 365
#     4  12  24  37  55  88 126 160 199 237 305 380
#     4  10  19  29  48  74 110 159 199 245 292 347
#     4  11  21  32  47  76 109 167 204 240 290 347
#     4  11  22  36  54  82 116 144 203 253 295 370
#     4  10  24  44  76  82 116 154 210 272 310 356
#     4  12  20  33  50  68 115 158 200 237 293 347
#
# _framework density 21.318871000000001
#
# number of rings (size 3 to 8) (size 9 to 14) (size 15 to 20)
#    0.000    1.067    4.667    4.000    4.667    0.000 
#    0.000    0.000    0.000    0.000    0.000    0.933 
#    0.000    0.000    0.000    0.000    0.000    0.000 
#
# Total GULP energy -167267.546557 kJ/mol
# GULP energy per Si atom -5575.584885 kJ/mol
# Density = 2.127035 g / cm^3
# Si number density = 21.318871 Si / 1000 Ang^3
#
#
#
# Elastic Constant Matrix: (Units=GPa)
#
#
# Indices 1 2 3 4 5 6 
#
# 1 206.7006 11.6307 20.4836 0.0000 -10.4558 0.0000
# 2 11.6307 36.8100 2.8220 0.0000 1.4306 0.0000
# 3 20.4836 2.8220 71.0348 0.0000 2.2295 0.0000
# 4 0.0000 0.0000 0.0000 2.8896 0.0000 -3.0213
# 5 -10.4558 1.4306 2.2295 0.0000 36.0087 0.0000
# 6 0.0000 0.0000 0.0000 -3.0213 0.0000 18.9787
#
#
#
# Elastic Compliance Matrix: (Units=1/GPa)
#
#
# Indices 1 2 3 4 5 6 
#
# 1 0.005157 -0.001580 -0.001476 0.000000 0.001652 0.000000
# 2 -0.001580 0.027771 -0.000600 0.000000 -0.001525 0.000000
# 3 -0.001476 -0.000600 0.014568 0.000000 -0.001307 0.000000
# 4 0.000000 0.000000 0.000000 0.415165 0.000000 0.066092
# 5 0.001652 -0.001525 -0.001307 0.000000 0.028392 0.000000
# 6 0.000000 0.000000 0.000000 0.066092 0.000000 0.063212
#
#
# Mechanical properties :
#
#
# Convention : Reuss Voigt Hill
#
# Bulk Modulus (GPa) = 24.88569 42.71310 33.79940
# Shear Modulus (GPa) = 8.69608 30.21600 19.45604
#
# Velocity S-wave (km/s) = 2.02186 3.76884 3.02424
# Velocity P-wave (km/s) = 4.14113 6.24641 5.29937
#
# Compressibility (1/GPa) = 0.04018373
#
# Stress axis : x y z
#
# Youngs Moduli (GPa) = 193.92434 36.00860 68.64326
#
# Poissons Ratio (x) = 0.05691 0.10132
# Poissons Ratio (y) = 0.30647 0.04116
# Poissons Ratio (z) = 0.28624 0.02159
#
# Static dielectric constant tensor:
#      x y z
#    x 1.894690 0.000000 0.047190 
#    y 0.000000 1.797760 0.000000 
#    z 0.047190 0.000000 1.848500 
# 
# From -- ./inp_files/21549.got.cif
#   From: 2010.05.17/outbox.cif.g08.bks.cpg/sg13_11_cif.got.tgz:21549.got - 2010.06.03 16:44:36.
