data_PCOD9226754
_publ_section_title
;
Structure prediction by ZEFSAII (Michael W. Deem and Ramdas Pophale) SiO2 
 PCOD9226754
Probable space group: P 2/C
;
_chemical_formula_sum "Si O2"
_cell_formula_units_Z 20
_cell_length_a 10.318965
_cell_length_b 15.670109
_cell_length_c 5.587382
_cell_angle_alpha 90.000000
_cell_angle_beta 118.015596
_cell_angle_gamma 90.000000
_cell_volume 797.606292
_symmetry_space_group_name_H-M "P 2/C"
_symmetry_group_IT_number 13
_symmetry_cell_setting 'monoclinic'
loop_
_space_group_symop_operation_xyz
x,y,z
-x,y,1/2-z
-x,-y,-z
x,-y,1/2+z
loop_
_atom_site_type_symbol
_atom_site_label
_atom_site_fract_x
_atom_site_fract_y
_atom_site_fract_z
Si Si1 0.198482 0.727120 0.798829
Si Si2 0.326606 0.965500 0.563989
Si Si3 0.777394 0.218829 0.681066
Si Si4 0.511978 0.651657 0.010661
Si Si5 0.833714 0.470693 0.121926
O O1 0.139295 0.756737 0.491092
O O2 0.156827 0.629375 0.815158
O O3 0.157318 0.782824 0.994411
O O4 0.376419 0.719875 0.914152
O O5 0.500000 0.983332 0.750000
O O6 0.300597 0.869558 0.452048
O O7 0.267213 0.019948 0.283834
O O8 0.659827 0.294629 0.618024
O O9 0.500000 0.603610 0.250000
O O10 0.500000 0.604319 0.750000
O O11 0.767065 0.512343 0.302628
O O12 0.000000 0.507266 0.250000
#
# Coordination Sequence:
#
# PCOD9226754 Si02
#       5
#     4   4   4   4   4
#     4  10  18  30  51  70  91 126 164 195 235 288
#     4  10  19  28  41  65 100 137 168 199 236 275
#     4  10  18  30  47  69  98 132 167 198 231 275
#     4   8  15  25  42  62  87 120 157 187 218 262
#     4  10  21  37  55  75  99 122 148 195 257 305
#
# _framework density 25.075026999999999
#
# number of rings (size 3 to 8) (size 9 to 14) (size 15 to 20)
#    0.000    2.400    0.000    4.200    0.000    5.600 
#    0.000    0.000    0.000   32.400    0.000    0.000 
#    0.000   16.000    0.000    0.000    0.000    0.000 
#
# Total GULP energy -111597.960990 kJ/mol
# GULP energy per Si atom -5579.898050 kJ/mol
# Density = 2.501796 g / cm^3
# Si number density = 25.075027 Si / 1000 Ang^3
#
#
#
# Elastic Constant Matrix: (Units=GPa)
#
#
# Indices 1 2 3 4 5 6 
#
# 1 63.5412 -2.5089 54.7625 0.0000 -18.1062 0.0000
# 2 -2.5089 49.4930 38.6203 0.0000 -14.3398 0.0000
# 3 54.7625 38.6203 299.6421 0.0000 -72.0578 0.0000
# 4 0.0000 0.0000 0.0000 32.9766 0.0000 -10.8470
# 5 -18.1062 -14.3398 -72.0578 0.0000 50.6754 0.0000
# 6 0.0000 0.0000 0.0000 -10.8470 0.0000 87.9077
#
#
#
# Elastic Compliance Matrix: (Units=1/GPa)
#
#
# Indices 1 2 3 4 5 6 
#
# 1 0.019853 0.004681 -0.003354 0.000000 0.003648 0.000000
# 2 0.004681 0.023961 -0.002904 0.000000 0.004323 0.000000
# 3 -0.003354 -0.002904 0.005834 0.000000 0.006275 0.000000
# 4 0.000000 0.000000 0.000000 0.031607 0.000000 0.003900
# 5 0.003648 0.004323 0.006275 0.000000 0.031183 0.000000
# 6 0.000000 0.000000 0.000000 0.003900 0.000000 0.011857
#
#
# Mechanical properties :
#
#
# Convention : Reuss Voigt Hill
#
# Bulk Modulus (GPa) = 21.50876 66.04711 43.77794
# Shear Modulus (GPa) = 34.97792 55.76542 45.37167
#
# Velocity S-wave (km/s) = 3.73893 4.72099 4.25836
# Velocity P-wave (km/s) = 5.21880 7.49092 6.45561
#
# Compressibility (1/GPa) = 0.04649268
#
# Stress axis : x y z
#
# Youngs Moduli (GPa) = 50.36983 41.73466 171.41998
#
# Poissons Ratio (x) = -0.19536 0.57500
# Poissons Ratio (y) = -0.23578 0.49782
# Poissons Ratio (z) = 0.16896 0.12120
#
# Static dielectric constant tensor:
#      x y z
#    x 2.030160 0.000000 0.012200 
#    y 0.000000 1.881050 0.000000 
#    z 0.012200 0.000000 2.151600 
# 
# From -- ./inp_files/3164.got.cif
#   From: 2010.05.17/outbox.cif.g08.bks.cpg/sg13_2_cif.got.tgz:3164.got - 2010.06.03 16:44:36.
