data_PCOD9226720
_publ_section_title
;
Structure prediction by ZEFSAII (Michael W. Deem and Ramdas Pophale) SiO2 
 PCOD9226720
Probable space group: P 2/C
;
_chemical_formula_sum "Si O2"
_cell_formula_units_Z 28
_cell_length_a 19.946549
_cell_length_b 11.549528
_cell_length_c 20.911947
_cell_angle_alpha 90.000000
_cell_angle_beta 160.571438
_cell_angle_gamma 90.000000
_cell_volume 1602.468758
_symmetry_space_group_name_H-M "P 2/C"
_symmetry_group_IT_number 13
_symmetry_cell_setting 'monoclinic'
loop_
_space_group_symop_operation_xyz
x,y,z
-x,y,1/2-z
-x,-y,-z
x,-y,1/2+z
loop_
_atom_site_type_symbol
_atom_site_label
_atom_site_fract_x
_atom_site_fract_y
_atom_site_fract_z
Si Si1 0.965838 0.835680 0.044041
Si Si2 0.499236 0.818191 0.886415
Si Si3 0.856876 0.474581 0.277008
Si Si4 0.142439 0.322994 0.817358
Si Si5 0.428691 0.740742 0.969697
Si Si6 0.846228 0.663680 0.380186
Si Si7 0.693858 0.986431 0.626989
O O1 0.052154 0.760253 0.180539
O O2 0.000967 0.758118 0.012204
O O3 0.104643 0.950808 0.165855
O O4 0.727211 0.847373 0.837545
O O5 0.486810 0.764160 0.947516
O O6 0.632863 0.726377 0.967793
O O7 0.623974 0.937478 0.003903
O O8 0.854737 0.549885 0.211237
O O9 0.684631 0.379253 0.124995
O O10 0.823728 0.565417 0.305090
O O11 0.061236 0.403694 0.476659
O O12 0.000000 0.317949 0.750000
O O13 0.295724 0.849703 0.872708
O O14 0.635359 0.729518 0.195200
O O15 0.500000 0.000000 0.500000
#
# Coordination Sequence:
#
# PCOD9226720 Si02
#       7
#     4   4   4   4   4   4   4
#     4  10  18  33  52  78 105 135 169 216 263 316
#     4  10  19  32  52  75 105 136 170 215 266 313
#     4  10  20  30  50  73 102 138 172 214 261 312
#     4  10  22  38  52  72 100 135 182 224 262 313
#     4  11  18  30  50  78 112 140 160 205 271 321
#     4  10  18  29  47  77 106 131 169 207 258 321
#     4   9  18  30  46  77 113 138 160 199 255 323
#
# _framework density 17.473040000000001
#
# number of rings (size 3 to 8) (size 9 to 14) (size 15 to 20)
#    0.000    2.000    7.143    0.429    0.000    4.000 
#    0.000    0.000    0.000    3.429    0.000    4.000 
#    0.000    0.000    0.000    0.000    0.000    0.000 
#
# Total GULP energy -155971.287469 kJ/mol
# GULP energy per Si atom -5570.403124 kJ/mol
# Density = 1.743327 g / cm^3
# Si number density = 17.473040 Si / 1000 Ang^3
#
#
#
# Elastic Constant Matrix: (Units=GPa)
#
#
# Indices 1 2 3 4 5 6 
#
# 1 36.6301 23.8620 15.2412 0.0000 15.0501 0.0000
# 2 23.8620 95.5959 38.7874 0.0000 16.8265 0.0000
# 3 15.2412 38.7874 112.3937 0.0000 11.3132 0.0000
# 4 0.0000 0.0000 0.0000 35.0369 0.0000 3.6344
# 5 15.0501 16.8265 11.3132 0.0000 13.8958 0.0000
# 6 0.0000 0.0000 0.0000 3.6344 0.0000 6.1672
#
#
#
# Elastic Compliance Matrix: (Units=1/GPa)
#
#
# Indices 1 2 3 4 5 6 
#
# 1 0.050266 -0.003572 -0.000587 0.000000 -0.049638 0.000000
# 2 -0.003572 0.014721 -0.003476 0.000000 -0.011128 0.000000
# 3 -0.000587 -0.003476 0.010554 0.000000 -0.003747 0.000000
# 4 0.000000 0.000000 0.000000 0.030400 0.000000 -0.017915
# 5 -0.049638 -0.011128 -0.003747 0.000000 0.142252 0.000000
# 6 0.000000 0.000000 0.000000 -0.017915 0.000000 0.172706
#
#
# Mechanical properties :
#
#
# Convention : Reuss Voigt Hill
#
# Bulk Modulus (GPa) = 16.59169 44.48898 30.54034
# Shear Modulus (GPa) = 10.95871 22.13526 16.54699
#
# Velocity S-wave (km/s) = 2.50707 3.56311 3.08068
# Velocity P-wave (km/s) = 4.23045 6.51494 5.49278
#
# Compressibility (1/GPa) = 0.06027112
#
# Stress axis : x y z
#
# Youngs Moduli (GPa) = 19.89429 67.92921 94.75384
#
# Poissons Ratio (x) = 0.24261 0.05565
# Poissons Ratio (y) = 0.07105 0.32936
# Poissons Ratio (z) = 0.01168 0.23612
#
# Static dielectric constant tensor:
#      x y z
#    x 1.567430 0.000000 -0.012470 
#    y 0.000000 1.633930 0.000000 
#    z -0.012470 0.000000 1.668840 
# 
# From -- ./inp_files/81101.got.cif
#   From: 2010.05.17/outbox.cif.g08.bks.cpg/sg13_41_cif.got.tgz:81101.got - 2010.06.03 16:44:36.
