data_PCOD9226016
_publ_section_title
;
Structure prediction by ZEFSAII (Michael W. Deem and Ramdas Pophale) SiO2 
 PCOD9226016
Probable space group: P 2/C
;
_chemical_formula_sum "Si O2"
_cell_formula_units_Z 26
_cell_length_a 8.423453
_cell_length_b 20.069125
_cell_length_c 7.879630
_cell_angle_alpha 90.000000
_cell_angle_beta 91.555594
_cell_angle_gamma 90.000000
_cell_volume 1331.571016
_symmetry_space_group_name_H-M "P 2/C"
_symmetry_group_IT_number 13
_symmetry_cell_setting 'monoclinic'
loop_
_space_group_symop_operation_xyz
x,y,z
-x,y,1/2-z
-x,-y,-z
x,-y,1/2+z
loop_
_atom_site_type_symbol
_atom_site_label
_atom_site_fract_x
_atom_site_fract_y
_atom_site_fract_z
Si Si1 0.670835 0.467822 0.463048
Si Si2 0.690383 0.057329 0.763184
Si Si3 0.500000 0.631538 0.750000
Si Si4 0.610614 0.292050 0.921018
Si Si5 0.820306 0.590572 0.299926
Si Si6 0.313843 0.906973 0.606512
Si Si7 0.323686 0.146472 0.439889
O O1 0.500000 0.500000 0.500000
O O2 0.644204 0.417903 0.304579
O O3 0.789490 0.527236 0.420490
O O4 0.721469 0.426840 0.628210
O O5 0.500000 0.069861 0.750000
O O6 0.755403 0.081969 0.583736
O O7 0.700342 0.978992 0.802892
O O8 0.755932 0.098197 0.924436
O O9 0.527867 0.675291 0.583782
O O10 0.500000 0.287278 0.750000
O O11 0.751416 0.342606 0.878782
O O12 0.664839 0.219141 0.980093
O O13 0.000000 0.597186 0.250000
O O14 0.496230 0.882894 0.579534
O O15 0.250264 0.856815 0.748822
#
# Coordination Sequence:
#
# PCOD9226016 Si02
#       7
#     4   4   2   4   4   4   4
#     4  12  20  40  66  92 118 151 199 246 297 356
#     4  10  14  23  40  61  98 141 177 228 290 349
#     4  12  22  36  66  88 114 154 194 244 290 354
#     4  12  23  39  55  82 120 160 203 235 295 370
#     4  12  24  40  63  92 124 156 199 254 303 351
#     4  10  15  25  39  66  99 141 183 230 291 346
#     4  10  19  26  42  67 101 150 187 225 281 360
#
# _framework density 19.525808000000001
#
# number of rings (size 3 to 8) (size 9 to 14) (size 15 to 20)
#    0.000    0.923    7.692    3.692    0.000    0.000 
#    0.000    0.000    0.000    0.000    0.000    0.000 
#    0.000    1.231    0.000    0.000    0.000    4.154 
#
# Total GULP energy -144990.613656 kJ/mol
# GULP energy per Si atom -5576.562064 kJ/mol
# Density = 1.948137 g / cm^3
# Si number density = 19.525808 Si / 1000 Ang^3
#
#
#
# Elastic Constant Matrix: (Units=GPa)
#
#
# Indices 1 2 3 4 5 6 
#
# 1 35.0385 21.7873 19.6303 0.0000 -11.5526 0.0000
# 2 21.7873 139.0358 54.5276 0.0000 -11.1604 0.0000
# 3 19.6303 54.5276 158.9068 0.0000 -1.8077 0.0000
# 4 0.0000 0.0000 0.0000 26.0243 0.0000 2.9846
# 5 -11.5526 -11.1604 -1.8077 0.0000 14.7081 0.0000
# 6 0.0000 0.0000 0.0000 2.9846 0.0000 -2.7720
#
#
#
# Elastic Compliance Matrix: (Units=1/GPa)
#
#
# Indices 1 2 3 4 5 6 
#
# 1 0.042644 -0.002617 -0.004017 0.000000 0.031015 0.000000
# 2 -0.002617 0.009029 -0.002724 0.000000 0.004460 0.000000
# 3 -0.004017 -0.002724 0.007675 0.000000 -0.004279 0.000000
# 4 0.000000 0.000000 0.000000 0.034202 0.000000 0.036826
# 5 0.031015 0.004460 -0.004279 0.000000 0.095209 0.000000
# 6 0.000000 0.000000 0.000000 0.036826 0.000000 -0.321105
#
#
# Mechanical properties :
#
#
# Convention : Reuss Voigt Hill
#
# Bulk Modulus (GPa) = 24.61158 58.31905 41.46531
# Shear Modulus (GPa) = -49.95802 23.39449 -13.28176
#
# Velocity S-wave (km/s) = -5.06371 3.46516 -2.61092
# Velocity P-wave (km/s) = 4.64287 6.77807 3.49185
#
# Compressibility (1/GPa) = 0.04063128
#
# Stress axis : x y z
#
# Youngs Moduli (GPa) = 23.44984 110.75485 130.28777
#
# Poissons Ratio (x) = 0.28990 0.52337
# Poissons Ratio (y) = 0.06138 0.35492
# Poissons Ratio (z) = 0.09420 0.30171
#
# Static dielectric constant tensor:
#      x y z
#    x 1.671440 0.000000 0.013940 
#    y 0.000000 1.694870 0.000000 
#    z 0.013940 0.000000 1.756550 
# 
# From -- ./inp_files/13092.got.cif
#   From: 2010.05.17/outbox.cif.g08.bks.cpg/sg13_7_cif.got.tgz:13092.got - 2010.06.03 16:44:36.
