data_PCOD9226834
_publ_section_title
;
Structure prediction by ZEFSAII (Michael W. Deem and Ramdas Pophale) SiO2 
 PCOD9226834
Probable space group: P 2/C
;
_chemical_formula_sum "Si O2"
_cell_formula_units_Z 28
_cell_length_a 20.187278
_cell_length_b 12.247531
_cell_length_c 25.700213
_cell_angle_alpha 90.000000
_cell_angle_beta 167.089880
_cell_angle_gamma 90.000000
_cell_volume 1419.676904
_symmetry_space_group_name_H-M "P 2/C"
_symmetry_group_IT_number 13
_symmetry_cell_setting 'monoclinic'
loop_
_space_group_symop_operation_xyz
x,y,z
-x,y,1/2-z
-x,-y,-z
x,-y,1/2+z
loop_
_atom_site_type_symbol
_atom_site_label
_atom_site_fract_x
_atom_site_fract_y
_atom_site_fract_z
Si Si1 0.252180 0.334552 0.215173
Si Si2 0.387243 0.712160 0.110222
Si Si3 0.608967 0.102607 0.201934
Si Si4 0.813835 0.926463 0.432441
Si Si5 0.385258 0.583321 0.311060
Si Si6 0.731679 0.282299 0.149505
Si Si7 0.719174 0.955075 0.624834
O O1 0.420907 0.232869 0.317837
O O2 0.398700 0.453038 0.322314
O O3 0.220143 0.298826 0.251775
O O4 0.935789 0.362284 0.946287
O O5 0.500000 0.658333 0.250000
O O6 0.583703 0.824286 0.254696
O O7 0.427870 0.635564 0.092339
O O8 0.042301 0.723107 0.857456
O O9 0.908508 0.092284 0.394905
O O10 0.668359 0.037372 0.300285
O O11 0.341418 0.035524 0.969423
O O12 0.961981 0.943598 0.602720
O O13 0.517224 0.624397 0.465933
O O14 0.597927 0.167870 0.026624
O O15 0.500000 0.000000 0.500000
#
# Coordination Sequence:
#
# PCOD9226834 Si02
#       7
#     4   4   4   4   4   4   4
#     4  11  22  40  57  87 122 151 201 253 286 359
#     4  12  20  40  61  85 123 149 196 256 293 343
#     4  10  19  33  56  82 120 149 185 234 293 348
#     4  10  19  33  54  87 115 149 183 235 293 351
#     4  11  24  37  58  87 118 157 202 248 302 340
#     4  12  22  38  62  90 117 153 199 250 298 351
#     4  10  18  30  54  86 117 143 182 234 291 345
#
# _framework density 19.722798000000001
#
# number of rings (size 3 to 8) (size 9 to 14) (size 15 to 20)
#    0.000    1.143    7.143    1.714    4.000    0.000 
#    0.000    0.000    0.000    4.286    0.000    0.000 
#    0.000    0.000    0.000    0.000    0.000    0.000 
#
# Total GULP energy -155953.010863 kJ/mol
# GULP energy per Si atom -5569.750388 kJ/mol
# Density = 1.967791 g / cm^3
# Si number density = 19.722798 Si / 1000 Ang^3
#
#
#
# Elastic Constant Matrix: (Units=GPa)
#
#
# Indices 1 2 3 4 5 6 
#
# 1 44.4857 31.2472 24.3727 0.0000 -9.7686 0.0000
# 2 31.2472 168.7744 50.0851 0.0000 -21.0361 0.0000
# 3 24.3727 50.0851 47.0590 0.0000 -21.3413 0.0000
# 4 0.0000 0.0000 0.0000 25.1489 0.0000 -12.3757
# 5 -9.7686 -21.0361 -21.3413 0.0000 28.6113 0.0000
# 6 0.0000 0.0000 0.0000 -12.3757 0.0000 14.8547
#
#
#
# Elastic Compliance Matrix: (Units=1/GPa)
#
#
# Indices 1 2 3 4 5 6 
#
# 1 0.031704 -0.001428 -0.015818 0.000000 -0.002024 0.000000
# 2 -0.001428 0.008736 -0.008865 0.000000 -0.000677 0.000000
# 3 -0.015818 -0.008865 0.050583 0.000000 0.025811 0.000000
# 4 0.000000 0.000000 0.000000 0.067392 0.000000 0.056145
# 5 -0.002024 -0.000677 0.025811 0.000000 0.053015 0.000000
# 6 0.000000 0.000000 0.000000 0.056145 0.000000 0.114094
#
#
# Mechanical properties :
#
#
# Convention : Reuss Voigt Hill
#
# Bulk Modulus (GPa) = 25.77296 52.41435 39.09365
# Shear Modulus (GPa) = 12.79818 24.03060 18.41439
#
# Velocity S-wave (km/s) = 2.55012 3.49437 3.05890
# Velocity P-wave (km/s) = 4.66549 6.55088 5.68686
#
# Compressibility (1/GPa) = 0.03880035
#
# Stress axis : x y z
#
# Youngs Moduli (GPa) = 31.54167 114.47106 19.76932
#
# Poissons Ratio (x) = 0.16344 0.31272
# Poissons Ratio (y) = 0.04504 0.17526
# Poissons Ratio (z) = 0.49894 1.01481
#
# Static dielectric constant tensor:
#      x y z
#    x 1.760010 0.000000 -0.029100 
#    y 0.000000 2.305440 0.000000 
#    z -0.029100 0.000000 1.725200 
# 
# From -- ./inp_files/97726.got.cif
#   From: 2010.05.17/outbox.cif.g08.bks.cpg/sg13_49_cif.got.tgz:97726.got - 2010.06.03 16:44:36.
