data_PCOD9226762
_publ_section_title
;
Structure prediction by ZEFSAII (Michael W. Deem and Ramdas Pophale) SiO2 
 PCOD9226762
Probable space group: P 2/C
;
_chemical_formula_sum "Si O2"
_cell_formula_units_Z 26
_cell_length_a 20.996224
_cell_length_b 7.860836
_cell_length_c 9.184195
_cell_angle_alpha 90.000000
_cell_angle_beta 138.081044
_cell_angle_gamma 90.000000
_cell_volume 1012.695081
_symmetry_space_group_name_H-M "P 2/C"
_symmetry_group_IT_number 13
_symmetry_cell_setting 'monoclinic'
loop_
_space_group_symop_operation_xyz
x,y,z
-x,y,1/2-z
-x,-y,-z
x,-y,1/2+z
loop_
_atom_site_type_symbol
_atom_site_label
_atom_site_fract_x
_atom_site_fract_y
_atom_site_fract_z
Si Si1 0.334979 0.268536 0.780069
Si Si2 0.287469 0.278924 0.379418
Si Si3 0.500000 0.286990 0.250000
Si Si4 0.375102 0.121107 0.286072
Si Si5 0.089239 0.603019 0.508263
Si Si6 0.790314 0.899645 0.197289
Si Si7 0.017581 0.775875 0.941498
O O1 0.311095 0.344919 0.581933
O O2 0.244373 0.217931 0.726349
O O3 0.379941 0.079824 0.824638
O O4 0.414225 0.369291 0.009075
O O5 0.379098 0.238216 0.435311
O O6 0.245829 0.087813 0.329204
O O7 0.200257 0.382125 0.158735
O O8 0.441448 0.176688 0.267341
O O9 0.269121 0.154390 0.043654
O O10 0.068176 0.408854 0.512466
O O11 0.000000 0.649040 0.250000
O O12 0.073351 0.725341 0.619940
O O13 0.901534 0.892022 0.352274
O O14 0.000000 0.841149 0.750000
#
# Coordination Sequence:
#
# PCOD9226762 Si02
#       7
#     4   4   2   4   4   4   4
#     4   9  18  30  47  73 102 132 165 204 247 300
#     4  10  19  32  49  74 105 131 165 210 252 292
#     4  10  18  30  48  74 106 136 160 198 258 306
#     4   9  18  30  47  72 102 132 163 203 248 299
#     4  10  21  34  50  74 102 132 172 214 245 287
#     4   9  18  32  48  70 102 135 165 203 250 297
#     4  10  20  34  51  72  99 134 175 209 242 295
#
# _framework density 25.674067999999998
#
# number of rings (size 3 to 8) (size 9 to 14) (size 15 to 20)
#    0.000    2.462    0.000    3.231    0.000    1.846 
#    0.000    0.000    0.000    0.000    0.000   17.231 
#    0.000    9.846    0.000    0.000    0.000    0.000 
#
# Total GULP energy -145246.207923 kJ/mol
# GULP energy per Si atom -5586.392612 kJ/mol
# Density = 2.561563 g / cm^3
# Si number density = 25.674068 Si / 1000 Ang^3
#
#
#
# Elastic Constant Matrix: (Units=GPa)
#
#
# Indices 1 2 3 4 5 6 
#
# 1 79.0553 10.8246 18.7935 0.0000 -8.6268 0.0000
# 2 10.8246 61.0605 4.4265 0.0000 -5.5100 0.0000
# 3 18.7935 4.4265 106.1904 0.0000 0.5293 0.0000
# 4 0.0000 0.0000 0.0000 -18.7754 0.0000 -20.6224
# 5 -8.6268 -5.5100 0.5293 0.0000 34.9136 0.0000
# 6 0.0000 0.0000 0.0000 -20.6224 0.0000 -0.0386
#
#
#
# Elastic Compliance Matrix: (Units=1/GPa)
#
#
# Indices 1 2 3 4 5 6 
#
# 1 0.013831 -0.001996 -0.002380 0.000000 0.003139 0.000000
# 2 -0.001996 0.016955 -0.000364 0.000000 0.002188 0.000000
# 3 -0.002380 -0.000364 0.009857 0.000000 -0.000795 0.000000
# 4 0.000000 0.000000 0.000000 0.000091 0.000000 -0.048574
# 5 0.003139 0.002188 -0.000795 0.000000 0.029775 0.000000
# 6 0.000000 0.000000 0.000000 -0.048574 0.000000 0.044223
#
#
# Mechanical properties :
#
#
# Convention : Reuss Voigt Hill
#
# Bulk Modulus (GPa) = 32.09051 34.93284 33.51167
# Shear Modulus (GPa) = 37.14661 17.37067 27.25864
#
# Velocity S-wave (km/s) = 3.80788 2.60395 3.26194
# Velocity P-wave (km/s) = 5.64443 4.76199 5.22188
#
# Compressibility (1/GPa) = 0.03116186
#
# Stress axis : x y z
#
# Youngs Moduli (GPa) = 72.30117 58.97990 101.44609
#
# Poissons Ratio (x) = 0.11773 0.24147
# Poissons Ratio (y) = 0.14432 0.03697
# Poissons Ratio (z) = 0.17209 0.02149
#
# Static dielectric constant tensor:
#      x y z
#    x 2.024800 0.000000 -0.010040 
#    y 0.000000 1.999240 0.000000 
#    z -0.010040 0.000000 2.104390 
# 
# From -- ./inp_files/22837.got.cif
#   From: 2010.05.17/outbox.cif.g08.bks.cpg/sg13_12_cif.got.tgz:22837.got - 2010.06.03 16:44:36.
