data_PCOD9226105
_publ_section_title
;
Structure prediction by ZEFSAII (Michael W. Deem and Ramdas Pophale) SiO2 
 PCOD9226105
Probable space group: P 2/C
;
_chemical_formula_sum "Si O2"
_cell_formula_units_Z 30
_cell_length_a 11.732269
_cell_length_b 5.308876
_cell_length_c 20.283572
_cell_angle_alpha 90.000000
_cell_angle_beta 118.517916
_cell_angle_gamma 90.000000
_cell_volume 1110.078715
_symmetry_space_group_name_H-M "P 2/C"
_symmetry_group_IT_number 13
_symmetry_cell_setting 'monoclinic'
loop_
_space_group_symop_operation_xyz
x,y,z
-x,y,1/2-z
-x,-y,-z
x,-y,1/2+z
loop_
_atom_site_type_symbol
_atom_site_label
_atom_site_fract_x
_atom_site_fract_y
_atom_site_fract_z
Si Si1 0.242520 0.108385 0.152433
Si Si2 0.755841 0.219162 0.620212
Si Si3 0.652099 0.733347 0.554857
Si Si4 0.077716 0.753366 0.499258
Si Si5 0.000000 0.793341 0.250000
Si Si6 0.456772 0.793971 0.824689
Si Si7 0.504315 0.291675 0.877621
Si Si8 0.095718 0.602646 0.150165
O O1 0.218670 0.198595 0.068764
O O2 0.353113 0.166990 0.237952
O O3 0.132054 0.315476 0.145826
O O4 0.195916 0.817244 0.150827
O O5 0.750986 0.502777 0.590694
O O6 0.881771 0.072319 0.682486
O O7 0.649006 0.246368 0.650493
O O8 0.698961 0.015986 0.553940
O O9 0.590507 0.761329 0.611553
O O10 0.564751 0.675108 0.466847
O O11 0.000000 0.500000 0.500000
O O12 0.043179 0.713596 0.413545
O O13 0.000000 0.000000 0.500000
O O14 0.081272 0.620721 0.223614
O O15 0.526129 0.526846 0.836773
O O16 0.547373 0.039766 0.851816
#
# Coordination Sequence:
#
# PCOD9226105 Si02
#       8
#     4   4   4   4   2   4   4   4
#     4  10  18  32  49  68  95 128 168 209 245 280
#     4  10  20  30  44  64  91 129 158 189 229 284
#     4  10  18  32  47  62  89 123 163 202 237 279
#     4   8  16  30  48  65  86 124 171 209 238 271
#     4  12  24  34  48  74 112 140 164 186 238 314
#     4  10  16  24  42  67  88 110 142 193 251 286
#     4  10  18  30  46  65  90 120 159 202 243 281
#     4  10  20  32  46  66  97 137 169 196 232 291
#
# _framework density 27.025110000000002
#
# number of rings (size 3 to 8) (size 9 to 14) (size 15 to 20)
#    0.000    2.133    0.000    8.000    0.000    2.133 
#    0.000    0.000    0.000    0.000    0.000    0.000 
#    0.000   11.733    0.000    0.000    0.000    0.000 
#
# Total GULP energy -167103.192514 kJ/mol
# GULP energy per Si atom -5570.106417 kJ/mol
# Density = 2.696360 g / cm^3
# Si number density = 27.025110 Si / 1000 Ang^3
#
#
#
# Elastic Constant Matrix: (Units=GPa)
#
#
# Indices 1 2 3 4 5 6 
#
# 1 23.8943 -3.1820 29.4250 0.0000 11.9089 0.0000
# 2 -3.1820 192.2139 22.3722 0.0000 7.4245 0.0000
# 3 29.4250 22.3722 170.6685 0.0000 12.0065 0.0000
# 4 0.0000 0.0000 0.0000 34.0888 0.0000 2.0555
# 5 11.9089 7.4245 12.0065 0.0000 43.6843 0.0000
# 6 0.0000 0.0000 0.0000 2.0555 0.0000 16.0958
#
#
#
# Elastic Compliance Matrix: (Units=1/GPa)
#
#
# Indices 1 2 3 4 5 6 
#
# 1 0.061772 0.002747 -0.009986 0.000000 -0.014562 0.000000
# 2 0.002747 0.005428 -0.001089 0.000000 -0.001372 0.000000
# 3 -0.009986 -0.001089 0.007667 0.000000 0.000800 0.000000
# 4 0.000000 0.000000 0.000000 0.029563 0.000000 -0.003775
# 5 -0.014562 -0.001372 0.000800 0.000000 0.026875 0.000000
# 6 0.000000 0.000000 0.000000 -0.003775 0.000000 0.062610
#
#
# Mechanical properties :
#
#
# Convention : Reuss Voigt Hill
#
# Bulk Modulus (GPa) = 17.17834 53.77855 35.47845
# Shear Modulus (GPa) = 21.74167 41.31788 31.52978
#
# Velocity S-wave (km/s) = 2.83945 3.91432 3.41938
# Velocity P-wave (km/s) = 4.13765 6.35389 5.36153
#
# Compressibility (1/GPa) = 0.05821284
#
# Stress axis : x y z
#
# Youngs Moduli (GPa) = 16.18859 184.23907 130.42229
#
# Poissons Ratio (x) = -0.50617 1.30237
# Poissons Ratio (y) = -0.04448 0.14198
# Poissons Ratio (z) = 0.16166 0.20057
#
# Static dielectric constant tensor:
#      x y z
#    x 2.319750 0.000000 0.035740 
#    y 0.000000 2.189000 0.000000 
#    z 0.035740 0.000000 2.274810 
# 
# From -- ./inp_files/87730.got.cif
#   From: 2010.05.17/outbox.cif.g08.bks.cpg/sg13_44_cif.got.tgz:87730.got - 2010.06.03 16:44:36.
