data_PCOD9226858
_publ_section_title
;
Structure prediction by ZEFSAII (Michael W. Deem and Ramdas Pophale) SiO2 
 PCOD9226858
Probable space group: P 2/C
;
_chemical_formula_sum "Si O2"
_cell_formula_units_Z 28
_cell_length_a 13.408720
_cell_length_b 8.940736
_cell_length_c 22.645284
_cell_angle_alpha 90.000000
_cell_angle_beta 35.688157
_cell_angle_gamma 90.000000
_cell_volume 1583.743861
_symmetry_space_group_name_H-M "P 2/C"
_symmetry_group_IT_number 13
_symmetry_cell_setting 'monoclinic'
loop_
_space_group_symop_operation_xyz
x,y,z
-x,y,1/2-z
-x,-y,-z
x,-y,1/2+z
loop_
_atom_site_type_symbol
_atom_site_label
_atom_site_fract_x
_atom_site_fract_y
_atom_site_fract_z
Si Si1 0.907436 0.356337 0.449277
Si Si2 0.359646 0.397255 0.404471
Si Si3 0.049873 0.915265 0.658339
Si Si4 0.647024 0.065720 0.048855
Si Si5 0.176500 0.908901 0.424983
Si Si6 0.722306 0.979980 0.741916
Si Si7 0.272781 0.362084 0.309058
O O1 0.758298 0.474486 0.512625
O O2 0.864072 0.250533 0.526487
O O3 0.924933 0.244693 0.385623
O O4 0.092607 0.426093 0.374082
O O5 0.347654 0.243860 0.446522
O O6 0.292435 0.368994 0.369990
O O7 0.559777 0.435592 0.300370
O O8 0.892848 0.991711 0.698515
O O9 0.000000 0.901610 0.750000
O O10 0.223079 0.006403 0.562671
O O11 0.451708 0.011892 0.137514
O O12 0.714576 0.997386 0.078492
O O13 0.269816 0.908024 0.317244
O O14 0.000000 0.000000 0.500000
O O15 0.723740 0.812930 0.712113
#
# Coordination Sequence:
#
# PCOD9226858 Si02
#       7
#     4   4   4   4   4   4   4
#     4  10  20  33  53  79 109 143 171 223 271 318
#     4  10  18  31  49  79 110 139 171 203 264 337
#     4  10  22  39  55  74 102 141 191 233 266 308
#     4  10  19  33  56  78 106 142 174 219 267 330
#     4  11  16  31  54  83 113 136 173 209 274 334
#     4  10  18  33  57  79 106 144 173 213 274 330
#     4   9  17  30  50  75 111 144 163 198 265 335
#
# _framework density 17.679625999999999
#
# number of rings (size 3 to 8) (size 9 to 14) (size 15 to 20)
#    0.000    2.000    5.714    0.857    0.000    0.571 
#   10.286    0.714    0.000    7.714    0.000    0.000 
#    0.000    0.000    0.000    0.000    0.000    0.000 
#
# Total GULP energy -156214.924819 kJ/mol
# GULP energy per Si atom -5579.104458 kJ/mol
# Density = 1.763939 g / cm^3
# Si number density = 17.679626 Si / 1000 Ang^3
#
#
#
# Elastic Constant Matrix: (Units=GPa)
#
#
# Indices 1 2 3 4 5 6 
#
# 1 22.9447 16.1058 42.7595 0.0000 0.8921 0.0000
# 2 16.1058 37.4940 47.2339 0.0000 -8.7780 0.0000
# 3 42.7595 47.2339 152.9549 0.0000 -4.9859 0.0000
# 4 0.0000 0.0000 0.0000 25.7236 0.0000 -9.5113
# 5 0.8921 -8.7780 -4.9859 0.0000 33.6209 0.0000
# 6 0.0000 0.0000 0.0000 -9.5113 0.0000 11.4251
#
#
#
# Elastic Compliance Matrix: (Units=1/GPa)
#
#
# Indices 1 2 3 4 5 6 
#
# 1 0.097139 -0.015456 -0.022708 0.000000 -0.009980 0.000000
# 2 -0.015456 0.049316 -0.010526 0.000000 0.011725 0.000000
# 3 -0.022708 -0.010526 0.016145 0.000000 0.000249 0.000000
# 4 0.000000 0.000000 0.000000 0.056162 0.000000 0.046754
# 5 -0.009980 0.011725 0.000249 0.000000 0.033106 0.000000
# 6 0.000000 0.000000 0.000000 0.046754 0.000000 0.126449
#
#
# Mechanical properties :
#
#
# Convention : Reuss Voigt Hill
#
# Bulk Modulus (GPa) = 15.33307 47.28804 31.31055
# Shear Modulus (GPa) = 10.05151 21.30688 15.67919
#
# Velocity S-wave (km/s) = 2.38699 3.47532 2.98124
# Velocity P-wave (km/s) = 4.03590 6.55050 5.44047
#
# Compressibility (1/GPa) = 0.06521851
#
# Stress axis : x y z
#
# Youngs Moduli (GPa) = 10.29452 20.27753 61.93975
#
# Poissons Ratio (x) = 0.31342 1.40654
# Poissons Ratio (y) = 0.15912 0.65198
# Poissons Ratio (z) = 0.23377 0.21344
#
# Static dielectric constant tensor:
#      x y z
#    x 1.592540 0.000000 -0.033720 
#    y 0.000000 1.600770 0.000000 
#    z -0.033720 0.000000 1.630660 
# 
# From -- ./inp_files/50089.got.cif
#   From: 2010.05.17/outbox.cif.g08.bks.cpg/sg13_26_cif.got.tgz:50089.got - 2010.06.03 16:44:36.
