data_PCOD9226243
_publ_section_title
;
Structure prediction by ZEFSAII (Michael W. Deem and Ramdas Pophale) SiO2 
 PCOD9226243
Probable space group: P 2/C
;
_chemical_formula_sum "Si O2"
_cell_formula_units_Z 30
_cell_length_a 11.252833
_cell_length_b 9.688218
_cell_length_c 17.572856
_cell_angle_alpha 90.000000
_cell_angle_beta 42.120831
_cell_angle_gamma 90.000000
_cell_volume 1284.913995
_symmetry_space_group_name_H-M "P 2/C"
_symmetry_group_IT_number 13
_symmetry_cell_setting 'monoclinic'
loop_
_space_group_symop_operation_xyz
x,y,z
-x,y,1/2-z
-x,-y,-z
x,-y,1/2+z
loop_
_atom_site_type_symbol
_atom_site_label
_atom_site_fract_x
_atom_site_fract_y
_atom_site_fract_z
Si Si1 0.631192 0.086173 0.846028
Si Si2 0.368480 0.489238 0.442311
Si Si3 0.500000 0.916687 0.250000
Si Si4 0.072718 0.702807 0.295915
Si Si5 0.822589 0.776592 0.009866
Si Si6 0.267065 0.148444 0.102465
Si Si7 0.738936 0.542976 0.838521
Si Si8 0.895892 0.356149 0.030681
O O1 0.555428 0.018763 0.804565
O O2 0.742341 0.222784 0.776731
O O3 0.752380 0.975962 0.830705
O O4 0.471239 0.135606 0.976384
O O5 0.285065 0.638797 0.464560
O O6 0.300898 0.463599 0.562119
O O7 0.576392 0.476548 0.357547
O O8 0.300134 0.399353 0.403183
O O9 0.682408 0.839248 0.136906
O O10 0.100328 0.537634 0.275504
O O11 0.954941 0.719901 0.425079
O O12 0.000000 0.752878 0.250000
O O13 0.018566 0.741729 0.946483
O O14 0.838960 0.865086 0.925517
O O15 0.234687 0.297219 0.155322
O O16 0.000000 0.500000 0.000000
#
# Coordination Sequence:
#
# PCOD9226243 Si02
#       8
#     4   4   2   4   4   4   4   4
#     4  10  20  36  59  86 117 157 211 247 298 360
#     4   9  17  30  52  84 120 150 189 244 304 365
#     4  10  16  30  56  82 110 156 204 248 286 352
#     4  12  22  35  61  92 117 153 205 257 297 367
#     4   9  17  30  54  81 116 155 195 241 301 357
#     4   9  20  36  59  84 116 160 199 247 301 365
#     4  10  18  33  56  86 115 151 196 245 303 356
#     4  10  20  34  53  87 123 151 191 252 310 360
#
# _framework density 23.347866
#
# number of rings (size 3 to 8) (size 9 to 14) (size 15 to 20)
#    0.000    2.133    2.667    3.200    0.000    0.000 
#    0.000    0.667    5.867    0.800    0.000    0.000 
#    0.000    0.000    0.000    0.000    0.000    0.000 
#
# Total GULP energy -167220.346882 kJ/mol
# GULP energy per Si atom -5574.011563 kJ/mol
# Density = 2.329473 g / cm^3
# Si number density = 23.347866 Si / 1000 Ang^3
#
#
#
# Elastic Constant Matrix: (Units=GPa)
#
#
# Indices 1 2 3 4 5 6 
#
# 1 156.3002 25.6601 21.8143 0.0000 21.8686 0.0000
# 2 25.6601 56.2949 15.0959 0.0000 16.4928 0.0000
# 3 21.8143 15.0959 29.0800 0.0000 15.5070 0.0000
# 4 0.0000 0.0000 0.0000 -1.8611 0.0000 1.1619
# 5 21.8686 16.4928 15.5070 0.0000 35.7986 0.0000
# 6 0.0000 0.0000 0.0000 1.1619 0.0000 31.2969
#
#
#
# Elastic Compliance Matrix: (Units=1/GPa)
#
#
# Indices 1 2 3 4 5 6 
#
# 1 0.007496 -0.001830 -0.003486 0.000000 -0.002226 0.000000
# 2 -0.001830 0.022248 -0.006901 0.000000 -0.006143 0.000000
# 3 -0.003486 -0.006901 0.049095 0.000000 -0.015958 0.000000
# 4 0.000000 0.000000 0.000000 -0.525150 0.000000 0.019497
# 5 -0.002226 -0.006143 -0.015958 0.000000 0.039036 0.000000
# 6 0.000000 0.000000 0.000000 0.019497 0.000000 0.031228
#
#
# Mechanical properties :
#
#
# Convention : Reuss Voigt Hill
#
# Bulk Modulus (GPa) = 18.38069 40.75729 29.56899
# Shear Modulus (GPa) = -14.99354 24.98722 4.99684
#
# Velocity S-wave (km/s) = -2.53688 3.27496 1.46452
# Velocity P-wave (km/s) = 0.83148 5.63870 3.94358
#
# Compressibility (1/GPa) = 0.05440491
#
# Stress axis : x y z
#
# Youngs Moduli (GPa) = 133.39716 44.94816 20.36867
#
# Poissons Ratio (x) = 0.08225 0.07101
# Poissons Ratio (y) = 0.24410 0.14056
# Poissons Ratio (z) = 0.46508 0.31018
#
# Static dielectric constant tensor:
#      x y z
#    x 1.911170 0.000000 0.000080 
#    y 0.000000 1.883300 0.000000 
#    z 0.000080 0.000000 1.984830 
# 
# From -- ./inp_files/66284.got.cif
#   From: 2010.05.17/outbox.cif.g08.bks.cpg/sg13_34_cif.got.tgz:66284.got - 2010.06.03 16:44:36.
