data_PCOD9226095
_publ_section_title
;
Structure prediction by ZEFSAII (Michael W. Deem and Ramdas Pophale) SiO2 
 PCOD9226095
Probable space group: P 2/C
;
_chemical_formula_sum "Si O2"
_cell_formula_units_Z 18
_cell_length_a 7.756728
_cell_length_b 21.811648
_cell_length_c 5.374761
_cell_angle_alpha 90.000000
_cell_angle_beta 119.973081
_cell_angle_gamma 90.000000
_cell_volume 787.724897
_symmetry_space_group_name_H-M "P 2/C"
_symmetry_group_IT_number 13
_symmetry_cell_setting 'monoclinic'
loop_
_space_group_symop_operation_xyz
x,y,z
-x,y,1/2-z
-x,-y,-z
x,-y,1/2+z
loop_
_atom_site_type_symbol
_atom_site_label
_atom_site_fract_x
_atom_site_fract_y
_atom_site_fract_z
Si Si1 0.788358 0.154533 0.807021
Si Si2 0.126386 0.334704 0.092178
Si Si3 0.000000 0.041127 0.750000
Si Si4 0.264379 0.469720 0.081528
Si Si5 0.753154 0.202758 0.292364
O O1 0.673582 0.191424 0.512502
O O2 0.823765 0.088468 0.702829
O O3 0.698686 0.160422 0.017326
O O4 0.009241 0.184462 0.003860
O O5 0.233035 0.398120 0.107900
O O6 0.256372 0.275174 0.257501
O O7 0.000000 0.345892 0.250000
O O8 0.000000 0.319317 0.750000
O O9 0.000000 0.000000 0.500000
O O10 0.500000 0.481208 0.250000
O O11 0.187470 0.510265 0.256170
#
# Coordination Sequence:
#
# PCOD9226095 Si02
#       5
#     4   4   2   4   4
#     4   9  15  24  37  50  87 118 137 189 240 267
#     4  12  20  31  54  78  94 114 164 217 233 284
#     4  10  16  22  32  52  76 120 174 186 196 268
#     4  10  23  41  53  67  99 135 156 186 252 314
#     4   9  14  26  37  60  82 108 139 189 236 277
#
# _framework density 22.850617
#
# number of rings (size 3 to 8) (size 9 to 14) (size 15 to 20)
#    0.000    2.222    4.444    4.000    0.000    2.667 
#    0.000    0.000    0.000    0.000    0.000    0.000 
#    0.000    0.000    0.000    0.000    0.000  117.778 
#
# Total GULP energy -100311.990350 kJ/mol
# GULP energy per Si atom -5572.888353 kJ/mol
# Density = 2.279861 g / cm^3
# Si number density = 22.850617 Si / 1000 Ang^3
#
#
#
# Elastic Constant Matrix: (Units=GPa)
#
#
# Indices 1 2 3 4 5 6 
#
# 1 61.0285 9.9742 41.3001 0.0000 -32.9637 0.0000
# 2 9.9742 130.5807 41.4454 0.0000 -30.0110 0.0000
# 3 41.3001 41.4454 201.1707 0.0000 -44.4587 0.0000
# 4 0.0000 0.0000 0.0000 39.3468 0.0000 -14.4373
# 5 -32.9637 -30.0110 -44.4587 0.0000 47.4625 0.0000
# 6 0.0000 0.0000 0.0000 -14.4373 0.0000 11.9593
#
#
#
# Elastic Compliance Matrix: (Units=1/GPa)
#
#
# Indices 1 2 3 4 5 6 
#
# 1 0.027620 0.002935 -0.002050 0.000000 0.019118 0.000000
# 2 0.002935 0.009362 -0.000974 0.000000 0.007046 0.000000
# 3 -0.002050 -0.000974 0.006484 0.000000 0.004034 0.000000
# 4 0.000000 0.000000 0.000000 0.045625 0.000000 0.055078
# 5 0.019118 0.007046 0.004034 0.000000 0.042581 0.000000
# 6 0.000000 0.000000 0.000000 0.055078 0.000000 0.150107
#
#
# Mechanical properties :
#
#
# Convention : Reuss Voigt Hill
#
# Bulk Modulus (GPa) = 23.10141 64.24659 43.67400
# Shear Modulus (GPa) = 16.86987 39.75774 28.31380
#
# Velocity S-wave (km/s) = 2.72006 4.17573 3.52388
# Velocity P-wave (km/s) = 4.47176 7.17119 5.97589
#
# Compressibility (1/GPa) = 0.04328740
#
# Stress axis : x y z
#
# Youngs Moduli (GPa) = 36.20601 106.80989 154.22715
#
# Poissons Ratio (x) = -0.31346 0.31614
# Poissons Ratio (y) = -0.10626 0.15026
# Poissons Ratio (z) = 0.07422 0.10406
#
# Static dielectric constant tensor:
#      x y z
#    x 2.137790 0.000000 -0.064230 
#    y 0.000000 1.837160 0.000000 
#    z -0.064230 0.000000 1.925700 
# 
# From -- ./inp_files/1367.got.cif
#   From: 2010.05.17/outbox.cif.g08.bks.cpg/sg13_1_cif.got.tgz:1367.got - 2010.06.03 16:44:36.
