data_PCOD9226079
_publ_section_title
;
Structure prediction by ZEFSAII (Michael W. Deem and Ramdas Pophale) SiO2 
 PCOD9226079
Probable space group: P 2/C
;
_chemical_formula_sum "Si O2"
_cell_formula_units_Z 26
_cell_length_a 9.013564
_cell_length_b 8.804744
_cell_length_c 15.706094
_cell_angle_alpha 90.000000
_cell_angle_beta 110.818999
_cell_angle_gamma 90.000000
_cell_volume 1165.084362
_symmetry_space_group_name_H-M "P 2/C"
_symmetry_group_IT_number 13
_symmetry_cell_setting 'monoclinic'
loop_
_space_group_symop_operation_xyz
x,y,z
-x,y,1/2-z
-x,-y,-z
x,-y,1/2+z
loop_
_atom_site_type_symbol
_atom_site_label
_atom_site_fract_x
_atom_site_fract_y
_atom_site_fract_z
Si Si1 0.500000 0.005577 0.250000
Si Si2 0.200366 0.932367 0.586089
Si Si3 0.627971 0.226025 0.631633
Si Si4 0.972175 0.364126 0.428331
Si Si5 0.295197 0.244050 0.529243
Si Si6 0.795466 0.392368 0.808092
Si Si7 0.962052 0.881624 0.151439
O O1 0.649597 0.092531 0.320463
O O2 0.429161 0.898208 0.310068
O O3 0.126438 0.770742 0.547290
O O4 0.262236 0.065211 0.536703
O O5 0.053091 0.015056 0.603119
O O6 0.478116 0.263236 0.541787
O O7 0.687069 0.363944 0.703761
O O8 0.777395 0.157364 0.612782
O O9 0.149678 0.306612 0.443971
O O10 0.000000 0.500000 0.500000
O O11 0.865521 0.440314 0.333991
O O12 0.283557 0.329204 0.619931
O O13 0.942504 0.276868 0.828164
O O14 0.000000 0.957088 0.250000
#
# Coordination Sequence:
#
# PCOD9226079 Si02
#       7
#     2   4   4   4   4   4   4
#     4  10  16  30  56  84  96 116 176 232 250 286
#     4  10  18  33  53  80 104 130 175 223 252 302
#     4  10  15  31  57  80  97 130 176 218 264 297
#     4  10  21  34  49  76 108 145 172 204 262 314
#     4   9  17  32  55  75 100 134 179 220 251 297
#     4   9  16  31  51  75 103 138 170 206 258 317
#     4   9  16  30  55  76 102 133 170 211 266 305
#
# _framework density 22.31598
#
# number of rings (size 3 to 8) (size 9 to 14) (size 15 to 20)
#    0.000    2.462    6.154    0.462    0.000    0.000 
#    5.538    3.846    0.000    0.000    0.000    0.000 
#    0.000    0.000    0.000    0.000    0.000    0.000 
#
# Total GULP energy -145028.481277 kJ/mol
# GULP energy per Si atom -5578.018511 kJ/mol
# Density = 2.226519 g / cm^3
# Si number density = 22.315980 Si / 1000 Ang^3
#
#
#
# Elastic Constant Matrix: (Units=GPa)
#
#
# Indices 1 2 3 4 5 6 
#
# 1 125.6123 23.3477 28.7206 0.0000 39.7724 0.0000
# 2 23.3477 101.0764 35.0750 0.0000 24.6351 0.0000
# 3 28.7206 35.0750 64.2584 0.0000 31.6378 0.0000
# 4 0.0000 0.0000 0.0000 36.3463 0.0000 14.1642
# 5 39.7724 24.6351 31.6378 0.0000 49.9256 0.0000
# 6 0.0000 0.0000 0.0000 14.1642 0.0000 10.1826
#
#
#
# Elastic Compliance Matrix: (Units=1/GPa)
#
#
# Indices 1 2 3 4 5 6 
#
# 1 0.010685 -0.000289 -0.000723 0.000000 -0.007911 0.000000
# 2 -0.000289 0.012453 -0.005460 0.000000 -0.002455 0.000000
# 3 -0.000723 -0.005460 0.025081 0.000000 -0.012624 0.000000
# 4 0.000000 0.000000 0.000000 0.060083 0.000000 -0.083577
# 5 -0.007911 -0.002455 -0.012624 0.000000 0.035543 0.000000
# 6 0.000000 0.000000 0.000000 -0.083577 0.000000 0.214465
#
#
# Mechanical properties :
#
#
# Convention : Reuss Voigt Hill
#
# Bulk Modulus (GPa) = 28.34799 51.69263 40.02031
# Shear Modulus (GPa) = 13.05442 32.87783 22.96612
#
# Velocity S-wave (km/s) = 2.42126 3.84251 3.21149
# Velocity P-wave (km/s) = 4.53291 6.54986 5.63240
#
# Compressibility (1/GPa) = 0.03527587
#
# Stress axis : x y z
#
# Youngs Moduli (GPa) = 93.58963 80.30098 39.87128
#
# Poissons Ratio (x) = 0.02322 0.02882
# Poissons Ratio (y) = 0.02706 0.21768
# Poissons Ratio (z) = 0.06764 0.43842
#
# Static dielectric constant tensor:
#      x y z
#    x 1.845600 0.000000 0.001010 
#    y 0.000000 1.820990 0.000000 
#    z 0.001010 0.000000 2.028150 
# 
# From -- ./inp_files/84602.got.cif
#   From: 2010.05.17/outbox.cif.g08.bks.cpg/sg13_43_cif.got.tgz:84602.got - 2010.06.03 16:44:36.
