data_PCOD9226316
_publ_section_title
;
Structure prediction by ZEFSAII (Michael W. Deem and Ramdas Pophale) SiO2 
 PCOD9226316
Probable space group: P 2/C
;
_chemical_formula_sum "Si O2"
_cell_formula_units_Z 22
_cell_length_a 9.187308
_cell_length_b 22.893391
_cell_length_c 5.446220
_cell_angle_alpha 90.000000
_cell_angle_beta 110.377736
_cell_angle_gamma 90.000000
_cell_volume 1073.807858
_symmetry_space_group_name_H-M "P 2/C"
_symmetry_group_IT_number 13
_symmetry_cell_setting 'monoclinic'
loop_
_space_group_symop_operation_xyz
x,y,z
-x,y,1/2-z
-x,-y,-z
x,-y,1/2+z
loop_
_atom_site_type_symbol
_atom_site_label
_atom_site_fract_x
_atom_site_fract_y
_atom_site_fract_z
Si Si1 0.177970 0.737753 0.952232
Si Si2 0.000000 0.312574 0.750000
Si Si3 0.500000 0.460697 0.250000
Si Si4 0.599438 0.841945 0.561163
Si Si5 0.769486 0.377837 0.263824
Si Si6 0.000000 0.535586 0.750000
Si Si7 0.678423 0.024150 0.120704
O O1 0.270117 0.793954 0.919561
O O2 0.271352 0.680898 0.908679
O O3 0.000000 0.739240 0.750000
O O4 0.137042 0.726831 0.213067
O O5 0.909390 0.354925 0.514553
O O6 0.500000 0.500000 0.500000
O O7 0.643428 0.415200 0.332916
O O8 0.500000 0.828021 0.750000
O O9 0.669209 0.906460 0.641934
O O10 0.500000 0.844967 0.250000
O O11 0.848222 0.424564 0.133883
O O12 0.000000 0.500000 0.500000
O O13 0.750584 0.995132 0.404651
O O14 0.500000 0.000000 0.000000
#
# Coordination Sequence:
#
# PCOD9226316 Si02
#       7
#     4   2   2   4   4   2   4
#     4  10  25  43  66  93 130 177 216 271 328 385
#     4  10  21  46  72  90 122 179 228 254 318 396
#     4  12  30  46  64 100 138 160 198 272 342 384
#     4  12  24  38  66 104 128 167 224 273 322 389
#     4  11  24  45  67  93 128 168 210 267 327 383
#     4  12  23  38  70  94 112 157 218 250 292 384
#     4  10  16  34  57  91 130 167 208 267 318 371
#
# _framework density 20.487838
#
# number of rings (size 3 to 8) (size 9 to 14) (size 15 to 20)
#    0.000    1.091    6.364    1.636    8.909    0.000 
#    0.000    0.000    0.000    1.091    0.000    0.000 
#    0.000    0.000    0.000    0.000    0.000    0.000 
#
# Total GULP energy -122639.963018 kJ/mol
# GULP energy per Si atom -5574.543774 kJ/mol
# Density = 2.044121 g / cm^3
# Si number density = 20.487838 Si / 1000 Ang^3
#
#
#
# Elastic Constant Matrix: (Units=GPa)
#
#
# Indices 1 2 3 4 5 6 
#
# 1 84.8973 73.7242 31.0191 0.0000 -28.1625 0.0000
# 2 73.7242 176.3447 34.5282 0.0000 -28.1863 0.0000
# 3 31.0191 34.5282 105.0095 0.0000 -37.5065 0.0000
# 4 0.0000 0.0000 0.0000 22.8924 0.0000 -7.3657
# 5 -28.1625 -28.1863 -37.5065 0.0000 27.1646 0.0000
# 6 0.0000 0.0000 0.0000 -7.3657 0.0000 29.9702
#
#
#
# Elastic Compliance Matrix: (Units=1/GPa)
#
#
# Indices 1 2 3 4 5 6 
#
# 1 0.024136 -0.007213 0.002972 0.000000 0.021641 0.000000
# 2 -0.007213 0.008971 -0.000326 0.000000 0.001379 0.000000
# 3 0.002972 -0.000326 0.019201 0.000000 0.029254 0.000000
# 4 0.000000 0.000000 0.000000 0.047434 0.000000 0.011658
# 5 0.021641 0.001379 0.029254 0.000000 0.101071 0.000000
# 6 0.000000 0.000000 0.000000 0.011658 0.000000 0.036232
#
#
# Mechanical properties :
#
#
# Convention : Reuss Voigt Hill
#
# Bulk Modulus (GPa) = 23.16293 71.64383 47.40338
# Shear Modulus (GPa) = 19.18870 31.13743 25.16307
#
# Velocity S-wave (km/s) = 3.06370 3.90269 3.50836
# Velocity P-wave (km/s) = 4.88316 7.43995 6.29278
#
# Compressibility (1/GPa) = 0.04317244
#
# Stress axis : x y z
#
# Youngs Moduli (GPa) = 41.43167 111.47342 52.08096
#
# Poissons Ratio (x) = 0.80410 -0.15478
# Poissons Ratio (y) = 0.29886 0.01699
# Poissons Ratio (z) = -0.12313 0.03636
#
# Static dielectric constant tensor:
#      x y z
#    x 1.950470 0.000000 -0.306800 
#    y 0.000000 1.720500 0.000000 
#    z -0.306800 0.000000 2.242450 
# 
# From -- ./inp_files/2146.got.cif
#   From: 2010.05.17/outbox.cif.g08.bks.cpg/sg13_2_cif.got.tgz:2146.got - 2010.06.03 16:44:36.
