data_PCOD9226981
_publ_section_title
;
Structure prediction by ZEFSAII (Michael W. Deem and Ramdas Pophale) SiO2 
 PCOD9226981
Probable space group: P 2/C
;
_chemical_formula_sum "Si O2"
_cell_formula_units_Z 28
_cell_length_a 7.638143
_cell_length_b 17.837325
_cell_length_c 14.185274
_cell_angle_alpha 90.000000
_cell_angle_beta 140.173882
_cell_angle_gamma 90.000000
_cell_volume 1237.790512
_symmetry_space_group_name_H-M "P 2/C"
_symmetry_group_IT_number 13
_symmetry_cell_setting 'monoclinic'
loop_
_space_group_symop_operation_xyz
x,y,z
-x,y,1/2-z
-x,-y,-z
x,-y,1/2+z
loop_
_atom_site_type_symbol
_atom_site_label
_atom_site_fract_x
_atom_site_fract_y
_atom_site_fract_z
Si Si1 0.729952 0.597009 0.926134
Si Si2 0.311137 0.138102 0.850847
Si Si3 0.389388 0.083130 0.081354
Si Si4 0.318704 0.438093 0.579968
Si Si5 0.366947 0.277416 0.590845
Si Si6 0.221954 0.243795 0.076702
Si Si7 0.902726 0.001892 0.319483
O O1 0.500000 0.601681 0.750000
O O2 0.671783 0.521122 0.961178
O O3 0.764841 0.680658 0.982668
O O4 0.012664 0.579079 0.989283
O O5 0.477576 0.211433 0.896459
O O6 0.269503 0.075904 0.752948
O O7 0.000000 0.158591 0.750000
O O8 0.451297 0.095765 0.995943
O O9 0.237964 0.160997 0.041582
O O10 0.682048 0.066051 0.250247
O O11 0.172757 0.014769 0.991649
O O12 0.500000 0.443188 0.750000
O O13 0.397997 0.361032 0.560567
O O14 0.500000 0.281509 0.750000
O O15 0.050338 0.254904 0.474215
O O16 0.500000 0.246465 0.250000
O O17 0.000000 0.010599 0.250000
#
# Coordination Sequence:
#
# PCOD9226981 Si02
#       7
#     4   4   4   4   4   4   4
#     4   8  14  27  44  67  99 133 165 197 233 289
#     4   9  18  33  54  76  99 131 171 212 250 297
#     4  10  20  36  54  73  96 130 172 210 251 301
#     4   8  14  24  45  72  97 129 167 199 233 283
#     4  10  18  32  53  80 108 132 165 210 254 293
#     4  10  21  34  50  76 109 135 163 208 260 302
#     4   9  18  34  54  72  92 126 173 211 241 299
#
# _framework density 22.620951000000002
#
# number of rings (size 3 to 8) (size 9 to 14) (size 15 to 20)
#    0.000    3.143    0.000    3.429    0.000    2.286 
#    0.000    3.571    0.000    0.857    0.000    1.000 
#    0.000    0.000    0.000    0.000    0.000    0.714 
#
# Total GULP energy -155950.666606 kJ/mol
# GULP energy per Si atom -5569.666664 kJ/mol
# Density = 2.256946 g / cm^3
# Si number density = 22.620951 Si / 1000 Ang^3
#
#
#
# Elastic Constant Matrix: (Units=GPa)
#
#
# Indices 1 2 3 4 5 6 
#
# 1 26.5546 41.3023 11.5467 0.0000 13.2246 0.0000
# 2 41.3023 171.7001 29.8054 0.0000 29.8328 0.0000
# 3 11.5467 29.8054 118.3408 0.0000 20.3926 0.0000
# 4 0.0000 0.0000 0.0000 41.2405 0.0000 18.9751
# 5 13.2246 29.8328 20.3926 0.0000 20.1115 0.0000
# 6 0.0000 0.0000 0.0000 18.9751 0.0000 19.7868
#
#
#
# Elastic Compliance Matrix: (Units=1/GPa)
#
#
# Indices 1 2 3 4 5 6 
#
# 1 0.070741 -0.012032 0.001294 0.000000 -0.029981 0.000000
# 2 -0.012032 0.009893 -0.000184 0.000000 -0.006576 0.000000
# 3 0.001294 -0.000184 0.010263 0.000000 -0.010984 0.000000
# 4 0.000000 0.000000 0.000000 0.043396 0.000000 -0.041615
# 5 -0.029981 -0.006576 -0.010984 0.000000 0.090329 0.000000
# 6 0.000000 0.000000 0.000000 -0.041615 0.000000 0.090447
#
#
# Mechanical properties :
#
#
# Convention : Reuss Voigt Hill
#
# Bulk Modulus (GPa) = 14.48173 53.54494 34.01333
# Shear Modulus (GPa) = 13.89157 31.82383 22.85770
#
# Velocity S-wave (km/s) = 2.48080 3.75484 3.18223
# Velocity P-wave (km/s) = 3.82382 6.52076 5.34518
#
# Compressibility (1/GPa) = 0.06905255
#
# Stress axis : x y z
#
# Youngs Moduli (GPa) = 14.13613 101.08103 97.43611
#
# Poissons Ratio (x) = 1.21622 -0.12613
# Poissons Ratio (y) = 0.17009 0.01797
# Poissons Ratio (z) = -0.01830 0.01865
#
# Static dielectric constant tensor:
#      x y z
#    x 1.892980 0.000000 -0.013660 
#    y 0.000000 1.961610 0.000000 
#    z -0.013660 0.000000 1.839180 
# 
# From -- ./inp_files/76799.got.cif
#   From: 2010.05.17/outbox.cif.g08.bks.cpg/sg13_39_cif.got.tgz:76799.got - 2010.06.03 16:44:36.
