data_PCOD9226826
_publ_section_title
;
Structure prediction by ZEFSAII (Michael W. Deem and Ramdas Pophale) SiO2 
 PCOD9226826
Probable space group: P 2/C
;
_chemical_formula_sum "Si O2"
_cell_formula_units_Z 22
_cell_length_a 12.073556
_cell_length_b 11.251891
_cell_length_c 9.185539
_cell_angle_alpha 90.000000
_cell_angle_beta 69.830772
_cell_angle_gamma 90.000000
_cell_volume 1171.337799
_symmetry_space_group_name_H-M "P 2/C"
_symmetry_group_IT_number 13
_symmetry_cell_setting 'monoclinic'
loop_
_space_group_symop_operation_xyz
x,y,z
-x,y,1/2-z
-x,-y,-z
x,-y,1/2+z
loop_
_atom_site_type_symbol
_atom_site_label
_atom_site_fract_x
_atom_site_fract_y
_atom_site_fract_z
Si Si1 0.157802 0.433541 0.044130
Si Si2 0.970987 0.684326 0.418584
Si Si3 0.567740 0.595290 0.067887
Si Si4 0.374657 0.145335 0.054525
Si Si5 0.500000 0.996172 0.250000
Si Si6 0.878151 0.219640 0.237752
O O1 0.297395 0.441767 0.958821
O O2 0.088729 0.357566 0.952123
O O3 0.100941 0.562842 0.077320
O O4 0.135920 0.356793 0.200179
O O5 0.896333 0.769437 0.557541
O O6 0.000000 0.738842 0.250000
O O7 0.500000 0.610897 0.250000
O O8 0.500000 0.500000 0.000000
O O9 0.577235 0.720488 0.979820
O O10 0.235648 0.153497 0.150364
O O11 0.433886 0.075999 0.160863
O O12 0.409820 0.082890 0.886626
O O13 0.000000 0.173368 0.250000
#
# Coordination Sequence:
#
# PCOD9226826 Si02
#       6
#     4   4   4   4   2   4
#     4   9  19  33  49  75 119 165 198 232 283 360
#     4  10  18  30  54  79 112 162 206 233 283 359
#     4  11  25  37  56  91 132 162 191 245 306 363
#     4  10  22  44  64  89 117 157 208 252 296 359
#     4  10  22  44  70  84 110 164 212 248 294 352
#     4   9  19  36  55  82 119 149 189 255 305 345
#
# _framework density 18.781943999999999
#
# number of rings (size 3 to 8) (size 9 to 14) (size 15 to 20)
#    0.000    2.182    0.909    2.727    8.909    0.000 
#    0.000    2.727    0.000    0.000    0.000    0.000 
#    0.000    0.000    0.000    0.000    0.000    0.000 
#
# Total GULP energy -122787.602992 kJ/mol
# GULP energy per Si atom -5581.254681 kJ/mol
# Density = 1.873920 g / cm^3
# Si number density = 18.781944 Si / 1000 Ang^3
#
#
#
# Elastic Constant Matrix: (Units=GPa)
#
#
# Indices 1 2 3 4 5 6 
#
# 1 112.1571 45.3282 62.2825 0.0000 -35.3779 0.0000
# 2 45.3282 66.5788 39.3896 0.0000 -5.2241 0.0000
# 3 62.2825 39.3896 172.8211 0.0000 -15.3562 0.0000
# 4 0.0000 0.0000 0.0000 16.5868 0.0000 0.2173
# 5 -35.3779 -5.2241 -15.3562 0.0000 30.2252 0.0000
# 6 0.0000 0.0000 0.0000 0.2173 0.0000 15.6333
#
#
#
# Elastic Compliance Matrix: (Units=1/GPa)
#
#
# Indices 1 2 3 4 5 6 
#
# 1 0.022795 -0.011636 -0.003530 0.000000 0.022876 0.000000
# 2 -0.011636 0.023331 -0.002070 0.000000 -0.010638 0.000000
# 3 -0.003530 -0.002070 0.007469 0.000000 -0.000695 0.000000
# 4 0.000000 0.000000 0.000000 0.060300 0.000000 -0.000838
# 5 0.022876 -0.010638 -0.000695 0.000000 0.057669 0.000000
# 6 0.000000 0.000000 0.000000 -0.000838 0.000000 0.063978
#
#
# Mechanical properties :
#
#
# Convention : Reuss Voigt Hill
#
# Bulk Modulus (GPa) = 52.29142 71.72860 62.01001
# Shear Modulus (GPa) = 18.09056 26.12617 22.10837
#
# Velocity S-wave (km/s) = 3.10690 3.73369 3.43462
# Velocity P-wave (km/s) = 6.38531 7.54058 6.98686
#
# Compressibility (1/GPa) = 0.01912360
#
# Stress axis : x y z
#
# Youngs Moduli (GPa) = 43.86933 42.86083 133.89525
#
# Poissons Ratio (x) = 0.49872 0.47269
# Poissons Ratio (y) = 0.51045 0.27711
# Poissons Ratio (z) = 0.15487 0.08871
#
# Static dielectric constant tensor:
#      x y z
#    x 1.644670 0.000000 -0.007260 
#    y 0.000000 1.634910 0.000000 
#    z -0.007260 0.000000 1.680760 
# 
# From -- ./inp_files/15802.got.cif
#   From: 2010.05.17/outbox.cif.g08.bks.cpg/sg13_8_cif.got.tgz:15802.got - 2010.06.03 16:44:36.
