data_PCOD9226047
_publ_section_title
;
Structure prediction by ZEFSAII (Michael W. Deem and Ramdas Pophale) SiO2 
 PCOD9226047
Probable space group: P 2/C
;
_chemical_formula_sum "Si O2"
_cell_formula_units_Z 24
_cell_length_a 16.395450
_cell_length_b 21.304912
_cell_length_c 5.194782
_cell_angle_alpha 90.000000
_cell_angle_beta 105.600073
_cell_angle_gamma 90.000000
_cell_volume 1747.711942
_symmetry_space_group_name_H-M "P 2/C"
_symmetry_group_IT_number 13
_symmetry_cell_setting 'monoclinic'
loop_
_space_group_symop_operation_xyz
x,y,z
-x,y,1/2-z
-x,-y,-z
x,-y,1/2+z
loop_
_atom_site_type_symbol
_atom_site_label
_atom_site_fract_x
_atom_site_fract_y
_atom_site_fract_z
Si Si1 0.500000 0.543209 0.250000
Si Si2 0.000000 0.456197 0.250000
Si Si3 0.403073 0.972847 0.389327
Si Si4 0.656987 0.362882 0.901166
Si Si5 0.554816 0.834237 0.047426
Si Si6 0.602324 0.293383 0.353973
Si Si7 0.187338 0.454944 0.403233
O O1 0.500000 0.500000 0.500000
O O2 0.418839 0.587119 0.150356
O O3 0.092554 0.425080 0.327539
O O4 0.000000 0.500000 0.500000
O O5 0.403359 0.899257 0.329760
O O6 0.500000 0.000000 0.500000
O O7 0.362474 0.987959 0.626790
O O8 0.647889 0.335306 0.607289
O O9 0.639568 0.310465 0.106343
O O10 0.742700 0.401005 0.022897
O O11 0.500000 0.811890 0.250000
O O12 0.500000 0.853924 0.750000
O O13 0.608153 0.777181 0.973042
O O14 0.500000 0.305391 0.250000
O O15 0.196453 0.502110 0.655085
#
# Coordination Sequence:
#
# PCOD9226047 Si02
#       7
#     2   2   4   4   4   4   4
#     4  12  22  32  42  56  74 100 130 170 204 236
#     4   8  16  30  50  70  88  96 116 154 210 270
#     4  10  15  24  36  57  74  91 122 173 221 238
#     4  12  21  34  45  58  80 107 141 171 201 244
#     4  11  18  27  41  54  74 101 135 173 217 236
#     4  11  21  33  41  56  77 112 145 175 200 225
#     4  10  19  33  50  69  83 102 125 165 217 261
#
# _framework density 13.732239999999999
#
# number of rings (size 3 to 8) (size 9 to 14) (size 15 to 20)
#    0.000    1.333    5.000    5.000    0.000    0.000 
#    0.000    0.000    0.000    0.000    0.000    0.000 
#    0.000    0.000    0.000    0.000    0.000    0.000 
#
# Total GULP energy -133613.245960 kJ/mol
# GULP energy per Si atom -5567.218582 kJ/mol
# Density = 1.370098 g / cm^3
# Si number density = 13.732240 Si / 1000 Ang^3
#
#
#
# Elastic Constant Matrix: (Units=GPa)
#
#
# Indices 1 2 3 4 5 6 
#
# 1 60.5680 19.7674 15.2308 0.0000 14.2368 0.0000
# 2 19.7674 62.9170 11.5418 0.0000 5.6814 0.0000
# 3 15.2308 11.5418 82.1604 0.0000 -15.9530 0.0000
# 4 0.0000 0.0000 0.0000 23.4654 0.0000 -7.6247
# 5 14.2368 5.6814 -15.9530 0.0000 26.0173 0.0000
# 6 0.0000 0.0000 0.0000 -7.6247 0.0000 12.7288
#
#
#
# Elastic Compliance Matrix: (Units=1/GPa)
#
#
# Indices 1 2 3 4 5 6 
#
# 1 0.023522 -0.004694 -0.006812 0.000000 -0.016023 0.000000
# 2 -0.004694 0.018014 -0.002186 0.000000 -0.002706 0.000000
# 3 -0.006812 -0.002186 0.016525 0.000000 0.014338 0.000000
# 4 0.000000 0.000000 0.000000 0.052915 0.000000 0.031697
# 5 -0.016023 -0.002706 0.014338 0.000000 0.056586 0.000000
# 6 0.000000 0.000000 0.000000 0.031697 0.000000 0.097549
#
#
# Mechanical properties :
#
#
# Convention : Reuss Voigt Hill
#
# Bulk Modulus (GPa) = 32.59731 33.19171 32.89451
# Shear Modulus (GPa) = 16.51693 23.04934 19.78313
#
# Velocity S-wave (km/s) = 3.47188 4.10137 3.79969
# Velocity P-wave (km/s) = 6.31358 6.83019 6.57696
#
# Compressibility (1/GPa) = 0.03067737
#
# Stress axis : x y z
#
# Youngs Moduli (GPa) = 42.51418 55.51273 60.51379
#
# Poissons Ratio (x) = 0.26055 0.41224
# Poissons Ratio (y) = 0.19954 0.13227
# Poissons Ratio (z) = 0.28962 0.12134
#
# Static dielectric constant tensor:
#      x y z
#    x 1.494430 0.000000 -0.070250 
#    y 0.000000 1.378690 0.000000 
#    z -0.070250 0.000000 1.538450 
# 
# From -- ./inp_files/5178.got.cif
#   From: 2010.05.17/outbox.cif.g08.bks.cpg/sg13_3_cif.got.tgz:5178.got - 2010.06.03 16:44:36.
