data_PCOD9226832
_publ_section_title
;
Structure prediction by ZEFSAII (Michael W. Deem and Ramdas Pophale) SiO2 
 PCOD9226832
Probable space group: P 2/C
;
_chemical_formula_sum "Si O2"
_cell_formula_units_Z 26
_cell_length_a 13.671730
_cell_length_b 10.075359
_cell_length_c 13.249133
_cell_angle_alpha 90.000000
_cell_angle_beta 134.564230
_cell_angle_gamma 90.000000
_cell_volume 1300.273011
_symmetry_space_group_name_H-M "P 2/C"
_symmetry_group_IT_number 13
_symmetry_cell_setting 'monoclinic'
loop_
_space_group_symop_operation_xyz
x,y,z
-x,y,1/2-z
-x,-y,-z
x,-y,1/2+z
loop_
_atom_site_type_symbol
_atom_site_label
_atom_site_fract_x
_atom_site_fract_y
_atom_site_fract_z
Si Si1 0.669701 0.089876 0.704698
Si Si2 0.598873 0.325260 0.520094
Si Si3 0.800340 0.085736 0.438727
Si Si4 0.500000 0.772166 0.250000
Si Si5 0.000000 0.993739 0.250000
Si Si6 0.354637 0.390878 0.493792
Si Si7 0.500000 0.807269 0.750000
Si Si8 0.788259 0.835840 0.724993
O O1 0.683138 0.203185 0.630198
O O2 0.549861 0.137209 0.693164
O O3 0.794418 0.055308 0.873085
O O4 0.662107 0.944391 0.645920
O O5 0.498753 0.371710 0.537958
O O6 0.679487 0.454206 0.538528
O O7 0.508437 0.277214 0.359195
O O8 0.643085 0.113117 0.356178
O O9 0.833362 0.187263 0.372713
O O10 0.903762 0.086808 0.604510
O O11 0.618344 0.674480 0.377574
O O12 0.901337 0.084848 0.245451
O O13 0.251910 0.295839 0.360655
#
# Coordination Sequence:
#
# PCOD9226832 Si02
#       8
#     4   4   4   2   2   4   2   4
#     4   9  20  35  55  89 117 161 195 258 298 372
#     4  10  20  34  58  84 132 154 200 248 317 365
#     4  10  23  36  62  94 122 155 208 253 314 368
#     4  10  18  30  54  84 124 156 196 242 312 364
#     4  12  22  42  62  86 130 170 206 262 310 370
#     4  10  20  36  53  88 121 168 197 249 305 379
#     4  12  20  38  60 102 124 164 194 270 314 376
#     4  10  22  38  59  87 118 165 208 254 303 370
#
# _framework density 19.995801
#
# number of rings (size 3 to 8) (size 9 to 14) (size 15 to 20)
#    0.923    0.923    1.538    3.231    0.000    6.769 
#    0.000    0.000    0.000    4.615    0.000    0.000 
#    0.000    0.000    0.000    0.000    0.000    0.000 
#
# Total GULP energy -144740.360535 kJ/mol
# GULP energy per Si atom -5566.936944 kJ/mol
# Density = 1.995029 g / cm^3
# Si number density = 19.995801 Si / 1000 Ang^3
#
#
#
# Elastic Constant Matrix: (Units=GPa)
#
#
# Indices 1 2 3 4 5 6 
#
# 1 58.7362 14.4973 20.4051 0.0000 -9.4920 0.0000
# 2 14.4973 102.7745 55.0214 0.0000 -6.0477 0.0000
# 3 20.4051 55.0214 148.1523 0.0000 -23.2559 0.0000
# 4 0.0000 0.0000 0.0000 5.8307 0.0000 3.0603
# 5 -9.4920 -6.0477 -23.2559 0.0000 17.0269 0.0000
# 6 0.0000 0.0000 0.0000 3.0603 0.0000 0.5577
#
#
#
# Elastic Compliance Matrix: (Units=1/GPa)
#
#
# Indices 1 2 3 4 5 6 
#
# 1 0.019172 -0.001906 -0.000460 0.000000 0.009383 0.000000
# 2 -0.001906 0.012409 -0.004864 0.000000 -0.003298 0.000000
# 3 -0.000460 -0.004864 0.010575 0.000000 0.012460 0.000000
# 4 0.000000 0.000000 0.000000 -0.091218 0.000000 0.500562
# 5 0.009383 -0.003298 0.012460 0.000000 0.079808 0.000000
# 6 0.000000 0.000000 0.000000 0.500562 0.000000 -0.953703
#
#
# Mechanical properties :
#
#
# Convention : Reuss Voigt Hill
#
# Bulk Modulus (GPa) = 36.10529 54.39007 45.24768
# Shear Modulus (GPa) = -5.56008 19.33234 6.88613
#
# Velocity S-wave (km/s) = -1.66933 3.11275 1.85776
# Velocity P-wave (km/s) = 3.79211 6.33867 5.22297
#
# Compressibility (1/GPa) = 0.02769677
#
# Stress axis : x y z
#
# Youngs Moduli (GPa) = 52.16012 80.58938 94.55989
#
# Poissons Ratio (x) = 0.15361 0.04348
# Poissons Ratio (y) = 0.09942 0.45989
# Poissons Ratio (z) = 0.02398 0.39195
#
# Static dielectric constant tensor:
#      x y z
#    x 1.777000 0.000000 -0.023850 
#    y 0.000000 1.772020 0.000000 
#    z -0.023850 0.000000 1.742060 
# 
# From -- ./inp_files/53399.got.cif
#   From: 2010.05.17/outbox.cif.g08.bks.cpg/sg13_27_cif.got.tgz:53399.got - 2010.06.03 16:44:36.
