data_PCOD9226059
_publ_section_title
;
Structure prediction by ZEFSAII (Michael W. Deem and Ramdas Pophale) SiO2 
 PCOD9226059
Probable space group: P 2/C
;
_chemical_formula_sum "Si O2"
_cell_formula_units_Z 28
_cell_length_a 11.852904
_cell_length_b 7.541494
_cell_length_c 22.350445
_cell_angle_alpha 90.000000
_cell_angle_beta 32.706346
_cell_angle_gamma 90.000000
_cell_volume 1079.518881
_symmetry_space_group_name_H-M "P 2/C"
_symmetry_group_IT_number 13
_symmetry_cell_setting 'monoclinic'
loop_
_space_group_symop_operation_xyz
x,y,z
-x,y,1/2-z
-x,-y,-z
x,-y,1/2+z
loop_
_atom_site_type_symbol
_atom_site_label
_atom_site_fract_x
_atom_site_fract_y
_atom_site_fract_z
Si Si1 0.896555 0.282513 0.062854
Si Si2 0.261257 0.544252 0.090614
Si Si3 0.306247 0.867077 0.153805
Si Si4 0.257007 0.516252 0.958192
Si Si5 0.524554 0.162334 0.668232
Si Si6 0.789911 0.858848 0.895225
Si Si7 0.956803 0.971848 0.435259
O O1 0.038849 0.420094 0.036506
O O2 0.881957 0.118212 0.112582
O O3 0.697289 0.366033 0.120401
O O4 0.999681 0.204684 0.954772
O O5 0.211001 0.692809 0.163427
O O6 0.151952 0.349591 0.134260
O O7 0.500000 0.500000 0.000000
O O8 0.253126 0.608423 0.024759
O O9 0.320322 0.877201 0.219133
O O10 0.218561 0.046598 0.164561
O O11 0.549935 0.862871 0.025140
O O12 0.416393 0.355124 0.885089
O O13 0.500000 0.170921 0.750000
O O14 0.725433 0.037649 0.564828
O O15 0.910699 0.988552 0.886867
#
# Coordination Sequence:
#
# PCOD9226059 Si02
#       7
#     4   4   4   4   4   4   4
#     4   9  17  27  50  70 102 123 155 210 245 288
#     4  10  15  27  45  69 101 119 149 208 249 286
#     4   9  17  27  45  69  92 129 149 194 254 282
#     4  10  17  30  46  78  99 124 160 197 256 288
#     4  10  19  33  46  66 105 134 159 189 233 308
#     4   9  15  26  44  69  97 113 154 204 245 285
#     4   9  16  31  46  76  97 123 161 200 252 283
#
# _framework density 25.937480000000001
#
# number of rings (size 3 to 8) (size 9 to 14) (size 15 to 20)
#    0.000    2.571    5.714    0.857    0.000    1.143 
#    0.000    0.714    0.000    0.000    0.000   38.000 
#    0.000    0.000    0.000    0.000    0.000    0.000 
#
# Total GULP energy -156142.094692 kJ/mol
# GULP energy per Si atom -5576.503382 kJ/mol
# Density = 2.587845 g / cm^3
# Si number density = 25.937480 Si / 1000 Ang^3
#
#
#
# Elastic Constant Matrix: (Units=GPa)
#
#
# Indices 1 2 3 4 5 6 
#
# 1 177.0429 42.6233 31.7555 0.0000 54.0235 0.0000
# 2 42.6233 125.0500 4.1456 0.0000 23.5308 0.0000
# 3 31.7555 4.1456 101.6872 0.0000 39.3441 0.0000
# 4 0.0000 0.0000 0.0000 3.4868 0.0000 20.0345
# 5 54.0235 23.5308 39.3441 0.0000 55.8706 0.0000
# 6 0.0000 0.0000 0.0000 20.0345 0.0000 47.2351
#
#
#
# Elastic Compliance Matrix: (Units=1/GPa)
#
#
# Indices 1 2 3 4 5 6 
#
# 1 0.008255 -0.001374 0.000471 0.000000 -0.007735 0.000000
# 2 -0.001374 0.009074 0.001407 0.000000 -0.003484 0.000000
# 3 0.000471 0.001407 0.013793 0.000000 -0.010761 0.000000
# 4 0.000000 0.000000 0.000000 -0.199575 0.000000 0.084648
# 5 -0.007735 -0.003484 -0.010761 0.000000 0.034423 0.000000
# 6 0.000000 0.000000 0.000000 0.084648 0.000000 -0.014732
#
#
# Mechanical properties :
#
#
# Convention : Reuss Voigt Hill
#
# Bulk Modulus (GPa) = 31.12272 62.31433 46.71852
# Shear Modulus (GPa) = -35.95573 43.00222 3.52325
#
# Velocity S-wave (km/s) = -3.72727 4.07617 1.16675
# Velocity P-wave (km/s) = 2.54916 6.79930 4.45715
#
# Compressibility (1/GPa) = 0.03213086
#
# Stress axis : x y z
#
# Youngs Moduli (GPa) = 121.13990 110.20441 72.49879
#
# Poissons Ratio (x) = 0.15140 -0.03414
# Poissons Ratio (y) = 0.16642 -0.10202
# Poissons Ratio (z) = -0.05704 -0.15508
#
# Static dielectric constant tensor:
#      x y z
#    x 2.059350 0.000000 -0.036350 
#    y 0.000000 2.203790 0.000000 
#    z -0.036350 0.000000 2.070670 
# 
# From -- ./inp_files/77772.got.cif
#   From: 2010.05.17/outbox.cif.g08.bks.cpg/sg13_39_cif.got.tgz:77772.got - 2010.06.03 16:44:36.
