data_PCOD9226948
_publ_section_title
;
Structure prediction by ZEFSAII (Michael W. Deem and Ramdas Pophale) SiO2 
 PCOD9226948
Probable space group: P 2/C
;
_chemical_formula_sum "Si O2"
_cell_formula_units_Z 24
_cell_length_a 21.839781
_cell_length_b 15.849929
_cell_length_c 5.103431
_cell_angle_alpha 90.000000
_cell_angle_beta 120.362792
_cell_angle_gamma 90.000000
_cell_volume 1524.295537
_symmetry_space_group_name_H-M "P 2/C"
_symmetry_group_IT_number 13
_symmetry_cell_setting 'monoclinic'
loop_
_space_group_symop_operation_xyz
x,y,z
-x,y,1/2-z
-x,-y,-z
x,-y,1/2+z
loop_
_atom_site_type_symbol
_atom_site_label
_atom_site_fract_x
_atom_site_fract_y
_atom_site_fract_z
Si Si1 0.289381 0.680572 0.934939
Si Si2 0.417285 0.442945 0.730784
Si Si3 0.157566 0.437532 0.087062
Si Si4 0.416147 0.054638 0.055842
Si Si5 0.351304 0.771535 0.562241
Si Si6 0.500000 0.685986 0.750000
Si Si7 0.000000 0.439942 0.750000
O O1 0.213236 0.638888 0.719832
O O2 0.318619 0.740437 0.765530
O O3 0.340403 0.599127 0.066705
O O4 0.301870 0.731042 0.230583
O O5 0.425164 0.484356 0.465075
O O6 0.468142 0.369761 0.946547
O O7 0.166184 0.502151 0.351008
O O8 0.077659 0.398634 0.917366
O O9 0.500000 0.079680 0.250000
O O10 0.365127 0.130142 0.034796
O O11 0.405491 0.978240 0.238062
O O12 0.431398 0.734682 0.708235
O O13 0.000000 0.500000 0.500000
#
# Coordination Sequence:
#
# PCOD9226948 Si02
#       7
#     4   4   4   4   4   2   2
#     4  11  22  32  48  67  94 127 153 195 245 275
#     4  11  21  33  43  58  80 118 163 198 226 260
#     4  10  18  32  49  70  97 130 170 204 231 278
#     4  10  20  36  56  74  88 114 149 193 240 294
#     4  11  22  36  48  70  93 119 151 193 241 292
#     4  10  22  34  46  62  86 120 154 206 238 270
#     4   8  16  28  48  70  92 124 164 206 240 262
#
# _framework density 15.744979000000001
#
# number of rings (size 3 to 8) (size 9 to 14) (size 15 to 20)
#    0.000    1.667    0.833    5.500    0.000    5.333 
#    0.000    0.000    0.000    0.000    0.000    0.000 
#    0.000    0.000    0.000   15.000    0.000    0.000 
#
# Total GULP energy -133861.461284 kJ/mol
# GULP energy per Si atom -5577.560887 kJ/mol
# Density = 1.570914 g / cm^3
# Si number density = 15.744979 Si / 1000 Ang^3
#
#
#
# Elastic Constant Matrix: (Units=GPa)
#
#
# Indices 1 2 3 4 5 6 
#
# 1 62.7436 18.2452 36.9203 0.0000 9.1414 0.0000
# 2 18.2452 37.7122 3.8491 0.0000 17.8637 0.0000
# 3 36.9203 3.8491 69.1007 0.0000 5.9690 0.0000
# 4 0.0000 0.0000 0.0000 -23.6532 0.0000 42.8530
# 5 9.1414 17.8637 5.9690 0.0000 38.6713 0.0000
# 6 0.0000 0.0000 0.0000 42.8530 0.0000 -38.7859
#
#
#
# Elastic Compliance Matrix: (Units=1/GPa)
#
#
# Indices 1 2 3 4 5 6 
#
# 1 0.027823 -0.012714 -0.014287 0.000000 0.001501 0.000000
# 2 -0.012714 0.039774 0.005985 0.000000 -0.016291 0.000000
# 3 -0.014287 0.005985 0.022013 0.000000 -0.002785 0.000000
# 4 0.000000 0.000000 0.000000 0.042206 0.000000 0.046631
# 5 0.001501 -0.016291 -0.002785 0.000000 0.033459 0.000000
# 6 0.000000 0.000000 0.000000 0.046631 0.000000 0.025739
#
#
# Mechanical properties :
#
#
# Convention : Reuss Voigt Hill
#
# Bulk Modulus (GPa) = 21.01879 31.95396 26.48637
# Shear Modulus (GPa) = 20.08796 2.61591 11.35194
#
# Velocity S-wave (km/s) = 3.57576 1.29036 2.68803
# Velocity P-wave (km/s) = 5.51603 4.74961 5.14710
#
# Compressibility (1/GPa) = 0.04757647
#
# Stress axis : x y z
#
# Youngs Moduli (GPa) = 35.94098 25.14230 45.42864
#
# Poissons Ratio (x) = 0.31965 0.64906
# Poissons Ratio (y) = 0.45695 -0.27188
# Poissons Ratio (z) = 0.51350 -0.15047
#
# Static dielectric constant tensor:
#      x y z
#    x 1.571800 0.000000 0.002930 
#    y 0.000000 1.521220 0.000000 
#    z 0.002930 0.000000 1.542500 
# 
# From -- ./inp_files/7551.got.cif
#   From: 2010.05.17/outbox.cif.g08.bks.cpg/sg13_4_cif.got.tgz:7551.got - 2010.06.03 16:44:36.
