data_PCOD9226899
_publ_section_title
;
Structure prediction by ZEFSAII (Michael W. Deem and Ramdas Pophale) SiO2 
 PCOD9226899
Probable space group: P 2/C
;
_chemical_formula_sum "Si O2"
_cell_formula_units_Z 28
_cell_length_a 5.616545
_cell_length_b 8.395424
_cell_length_c 29.736367
_cell_angle_alpha 90.000000
_cell_angle_beta 119.322227
_cell_angle_gamma 90.000000
_cell_volume 1222.520587
_symmetry_space_group_name_H-M "P 2/C"
_symmetry_group_IT_number 13
_symmetry_cell_setting 'monoclinic'
loop_
_space_group_symop_operation_xyz
x,y,z
-x,y,1/2-z
-x,-y,-z
x,-y,1/2+z
loop_
_atom_site_type_symbol
_atom_site_label
_atom_site_fract_x
_atom_site_fract_y
_atom_site_fract_z
Si Si1 0.533900 0.253184 0.048858
Si Si2 0.818414 0.792171 0.775466
Si Si3 0.597033 0.439362 0.374939
Si Si4 0.084653 0.147649 0.118756
Si Si5 0.993443 0.629093 0.460199
Si Si6 0.277664 0.428071 0.762642
Si Si7 0.240413 0.050580 0.555798
O O1 0.512059 0.387258 0.085927
O O2 0.849102 0.230473 0.066439
O O3 0.469370 0.075727 0.062664
O O4 0.297524 0.294140 0.990811
O O5 0.500000 0.845315 0.750000
O O6 0.801911 0.597523 0.769316
O O7 0.000000 0.844673 0.750000
O O8 0.977257 0.851497 0.834593
O O9 0.876026 0.539847 0.406195
O O10 0.408449 0.528757 0.322691
O O11 0.663157 0.268591 0.359888
O O12 0.160278 0.988369 0.099801
O O13 0.760425 0.761031 0.448613
O O14 0.000000 0.500000 0.500000
O O15 0.500000 0.351471 0.750000
O O16 0.000000 0.339238 0.750000
O O17 0.000000 0.000000 0.500000
#
# Coordination Sequence:
#
# PCOD9226899 Si02
#       7
#     4   4   4   4   4   4   4
#     4   9  19  34  57  81 117 149 199 242 304 369
#     4  10  19  32  55  91 119 150 204 262 310 361
#     4  10  19  33  54  86 114 151 195 249 307 365
#     4  11  20  33  59  88 114 158 197 257 314 368
#     4   9  19  37  56  81 119 159 196 253 299 374
#     4  10  18  31  54  84 115 150 199 253 301 355
#     4   9  20  37  56  82 118 155 197 247 302 369
#
# _framework density 22.903497999999999
#
# number of rings (size 3 to 8) (size 9 to 14) (size 15 to 20)
#    0.000    2.286    2.857    2.571    2.000    2.857 
#    0.000    2.857    0.000    0.857    0.000    1.000 
#    0.000    0.000    0.000    0.000    0.000    0.000 
#
# Total GULP energy -155980.397425 kJ/mol
# GULP energy per Si atom -5570.728479 kJ/mol
# Density = 2.285137 g / cm^3
# Si number density = 22.903498 Si / 1000 Ang^3
#
#
#
# Elastic Constant Matrix: (Units=GPa)
#
#
# Indices 1 2 3 4 5 6 
#
# 1 99.1020 5.1797 18.7584 0.0000 5.7784 0.0000
# 2 5.1797 69.2374 10.6066 0.0000 -0.4722 0.0000
# 3 18.7584 10.6066 104.5967 0.0000 2.1267 0.0000
# 4 0.0000 0.0000 0.0000 12.6038 0.0000 0.4947
# 5 5.7784 -0.4722 2.1267 0.0000 35.2984 0.0000
# 6 0.0000 0.0000 0.0000 0.4947 0.0000 10.4830
#
#
#
# Elastic Compliance Matrix: (Units=1/GPa)
#
#
# Indices 1 2 3 4 5 6 
#
# 1 0.010555 -0.000524 -0.001807 0.000000 -0.001626 0.000000
# 2 -0.000524 0.014700 -0.001404 0.000000 0.000367 0.000000
# 3 -0.001807 -0.001404 0.010034 0.000000 -0.000328 0.000000
# 4 0.000000 0.000000 0.000000 0.079488 0.000000 -0.003751
# 5 -0.001626 0.000367 -0.000328 0.000000 0.028621 0.000000
# 6 0.000000 0.000000 0.000000 -0.003751 0.000000 0.095569
#
#
# Mechanical properties :
#
#
# Convention : Reuss Voigt Hill
#
# Bulk Modulus (GPa) = 35.94703 38.00282 36.97493
# Shear Modulus (GPa) = 19.55347 27.56981 23.56164
#
# Velocity S-wave (km/s) = 2.92504 3.47326 3.21087
# Velocity P-wave (km/s) = 5.20931 5.71955 5.47038
#
# Compressibility (1/GPa) = 0.02781871
#
# Stress axis : x y z
#
# Youngs Moduli (GPa) = 94.74374 68.02787 99.66517
#
# Poissons Ratio (x) = 0.03564 0.18007
# Poissons Ratio (y) = 0.04964 0.13994
# Poissons Ratio (z) = 0.17117 0.09552
#
# Static dielectric constant tensor:
#      x y z
#    x 2.010410 0.000000 -0.018000 
#    y 0.000000 1.903740 0.000000 
#    z -0.018000 0.000000 1.929620 
# 
# From -- ./inp_files/95131.got.cif
#   From: 2010.05.17/outbox.cif.g08.bks.cpg/sg13_48_cif.got.tgz:95131.got - 2010.06.03 16:44:36.
