data_PCOD9226875
_publ_section_title
;
Structure prediction by ZEFSAII (Michael W. Deem and Ramdas Pophale) SiO2 
 PCOD9226875
Probable space group: P 2/C
;
_chemical_formula_sum "Si O2"
_cell_formula_units_Z 32
_cell_length_a 20.502529
_cell_length_b 12.669433
_cell_length_c 18.578572
_cell_angle_alpha 90.000000
_cell_angle_beta 21.334090
_cell_angle_gamma 90.000000
_cell_volume 1755.683436
_symmetry_space_group_name_H-M "P 2/C"
_symmetry_group_IT_number 13
_symmetry_cell_setting 'monoclinic'
loop_
_space_group_symop_operation_xyz
x,y,z
-x,y,1/2-z
-x,-y,-z
x,-y,1/2+z
loop_
_atom_site_type_symbol
_atom_site_label
_atom_site_fract_x
_atom_site_fract_y
_atom_site_fract_z
Si Si1 0.770511 0.360495 0.408934
Si Si2 0.836725 0.853354 0.076642
Si Si3 0.646746 0.119562 0.536313
Si Si4 0.531715 0.164576 0.494828
Si Si5 0.504385 0.590944 0.053842
Si Si6 0.812014 0.364229 0.527085
Si Si7 0.029322 0.957791 0.300952
Si Si8 0.921342 0.886459 0.553939
O O1 0.745064 0.233211 0.439171
O O2 0.646624 0.408595 0.473930
O O3 0.734343 0.391916 0.528691
O O4 0.978423 0.386804 0.183483
O O5 0.675504 0.869482 0.300263
O O6 0.791576 0.759938 0.067733
O O7 0.004222 0.818224 0.955419
O O8 0.886142 0.953773 0.976576
O O9 0.500000 0.111062 0.750000
O O10 0.560246 0.123857 0.546752
O O11 0.786537 0.023668 0.391594
O O12 0.531052 0.291873 0.493001
O O13 0.705929 0.123196 0.273209
O O14 0.500000 0.500000 0.000000
O O15 0.309175 0.582211 0.289624
O O16 0.000000 0.919762 0.250000
O O17 0.008702 0.872005 0.385658
O O18 0.000000 0.000000 0.500000
#
# Coordination Sequence:
#
# PCOD9226875 Si02
#       8
#     4   4   4   4   4   4   4   4
#     4  10  18  31  52  79 112 140 172 214 280 343
#     4  10  18  32  53  74 110 138 176 218 279 332
#     4  11  18  29  48  77 113 139 174 218 275 334
#     4  10  19  34  53  75 100 146 178 216 278 327
#     4  10  21  34  51  82 113 138 174 221 278 345
#     4  10  18  31  55  81 105 143 171 220 281 337
#     4  11  20  32  47  75 108 142 180 230 266 313
#     4  10  20  35  49  74 108 142 183 225 262 321
#
# _framework density 18.226520000000001
#
# number of rings (size 3 to 8) (size 9 to 14) (size 15 to 20)
#    0.000    1.750    3.750    4.875    0.000    2.500 
#    2.250    0.000    0.000    0.000   16.250    0.000 
#    0.000    0.000    0.000    0.000    0.000    0.000 
#
# Total GULP energy -178157.636547 kJ/mol
# GULP energy per Si atom -5567.426142 kJ/mol
# Density = 1.818504 g / cm^3
# Si number density = 18.226520 Si / 1000 Ang^3
#
#
#
# Elastic Constant Matrix: (Units=GPa)
#
#
# Indices 1 2 3 4 5 6 
#
# 1 74.1080 24.3454 32.1008 0.0000 20.8941 0.0000
# 2 24.3454 38.9445 30.0598 0.0000 7.2738 0.0000
# 3 32.1008 30.0598 134.9996 0.0000 13.1069 0.0000
# 4 0.0000 0.0000 0.0000 21.8550 0.0000 6.2857
# 5 20.8941 7.2738 13.1069 0.0000 31.7160 0.0000
# 6 0.0000 0.0000 0.0000 6.2857 0.0000 23.3196
#
#
#
# Elastic Compliance Matrix: (Units=1/GPa)
#
#
# Indices 1 2 3 4 5 6 
#
# 1 0.020282 -0.009397 -0.001711 0.000000 -0.010499 0.000000
# 2 -0.009397 0.035972 -0.005808 0.000000 0.000341 0.000000
# 3 -0.001711 -0.005808 0.009240 0.000000 -0.001359 0.000000
# 4 0.000000 0.000000 0.000000 0.049601 0.000000 -0.013370
# 5 -0.010499 0.000341 -0.001359 0.000000 0.038930 0.000000
# 6 0.000000 0.000000 0.000000 -0.013370 0.000000 0.046486
#
#
# Mechanical properties :
#
#
# Convention : Reuss Voigt Hill
#
# Bulk Modulus (GPa) = 31.58546 46.78493 39.18519
# Shear Modulus (GPa) = 20.41668 26.14786 23.28227
#
# Velocity S-wave (km/s) = 3.35052 3.79173 3.57793
# Velocity P-wave (km/s) = 5.68638 6.70029 6.21405
#
# Compressibility (1/GPa) = 0.03166014
#
# Stress axis : x y z
#
# Youngs Moduli (GPa) = 49.30397 27.79974 108.23073
#
# Poissons Ratio (x) = 0.26125 0.18518
# Poissons Ratio (y) = 0.46333 0.62863
# Poissons Ratio (z) = 0.08436 0.16147
#
# Static dielectric constant tensor:
#      x y z
#    x 1.715360 0.000000 -0.042530 
#    y 0.000000 1.647270 0.000000 
#    z -0.042530 0.000000 1.707570 
# 
# From -- ./inp_files/70766.got.cif
#   From: 2010.05.17/outbox.cif.g08.bks.cpg/sg13_36_cif.got.tgz:70766.got - 2010.06.03 16:44:36.
