data_PCOD9226384
_publ_section_title
;
Structure prediction by ZEFSAII (Michael W. Deem and Ramdas Pophale) SiO2 
 PCOD9226384
Probable space group: P 2/C
;
_chemical_formula_sum "Si O2"
_cell_formula_units_Z 24
_cell_length_a 15.831218
_cell_length_b 7.348355
_cell_length_c 18.074785
_cell_angle_alpha 90.000000
_cell_angle_beta 31.605885
_cell_angle_gamma 90.000000
_cell_volume 1101.969829
_symmetry_space_group_name_H-M "P 2/C"
_symmetry_group_IT_number 13
_symmetry_cell_setting 'monoclinic'
loop_
_space_group_symop_operation_xyz
x,y,z
-x,y,1/2-z
-x,-y,-z
x,-y,1/2+z
loop_
_atom_site_type_symbol
_atom_site_label
_atom_site_fract_x
_atom_site_fract_y
_atom_site_fract_z
Si Si1 0.171511 0.470703 0.411808
Si Si2 0.499411 0.469954 0.088450
Si Si3 0.842322 0.031738 0.909264
Si Si4 0.165835 0.477787 0.586313
Si Si5 0.837502 0.964001 0.579234
Si Si6 0.500872 0.930740 0.840765
O O1 0.330239 0.538985 0.249991
O O2 0.168725 0.536136 0.498551
O O3 0.186850 0.252596 0.405192
O O4 0.000000 0.500000 0.500000
O O5 0.500280 0.257371 0.112958
O O6 0.500000 0.500000 0.000000
O O7 0.668888 0.537244 0.996986
O O8 0.837246 0.254260 0.910777
O O9 0.000000 0.970767 0.750000
O O10 0.859329 0.970201 0.980245
O O11 0.665878 0.972481 0.014818
O O12 0.000000 0.534280 0.750000
O O13 0.665948 0.033353 0.736498
O O14 0.000000 0.000000 0.500000
O O15 0.500000 0.900076 0.750000
#
# Coordination Sequence:
#
# PCOD9226384 Si02
#       6
#     4   4   4   4   4   4
#     4  10  19  31  48  71  97 126 159 198 242 292
#     4  10  17  26  44  70  97 124 155 195 241 285
#     4   8  14  26  47  69  87 115 159 200 231 276
#     4   9  16  28  46  69  93 121 162 204 237 280
#     4   9  17  30  49  69  91 120 156 198 239 280
#     4   8  15  29  47  68  94 126 163 201 238 285
#
# _framework density 21.77918
#
# number of rings (size 3 to 8) (size 9 to 14) (size 15 to 20)
#    0.000    3.000    0.000    4.500    0.000    1.333 
#    0.000    0.833    0.000   11.000    0.000    0.000 
#    0.000    0.000    0.000    0.000    0.000    0.000 
#
# Total GULP energy -133785.193208 kJ/mol
# GULP energy per Si atom -5574.383050 kJ/mol
# Density = 2.172961 g / cm^3
# Si number density = 21.779180 Si / 1000 Ang^3
#
#
#
# Elastic Constant Matrix: (Units=GPa)
#
#
# Indices 1 2 3 4 5 6 
#
# 1 181.7013 10.1615 126.9887 0.0000 -35.3602 0.0000
# 2 10.1615 76.1543 14.7774 0.0000 3.1811 0.0000
# 3 126.9887 14.7774 270.4568 0.0000 -38.0127 0.0000
# 4 0.0000 0.0000 0.0000 -5.7683 0.0000 -11.9801
# 5 -35.3602 3.1811 -38.0127 0.0000 47.7616 0.0000
# 6 0.0000 0.0000 0.0000 -11.9801 0.0000 15.4606
#
#
#
# Elastic Compliance Matrix: (Units=1/GPa)
#
#
# Indices 1 2 3 4 5 6 
#
# 1 0.008737 -0.000631 -0.003550 0.000000 0.003685 0.000000
# 2 -0.000631 0.013433 -0.000708 0.000000 -0.001926 0.000000
# 3 -0.003550 -0.000708 0.005675 0.000000 0.001936 0.000000
# 4 0.000000 0.000000 0.000000 -0.066439 0.000000 -0.051482
# 5 0.003685 -0.001926 0.001936 0.000000 0.025334 0.000000
# 6 0.000000 0.000000 0.000000 -0.051482 0.000000 0.024788
#
#
# Mechanical properties :
#
#
# Convention : Reuss Voigt Hill
#
# Bulk Modulus (GPa) = 55.34977 92.46307 73.90642
# Shear Modulus (GPa) = 182.95075 36.58308 109.76692
#
# Velocity S-wave (km/s) = 9.17524 4.10289 7.10699
# Velocity P-wave (km/s) = 11.73524 8.06176 10.06747
#
# Compressibility (1/GPa) = 0.01806692
#
# Stress axis : x y z
#
# Youngs Moduli (GPa) = 114.45682 74.44175 176.21140
#
# Poissons Ratio (x) = 0.04696 0.62553
# Poissons Ratio (y) = 0.07221 0.12483
# Poissons Ratio (z) = 0.40631 0.05273
#
# Static dielectric constant tensor:
#      x y z
#    x 1.787740 0.000000 -0.060680 
#    y 0.000000 1.884770 0.000000 
#    z -0.060680 0.000000 1.841670 
# 
# From -- ./inp_files/50788.got.cif
#   From: 2010.05.17/outbox.cif.g08.bks.cpg/sg13_26_cif.got.tgz:50788.got - 2010.06.03 16:44:36.
