data_PCOD9226570
_publ_section_title
;
Structure prediction by ZEFSAII (Michael W. Deem and Ramdas Pophale) SiO2 
 PCOD9226570
Probable space group: P 2/C
;
_chemical_formula_sum "Si O2"
_cell_formula_units_Z 24
_cell_length_a 16.469322
_cell_length_b 10.982930
_cell_length_c 15.173796
_cell_angle_alpha 90.000000
_cell_angle_beta 25.127562
_cell_angle_gamma 90.000000
_cell_volume 1165.477678
_symmetry_space_group_name_H-M "P 2/C"
_symmetry_group_IT_number 13
_symmetry_cell_setting 'monoclinic'
loop_
_space_group_symop_operation_xyz
x,y,z
-x,y,1/2-z
-x,-y,-z
x,-y,1/2+z
loop_
_atom_site_type_symbol
_atom_site_label
_atom_site_fract_x
_atom_site_fract_y
_atom_site_fract_z
Si Si1 0.324579 0.055194 0.527042
Si Si2 0.234291 0.009789 0.934355
Si Si3 0.167321 0.182036 0.850576
Si Si4 0.829912 0.740376 0.566858
Si Si5 0.293872 0.665731 0.987204
Si Si6 0.562956 0.627719 0.476054
O O1 0.539910 0.003220 0.314910
O O2 0.219985 0.977806 0.553878
O O3 0.238092 0.080241 0.708446
O O4 0.318729 0.191351 0.489802
O O5 0.157789 0.878384 0.980421
O O6 0.140103 0.113394 0.968345
O O7 0.333895 0.281965 0.692615
O O8 0.986750 0.254676 0.988791
O O9 0.844646 0.662028 0.461616
O O10 0.624402 0.700904 0.806088
O O11 0.500000 0.622299 0.750000
O O12 0.286356 0.606945 0.091117
O O13 0.500000 0.500000 0.500000
#
# Coordination Sequence:
#
# PCOD9226570 Si02
#       6
#     4   4   4   4   4   4
#     4   9  16  30  53  79 113 151 189 219 277 348
#     4  10  17  33  53  86 119 144 186 236 279 354
#     4  11  21  32  59  84 113 155 184 234 297 331
#     4  10  19  34  56  86 111 136 194 237 275 347
#     4   8  13  31  53  74 101 135 179 235 266 317
#     4  10  21  36  55  79 108 147 195 241 287 328
#
# _framework density 20.592414999999999
#
# number of rings (size 3 to 8) (size 9 to 14) (size 15 to 20)
#    0.000    2.333    6.667    1.000    0.000    6.667 
#    0.000    0.000   11.000    0.000    0.000    0.000 
#    0.000    0.000    0.000    0.000    0.000    0.000 
#
# Total GULP energy -133616.068141 kJ/mol
# GULP energy per Si atom -5567.336173 kJ/mol
# Density = 2.054555 g / cm^3
# Si number density = 20.592415 Si / 1000 Ang^3
#
#
#
# Elastic Constant Matrix: (Units=GPa)
#
#
# Indices 1 2 3 4 5 6 
#
# 1 111.8088 51.0123 11.9073 0.0000 -12.0812 0.0000
# 2 51.0123 62.5263 7.7568 0.0000 -0.8745 0.0000
# 3 11.9073 7.7568 36.9922 0.0000 -11.0218 0.0000
# 4 0.0000 0.0000 0.0000 5.1816 0.0000 -4.1842
# 5 -12.0812 -0.8745 -11.0218 0.0000 28.5693 0.0000
# 6 0.0000 0.0000 0.0000 -4.1842 0.0000 22.9146
#
#
#
# Elastic Compliance Matrix: (Units=1/GPa)
#
#
# Indices 1 2 3 4 5 6 
#
# 1 0.015240 -0.012279 -0.000591 0.000000 0.005841 0.000000
# 2 -0.012279 0.026335 -0.003250 0.000000 -0.005640 0.000000
# 3 -0.000591 -0.003250 0.031411 0.000000 0.011769 0.000000
# 4 0.000000 0.000000 0.000000 0.226367 0.000000 0.041335
# 5 0.005841 -0.005640 0.011769 0.000000 0.041840 0.000000
# 6 0.000000 0.000000 0.000000 0.041335 0.000000 0.051188
#
#
# Mechanical properties :
#
#
# Convention : Reuss Voigt Hill
#
# Bulk Modulus (GPa) = 24.54163 39.18667 31.86415
# Shear Modulus (GPa) = 11.41024 20.70984 16.06004
#
# Velocity S-wave (km/s) = 2.35649 3.17472 2.79570
# Velocity P-wave (km/s) = 4.39860 5.70171 5.09201
#
# Compressibility (1/GPa) = 0.04074708
#
# Stress axis : x y z
#
# Youngs Moduli (GPa) = 65.61728 37.97210 31.83605
#
# Poissons Ratio (x) = 0.46624 0.01880
# Poissons Ratio (y) = 0.80569 0.10348
# Poissons Ratio (z) = 0.03875 0.12342
#
# Static dielectric constant tensor:
#      x y z
#    x 1.848100 0.000000 -0.035010 
#    y 0.000000 1.690770 0.000000 
#    z -0.035010 0.000000 1.851980 
# 
# From -- ./inp_files/53610.got.cif
#   From: 2010.05.17/outbox.cif.g08.bks.cpg/sg13_27_cif.got.tgz:53610.got - 2010.06.03 16:44:36.
