data_PCOD9226042
_publ_section_title
;
Structure prediction by ZEFSAII (Michael W. Deem and Ramdas Pophale) SiO2 
 PCOD9226042
Probable space group: P 2/C
;
_chemical_formula_sum "Si O2"
_cell_formula_units_Z 20
_cell_length_a 9.420249
_cell_length_b 9.867312
_cell_length_c 15.191029
_cell_angle_alpha 90.000000
_cell_angle_beta 147.853510
_cell_angle_gamma 90.000000
_cell_volume 751.328865
_symmetry_space_group_name_H-M "P 2/C"
_symmetry_group_IT_number 13
_symmetry_cell_setting 'monoclinic'
loop_
_space_group_symop_operation_xyz
x,y,z
-x,y,1/2-z
-x,-y,-z
x,-y,1/2+z
loop_
_atom_site_type_symbol
_atom_site_label
_atom_site_fract_x
_atom_site_fract_y
_atom_site_fract_z
Si Si1 0.697560 0.330130 0.437785
Si Si2 0.393483 0.265059 0.917822
Si Si3 0.754718 0.988143 0.936497
Si Si4 0.175568 0.503348 0.180603
Si Si5 0.000000 0.969874 0.250000
Si Si6 0.000000 0.328476 0.250000
O O1 0.938044 0.405181 0.513607
O O2 0.736774 0.332219 0.563800
O O3 0.692286 0.171076 0.416278
O O4 0.582999 0.403968 0.216803
O O5 0.234868 0.123451 0.829390
O O6 0.339885 0.369302 0.811321
O O7 0.710809 0.255326 0.101296
O O8 0.500000 0.050497 0.750000
O O9 0.859408 0.033785 0.088478
O O10 0.000000 0.000000 0.000000
O O11 0.012105 0.417600 0.167962
#
# Coordination Sequence:
#
# PCOD9226042 Si02
#       6
#     4   4   4   4   2   2
#     4  10  19  32  61 100 148 194 236 294 371 453
#     4  10  15  27  51  98 147 197 231 277 362 462
#     4  11  26  51  77 107 146 196 262 327 365 435
#     4  11  14  27  52  98 150 194 229 277 368 464
#     4  10  21  44  78 107 146 196 251 305 390 442
#     4  10  15  20  44  91 152 192 235 271 330 456
#
# _framework density 26.619502000000001
#
# number of rings (size 3 to 8) (size 9 to 14) (size 15 to 20)
#    0.000    1.600    8.000    1.200    0.000    0.800 
#    0.000    9.000    0.000    1.200    0.000    0.000 
#    0.000    0.200    0.000    0.000    0.000    0.000 
#
# Total GULP energy -111684.671108 kJ/mol
# GULP energy per Si atom -5584.233555 kJ/mol
# Density = 2.655891 g / cm^3
# Si number density = 26.619502 Si / 1000 Ang^3
#
#
#
# Elastic Constant Matrix: (Units=GPa)
#
#
# Indices 1 2 3 4 5 6 
#
# 1 5.8656 5.5746 -42.9353 0.0000 125.4806 0.0000
# 2 5.5746 39.2547 0.5905 0.0000 0.5840 0.0000
# 3 -42.9353 0.5905 188.5952 0.0000 82.2378 0.0000
# 4 0.0000 0.0000 0.0000 -24.3870 0.0000 12.6868
# 5 125.4806 0.5840 82.2378 0.0000 -96.7728 0.0000
# 6 0.0000 0.0000 0.0000 12.6868 0.0000 30.2471
#
#
#
# Elastic Compliance Matrix: (Units=1/GPa)
#
#
# Indices 1 2 3 4 5 6 
#
# 1 0.006582 -0.001017 -0.001618 0.000000 0.007153 0.000000
# 2 -0.001017 0.025632 0.000143 0.000000 -0.001042 0.000000
# 3 -0.001618 0.000143 0.004267 0.000000 0.001529 0.000000
# 4 0.000000 0.000000 0.000000 -0.033661 0.000000 0.014119
# 5 0.007153 -0.001042 0.001529 0.000000 0.000235 0.000000
# 6 0.000000 0.000000 0.000000 0.014119 0.000000 0.027139
#
#
# Mechanical properties :
#
#
# Convention : Reuss Voigt Hill
#
# Bulk Modulus (GPa) = 31.74841 17.79722 24.77281
# Shear Modulus (GPa) = 109.46374 -0.15016 54.65679
#
# Velocity S-wave (km/s) = 6.41957 -0.23776 4.53621
# Velocity P-wave (km/s) = 8.17927 2.57389 6.06323
#
# Compressibility (1/GPa) = 0.03149765
#
# Stress axis : x y z
#
# Youngs Moduli (GPa) = 151.93607 39.01306 234.36732
#
# Poissons Ratio (x) = 0.03967 0.37913
# Poissons Ratio (y) = 0.15448 -0.03347
# Poissons Ratio (z) = 0.24578 -0.00557
#
# Static dielectric constant tensor:
#      x y z
#    x 1.921330 0.000000 -0.034840 
#    y 0.000000 2.092630 0.000000 
#    z -0.034840 0.000000 2.182020 
# 
# From -- ./inp_files/66465.got.cif
#   From: 2010.05.17/outbox.cif.g08.bks.cpg/sg13_34_cif.got.tgz:66465.got - 2010.06.03 16:44:36.
