data_PCOD9226625
_publ_section_title
;
Structure prediction by ZEFSAII (Michael W. Deem and Ramdas Pophale) SiO2 
 PCOD9226625
Probable space group: P 2/C
;
_chemical_formula_sum "Si O2"
_cell_formula_units_Z 20
_cell_length_a 11.444693
_cell_length_b 5.190732
_cell_length_c 23.017330
_cell_angle_alpha 90.000000
_cell_angle_beta 145.975912
_cell_angle_gamma 90.000000
_cell_volume 765.103024
_symmetry_space_group_name_H-M "P 2/C"
_symmetry_group_IT_number 13
_symmetry_cell_setting 'monoclinic'
loop_
_space_group_symop_operation_xyz
x,y,z
-x,y,1/2-z
-x,-y,-z
x,-y,1/2+z
loop_
_atom_site_type_symbol
_atom_site_label
_atom_site_fract_x
_atom_site_fract_y
_atom_site_fract_z
Si Si1 0.211665 0.674896 0.521050
Si Si2 0.730924 0.830244 0.083345
Si Si3 0.588971 0.841793 0.349773
Si Si4 0.836006 0.696912 0.289267
Si Si5 0.756128 0.668986 0.664919
O O1 0.325271 0.759219 0.507000
O O2 0.282998 0.394190 0.570024
O O3 0.966677 0.673785 0.403010
O O4 0.278514 0.897193 0.592903
O O5 0.677946 0.594035 0.102832
O O6 0.986280 0.821362 0.178522
O O7 0.674227 0.092438 0.092952
O O8 0.500000 0.775420 0.250000
O O9 0.370873 0.864983 0.294609
O O10 0.764698 0.416829 0.236193
O O11 0.000000 0.680122 0.750000
#
# Coordination Sequence:
#
# PCOD9226625 Si02
#       5
#     4   4   4   4   4
#     4  10  25  44  66  99 135 171 232 276 330 405
#     4   9  20  37  63  93 131 172 208 261 323 396
#     4  12  26  46  69  97 132 176 234 286 333 392
#     4   9  24  42  70  98 139 180 212 281 333 393
#     4  10  17  34  65  93 126 178 204 251 331 391
#
# _framework density 26.140270999999998
#
# number of rings (size 3 to 8) (size 9 to 14) (size 15 to 20)
#    1.200    0.800    0.000    3.600    0.000    8.000 
#    0.000    6.000    0.000    0.000    0.000    0.000 
#    0.000    0.000    0.000    0.000    0.000    0.000 
#
# Total GULP energy -111750.815101 kJ/mol
# GULP energy per Si atom -5587.540755 kJ/mol
# Density = 2.608077 g / cm^3
# Si number density = 26.140271 Si / 1000 Ang^3
#
#
#
# Elastic Constant Matrix: (Units=GPa)
#
#
# Indices 1 2 3 4 5 6 
#
# 1 33.5298 -3.3973 -4.1938 0.0000 -5.5446 0.0000
# 2 -3.3973 158.7500 40.4751 0.0000 1.7039 0.0000
# 3 -4.1938 40.4751 150.2856 0.0000 -4.8205 0.0000
# 4 0.0000 0.0000 0.0000 46.3807 0.0000 -9.3889
# 5 -5.5446 1.7039 -4.8205 0.0000 27.2845 0.0000
# 6 0.0000 0.0000 0.0000 -9.3889 0.0000 13.7293
#
#
#
# Elastic Compliance Matrix: (Units=1/GPa)
#
#
# Indices 1 2 3 4 5 6 
#
# 1 0.031050 0.000345 0.000981 0.000000 0.006462 0.000000
# 2 0.000345 0.006783 -0.001839 0.000000 -0.000678 0.000000
# 3 0.000981 -0.001839 0.007228 0.000000 0.001591 0.000000
# 4 0.000000 0.000000 0.000000 0.025025 0.000000 0.017114
# 5 0.006462 -0.000678 0.001591 0.000000 0.038287 0.000000
# 6 0.000000 0.000000 0.000000 0.017114 0.000000 0.084540
#
#
# Mechanical properties :
#
#
# Convention : Reuss Voigt Hill
#
# Bulk Modulus (GPa) = 22.70935 45.37039 34.03987
# Shear Modulus (GPa) = 23.96728 38.12432 31.04580
#
# Velocity S-wave (km/s) = 3.03127 3.82311 3.44999
# Velocity P-wave (km/s) = 4.57798 6.07309 5.37774
#
# Compressibility (1/GPa) = 0.04403472
#
# Stress axis : x y z
#
# Youngs Moduli (GPa) = 32.20575 147.43361 138.35765
#
# Poissons Ratio (x) = -0.05087 -0.13570
# Poissons Ratio (y) = -0.01111 0.25442
# Poissons Ratio (z) = -0.03159 0.27111
#
# Static dielectric constant tensor:
#      x y z
#    x 2.235460 0.000000 0.019480 
#    y 0.000000 1.977890 0.000000 
#    z 0.019480 0.000000 2.246960 
# 
# From -- ./inp_files/92583.got.cif
#   From: 2010.05.17/outbox.cif.g08.bks.cpg/sg13_47_cif.got.tgz:92583.got - 2010.06.03 16:44:36.
