data_PCOD9226609
_publ_section_title
;
Structure prediction by ZEFSAII (Michael W. Deem and Ramdas Pophale) SiO2 
 PCOD9226609
Probable space group: P 2/C
;
_chemical_formula_sum "Si O2"
_cell_formula_units_Z 32
_cell_length_a 26.539133
_cell_length_b 9.573805
_cell_length_c 19.342223
_cell_angle_alpha 90.000000
_cell_angle_beta 22.063750
_cell_angle_gamma 90.000000
_cell_volume 1846.065910
_symmetry_space_group_name_H-M "P 2/C"
_symmetry_group_IT_number 13
_symmetry_cell_setting 'monoclinic'
loop_
_space_group_symop_operation_xyz
x,y,z
-x,y,1/2-z
-x,-y,-z
x,-y,1/2+z
loop_
_atom_site_type_symbol
_atom_site_label
_atom_site_fract_x
_atom_site_fract_y
_atom_site_fract_z
Si Si1 0.684974 0.042119 0.383271
Si Si2 0.130799 0.400351 0.832709
Si Si3 0.713202 0.160308 0.491828
Si Si4 0.748634 0.223048 0.708713
Si Si5 0.390673 0.443823 0.944875
Si Si6 0.030610 0.132706 0.510241
Si Si7 0.000318 0.057826 0.169047
Si Si8 0.449307 0.237331 0.665101
O O1 0.674945 0.048166 0.480145
O O2 0.811253 0.143670 0.204602
O O3 0.559183 0.119607 0.510623
O O4 0.701873 0.890250 0.326733
O O5 0.188354 0.357284 0.834269
O O6 0.263892 0.459282 0.625249
O O7 0.000000 0.500000 0.000000
O O8 0.065950 0.258433 0.885281
O O9 0.676306 0.307328 0.504409
O O10 0.635290 0.169470 0.663562
O O11 0.868465 0.138806 0.311189
O O12 0.869314 0.144624 0.516937
O O13 0.638725 0.259836 0.791042
O O14 0.500000 0.500718 0.750000
O O15 0.476504 0.376402 0.899384
O O16 0.006184 0.084887 0.618983
O O17 0.000000 0.000000 0.500000
O O18 0.000000 0.034155 0.250000
#
# Coordination Sequence:
#
# PCOD9226609 Si02
#       8
#     4   4   4   4   4   4   4   4
#     4  10  18  34  56  85 117 143 184 241 292 342
#     4  12  22  38  65  88 110 163 208 238 295 356
#     4  10  17  34  58  84 111 155 199 237 279 353
#     4  11  21  34  55  90 118 148 190 250 293 346
#     4   9  21  37  56  80 119 158 198 242 287 358
#     4  11  20  37  61  84 116 141 193 254 285 335
#     4  11  19  33  58  85 114 144 186 248 304 336
#     4  10  20  34  56  85 118 152 194 237 290 343
#
# _framework density 17.334159
#
# number of rings (size 3 to 8) (size 9 to 14) (size 15 to 20)
#    0.000    1.500    5.000    3.750    0.000    0.500 
#    0.000    2.500    5.500    0.000    0.000    0.000 
#    0.000    0.000    0.000    0.000    0.000    0.000 
#
# Total GULP energy -178220.378691 kJ/mol
# GULP energy per Si atom -5569.386834 kJ/mol
# Density = 1.729471 g / cm^3
# Si number density = 17.334159 Si / 1000 Ang^3
#
#
#
# Elastic Constant Matrix: (Units=GPa)
#
#
# Indices 1 2 3 4 5 6 
#
# 1 137.4912 45.0955 47.1287 0.0000 -14.0922 0.0000
# 2 45.0955 64.8046 51.2334 0.0000 -1.6224 0.0000
# 3 47.1287 51.2334 104.2832 0.0000 -11.2587 0.0000
# 4 0.0000 0.0000 0.0000 32.8979 0.0000 -5.4439
# 5 -14.0922 -1.6224 -11.2587 0.0000 37.9341 0.0000
# 6 0.0000 0.0000 0.0000 -5.4439 0.0000 11.0176
#
#
#
# Elastic Compliance Matrix: (Units=1/GPa)
#
#
# Indices 1 2 3 4 5 6 
#
# 1 0.009939 -0.005804 -0.001311 0.000000 0.003055 0.000000
# 2 -0.005804 0.028887 -0.012055 0.000000 -0.004498 0.000000
# 3 -0.001311 -0.012055 0.016525 0.000000 0.003902 0.000000
# 4 0.000000 0.000000 0.000000 0.033104 0.000000 0.016357
# 5 0.003055 -0.004498 0.003902 0.000000 0.028462 0.000000
# 6 0.000000 0.000000 0.000000 0.016357 0.000000 0.098846
#
#
# Mechanical properties :
#
#
# Convention : Reuss Voigt Hill
#
# Bulk Modulus (GPa) = 58.77724 65.94381 62.36052
# Shear Modulus (GPa) = 19.24757 27.24469 23.24613
#
# Velocity S-wave (km/s) = 3.33586 3.96881 3.66602
# Velocity P-wave (km/s) = 6.98707 7.68942 7.34665
#
# Compressibility (1/GPa) = 0.01701339
#
# Stress axis : x y z
#
# Youngs Moduli (GPa) = 100.61263 34.61721 60.51305
#
# Poissons Ratio (x) = 0.20091 0.07931
# Poissons Ratio (y) = 0.58392 0.72948
# Poissons Ratio (z) = 0.13187 0.41731
#
# Static dielectric constant tensor:
#      x y z
#    x 1.609360 0.000000 0.001250 
#    y 0.000000 1.588190 0.000000 
#    z 0.001250 0.000000 1.656310 
# 
# From -- ./inp_files/82517.got.cif
#   From: 2010.05.17/outbox.cif.g08.bks.cpg/sg13_42_cif.got.tgz:82517.got - 2010.06.03 16:44:36.
