data_PCOD9226228
_publ_section_title
;
Structure prediction by ZEFSAII (Michael W. Deem and Ramdas Pophale) SiO2 
 PCOD9226228
Probable space group: P 2/C
;
_chemical_formula_sum "Si O2"
_cell_formula_units_Z 20
_cell_length_a 6.694758
_cell_length_b 21.899588
_cell_length_c 5.510282
_cell_angle_alpha 90.000000
_cell_angle_beta 101.086187
_cell_angle_gamma 90.000000
_cell_volume 792.800167
_symmetry_space_group_name_H-M "P 2/C"
_symmetry_group_IT_number 13
_symmetry_cell_setting 'monoclinic'
loop_
_space_group_symop_operation_xyz
x,y,z
-x,y,1/2-z
-x,-y,-z
x,-y,1/2+z
loop_
_atom_site_type_symbol
_atom_site_label
_atom_site_fract_x
_atom_site_fract_y
_atom_site_fract_z
Si Si1 0.627868 0.162076 0.528166
Si Si2 0.764260 0.522548 0.468139
Si Si3 0.735592 0.975062 0.051164
Si Si4 0.232844 0.293059 0.830959
Si Si5 0.239853 0.340474 0.334187
O O1 0.500000 0.156634 0.750000
O O2 0.739746 0.097646 0.524175
O O3 0.760857 0.222691 0.589156
O O4 0.500000 0.170065 0.250000
O O5 0.683512 0.481698 0.673511
O O6 0.750190 0.590575 0.568416
O O7 0.000000 0.500000 0.500000
O O8 0.818419 0.992951 0.331662
O O9 0.500000 0.000000 0.000000
O O10 0.318054 0.299658 0.577345
O O11 0.000000 0.315101 0.750000
O O12 0.319914 0.331323 0.078976
O O13 0.000000 0.324329 0.250000
#
# Coordination Sequence:
#
# PCOD9226228 Si02
#       5
#     4   4   4   4   4
#     4  12  21  35  59  83 108 138 197 231 257 328
#     4  10  17  24  44  75 100 137 173 232 265 312
#     4  10  16  30  51  84 101 129 167 242 285 292
#     4  10  23  36  51  75 114 161 171 213 285 335
#     4  10  18  32  48  69 112 152 173 209 280 336
#
# _framework density 25.227038
#
# number of rings (size 3 to 8) (size 9 to 14) (size 15 to 20)
#    0.000    1.600    6.000    2.400    5.600    0.000 
#    0.000    0.000    0.000    1.200    0.000    0.000 
#    0.000   56.000    0.000    0.000    0.000    0.000 
#
# Total GULP energy -111879.592748 kJ/mol
# GULP energy per Si atom -5593.979637 kJ/mol
# Density = 2.516962 g / cm^3
# Si number density = 25.227038 Si / 1000 Ang^3
#
#
#
# Elastic Constant Matrix: (Units=GPa)
#
#
# Indices 1 2 3 4 5 6 
#
# 1 63.6734 -9.7155 45.2054 0.0000 -21.3539 0.0000
# 2 -9.7155 160.1108 65.8059 0.0000 1.3751 0.0000
# 3 45.2054 65.8059 293.4902 0.0000 -12.7679 0.0000
# 4 0.0000 0.0000 0.0000 58.3343 0.0000 2.3193
# 5 -21.3539 1.3751 -12.7679 0.0000 56.8330 0.0000
# 6 0.0000 0.0000 0.0000 2.3193 0.0000 -58.9630
#
#
#
# Elastic Compliance Matrix: (Units=1/GPa)
#
#
# Indices 1 2 3 4 5 6 
#
# 1 0.020965 0.002658 -0.003520 0.000000 0.007022 0.000000
# 2 0.002658 0.007232 -0.002015 0.000000 0.000371 0.000000
# 3 -0.003520 -0.002015 0.004389 0.000000 -0.000288 0.000000
# 4 0.000000 0.000000 0.000000 0.017116 0.000000 0.000673
# 5 0.007022 0.000371 -0.000288 0.000000 0.020160 0.000000
# 6 0.000000 0.000000 0.000000 0.000673 0.000000 -0.016933
#
#
# Mechanical properties :
#
#
# Convention : Reuss Voigt Hill
#
# Bulk Modulus (GPa) = 37.26774 79.98511 58.62642
# Shear Modulus (GPa) = 73.93802 38.97279 56.45540
#
# Velocity S-wave (km/s) = 5.41966 3.93476 4.73577
# Velocity P-wave (km/s) = 7.34633 7.24003 7.29337
#
# Compressibility (1/GPa) = 0.02683286
#
# Stress axis : x y z
#
# Youngs Moduli (GPa) = 47.69962 138.27616 227.86092
#
# Poissons Ratio (x) = -0.36760 0.80200
# Poissons Ratio (y) = -0.12681 0.45910
# Poissons Ratio (z) = 0.16789 0.27860
#
# Static dielectric constant tensor:
#      x y z
#    x 1.919490 0.000000 -0.108920 
#    y 0.000000 1.894930 0.000000 
#    z -0.108920 0.000000 1.895560 
# 
# From -- ./inp_files/2157.got.cif
#   From: 2010.05.17/outbox.cif.g08.bks.cpg/sg13_2_cif.got.tgz:2157.got - 2010.06.03 16:44:36.
