data_PCOD9226362
_publ_section_title
;
Structure prediction by ZEFSAII (Michael W. Deem and Ramdas Pophale) SiO2 
 PCOD9226362
Probable space group: P 2/C
;
_chemical_formula_sum "Si O2"
_cell_formula_units_Z 28
_cell_length_a 12.709223
_cell_length_b 20.336386
_cell_length_c 5.342784
_cell_angle_alpha 90.000000
_cell_angle_beta 78.084328
_cell_angle_gamma 90.000000
_cell_volume 1351.139408
_symmetry_space_group_name_H-M "P 2/C"
_symmetry_group_IT_number 13
_symmetry_cell_setting 'monoclinic'
loop_
_space_group_symop_operation_xyz
x,y,z
-x,y,1/2-z
-x,-y,-z
x,-y,1/2+z
loop_
_atom_site_type_symbol
_atom_site_label
_atom_site_fract_x
_atom_site_fract_y
_atom_site_fract_z
Si Si1 0.176567 0.863291 0.768376
Si Si2 0.380984 0.580492 0.399377
Si Si3 0.324804 0.975576 0.700792
Si Si4 0.067555 0.414833 0.471211
Si Si5 0.070888 0.738031 0.966160
Si Si6 0.700578 0.433986 0.060258
Si Si7 0.891825 0.064442 0.695509
O O1 0.291759 0.899609 0.686193
O O2 0.167242 0.786440 0.835115
O O3 0.112063 0.889856 0.552622
O O4 0.129769 0.891160 0.051125
O O5 0.500000 0.595758 0.250000
O O6 0.366115 0.501507 0.441502
O O7 0.351536 0.606590 0.687358
O O8 0.302467 0.599400 0.209947
O O9 0.379037 0.007126 0.434240
O O10 0.208777 0.014958 0.780674
O O11 0.100480 0.338108 0.487335
O O12 0.179891 0.452482 0.413143
O O13 0.000000 0.420791 0.250000
O O14 0.000000 0.432936 0.750000
O O15 0.000000 0.740634 0.750000
O O16 0.000000 0.756811 0.250000
O O17 0.000000 0.029170 0.750000
#
# Coordination Sequence:
#
# PCOD9226362 Si02
#       7
#     4   4   4   4   4   4   4
#     4  10  17  24  33  44  57  79 114 154 203 254
#     4  10  19  33  53  79 101 115 137 171 218 275
#     4   8  16  23  28  40  58  76  97 137 199 263
#     4  10  21  35  46  61  88 122 161 195 215 241
#     4  10  19  29  40  50  65  95 136 180 213 234
#     4  10  18  32  51  71  96 126 147 174 221 257
#     4  10  17  22  29  42  59  76  99 142 204 266
#
# _framework density 20.723251000000001
#
# number of rings (size 3 to 8) (size 9 to 14) (size 15 to 20)
#    0.000    2.286    0.000    5.571    0.000    5.714 
#    0.000   10.000    0.000    0.000    0.000    0.000 
#    0.000    0.000    0.000    0.000    0.000    0.000 
#
# Total GULP energy -155936.606772 kJ/mol
# GULP energy per Si atom -5569.164528 kJ/mol
# Density = 2.067608 g / cm^3
# Si number density = 20.723251 Si / 1000 Ang^3
#
#
#
# Elastic Constant Matrix: (Units=GPa)
#
#
# Indices 1 2 3 4 5 6 
#
# 1 41.0189 0.4198 -0.2305 0.0000 3.0554 0.0000
# 2 0.4198 66.0965 10.1464 0.0000 -1.8474 0.0000
# 3 -0.2305 10.1464 164.6533 0.0000 15.4387 0.0000
# 4 0.0000 0.0000 0.0000 39.2380 0.0000 7.0408
# 5 3.0554 -1.8474 15.4387 0.0000 26.0024 0.0000
# 6 0.0000 0.0000 0.0000 7.0408 0.0000 -3.6412
#
#
#
# Elastic Compliance Matrix: (Units=1/GPa)
#
#
# Indices 1 2 3 4 5 6 
#
# 1 0.024616 -0.000296 0.000345 0.000000 -0.003119 0.000000
# 2 -0.000296 0.015352 -0.001114 0.000000 0.001787 0.000000
# 3 0.000345 -0.001114 0.006517 0.000000 -0.003989 0.000000
# 4 0.000000 0.000000 0.000000 0.018921 0.000000 0.036586
# 5 -0.003119 0.001787 -0.003989 0.000000 0.041320 0.000000
# 6 0.000000 0.000000 0.000000 0.036586 0.000000 -0.203888
#
#
# Mechanical properties :
#
#
# Convention : Reuss Voigt Hill
#
# Bulk Modulus (GPa) = 22.54574 32.49336 27.51955
# Shear Modulus (GPa) = -62.30718 29.74869 -16.27924
#
# Velocity S-wave (km/s) = -5.48922 3.79294 -2.80582
# Velocity P-wave (km/s) = 5.41040 5.90725 1.67678
#
# Compressibility (1/GPa) = 0.04435429
#
# Stress axis : x y z
#
# Youngs Moduli (GPa) = 40.62350 65.13713 153.45636
#
# Poissons Ratio (x) = 0.01931 -0.05296
# Poissons Ratio (y) = 0.01204 0.17095
# Poissons Ratio (z) = -0.01402 0.07256
#
# Static dielectric constant tensor:
#      x y z
#    x 1.797730 0.000000 -0.008010 
#    y 0.000000 1.825070 0.000000 
#    z -0.008010 0.000000 1.868930 
# 
# From -- ./inp_files/3945.got.cif
#   From: 2010.05.17/outbox.cif.g08.bks.cpg/sg13_2_cif.got.tgz:3945.got - 2010.06.03 16:44:36.
