data_PCOD9226915
_publ_section_title
;
Structure prediction by ZEFSAII (Michael W. Deem and Ramdas Pophale) SiO2 
 PCOD9226915
Probable space group: P 2/C
;
_chemical_formula_sum "Si O2"
_cell_formula_units_Z 28
_cell_length_a 8.424147
_cell_length_b 18.593639
_cell_length_c 20.011139
_cell_angle_alpha 90.000000
_cell_angle_beta 27.497527
_cell_angle_gamma 90.000000
_cell_volume 1447.210581
_symmetry_space_group_name_H-M "P 2/C"
_symmetry_group_IT_number 13
_symmetry_cell_setting 'monoclinic'
loop_
_space_group_symop_operation_xyz
x,y,z
-x,y,1/2-z
-x,-y,-z
x,-y,1/2+z
loop_
_atom_site_type_symbol
_atom_site_label
_atom_site_fract_x
_atom_site_fract_y
_atom_site_fract_z
Si Si1 0.718515 0.443010 0.961578
Si Si2 0.514908 0.100715 0.816419
Si Si3 0.355753 0.106430 0.090491
Si Si4 0.194498 0.334247 0.108182
Si Si5 0.673813 0.459314 0.257333
Si Si6 0.376353 0.215848 0.607224
Si Si7 0.143952 0.996776 0.546495
O O1 0.559584 0.368835 0.994806
O O2 0.607754 0.450979 0.079844
O O3 0.500000 0.500000 0.000000
O O4 0.111804 0.467241 0.809073
O O5 0.500000 0.137794 0.750000
O O6 0.598016 0.159196 0.841634
O O7 0.801886 0.039347 0.694585
O O8 0.185359 0.056462 0.967833
O O9 0.000000 0.137047 0.250000
O O10 0.246879 0.053239 0.070955
O O11 0.593209 0.167414 0.970853
O O12 0.564180 0.058641 0.065197
O O13 0.000000 0.313786 0.250000
O O14 0.949935 0.394366 0.165131
O O15 0.305762 0.270495 0.017438
O O16 0.500000 0.458359 0.250000
O O17 0.000000 0.250272 0.750000
#
# Coordination Sequence:
#
# PCOD9226915 Si02
#       7
#     4   4   4   4   4   4   4
#     4   9  18  34  58  87 117 148 191 236 276 328
#     4  11  22  37  54  80 114 141 182 237 292 349
#     4  10  18  31  56  81 101 131 182 236 274 327
#     4   9  20  38  57  80 115 157 193 229 280 342
#     4  10  19  34  60  92 123 150 186 238 288 334
#     4  11  22  36  57  78 104 147 195 234 273 334
#     4  10  19  32  55  80 105 136 176 229 293 335
#
# _framework density 19.347563999999998
#
# number of rings (size 3 to 8) (size 9 to 14) (size 15 to 20)
#    0.000    2.000    2.857    2.571    0.000    2.286 
#    0.000    2.857    0.000    3.429    0.000    0.000 
#    0.000    0.000    0.000    0.000    0.000    0.000 
#
# Total GULP energy -155933.359800 kJ/mol
# GULP energy per Si atom -5569.048564 kJ/mol
# Density = 1.930353 g / cm^3
# Si number density = 19.347564 Si / 1000 Ang^3
#
#
#
# Elastic Constant Matrix: (Units=GPa)
#
#
# Indices 1 2 3 4 5 6 
#
# 1 57.2785 1.0732 8.6020 0.0000 14.7560 0.0000
# 2 1.0732 45.3962 30.0755 0.0000 4.1922 0.0000
# 3 8.6020 30.0755 77.6708 0.0000 4.4924 0.0000
# 4 0.0000 0.0000 0.0000 37.2183 0.0000 -0.3154
# 5 14.7560 4.1922 4.4924 0.0000 26.7945 0.0000
# 6 0.0000 0.0000 0.0000 -0.3154 0.0000 12.8271
#
#
#
# Elastic Compliance Matrix: (Units=1/GPa)
#
#
# Indices 1 2 3 4 5 6 
#
# 1 0.020711 0.002209 -0.002494 0.000000 -0.011334 0.000000
# 2 0.002209 0.030065 -0.011657 0.000000 -0.003966 0.000000
# 3 -0.002494 -0.011657 0.017651 0.000000 0.000238 0.000000
# 4 0.000000 0.000000 0.000000 0.026874 0.000000 0.000661
# 5 -0.011334 -0.003966 0.000238 0.000000 0.044143 0.000000
# 6 0.000000 0.000000 0.000000 0.000661 0.000000 0.077976
#
#
# Mechanical properties :
#
#
# Convention : Reuss Voigt Hill
#
# Bulk Modulus (GPa) = 22.44949 28.87189 25.66069
# Shear Modulus (GPa) = 19.51961 24.74095 22.13028
#
# Velocity S-wave (km/s) = 3.17975 3.57986 3.38572
# Velocity P-wave (km/s) = 5.01094 5.66060 5.34565
#
# Compressibility (1/GPa) = 0.04454444
#
# Stress axis : x y z
#
# Youngs Moduli (GPa) = 48.28256 33.26102 56.65377
#
# Poissons Ratio (x) = -0.07348 0.14128
# Poissons Ratio (y) = -0.10666 0.66042
# Poissons Ratio (z) = 0.12040 0.38772
#
# Static dielectric constant tensor:
#      x y z
#    x 1.690970 0.000000 -0.012860 
#    y 0.000000 1.701590 0.000000 
#    z -0.012860 0.000000 1.715870 
# 
# From -- ./inp_files/76791.got.cif
#   From: 2010.05.17/outbox.cif.g08.bks.cpg/sg13_39_cif.got.tgz:76791.got - 2010.06.03 16:44:36.
