data_PCOD9226827
_publ_section_title
;
Structure prediction by ZEFSAII (Michael W. Deem and Ramdas Pophale) SiO2 
 PCOD9226827
Probable space group: P 2/C
;
_chemical_formula_sum "Si O2"
_cell_formula_units_Z 30
_cell_length_a 16.093811
_cell_length_b 12.325794
_cell_length_c 25.326655
_cell_angle_alpha 90.000000
_cell_angle_beta 15.180308
_cell_angle_gamma 90.000000
_cell_volume 1315.578138
_symmetry_space_group_name_H-M "P 2/C"
_symmetry_group_IT_number 13
_symmetry_cell_setting 'monoclinic'
loop_
_space_group_symop_operation_xyz
x,y,z
-x,y,1/2-z
-x,-y,-z
x,-y,1/2+z
loop_
_atom_site_type_symbol
_atom_site_label
_atom_site_fract_x
_atom_site_fract_y
_atom_site_fract_z
Si Si1 0.138188 0.126547 0.990836
Si Si2 0.991975 0.119161 0.603162
Si Si3 0.500000 0.293240 0.250000
Si Si4 0.431041 0.748610 0.398858
Si Si5 0.459460 0.626469 0.484357
Si Si6 0.653702 0.393683 0.327335
Si Si7 0.920007 0.252907 0.859202
Si Si8 0.986299 0.335019 0.488687
O O1 0.500000 0.122153 0.750000
O O2 0.158529 0.193792 0.032516
O O3 0.965462 0.206583 0.056148
O O4 0.033653 0.004252 0.061137
O O5 0.258803 0.209216 0.425364
O O6 0.014004 0.139105 0.652095
O O7 0.676861 0.159832 0.767898
O O8 0.268546 0.364178 0.355548
O O9 0.330664 0.695655 0.515050
O O10 0.648567 0.669847 0.227046
O O11 0.475883 0.506621 0.449126
O O12 0.296465 0.638622 0.641633
O O13 0.823655 0.665142 0.271754
O O14 0.416900 0.313579 0.440597
O O15 0.953365 0.399218 0.103314
O O16 0.000000 0.235034 0.750000
#
# Coordination Sequence:
#
# PCOD9226827 Si02
#       8
#     4   4   2   4   4   4   4   4
#     4  10  21  34  54  80 114 146 177 221 273 319
#     4  10  18  31  55  77 106 143 183 216 262 319
#     4  10  18  30  54  80 104 130 182 226 254 310
#     4   9  21  36  52  79 118 141 176 226 272 319
#     4   9  20  37  55  82 107 144 178 223 278 321
#     4  10  19  35  61  79 105 141 187 223 267 331
#     4   9  18  34  53  78 109 140 180 228 267 317
#     4  10  21  34  55  84 108 139 182 227 267 315
#
# _framework density 22.803663
#
# number of rings (size 3 to 8) (size 9 to 14) (size 15 to 20)
#    0.000    2.400    2.000    0.000    1.867    3.200 
#    0.000    3.333    4.400    4.800    0.000    0.000 
#    0.000    0.000    0.000    0.000    0.000    0.000 
#
# Total GULP energy -167157.992580 kJ/mol
# GULP energy per Si atom -5571.933086 kJ/mol
# Density = 2.275176 g / cm^3
# Si number density = 22.803663 Si / 1000 Ang^3
#
#
#
# Elastic Constant Matrix: (Units=GPa)
#
#
# Indices 1 2 3 4 5 6 
#
# 1 108.2081 21.2984 22.7300 0.0000 8.0230 0.0000
# 2 21.2984 50.9283 -0.1109 0.0000 11.6078 0.0000
# 3 22.7300 -0.1109 38.1878 0.0000 4.9716 0.0000
# 4 0.0000 0.0000 0.0000 -2.7286 0.0000 9.7655
# 5 8.0230 11.6078 4.9716 0.0000 32.2327 0.0000
# 6 0.0000 0.0000 0.0000 9.7655 0.0000 21.5881
#
#
#
# Elastic Compliance Matrix: (Units=1/GPa)
#
#
# Indices 1 2 3 4 5 6 
#
# 1 0.011667 -0.004877 -0.006948 0.000000 -0.000076 0.000000
# 2 -0.004877 0.023474 0.003994 0.000000 -0.007856 0.000000
# 3 -0.006948 0.003994 0.030917 0.000000 -0.004477 0.000000
# 4 0.000000 0.000000 0.000000 -0.139937 0.000000 0.063301
# 5 -0.000076 -0.007856 -0.004477 0.000000 0.034563 0.000000
# 6 0.000000 0.000000 0.000000 0.063301 0.000000 0.017687
#
#
# Mechanical properties :
#
#
# Convention : Reuss Voigt Hill
#
# Bulk Modulus (GPa) = 19.84353 31.68436 25.76394
# Shear Modulus (GPa) = 461.61356 20.44556 241.02956
#
# Velocity S-wave (km/s) = 14.24321 2.99756 10.29209
# Velocity P-wave (km/s) = 16.70966 5.08970 12.35148
#
# Compressibility (1/GPa) = 0.05039426
#
# Stress axis : x y z
#
# Youngs Moduli (GPa) = 85.71509 42.59999 32.34502
#
# Poissons Ratio (x) = 0.20775 0.22475
# Poissons Ratio (y) = 0.41802 -0.12918
# Poissons Ratio (z) = 0.59558 -0.17013
#
# Static dielectric constant tensor:
#      x y z
#    x 1.987430 0.000000 0.091340 
#    y 0.000000 1.882480 0.000000 
#    z 0.091340 0.000000 1.949630 
# 
# From -- ./inp_files/87545.got.cif
#   From: 2010.05.17/outbox.cif.g08.bks.cpg/sg13_44_cif.got.tgz:87545.got - 2010.06.03 16:44:36.
