data_PCOD9226511
_publ_section_title
;
Structure prediction by ZEFSAII (Michael W. Deem and Ramdas Pophale) SiO2 
 PCOD9226511
Probable space group: P 2/C
;
_chemical_formula_sum "Si O2"
_cell_formula_units_Z 28
_cell_length_a 26.607399
_cell_length_b 7.290484
_cell_length_c 8.753293
_cell_angle_alpha 90.000000
_cell_angle_beta 139.054931
_cell_angle_gamma 90.000000
_cell_volume 1112.740060
_symmetry_space_group_name_H-M "P 2/C"
_symmetry_group_IT_number 13
_symmetry_cell_setting 'monoclinic'
loop_
_space_group_symop_operation_xyz
x,y,z
-x,y,1/2-z
-x,-y,-z
x,-y,1/2+z
loop_
_atom_site_type_symbol
_atom_site_label
_atom_site_fract_x
_atom_site_fract_y
_atom_site_fract_z
Si Si1 0.762742 0.553441 0.202240
Si Si2 0.871762 0.936551 0.779206
Si Si3 0.609512 0.213963 0.046606
Si Si4 0.344121 0.626149 0.308058
Si Si5 0.775838 0.174050 0.335846
Si Si6 0.080440 0.748802 0.904672
Si Si7 0.514746 0.276302 0.535504
O O1 0.710375 0.692803 0.180611
O O2 0.784297 0.391559 0.368466
O O3 0.843073 0.650653 0.354184
O O4 0.707902 0.446560 0.954741
O O5 0.801032 0.869316 0.721112
O O6 0.908185 0.784167 0.751281
O O7 0.836406 0.073490 0.576665
O O8 0.923941 0.059043 0.010196
O O9 0.621269 0.433889 0.056269
O O10 0.691710 0.126916 0.204987
O O11 0.557152 0.187111 0.778914
O O12 0.569478 0.193969 0.120589
O O13 0.419250 0.746666 0.441257
O O14 0.000000 0.649581 0.750000
O O15 0.500000 0.500000 0.500000
#
# Coordination Sequence:
#
# PCOD9226511 Si02
#       7
#     4   4   4   4   4   4   4
#     4  11  21  35  62  91 115 148 196 257 296 333
#     4  10  23  41  63  84 117 167 201 227 292 371
#     4   9  17  29  50  79 115 152 187 240 289 329
#     4  10  17  31  50  83 119 149 188 237 296 352
#     4  10  20  40  61  88 116 157 205 244 287 356
#     4  11  23  41  62  91 121 152 194 243 295 354
#     4   9  16  27  48  80 118 155 184 237 304 341
#
# _framework density 25.16311
#
# number of rings (size 3 to 8) (size 9 to 14) (size 15 to 20)
#    0.000    2.000    2.857    3.000    0.000    0.000 
#    0.000    9.286    0.000    3.429    0.000    0.000 
#    0.000    0.000    0.000    0.000    0.000    0.000 
#
# Total GULP energy -155964.729940 kJ/mol
# GULP energy per Si atom -5570.168926 kJ/mol
# Density = 2.510584 g / cm^3
# Si number density = 25.163110 Si / 1000 Ang^3
#
#
#
# Elastic Constant Matrix: (Units=GPa)
#
#
# Indices 1 2 3 4 5 6 
#
# 1 155.5566 12.1339 59.9406 0.0000 19.6032 0.0000
# 2 12.1339 43.6172 6.1613 0.0000 2.9532 0.0000
# 3 59.9406 6.1613 73.8495 0.0000 10.8105 0.0000
# 4 0.0000 0.0000 0.0000 5.4007 0.0000 0.5853
# 5 19.6032 2.9532 10.8105 0.0000 34.0063 0.0000
# 6 0.0000 0.0000 0.0000 0.5853 0.0000 32.3320
#
#
#
# Elastic Compliance Matrix: (Units=1/GPa)
#
#
# Indices 1 2 3 4 5 6 
#
# 1 0.009773 -0.001466 -0.007346 0.000000 -0.003171 0.000000
# 2 -0.001466 0.023490 -0.000624 0.000000 -0.000996 0.000000
# 3 -0.007346 -0.000624 0.019851 0.000000 -0.002022 0.000000
# 4 0.000000 0.000000 0.000000 0.185527 0.000000 -0.003359
# 5 -0.003171 -0.000996 -0.002022 0.000000 0.031964 0.000000
# 6 0.000000 0.000000 0.000000 -0.003359 0.000000 0.030990
#
#
# Mechanical properties :
#
#
# Convention : Reuss Voigt Hill
#
# Bulk Modulus (GPa) = 29.20325 47.72166 38.46245
# Shear Modulus (GPa) = 15.06561 27.33360 21.19961
#
# Velocity S-wave (km/s) = 2.44953 3.29942 2.90571
# Velocity P-wave (km/s) = 4.43069 5.78973 5.15519
#
# Compressibility (1/GPa) = 0.03424276
#
# Stress axis : x y z
#
# Youngs Moduli (GPa) = 102.32122 42.57081 50.37417
#
# Poissons Ratio (x) = 0.06243 0.37004
# Poissons Ratio (y) = 0.15005 0.03142
# Poissons Ratio (z) = 0.75164 0.02655
#
# Static dielectric constant tensor:
#      x y z
#    x 2.273500 0.000000 -0.027060 
#    y 0.000000 2.063860 0.000000 
#    z -0.027060 0.000000 2.042740 
# 
# From -- ./inp_files/24610.got.cif
#   From: 2010.05.17/outbox.cif.g08.bks.cpg/sg13_13_cif.got.tgz:24610.got - 2010.06.03 16:44:36.
