data_PCOD9226332
_publ_section_title
;
Structure prediction by ZEFSAII (Michael W. Deem and Ramdas Pophale) SiO2 
 PCOD9226332
Probable space group: P 2/C
;
_chemical_formula_sum "Si O2"
_cell_formula_units_Z 32
_cell_length_a 12.404926
_cell_length_b 12.825592
_cell_length_c 16.455448
_cell_angle_alpha 90.000000
_cell_angle_beta 146.248928
_cell_angle_gamma 90.000000
_cell_volume 1454.562671
_symmetry_space_group_name_H-M "P 2/C"
_symmetry_group_IT_number 13
_symmetry_cell_setting 'monoclinic'
loop_
_space_group_symop_operation_xyz
x,y,z
-x,y,1/2-z
-x,-y,-z
x,-y,1/2+z
loop_
_atom_site_type_symbol
_atom_site_label
_atom_site_fract_x
_atom_site_fract_y
_atom_site_fract_z
Si Si1 0.730343 0.296570 0.371154
Si Si2 0.191259 0.392644 0.258084
Si Si3 0.207108 0.490224 0.524099
Si Si4 0.392600 0.572221 0.305957
Si Si5 0.727752 0.059948 0.366296
Si Si6 0.829613 0.047814 0.075915
Si Si7 0.406914 0.239622 0.501669
Si Si8 0.497200 0.083477 0.068489
O O1 0.500000 0.298332 0.250000
O O2 0.764194 0.331855 0.299026
O O3 0.828155 0.386738 0.486089
O O4 0.796048 0.178279 0.425372
O O5 0.313631 0.499688 0.328141
O O6 0.249898 0.320351 0.368989
O O7 0.971061 0.428355 0.123010
O O8 0.403475 0.473947 0.597518
O O9 0.248036 0.443908 0.639775
O O10 0.433245 0.691888 0.352353
O O11 0.500000 0.045285 0.250000
O O12 0.683411 0.061262 0.241741
O O13 0.853511 0.973491 0.493688
O O14 0.693772 0.148984 0.007941
O O15 0.000000 0.055347 0.250000
O O16 0.706892 0.942596 0.018093
O O17 0.492597 0.190962 0.472500
O O18 0.500000 0.000000 0.000000
#
# Coordination Sequence:
#
# PCOD9226332 Si02
#       8
#     4   4   4   4   4   4   4   4
#     4  10  16  34  65  86 119 167 212 260 324 379
#     4  11  21  38  64  95 133 171 219 266 320 396
#     4  10  21  38  61  94 132 167 219 269 310 395
#     4  10  21  40  60  92 133 172 211 265 322 388
#     4   9  18  36  66  87 113 170 216 259 334 387
#     4  10  23  42  61  93 128 158 219 287 321 393
#     4  11  23  40  63  87 131 174 211 264 345 393
#     4   9  19  41  61  86 118 164 214 263 324 398
#
# _framework density 21.999739000000002
#
# number of rings (size 3 to 8) (size 9 to 14) (size 15 to 20)
#    0.000    2.000    3.750    1.875    1.750    0.000 
#   15.750    2.500    0.000    0.000    0.000    0.000 
#    0.000    0.000    0.000    0.000    0.000    0.000 
#
# Total GULP energy -178403.234032 kJ/mol
# GULP energy per Si atom -5575.101064 kJ/mol
# Density = 2.194967 g / cm^3
# Si number density = 21.999739 Si / 1000 Ang^3
#
#
#
# Elastic Constant Matrix: (Units=GPa)
#
#
# Indices 1 2 3 4 5 6 
#
# 1 35.8419 20.6397 10.2692 0.0000 -6.1248 0.0000
# 2 20.6397 126.0113 54.1349 0.0000 -13.6008 0.0000
# 3 10.2692 54.1349 72.5753 0.0000 -5.3772 0.0000
# 4 0.0000 0.0000 0.0000 34.5196 0.0000 -13.7152
# 5 -6.1248 -13.6008 -5.3772 0.0000 28.9434 0.0000
# 6 0.0000 0.0000 0.0000 -13.7152 0.0000 4.8179
#
#
#
# Elastic Compliance Matrix: (Units=1/GPa)
#
#
# Indices 1 2 3 4 5 6 
#
# 1 0.031383 -0.004257 -0.000935 0.000000 0.004467 0.000000
# 2 -0.004257 0.012712 -0.008622 0.000000 0.003471 0.000000
# 3 -0.000935 -0.008622 0.020307 0.000000 -0.000477 0.000000
# 4 0.000000 0.000000 0.000000 -0.221067 0.000000 -0.629312
# 5 0.004467 0.003471 -0.000477 0.000000 0.037038 0.000000
# 6 0.000000 0.000000 0.000000 -0.629312 0.000000 -1.583908
#
#
# Mechanical properties :
#
#
# Convention : Reuss Voigt Hill
#
# Bulk Modulus (GPa) = 27.19272 44.94626 36.06949
# Shear Modulus (GPa) = -3.00544 23.61517 10.30487
#
# Velocity S-wave (km/s) = -1.17008 3.27988 2.16662
# Velocity P-wave (km/s) = 3.24990 5.90069 4.76340
#
# Compressibility (1/GPa) = 0.03677455
#
# Stress axis : x y z
#
# Youngs Moduli (GPa) = 31.86476 78.66671 49.24331
#
# Poissons Ratio (x) = 0.33485 0.04602
# Poissons Ratio (y) = 0.13564 0.42460
# Poissons Ratio (z) = 0.02978 0.67830
#
# Static dielectric constant tensor:
#      x y z
#    x 2.054670 0.000000 -0.067780 
#    y 0.000000 1.833980 0.000000 
#    z -0.067780 0.000000 1.834100 
# 
# From -- ./inp_files/68711.got.cif
#   From: 2010.05.17/outbox.cif.g08.bks.cpg/sg13_35_cif.got.tgz:68711.got - 2010.06.03 16:44:36.
