data_PCOD9226363
_publ_section_title
;
Structure prediction by ZEFSAII (Michael W. Deem and Ramdas Pophale) SiO2 
 PCOD9226363
Probable space group: P 2/C
;
_chemical_formula_sum "Si O2"
_cell_formula_units_Z 28
_cell_length_a 16.573654
_cell_length_b 21.936105
_cell_length_c 5.313370
_cell_angle_alpha 90.000000
_cell_angle_beta 71.290555
_cell_angle_gamma 90.000000
_cell_volume 1829.658368
_symmetry_space_group_name_H-M "P 2/C"
_symmetry_group_IT_number 13
_symmetry_cell_setting 'monoclinic'
loop_
_space_group_symop_operation_xyz
x,y,z
-x,y,1/2-z
-x,-y,-z
x,-y,1/2+z
loop_
_atom_site_type_symbol
_atom_site_label
_atom_site_fract_x
_atom_site_fract_y
_atom_site_fract_z
Si Si1 0.601866 0.734354 0.645059
Si Si2 0.760752 0.978531 0.535064
Si Si3 0.601378 0.656758 0.145553
Si Si4 0.645476 0.129268 0.152995
Si Si5 0.591664 0.064901 0.710205
Si Si6 0.088648 0.539730 0.602300
Si Si7 0.277330 0.458605 0.976493
O O1 0.500000 0.747617 0.750000
O O2 0.620598 0.698710 0.368649
O O3 0.648813 0.798807 0.618697
O O4 0.620494 0.692630 0.868443
O O5 0.733990 0.908334 0.552045
O O6 0.805957 0.002222 0.243176
O O7 0.670352 0.017452 0.634804
O O8 0.500000 0.644041 0.250000
O O9 0.654189 0.594732 0.104979
O O10 0.607215 0.110599 0.461502
O O11 0.593319 0.101478 0.969584
O O12 0.500000 0.035318 0.750000
O O13 0.086822 0.513833 0.318962
O O14 0.181103 0.568522 0.554198
O O15 0.000000 0.574088 0.750000
O O16 0.285687 0.504082 0.729275
#
# Coordination Sequence:
#
# PCOD9226363 Si02
#       7
#     4   4   4   4   4   4   4
#     4  10  19  30  41  51  68  95 126 162 197 225
#     4   8  16  24  31  45  63  79 100 137 183 227
#     4  10  21  33  42  56  76  97 128 166 194 218
#     4  10  18  26  36  47  60  84 114 142 185 234
#     4  10  17  23  32  47  64  79 102 141 186 230
#     4   8  14  25  42  65  88 103 116 137 170 219
#     4  10  19  31  48  65  80 101 124 149 190 233
#
# _framework density 15.303402999999999
#
# number of rings (size 3 to 8) (size 9 to 14) (size 15 to 20)
#    0.000    2.571    0.000    3.000    0.000    7.429 
#    0.000    0.000    0.000    0.000    0.000    0.000 
#    0.000    0.000    0.000    0.000    0.000    0.000 
#
# Total GULP energy -155909.977489 kJ/mol
# GULP energy per Si atom -5568.213482 kJ/mol
# Density = 1.526857 g / cm^3
# Si number density = 15.303403 Si / 1000 Ang^3
#
#
#
# Elastic Constant Matrix: (Units=GPa)
#
#
# Indices 1 2 3 4 5 6 
#
# 1 37.4829 34.3881 26.5050 0.0000 4.6033 0.0000
# 2 34.3881 79.1654 26.5776 0.0000 -1.0958 0.0000
# 3 26.5050 26.5776 93.9598 0.0000 28.5205 0.0000
# 4 0.0000 0.0000 0.0000 15.7155 0.0000 6.4540
# 5 4.6033 -1.0958 28.5205 0.0000 21.0975 0.0000
# 6 0.0000 0.0000 0.0000 6.4540 0.0000 1.9780
#
#
#
# Elastic Compliance Matrix: (Units=1/GPa)
#
#
# Indices 1 2 3 4 5 6 
#
# 1 0.050217 -0.018846 -0.008839 0.000000 0.000013 0.000000
# 2 -0.018846 0.022481 -0.004486 0.000000 0.011345 0.000000
# 3 -0.008839 -0.004486 0.023557 0.000000 -0.030150 0.000000
# 4 0.000000 0.000000 0.000000 -0.187157 0.000000 0.610665
# 5 0.000013 0.011345 -0.030150 0.000000 0.088743 0.000000
# 6 0.000000 0.000000 0.000000 0.610665 0.000000 -1.486958
#
#
# Mechanical properties :
#
#
# Convention : Reuss Voigt Hill
#
# Bulk Modulus (GPa) = 31.33514 42.83882 37.08698
# Shear Modulus (GPa) = -3.53573 15.96737 6.21582
#
# Velocity S-wave (km/s) = -1.52166 3.23365 2.01756
# Velocity P-wave (km/s) = 4.17530 6.48042 5.45110
#
# Compressibility (1/GPa) = 0.03191306
#
# Stress axis : x y z
#
# Youngs Moduli (GPa) = 19.91347 44.48132 42.45058
#
# Poissons Ratio (x) = 0.83829 0.37521
# Poissons Ratio (y) = 0.37529 0.19045
# Poissons Ratio (z) = 0.17601 0.19956
#
# Static dielectric constant tensor:
#      x y z
#    x 1.520680 0.000000 0.020930 
#    y 0.000000 1.488790 0.000000 
#    z 0.020930 0.000000 1.571820 
# 
# From -- ./inp_files/5257.got.cif
#   From: 2010.05.17/outbox.cif.g08.bks.cpg/sg13_3_cif.got.tgz:5257.got - 2010.06.03 16:44:36.
