data_PCOD9226081
_publ_section_title
;
Structure prediction by ZEFSAII (Michael W. Deem and Ramdas Pophale) SiO2 
 PCOD9226081
Probable space group: P 2/C
;
_chemical_formula_sum "Si O2"
_cell_formula_units_Z 28
_cell_length_a 14.961096
_cell_length_b 27.166898
_cell_length_c 5.469003
_cell_angle_alpha 90.000000
_cell_angle_beta 111.441324
_cell_angle_gamma 90.000000
_cell_volume 2069.018894
_symmetry_space_group_name_H-M "P 2/C"
_symmetry_group_IT_number 13
_symmetry_cell_setting 'monoclinic'
loop_
_space_group_symop_operation_xyz
x,y,z
-x,y,1/2-z
-x,-y,-z
x,-y,1/2+z
loop_
_atom_site_type_symbol
_atom_site_label
_atom_site_fract_x
_atom_site_fract_y
_atom_site_fract_z
Si Si1 0.116887 0.259755 0.116887
Si Si2 0.540040 0.943462 0.040040
Si Si3 0.061920 0.366975 0.061920
Si Si4 0.897947 0.780645 0.397947
Si Si5 0.889076 0.520498 0.889076
Si Si6 0.238288 0.031560 0.738288
Si Si7 0.058330 0.896766 0.058330
O O1 0.127091 0.318373 0.127092
O O2 0.153028 0.235692 0.403564
O O3 0.153028 0.235692 0.902492
O O4 0.001828 0.247030 0.001828
O O5 0.500000 0.920742 0.250000
O O6 0.654560 0.946210 0.154560
O O7 0.500000 0.920742 0.750000
O O8 0.500000 0.000000 0.000000
O O9 0.109147 0.420673 0.109146
O O10 0.000000 0.364322 0.250000
O O11 0.000000 0.364322 0.750000
O O12 0.919388 0.838473 0.419388
O O13 0.845417 0.500000 0.595417
O O14 0.000000 0.500000 0.000000
O O15 0.155607 0.072219 0.655607
O O16 0.229275 1.000000 0.479275
O O17 0.000000 0.907785 0.250000
O O18 0.000000 0.907785 0.750000
#
# Coordination Sequence:
#
# PCOD9226081 Si02
#       7
#     4   4   4   4   4   4   4
#     4  10  16  25  41  50  60  80 125 157 178 208
#     4  10  16  32  56  69  84 102 121 160 199 216
#     4  12  16  20  31  47  54  71 107 146 168 208
#     4  10  16  29  41  51  65  92 121 145 187 208
#     4  10  16  22  26  35  58  81  92 118 176 234
#     4  12  23  35  50  71  84 105 139 154 181 234
#     4  12  23  35  47  59  86 117 132 154 185 230
#
# _framework density 13.532983
#
# number of rings (size 3 to 8) (size 9 to 14) (size 15 to 20)
#    0.000    1.143   11.429    0.857    0.000    1.714 
#    0.000    0.000    0.000    0.000    0.000    0.000 
#    0.000    0.000    0.000    0.000    0.000    0.000 
#
# Total GULP energy -155909.568671 kJ/mol
# GULP energy per Si atom -5568.198881 kJ/mol
# Density = 1.350218 g / cm^3
# Si number density = 13.532983 Si / 1000 Ang^3
#
#
#
# Elastic Constant Matrix: (Units=GPa)
#
#
# Indices 1 2 3 4 5 6 
#
# 1 52.1511 41.5827 40.0081 0.0000 -2.7733 0.0000
# 2 41.5827 63.3172 33.5661 0.0000 2.9604 0.0000
# 3 40.0081 33.5661 143.4495 0.0000 -30.9419 0.0000
# 4 0.0000 0.0000 0.0000 12.2850 0.0000 -4.2537
# 5 -2.7733 2.9604 -30.9419 0.0000 20.2287 0.0000
# 6 0.0000 0.0000 0.0000 -4.2537 0.0000 0.7664
#
#
#
# Elastic Compliance Matrix: (Units=1/GPa)
#
#
# Indices 1 2 3 4 5 6 
#
# 1 0.044896 -0.026132 -0.006349 0.000000 0.000268 0.000000
# 2 -0.026132 0.036136 -0.004598 0.000000 -0.015904 0.000000
# 3 -0.006349 -0.004598 0.014588 0.000000 0.022117 0.000000
# 4 0.000000 0.000000 0.000000 -0.088303 0.000000 -0.490119
# 5 0.000268 -0.015904 0.022117 0.000000 0.085629 0.000000
# 6 0.000000 0.000000 0.000000 -0.490119 0.000000 -1.415513
#
#
# Mechanical properties :
#
#
# Convention : Reuss Voigt Hill
#
# Bulk Modulus (GPa) = 46.59153 54.35907 50.47530
# Shear Modulus (GPa) = -4.02818 16.24007 6.10594
#
# Velocity S-wave (km/s) = -1.72714 3.46791 2.12643
# Velocity P-wave (km/s) = 5.52499 7.50268 6.58847
#
# Compressibility (1/GPa) = 0.02146313
#
# Stress axis : x y z
#
# Youngs Moduli (GPa) = 22.27357 27.67305 68.54760
#
# Poissons Ratio (x) = 0.72314 0.43523
# Poissons Ratio (y) = 0.58204 0.31518
# Poissons Ratio (z) = 0.14142 0.12724
#
# Static dielectric constant tensor:
#      x y z
#    x 1.408430 0.000000 -0.047190 
#    y 0.000000 1.404420 0.000000 
#    z -0.047190 0.000000 1.536220 
# 
# From -- ./inp_files/4294.got.cif
#   From: 2010.05.17/outbox.cif.g08.bks.cpg/sg13_3_cif.got.tgz:4294.got - 2010.06.03 16:44:36.
