data_PCOD9226372
_publ_section_title
;
Structure prediction by ZEFSAII (Michael W. Deem and Ramdas Pophale) SiO2 
 PCOD9226372
Probable space group: P 2/C
;
_chemical_formula_sum "Si O2"
_cell_formula_units_Z 32
_cell_length_a 6.998894
_cell_length_b 34.222255
_cell_length_c 5.464429
_cell_angle_alpha 90.000000
_cell_angle_beta 102.063587
_cell_angle_gamma 90.000000
_cell_volume 1279.924914
_symmetry_space_group_name_H-M "P 2/C"
_symmetry_group_IT_number 13
_symmetry_cell_setting 'monoclinic'
loop_
_space_group_symop_operation_xyz
x,y,z
-x,y,1/2-z
-x,-y,-z
x,-y,1/2+z
loop_
_atom_site_type_symbol
_atom_site_label
_atom_site_fract_x
_atom_site_fract_y
_atom_site_fract_z
Si Si1 0.736809 0.220845 0.812721
Si Si2 0.738222 0.736473 0.813375
Si Si3 0.736152 0.396144 0.812005
Si Si4 0.261479 0.646100 0.686937
Si Si5 0.772059 0.896721 0.730550
Si Si6 0.218198 0.868890 0.266914
Si Si7 0.225315 0.985487 0.589053
Si Si8 0.780085 0.513494 0.235266
O O1 0.500000 0.221003 0.750000
O O2 0.798815 0.241632 0.577541
O O3 0.797537 0.175810 0.821269
O O4 0.798599 0.242684 0.077210
O O5 0.500000 0.736824 0.750000
O O6 0.798376 0.691295 0.835200
O O7 0.500000 0.394511 0.750000
O O8 0.800348 0.375837 0.576896
O O9 0.788908 0.441588 0.817481
O O10 0.799774 0.374716 0.077483
O O11 0.500000 0.645644 0.750000
O O12 0.687856 0.891025 0.437183
O O13 0.761659 0.941168 0.816705
O O14 0.000000 0.885906 0.750000
O O15 0.694389 0.871421 0.937250
O O16 0.000000 0.886060 0.250000
O O17 0.307505 0.989865 0.338571
O O18 0.000000 0.000000 0.500000
O O19 0.690710 0.490368 0.440418
O O20 0.000000 0.497948 0.250000
#
# Coordination Sequence:
#
# PCOD9226372 Si02
#       8
#     4   4   4   4   4   4   4   4
#     4  10  19  33  52  73  94 126 170 203 230 274
#     4   9  17  30  52  75  97 124 161 205 239 283
#     4  10  19  31  51  76 102 126 155 201 250 298
#     4   9  17  30  49  77 103 124 153 197 256 296
#     4  10  18  29  43  65  96 131 152 184 239 296
#     4  10  21  32  47  67  99 132 153 191 241 291
#     4  10  17  24  41  63  92 125 149 192 236 277
#     4  10  21  36  52  70  96 135 174 204 238 286
#
# _framework density 25.001467999999999
#
# number of rings (size 3 to 8) (size 9 to 14) (size 15 to 20)
#    0.000    2.250    1.250    3.000    3.500    3.500 
#    0.000    0.000    0.000    4.500    0.000    0.000 
#    0.000   10.000    0.000    0.000    0.000    0.000 
#
# Total GULP energy -179096.379651 kJ/mol
# GULP energy per Si atom -5596.761864 kJ/mol
# Density = 2.494456 g / cm^3
# Si number density = 25.001468 Si / 1000 Ang^3
#
#
#
# Elastic Constant Matrix: (Units=GPa)
#
#
# Indices 1 2 3 4 5 6 
#
# 1 91.1542 -18.8388 34.2759 0.0000 -8.8065 0.0000
# 2 -18.8388 169.5094 98.6266 0.0000 -15.5548 0.0000
# 3 34.2759 98.6266 270.0666 0.0000 -27.7616 0.0000
# 4 0.0000 0.0000 0.0000 57.2533 0.0000 -4.7892
# 5 -8.8065 -15.5548 -27.7616 0.0000 47.4460 0.0000
# 6 0.0000 0.0000 0.0000 -4.7892 0.0000 79.2778
#
#
#
# Elastic Compliance Matrix: (Units=1/GPa)
#
#
# Indices 1 2 3 4 5 6 
#
# 1 0.012744 0.003070 -0.002545 0.000000 0.001883 0.000000
# 2 0.003070 0.008268 -0.003268 0.000000 0.001368 0.000000
# 3 -0.002545 -0.003268 0.005385 0.000000 0.001607 0.000000
# 4 0.000000 0.000000 0.000000 0.017555 0.000000 0.001061
# 5 0.001883 0.001368 0.001607 0.000000 0.022815 0.000000
# 6 0.000000 0.000000 0.000000 0.001061 0.000000 0.012678
#
#
# Mechanical properties :
#
#
# Convention : Reuss Voigt Hill
#
# Bulk Modulus (GPa) = 47.82629 84.31751 66.07190
# Shear Modulus (GPa) = 54.40703 64.57320 59.49012
#
# Velocity S-wave (km/s) = 4.66999 5.08762 4.88327
# Velocity P-wave (km/s) = 6.94617 8.26499 7.63411
#
# Compressibility (1/GPa) = 0.02090900
#
# Stress axis : x y z
#
# Youngs Moduli (GPa) = 78.47032 120.95287 185.71809
#
# Poissons Ratio (x) = -0.37130 0.47264
# Poissons Ratio (y) = -0.24089 0.60698
# Poissons Ratio (z) = 0.19970 0.39531
#
# Static dielectric constant tensor:
#      x y z
#    x 1.996490 0.000000 0.028370 
#    y 0.000000 1.870890 0.000000 
#    z 0.028370 0.000000 1.976800 
# 
# From -- ./inp_files/2722.got.cif
#   From: 2010.05.17/outbox.cif.g08.bks.cpg/sg13_2_cif.got.tgz:2722.got - 2010.06.03 16:44:36.
