data_PCOD9226656
_publ_section_title
;
Structure prediction by ZEFSAII (Michael W. Deem and Ramdas Pophale) SiO2 
 PCOD9226656
Probable space group: P 2/C
;
_chemical_formula_sum "Si O2"
_cell_formula_units_Z 28
_cell_length_a 12.774596
_cell_length_b 12.735749
_cell_length_c 9.180899
_cell_angle_alpha 90.000000
_cell_angle_beta 111.365799
_cell_angle_gamma 90.000000
_cell_volume 1391.022318
_symmetry_space_group_name_H-M "P 2/C"
_symmetry_group_IT_number 13
_symmetry_cell_setting 'monoclinic'
loop_
_space_group_symop_operation_xyz
x,y,z
-x,y,1/2-z
-x,-y,-z
x,-y,1/2+z
loop_
_atom_site_type_symbol
_atom_site_label
_atom_site_fract_x
_atom_site_fract_y
_atom_site_fract_z
Si Si1 0.579729 0.951192 0.416724
Si Si2 0.421958 0.246440 0.427995
Si Si3 0.757159 0.442559 0.693057
Si Si4 0.059934 0.407476 0.125704
Si Si5 0.105701 0.264885 0.886085
Si Si6 0.611407 0.447451 0.890103
Si Si7 0.656950 0.178788 0.420047
O O1 0.500000 0.909682 0.250000
O O2 0.636594 0.849100 0.513143
O O3 0.500000 0.000000 0.500000
O O4 0.644341 0.053209 0.390015
O O5 0.415539 0.353858 0.512197
O O6 0.553479 0.216105 0.469765
O O7 0.365506 0.241486 0.240866
O O8 0.816701 0.550449 0.770435
O O9 0.855087 0.366372 0.688015
O O10 0.692514 0.405374 0.803535
O O11 0.673204 0.464240 0.516895
O O12 0.000000 0.390120 0.250000
O O13 0.068797 0.307760 0.025199
O O14 0.000000 0.500000 0.000000
O O15 0.000000 0.215182 0.750000
O O16 0.220186 0.200228 0.956717
O O17 0.500000 0.485767 0.750000
#
# Coordination Sequence:
#
# PCOD9226656 Si02
#       7
#     4   4   4   4   4   4   4
#     4  10  17  36  66  96 120 157 199 245 308 367
#     4  10  21  40  66  96 128 163 205 250 311 389
#     4  12  23  40  59  84 121 168 209 260 307 362
#     4  12  20  39  63  81 109 154 223 272 296 353
#     4  12  24  40  63  88 121 167 214 259 313 363
#     4  12  25  39  55  90 129 168 205 249 318 380
#     4  10  21  39  64  96 129 159 201 265 315 367
#
# _framework density 20.129079999999998
#
# number of rings (size 3 to 8) (size 9 to 14) (size 15 to 20)
#    0.000    0.857    7.143    2.571    0.000    1.143 
#    0.000    0.000    0.000    0.857    0.000    0.000 
#    0.000    0.000    0.000    0.000    0.000    0.000 
#
# Total GULP energy -156422.778491 kJ/mol
# GULP energy per Si atom -5586.527803 kJ/mol
# Density = 2.008327 g / cm^3
# Si number density = 20.129080 Si / 1000 Ang^3
#
#
#
# Elastic Constant Matrix: (Units=GPa)
#
#
# Indices 1 2 3 4 5 6 
#
# 1 86.0145 11.1527 46.8954 0.0000 -0.4355 0.0000
# 2 11.1527 28.4006 13.9438 0.0000 5.4366 0.0000
# 3 46.8954 13.9438 116.1236 0.0000 7.9897 0.0000
# 4 0.0000 0.0000 0.0000 22.7031 0.0000 -8.3957
# 5 -0.4355 5.4366 7.9897 0.0000 49.6428 0.0000
# 6 0.0000 0.0000 0.0000 -8.3957 0.0000 13.6806
#
#
#
# Elastic Compliance Matrix: (Units=1/GPa)
#
#
# Indices 1 2 3 4 5 6 
#
# 1 0.015267 -0.003397 -0.005857 0.000000 0.001449 0.000000
# 2 -0.003397 0.038753 -0.003021 0.000000 -0.003788 0.000000
# 3 -0.005857 -0.003021 0.011447 0.000000 -0.001563 0.000000
# 4 0.000000 0.000000 0.000000 0.056978 0.000000 0.034967
# 5 0.001449 -0.003788 -0.001563 0.000000 0.020823 0.000000
# 6 0.000000 0.000000 0.000000 0.034967 0.000000 0.094555
#
#
# Mechanical properties :
#
#
# Convention : Reuss Voigt Hill
#
# Bulk Modulus (GPa) = 24.43977 41.61360 33.02669
# Shear Modulus (GPa) = 18.11514 27.77506 22.94510
#
# Velocity S-wave (km/s) = 3.00317 3.71866 3.37990
# Velocity P-wave (km/s) = 4.91866 6.25749 5.62803
#
# Compressibility (1/GPa) = 0.04091691
#
# Stress axis : x y z
#
# Youngs Moduli (GPa) = 65.50017 25.80468 87.35761
#
# Poissons Ratio (x) = 0.08765 0.51168
# Poissons Ratio (y) = 0.22249 0.26390
# Poissons Ratio (z) = 0.38365 0.07795
#
# Static dielectric constant tensor:
#      x y z
#    x 1.714990 0.000000 0.056450 
#    y 0.000000 1.732300 0.000000 
#    z 0.056450 0.000000 1.605270 
# 
# From -- ./inp_files/16858.got.cif
#   From: 2010.05.17/outbox.cif.g08.bks.cpg/sg13_9_cif.got.tgz:16858.got - 2010.06.03 16:44:36.
