data_PCOD9226748
_publ_section_title
;
Structure prediction by ZEFSAII (Michael W. Deem and Ramdas Pophale) SiO2 
 PCOD9226748
Probable space group: P 2/C
;
_chemical_formula_sum "Si O2"
_cell_formula_units_Z 28
_cell_length_a 36.176520
_cell_length_b 6.573822
_cell_length_c 5.179409
_cell_angle_alpha 90.000000
_cell_angle_beta 97.389421
_cell_angle_gamma 90.000000
_cell_volume 1221.526875
_symmetry_space_group_name_H-M "P 2/C"
_symmetry_group_IT_number 13
_symmetry_cell_setting 'monoclinic'
loop_
_space_group_symop_operation_xyz
x,y,z
-x,y,1/2-z
-x,-y,-z
x,-y,1/2+z
loop_
_atom_site_type_symbol
_atom_site_label
_atom_site_fract_x
_atom_site_fract_y
_atom_site_fract_z
Si Si1 0.000000 0.356030 0.250000
Si Si2 0.578663 0.632140 0.905918
Si Si3 0.654249 0.133750 0.358474
Si Si4 0.265962 0.144652 0.014089
Si Si5 0.500000 0.354327 0.250000
Si Si6 0.109537 0.294499 0.973815
Si Si7 0.814055 0.856819 0.119530
Si Si8 0.079561 0.751423 0.948916
O O1 0.038170 0.231849 0.302901
O O2 0.000000 0.500000 0.500000
O O3 0.578036 0.445052 0.700365
O O4 0.616793 0.745925 0.882119
O O5 0.540196 0.753343 0.807192
O O6 0.693520 0.250057 0.447029
O O7 0.654202 0.948883 0.565934
O O8 0.265570 0.013127 0.275491
O O9 0.226069 0.253419 0.952117
O O10 0.500000 0.500000 0.500000
O O11 0.109348 0.194635 0.255629
O O12 0.150736 0.289056 0.893931
O O13 0.090854 0.512783 0.003869
O O14 0.083265 0.178473 0.746288
O O15 0.815678 0.970094 0.396591
#
# Coordination Sequence:
#
# PCOD9226748 Si02
#       8
#     2   4   4   4   2   4   4   4
#     4  12  16  30  48  74  92 112 158 190 218 284
#     4  10  19  33  53  74 103 138 175 217 257 320
#     4  10  19  33  53  77 102 133 173 221 267 303
#     4   8  16  30  49  69  91 121 164 202 232 279
#     4   8  16  30  48  70  96 138 178 202 252 318
#     4  10  18  30  46  68  98 115 147 189 229 272
#     4  10  19  32  50  71  91 126 165 192 221 275
#     4  10  19  30  48  74  92 119 144 188 243 270
#
# _framework density 22.922129999999999
#
# number of rings (size 3 to 8) (size 9 to 14) (size 15 to 20)
#    0.000    2.286    2.857    1.714    0.000    0.000 
#    0.000    0.714    6.286    0.000    0.000   17.000 
#    0.000    0.000    0.000    0.000    0.000    0.000 
#
# Total GULP energy -156033.429429 kJ/mol
# GULP energy per Si atom -5572.622480 kJ/mol
# Density = 2.286996 g / cm^3
# Si number density = 22.922130 Si / 1000 Ang^3
#
#
#
# Elastic Constant Matrix: (Units=GPa)
#
#
# Indices 1 2 3 4 5 6 
#
# 1 177.2387 -2.8191 4.6366 0.0000 47.3673 0.0000
# 2 -2.8191 27.6370 -18.6974 0.0000 10.4657 0.0000
# 3 4.6366 -18.6974 138.0686 0.0000 -15.2802 0.0000
# 4 0.0000 0.0000 0.0000 -22.4493 0.0000 14.8382
# 5 47.3673 10.4657 -15.2802 0.0000 56.7657 0.0000
# 6 0.0000 0.0000 0.0000 14.8382 0.0000 28.0154
#
#
#
# Elastic Compliance Matrix: (Units=1/GPa)
#
#
# Indices 1 2 3 4 5 6 
#
# 1 0.007594 0.003025 -0.000627 0.000000 -0.007064 0.000000
# 2 0.003025 0.043178 0.004726 0.000000 -0.009213 0.000000
# 3 -0.000627 0.004726 0.008107 0.000000 0.001834 0.000000
# 4 0.000000 0.000000 0.000000 -0.032994 0.000000 0.017475
# 5 -0.007064 -0.009213 0.001834 0.000000 0.025703 0.000000
# 6 0.000000 0.000000 0.000000 0.017475 0.000000 0.026439
#
#
# Mechanical properties :
#
#
# Convention : Reuss Voigt Hill
#
# Bulk Modulus (GPa) = 13.67472 34.35385 24.01429
# Shear Modulus (GPa) = 56.71896 36.45466 46.58681
#
# Velocity S-wave (km/s) = 4.97975 3.99227 4.51310
# Velocity P-wave (km/s) = 6.24840 6.02252 6.13650
#
# Compressibility (1/GPa) = 0.07312765
#
# Stress axis : x y z
#
# Youngs Moduli (GPa) = 131.67631 23.15993 123.35294
#
# Poissons Ratio (x) = -0.07007 0.07735
# Poissons Ratio (y) = -0.39836 -0.58297
# Poissons Ratio (z) = 0.08257 -0.10945
#
# Static dielectric constant tensor:
#      x y z
#    x 1.931640 0.000000 0.012530 
#    y 0.000000 1.364620 0.000000 
#    z 0.012530 0.000000 1.902550 
# 
# From -- ./inp_files/8066.got.cif
#   From: 2010.05.17/outbox.cif.g08.bks.cpg/sg13_5_cif.got.tgz:8066.got - 2010.06.03 16:44:36.
