data_PCOD9226237
_publ_section_title
;
Structure prediction by ZEFSAII (Michael W. Deem and Ramdas Pophale) SiO2 
 PCOD9226237
Probable space group: P 2/C
;
_chemical_formula_sum "Si O2"
_cell_formula_units_Z 32
_cell_length_a 27.978101
_cell_length_b 7.502886
_cell_length_c 19.742861
_cell_angle_alpha 90.000000
_cell_angle_beta 160.734249
_cell_angle_gamma 90.000000
_cell_volume 1367.429752
_symmetry_space_group_name_H-M "P 2/C"
_symmetry_group_IT_number 13
_symmetry_cell_setting 'monoclinic'
loop_
_space_group_symop_operation_xyz
x,y,z
-x,y,1/2-z
-x,-y,-z
x,-y,1/2+z
loop_
_atom_site_type_symbol
_atom_site_label
_atom_site_fract_x
_atom_site_fract_y
_atom_site_fract_z
Si Si1 0.473511 0.764612 0.469183
Si Si2 0.159240 0.305561 0.714994
Si Si3 0.686901 0.495262 0.912655
Si Si4 0.013295 0.559863 0.623939
Si Si5 0.849419 0.335813 0.509177
Si Si6 0.395985 0.445442 0.465977
Si Si7 0.660481 0.883514 0.943329
Si Si8 0.309609 0.997833 0.666513
O O1 0.433287 0.605682 0.464806
O O2 0.599585 0.715265 0.582770
O O3 0.535668 0.909287 0.605231
O O4 0.333101 0.817773 0.236718
O O5 0.056984 0.395354 0.633889
O O6 0.058333 0.280980 0.514285
O O7 0.269633 0.467281 0.841741
O O8 0.238045 0.136362 0.854375
O O9 0.532349 0.402556 0.697676
O O10 0.657986 0.675130 0.916899
O O11 0.832789 0.398733 0.134129
O O12 0.731294 0.572721 0.898956
O O13 0.887892 0.468174 0.500367
O O14 0.805948 0.128175 0.450723
O O15 0.000000 0.336283 0.750000
O O16 0.500000 0.940921 0.750000
O O17 0.709245 0.985549 0.939770
#
# Coordination Sequence:
#
# PCOD9226237 Si02
#       8
#     4   4   4   4   4   4   4   4
#     4  10  21  32  56  84 113 139 190 249 310 335
#     4  10  19  30  52  85 113 151 192 237 293 353
#     4   9  17  30  52  83 108 146 190 245 294 345
#     4   9  19  30  48  84 118 149 191 241 285 355
#     4   9  16  31  54  78 112 154 198 237 291 352
#     4  11  19  34  58  87 114 146 189 254 303 351
#     4  10  16  30  53  78 106 144 190 230 284 355
#     4  10  19  35  53  83 111 148 191 245 289 362
#
# _framework density 23.401568000000001
#
# number of rings (size 3 to 8) (size 9 to 14) (size 15 to 20)
#    0.000    2.250    3.750    1.500    1.750    0.000 
#    0.000    0.000    8.250    0.750    3.250    0.000 
#    0.000    0.000    0.000    0.000    0.000    0.000 
#
# Total GULP energy -178166.221850 kJ/mol
# GULP energy per Si atom -5567.694433 kJ/mol
# Density = 2.334830 g / cm^3
# Si number density = 23.401568 Si / 1000 Ang^3
#
#
#
# Elastic Constant Matrix: (Units=GPa)
#
#
# Indices 1 2 3 4 5 6 
#
# 1 80.8730 4.5077 26.9031 0.0000 -7.8803 0.0000
# 2 4.5077 38.7629 14.9299 0.0000 -11.7923 0.0000
# 3 26.9031 14.9299 109.0603 0.0000 -14.7924 0.0000
# 4 0.0000 0.0000 0.0000 20.5801 0.0000 -6.5613
# 5 -7.8803 -11.7923 -14.7924 0.0000 30.3392 0.0000
# 6 0.0000 0.0000 0.0000 -6.5613 0.0000 15.5821
#
#
#
# Elastic Compliance Matrix: (Units=1/GPa)
#
#
# Indices 1 2 3 4 5 6 
#
# 1 0.013588 0.000258 -0.003100 0.000000 0.002118 0.000000
# 2 0.000258 0.029988 -0.002762 0.000000 0.010376 0.000000
# 3 -0.003100 -0.002762 0.010769 0.000000 0.003372 0.000000
# 4 0.000000 0.000000 0.000000 0.056125 0.000000 0.023633
# 5 0.002118 0.010376 0.003372 0.000000 0.039188 0.000000
# 6 0.000000 0.000000 0.000000 0.023633 0.000000 0.074127
#
#
# Mechanical properties :
#
#
# Convention : Reuss Voigt Hill
#
# Bulk Modulus (GPa) = 23.18073 35.70861 29.44467
# Shear Modulus (GPa) = 20.05030 25.45732 22.75381
#
# Velocity S-wave (km/s) = 2.93028 3.30183 3.12159
# Velocity P-wave (km/s) = 4.62340 5.46153 5.05985
#
# Compressibility (1/GPa) = 0.04313928
#
# Stress axis : x y z
#
# Youngs Moduli (GPa) = 73.59254 33.34652 92.85574
#
# Poissons Ratio (x) = -0.00861 0.28785
# Poissons Ratio (y) = -0.01901 0.25642
# Poissons Ratio (z) = 0.22814 0.09209
#
# Static dielectric constant tensor:
#      x y z
#    x 2.042230 0.000000 -0.065100 
#    y 0.000000 2.003060 0.000000 
#    z -0.065100 0.000000 2.012230 
# 
# From -- ./inp_files/82790.got.cif
#   From: 2010.05.17/outbox.cif.g08.bks.cpg/sg13_42_cif.got.tgz:82790.got - 2010.06.03 16:44:36.
