data_PCOD9226011
_publ_section_title
;
Structure prediction by ZEFSAII (Michael W. Deem and Ramdas Pophale) SiO2 
 PCOD9226011
Probable space group: P 2/C
;
_chemical_formula_sum "Si O2"
_cell_formula_units_Z 32
_cell_length_a 34.235939
_cell_length_b 9.292728
_cell_length_c 5.440012
_cell_angle_alpha 90.000000
_cell_angle_beta 108.431778
_cell_angle_gamma 90.000000
_cell_volume 1641.929828
_symmetry_space_group_name_H-M "P 2/C"
_symmetry_group_IT_number 13
_symmetry_cell_setting 'monoclinic'
loop_
_space_group_symop_operation_xyz
x,y,z
-x,y,1/2-z
-x,-y,-z
x,-y,1/2+z
loop_
_atom_site_type_symbol
_atom_site_label
_atom_site_fract_x
_atom_site_fract_y
_atom_site_fract_z
Si Si1 0.689579 0.501510 0.274300
Si Si2 0.625571 0.767467 0.109620
Si Si3 0.452633 0.409099 0.170984
Si Si4 0.253565 0.850551 0.816147
Si Si5 0.866882 0.904798 0.471030
Si Si6 0.956534 0.907278 0.712790
Si Si7 0.778440 0.822402 0.246613
Si Si8 0.344566 0.182359 0.331025
O O1 0.714133 0.500943 0.573057
O O2 0.657305 0.632920 0.204213
O O3 0.663145 0.354555 0.217646
O O4 0.624341 0.832735 0.380048
O O5 0.581626 0.711014 0.935412
O O6 0.643238 0.861988 0.920054
O O7 0.500000 0.358925 0.250000
O O8 0.446805 0.483475 0.425764
O O9 0.234082 0.767572 0.546360
O O10 0.300643 0.875866 0.834544
O O11 0.231008 0.004857 0.795579
O O12 0.248663 0.778201 0.072523
O O13 0.912141 0.834466 0.584468
O O14 0.826495 0.806480 0.398903
O O15 0.864513 0.011517 0.703695
O O16 0.000000 0.828467 0.750000
O O17 0.956893 0.027704 0.491524
#
# Coordination Sequence:
#
# PCOD9226011 Si02
#       8
#     4   4   4   4   4   4   4   4
#     4   8  14  23  36  49  67  90 114 136 163 192
#     4  10  17  28  40  55  77 100 120 142 169 200
#     4  10  18  27  41  60  80 105 131 146 159 194
#     4  10  18  27  38  52  69  90 122 152 187 220
#     4  10  14  23  36  48  61  90 121 136 186 229
#     4   8  14  20  29  45  64  80 106 147 177 204
#     4  10  17  28  38  50  70  96 116 154 194 224
#     4  10  18  26  39  55  70  95 122 149 178 207
#
# _framework density 19.489263000000001
#
# number of rings (size 3 to 8) (size 9 to 14) (size 15 to 20)
#    0.000    2.500    2.500    3.750    0.000    0.000 
#    0.000    0.000    0.000    0.000    0.000    0.000 
#    0.000    0.000    0.000   45.000    0.000    3.000 
#
# Total GULP energy -178145.251258 kJ/mol
# GULP energy per Si atom -5567.039102 kJ/mol
# Density = 1.944490 g / cm^3
# Si number density = 19.489263 Si / 1000 Ang^3
#
#
#
# Elastic Constant Matrix: (Units=GPa)
#
#
# Indices 1 2 3 4 5 6 
#
# 1 78.0262 0.4460 20.2955 0.0000 15.7418 0.0000
# 2 0.4460 37.9297 1.2171 0.0000 -0.5341 0.0000
# 3 20.2955 1.2171 149.2539 0.0000 -21.8071 0.0000
# 4 0.0000 0.0000 0.0000 -6.8659 0.0000 -2.5796
# 5 15.7418 -0.5341 -21.8071 0.0000 47.9382 0.0000
# 6 0.0000 0.0000 0.0000 -2.5796 0.0000 8.0308
#
#
#
# Elastic Compliance Matrix: (Units=1/GPa)
#
#
# Indices 1 2 3 4 5 6 
#
# 1 0.014828 -0.000168 -0.002921 0.000000 -0.006200 0.000000
# 2 -0.000168 0.026375 -0.000151 0.000000 0.000280 0.000000
# 3 -0.002921 -0.000151 0.007754 0.000000 0.004485 0.000000
# 4 0.000000 0.000000 0.000000 -0.129963 0.000000 -0.041746
# 5 -0.006200 0.000280 0.004485 0.000000 0.024939 0.000000
# 6 0.000000 0.000000 0.000000 -0.041746 0.000000 0.111111
#
#
# Mechanical properties :
#
#
# Convention : Reuss Voigt Hill
#
# Bulk Modulus (GPa) = 23.54233 34.34747 28.94490
# Shear Modulus (GPa) = 66.06547 26.03737 46.05142
#
# Velocity S-wave (km/s) = 5.82855 3.65908 4.86625
# Velocity P-wave (km/s) = 7.57640 5.95935 6.81600
#
# Compressibility (1/GPa) = 0.04247668
#
# Stress axis : x y z
#
# Youngs Moduli (GPa) = 67.44166 37.91421 128.97229
#
# Poissons Ratio (x) = 0.00637 0.37669
# Poissons Ratio (y) = 0.01133 0.01952
# Poissons Ratio (z) = 0.19698 0.00574
#
# Static dielectric constant tensor:
#      x y z
#    x 1.726980 0.000000 -0.044000 
#    y 0.000000 1.731370 0.000000 
#    z -0.044000 0.000000 1.791700 
# 
# From -- ./inp_files/7914.got.cif
#   From: 2010.05.17/outbox.cif.g08.bks.cpg/sg13_4_cif.got.tgz:7914.got - 2010.06.03 16:44:36.
