data_PCOD9226090
_publ_section_title
;
Structure prediction by ZEFSAII (Michael W. Deem and Ramdas Pophale) SiO2 
 PCOD9226090
Probable space group: P 2/C
;
_chemical_formula_sum "Si O2"
_cell_formula_units_Z 20
_cell_length_a 6.839566
_cell_length_b 22.588618
_cell_length_c 5.534337
_cell_angle_alpha 90.000000
_cell_angle_beta 77.932827
_cell_angle_gamma 90.000000
_cell_volume 836.141276
_symmetry_space_group_name_H-M "P 2/C"
_symmetry_group_IT_number 13
_symmetry_cell_setting 'monoclinic'
loop_
_space_group_symop_operation_xyz
x,y,z
-x,y,1/2-z
-x,-y,-z
x,-y,1/2+z
loop_
_atom_site_type_symbol
_atom_site_label
_atom_site_fract_x
_atom_site_fract_y
_atom_site_fract_z
Si Si1 0.211439 0.166113 0.940968
Si Si2 0.231186 0.524119 0.945482
Si Si3 0.127357 0.341595 0.467715
Si Si4 0.742936 0.030833 0.672354
Si Si5 0.243100 0.213250 0.433291
O O1 0.185641 0.096135 0.917719
O O2 0.312722 0.187958 0.669642
O O3 0.311233 0.182614 0.169020
O O4 0.995986 0.198464 0.002568
O O5 0.314433 0.503364 0.668583
O O6 0.231420 0.594878 0.957731
O O7 0.000000 0.500000 0.000000
O O8 0.264805 0.283691 0.418498
O O9 0.000000 0.342063 0.250000
O O10 0.000000 0.335646 0.750000
O O11 0.500000 0.032685 0.750000
O O12 0.800993 0.989122 0.429334
#
# Coordination Sequence:
#
# PCOD9226090 Si02
#       5
#     4   4   4   4   4
#     4  10  18  32  48  65  90 112 142 178 207 258
#     4  10  16  22  31  49  73 108 153 186 204 233
#     4  12  16  25  38  53  82 114 151 181 207 249
#     4  10  21  37  54  70  87 111 142 175 216 262
#     4  10  19  30  43  67  90 119 148 172 214 260
#
# _framework density 23.919404
#
# number of rings (size 3 to 8) (size 9 to 14) (size 15 to 20)
#    0.000    1.600    8.000    1.200    0.000    0.000 
#    0.000   12.000    0.000    0.000    0.000    0.000 
#    0.000    0.000    0.000    0.000    0.000   74.000 
#
# Total GULP energy -111858.744905 kJ/mol
# GULP energy per Si atom -5592.937245 kJ/mol
# Density = 2.386496 g / cm^3
# Si number density = 23.919404 Si / 1000 Ang^3
#
#
#
# Elastic Constant Matrix: (Units=GPa)
#
#
# Indices 1 2 3 4 5 6 
#
# 1 72.4971 3.0683 56.0220 0.0000 12.1442 0.0000
# 2 3.0683 224.9818 76.2376 0.0000 15.4527 0.0000
# 3 56.0220 76.2376 262.0121 0.0000 29.2139 0.0000
# 4 0.0000 0.0000 0.0000 45.0331 0.0000 28.0193
# 5 12.1442 15.4527 29.2139 0.0000 58.3433 0.0000
# 6 0.0000 0.0000 0.0000 28.0193 0.0000 -36.9685
#
#
#
# Elastic Compliance Matrix: (Units=1/GPa)
#
#
# Indices 1 2 3 4 5 6 
#
# 1 0.016972 0.001175 -0.003752 0.000000 -0.001965 0.000000
# 2 0.001175 0.005034 -0.001631 0.000000 -0.000761 0.000000
# 3 -0.003752 -0.001631 0.005251 0.000000 -0.001417 0.000000
# 4 0.000000 0.000000 0.000000 0.015090 0.000000 0.011437
# 5 -0.001965 -0.000761 -0.001417 0.000000 0.018460 0.000000
# 6 0.000000 0.000000 0.000000 0.011437 0.000000 -0.018382
#
#
# Mechanical properties :
#
#
# Convention : Reuss Voigt Hill
#
# Bulk Modulus (GPa) = 53.07395 92.23853 72.65624
# Shear Modulus (GPa) = 87.53275 41.55910 64.54593
#
# Velocity S-wave (km/s) = 6.05593 4.17281 5.20032
# Velocity P-wave (km/s) = 8.43421 7.86527 8.15470
#
# Compressibility (1/GPa) = 0.01884164
#
# Stress axis : x y z
#
# Youngs Moduli (GPa) = 58.91983 198.65956 190.42984
#
# Poissons Ratio (x) = -0.23338 0.71442
# Poissons Ratio (y) = -0.06922 0.31059
# Poissons Ratio (z) = 0.22104 0.32401
#
# Static dielectric constant tensor:
#      x y z
#    x 1.968280 0.000000 -0.006680 
#    y 0.000000 1.818600 0.000000 
#    z -0.006680 0.000000 1.897310 
# 
# From -- ./inp_files/1855.got.cif
#   From: 2010.05.17/outbox.cif.g08.bks.cpg/sg13_1_cif.got.tgz:1855.got - 2010.06.03 16:44:36.
