data_PCOD9226233
_publ_section_title
;
Structure prediction by ZEFSAII (Michael W. Deem and Ramdas Pophale) SiO2 
 PCOD9226233
Probable space group: P 2/C
;
_chemical_formula_sum "Si O2"
_cell_formula_units_Z 26
_cell_length_a 8.970761
_cell_length_b 7.842800
_cell_length_c 19.680542
_cell_angle_alpha 90.000000
_cell_angle_beta 114.328072
_cell_angle_gamma 90.000000
_cell_volume 1261.687874
_symmetry_space_group_name_H-M "P 2/C"
_symmetry_group_IT_number 13
_symmetry_cell_setting 'monoclinic'
loop_
_space_group_symop_operation_xyz
x,y,z
-x,y,1/2-z
-x,-y,-z
x,-y,1/2+z
loop_
_atom_site_type_symbol
_atom_site_label
_atom_site_fract_x
_atom_site_fract_y
_atom_site_fract_z
Si Si1 0.671516 0.079830 0.761575
Si Si2 0.325291 0.866910 0.861176
Si Si3 0.176585 0.121569 0.471125
Si Si4 0.924964 0.186320 0.907748
Si Si5 0.391081 0.280367 0.171489
Si Si6 0.947926 0.439144 0.389563
Si Si7 0.000000 0.335596 0.250000
O O1 0.500000 0.163137 0.750000
O O2 0.828519 0.172939 0.819294
O O3 0.673439 0.040377 0.682296
O O4 0.668672 0.894495 0.801047
O O5 0.315099 0.883433 0.940046
O O6 0.486686 0.768389 0.866057
O O7 0.158127 0.775388 0.802955
O O8 0.204825 0.139814 0.556712
O O9 0.067052 0.287423 0.433927
O O10 0.065834 0.954015 0.439304
O O11 0.991541 0.376747 0.926493
O O12 0.500000 0.370000 0.250000
O O13 0.234210 0.386872 0.122227
O O14 0.951271 0.438826 0.307989
#
# Coordination Sequence:
#
# PCOD9226233 Si02
#       7
#     4   4   4   4   4   4   2
#     4   9  17  34  56  82 108 139 184 227 275 332
#     4   9  17  33  62  79 110 154 184 235 285 334
#     4  10  22  39  56  80 114 153 190 227 286 344
#     4  11  22  36  58  82 115 151 186 234 286 337
#     4   9  16  33  56  82 109 148 183 231 292 329
#     4  11  20  34  58  81 113 148 191 235 282 338
#     4  10  16  30  52  88 106 134 198 234 270 330
#
# _framework density 20.607313999999999
#
# number of rings (size 3 to 8) (size 9 to 14) (size 15 to 20)
#    0.000    2.462    4.615    1.385    0.000    1.846 
#    0.000    3.846    3.385    0.000    0.000    0.000 
#    0.000    0.000    0.000    0.000    0.000    0.000 
#
# Total GULP energy -145005.298332 kJ/mol
# GULP energy per Si atom -5577.126859 kJ/mol
# Density = 2.056041 g / cm^3
# Si number density = 20.607314 Si / 1000 Ang^3
#
#
#
# Elastic Constant Matrix: (Units=GPa)
#
#
# Indices 1 2 3 4 5 6 
#
# 1 77.7680 12.3549 12.3981 0.0000 -30.0204 0.0000
# 2 12.3549 88.3116 0.9670 0.0000 3.0029 0.0000
# 3 12.3981 0.9670 50.4406 0.0000 -28.1140 0.0000
# 4 0.0000 0.0000 0.0000 -20.9935 0.0000 -33.9716
# 5 -30.0204 3.0029 -28.1140 0.0000 41.5729 0.0000
# 6 0.0000 0.0000 0.0000 -33.9716 0.0000 -21.9384
#
#
#
# Elastic Compliance Matrix: (Units=1/GPa)
#
#
# Indices 1 2 3 4 5 6 
#
# 1 0.019438 -0.003382 0.005211 0.000000 0.017805 0.000000
# 2 -0.003382 0.011977 -0.001993 0.000000 -0.004655 0.000000
# 3 0.005211 -0.001993 0.033319 0.000000 0.026439 0.000000
# 4 0.000000 0.000000 0.000000 0.031634 0.000000 -0.048985
# 5 0.017805 -0.004655 0.026439 0.000000 0.055127 0.000000
# 6 0.000000 0.000000 0.000000 -0.048985 0.000000 0.030272
#
#
# Mechanical properties :
#
#
# Convention : Reuss Voigt Hill
#
# Bulk Modulus (GPa) = 15.52644 29.77335 22.64990
# Shear Modulus (GPa) = 24.56234 12.44822 18.50528
#
# Velocity S-wave (km/s) = 3.45617 2.46045 2.99991
# Velocity P-wave (km/s) = 4.84537 4.74879 4.79732
#
# Compressibility (1/GPa) = 0.06440627
#
# Stress axis : x y z
#
# Youngs Moduli (GPa) = 51.44448 83.49489 30.01293
#
# Poissons Ratio (x) = 0.28238 -0.15639
# Poissons Ratio (y) = 0.17398 0.05981
# Poissons Ratio (z) = -0.26807 0.16639
#
# Static dielectric constant tensor:
#      x y z
#    x 1.743990 0.000000 -0.020450 
#    y 0.000000 1.757040 0.000000 
#    z -0.020450 0.000000 1.786190 
# 
# From -- ./inp_files/75037.got.cif
#   From: 2010.05.17/outbox.cif.g08.bks.cpg/sg13_38_cif.got.tgz:75037.got - 2010.06.03 16:44:36.
