data_PCOD9226529
_publ_section_title
;
Structure prediction by ZEFSAII (Michael W. Deem and Ramdas Pophale) SiO2 
 PCOD9226529
Probable space group: P 2/C
;
_chemical_formula_sum "Si O2"
_cell_formula_units_Z 32
_cell_length_a 26.975285
_cell_length_b 9.565510
_cell_length_c 20.968735
_cell_angle_alpha 90.000000
_cell_angle_beta 15.744925
_cell_angle_gamma 90.000000
_cell_volume 1468.197735
_symmetry_space_group_name_H-M "P 2/C"
_symmetry_group_IT_number 13
_symmetry_cell_setting 'monoclinic'
loop_
_space_group_symop_operation_xyz
x,y,z
-x,y,1/2-z
-x,-y,-z
x,-y,1/2+z
loop_
_atom_site_type_symbol
_atom_site_label
_atom_site_fract_x
_atom_site_fract_y
_atom_site_fract_z
Si Si1 0.263992 0.215396 0.071574
Si Si2 0.115963 0.816660 0.884193
Si Si3 0.251975 0.464150 0.555734
Si Si4 0.731842 0.706025 0.346970
Si Si5 0.216003 0.448712 0.965108
Si Si6 0.174042 0.468256 0.375483
Si Si7 0.564155 0.964456 0.490614
Si Si8 0.646609 0.150588 0.664334
O O1 0.112614 0.203655 0.312050
O O2 0.299710 0.374845 0.009118
O O3 0.447624 0.165490 0.878127
O O4 0.220180 0.135170 0.060795
O O5 0.215131 0.682812 0.793900
O O6 0.243815 0.949119 0.739180
O O7 0.901712 0.800736 0.163826
O O8 0.344083 0.365801 0.494457
O O9 0.274254 0.450519 0.451854
O O10 0.039613 0.461246 0.840594
O O11 0.791160 0.583118 0.223265
O O12 0.604749 0.809217 0.464270
O O13 0.000000 0.430149 0.250000
O O14 0.258716 0.501110 0.840607
O O15 0.304165 0.294886 0.862152
O O16 0.500000 0.000000 0.500000
O O17 0.390455 0.021505 0.745515
#
# Coordination Sequence:
#
# PCOD9226529 Si02
#       8
#     4   4   4   4   4   4   4   4
#     4   9  15  32  57  80 107 138 192 241 282 333
#     4  10  19  36  61  86 112 156 197 243 288 352
#     4   9  16  31  55  89 115 144 189 246 286 347
#     4  11  19  34  62  91 118 148 207 241 293 352
#     4   9  18  31  54  87 120 147 186 247 307 343
#     4  10  17  31  58  94 116 140 192 250 291 342
#     4  11  24  39  52  81 127 161 192 242 294 349
#     4   9  19  33  53  77 115 148 192 230 289 341
#
# _framework density 21.795428999999999
#
# number of rings (size 3 to 8) (size 9 to 14) (size 15 to 20)
#    0.000    2.250    2.500    1.875    0.000    0.000 
#    2.250    1.875   11.000    0.000    3.250    0.000 
#    0.000    0.000    0.000    0.000    0.000    0.000 
#
# Total GULP energy -178202.886327 kJ/mol
# GULP energy per Si atom -5568.840198 kJ/mol
# Density = 2.174582 g / cm^3
# Si number density = 21.795429 Si / 1000 Ang^3
#
#
#
# Elastic Constant Matrix: (Units=GPa)
#
#
# Indices 1 2 3 4 5 6 
#
# 1 133.0060 39.1046 10.5994 0.0000 14.3001 0.0000
# 2 39.1046 74.2489 8.0623 0.0000 -0.1191 0.0000
# 3 10.5994 8.0623 35.9407 0.0000 2.5502 0.0000
# 4 0.0000 0.0000 0.0000 22.8676 0.0000 22.3107
# 5 14.3001 -0.1191 2.5502 0.0000 21.3854 0.0000
# 6 0.0000 0.0000 0.0000 22.3107 0.0000 -194.2180
#
#
#
# Elastic Compliance Matrix: (Units=1/GPa)
#
#
# Indices 1 2 3 4 5 6 
#
# 1 0.009790 -0.005025 -0.001305 0.000000 -0.006419 0.000000
# 2 -0.005025 0.016388 -0.002460 0.000000 0.003745 0.000000
# 3 -0.001305 -0.002460 0.028944 0.000000 -0.002593 0.000000
# 4 0.000000 0.000000 0.000000 0.039323 0.000000 0.004517
# 5 -0.006419 0.003745 -0.002593 0.000000 0.051383 0.000000
# 6 0.000000 0.000000 0.000000 0.004517 0.000000 -0.004630
#
#
# Mechanical properties :
#
#
# Convention : Reuss Voigt Hill
#
# Bulk Modulus (GPa) = 26.63590 39.85867 33.24728
# Shear Modulus (GPa) = 29.19020 -17.63105 5.77957
#
# Velocity S-wave (km/s) = 3.66359 -2.84726 1.63018
# Velocity P-wave (km/s) = 5.49029 2.74192 4.33943
#
# Compressibility (1/GPa) = 0.03754331
#
# Stress axis : x y z
#
# Youngs Moduli (GPa) = 102.14713 61.02158 34.54926
#
# Poissons Ratio (x) = 0.30661 0.04507
# Poissons Ratio (y) = 0.51325 0.08499
# Poissons Ratio (z) = 0.13326 0.15011
#
# Static dielectric constant tensor:
#      x y z
#    x 2.149120 0.000000 0.289790 
#    y 0.000000 1.799160 0.000000 
#    z 0.289790 0.000000 2.182850 
# 
# From -- ./inp_files/82514.got.cif
#   From: 2010.05.17/outbox.cif.g08.bks.cpg/sg13_42_cif.got.tgz:82514.got - 2010.06.03 16:44:36.
