data_PCOD9226566
_publ_section_title
;
Structure prediction by ZEFSAII (Michael W. Deem and Ramdas Pophale) SiO2 
 PCOD9226566
Probable space group: P 2/C
;
_chemical_formula_sum "Si O2"
_cell_formula_units_Z 32
_cell_length_a 7.991588
_cell_length_b 15.990787
_cell_length_c 10.981890
_cell_angle_alpha 90.000000
_cell_angle_beta 91.807310
_cell_angle_gamma 90.000000
_cell_volume 1402.697161
_symmetry_space_group_name_H-M "P 2/C"
_symmetry_group_IT_number 13
_symmetry_cell_setting 'monoclinic'
loop_
_space_group_symop_operation_xyz
x,y,z
-x,y,1/2-z
-x,-y,-z
x,-y,1/2+z
loop_
_atom_site_type_symbol
_atom_site_label
_atom_site_fract_x
_atom_site_fract_y
_atom_site_fract_z
Si Si1 0.760319 0.262287 0.290551
Si Si2 0.293436 0.069940 0.242888
Si Si3 0.564685 0.697705 0.552784
Si Si4 0.823933 0.321061 0.708408
Si Si5 0.750301 0.560264 0.433310
Si Si6 0.429443 0.820065 0.367525
Si Si7 0.696007 0.022525 0.514934
Si Si8 0.907028 0.607429 0.947366
O O1 0.774422 0.163059 0.279977
O O2 0.605719 0.285979 0.377746
O O3 0.706986 0.292718 0.156544
O O4 0.905284 0.313252 0.359482
O O5 0.500000 0.076351 0.250000
O O6 0.237187 0.032053 0.371090
O O7 0.239645 0.017326 0.121760
O O8 0.591333 0.607710 0.488913
O O9 0.566015 0.774233 0.455742
O O10 0.783285 0.387757 0.811485
O O11 0.679204 0.254744 0.689177
O O12 0.850226 0.365289 0.580296
O O13 0.000000 0.279926 0.750000
O O14 0.774667 0.463192 0.401310
O O15 0.905470 0.573084 0.530656
O O16 0.500000 0.867160 0.250000
O O17 0.312786 0.881206 0.442166
O O18 0.500000 0.000000 0.500000
#
# Coordination Sequence:
#
# PCOD9226566 Si02
#       8
#     4   4   4   4   4   4   4   4
#     4  11  21  37  59  84 122 157 191 243 299 353
#     4  10  17  33  51  83 119 150 190 238 288 353
#     4  11  21  36  56  85 118 152 189 247 294 344
#     4  10  21  39  59  82 112 153 198 240 293 354
#     4  10  23  39  58  85 114 150 204 249 282 350
#     4  12  20  36  59  87 116 149 191 244 292 348
#     4  10  19  30  53  86 116 148 189 235 292 349
#     4  10  22  40  60  81 113 159 199 238 295 351
#
# _framework density 22.813192000000001
#
# number of rings (size 3 to 8) (size 9 to 14) (size 15 to 20)
#    0.000    1.500    5.000    1.875    1.750    1.000 
#    0.000    0.000    0.000    0.000    6.500    3.500 
#    0.000    0.000    0.000    0.000    0.000    0.000 
#
# Total GULP energy -178686.891437 kJ/mol
# GULP energy per Si atom -5583.965357 kJ/mol
# Density = 2.276127 g / cm^3
# Si number density = 22.813192 Si / 1000 Ang^3
#
#
#
# Elastic Constant Matrix: (Units=GPa)
#
#
# Indices 1 2 3 4 5 6 
#
# 1 37.6279 8.9549 16.9764 0.0000 -0.9249 0.0000
# 2 8.9549 113.0400 43.6399 0.0000 9.3994 0.0000
# 3 16.9764 43.6399 138.4051 0.0000 7.0120 0.0000
# 4 0.0000 0.0000 0.0000 25.3100 0.0000 16.3026
# 5 -0.9249 9.3994 7.0120 0.0000 21.6206 0.0000
# 6 0.0000 0.0000 0.0000 16.3026 0.0000 -0.5177
#
#
#
# Elastic Compliance Matrix: (Units=1/GPa)
#
#
# Indices 1 2 3 4 5 6 
#
# 1 0.028398 -0.001233 -0.003236 0.000000 0.002801 0.000000
# 2 -0.001233 0.010379 -0.002938 0.000000 -0.003612 0.000000
# 3 -0.003236 -0.002938 0.008633 0.000000 -0.001661 0.000000
# 4 0.000000 0.000000 0.000000 0.001856 0.000000 0.058458
# 5 0.002801 -0.003612 -0.001661 0.000000 0.048481 0.000000
# 6 0.000000 0.000000 0.000000 0.058458 0.000000 -0.090757
#
#
# Mechanical properties :
#
#
# Convention : Reuss Voigt Hill
#
# Bulk Modulus (GPa) = 30.68003 47.57951 39.12977
# Shear Modulus (GPa) = 153.04541 23.91605 88.48073
#
# Velocity S-wave (km/s) = 8.19951 3.24133 6.23451
# Velocity P-wave (km/s) = 10.15481 5.90844 8.30752
#
# Compressibility (1/GPa) = 0.03259449
#
# Stress axis : x y z
#
# Youngs Moduli (GPa) = 35.21314 96.35050 115.83834
#
# Poissons Ratio (x) = 0.11881 0.37489
# Poissons Ratio (y) = 0.04342 0.34036
# Poissons Ratio (z) = 0.11396 0.28310
#
# Static dielectric constant tensor:
#      x y z
#    x 1.897740 0.000000 -0.027650 
#    y 0.000000 2.013970 0.000000 
#    z -0.027650 0.000000 1.854560 
# 
# From -- ./inp_files/30402.got.cif
#   From: 2010.05.17/outbox.cif.g08.bks.cpg/sg13_16_cif.got.tgz:30402.got - 2010.06.03 16:44:36.
