data_PCOD9226270
_publ_section_title
;
Structure prediction by ZEFSAII (Michael W. Deem and Ramdas Pophale) SiO2 
 PCOD9226270
Probable space group: P 2/C
;
_chemical_formula_sum "Si O2"
_cell_formula_units_Z 32
_cell_length_a 18.953267
_cell_length_b 7.338349
_cell_length_c 11.271259
_cell_angle_alpha 90.000000
_cell_angle_beta 120.850157
_cell_angle_gamma 90.000000
_cell_volume 1345.863143
_symmetry_space_group_name_H-M "P 2/C"
_symmetry_group_IT_number 13
_symmetry_cell_setting 'monoclinic'
loop_
_space_group_symop_operation_xyz
x,y,z
-x,y,1/2-z
-x,-y,-z
x,-y,1/2+z
loop_
_atom_site_type_symbol
_atom_site_label
_atom_site_fract_x
_atom_site_fract_y
_atom_site_fract_z
Si Si1 0.484633 0.296439 0.109329
Si Si2 0.663159 0.302672 0.677732
Si Si3 0.663814 0.706987 0.645272
Si Si4 0.417572 0.691045 0.142393
Si Si5 0.095502 0.222398 0.812843
Si Si6 0.840531 0.802805 0.379834
Si Si7 0.163159 0.215149 0.118765
Si Si8 0.096920 0.782974 0.815134
O O1 0.500000 0.210539 0.250000
O O2 0.573794 0.290045 0.126767
O O3 0.453378 0.505374 0.110653
O O4 0.412038 0.221961 0.963565
O O5 0.688987 0.496498 0.645625
O O6 0.629082 0.351866 0.777855
O O7 0.744304 0.188329 0.765658
O O8 0.644924 0.788623 0.499926
O O9 0.738248 0.787085 0.782919
O O10 0.500000 0.795767 0.250000
O O11 0.119765 0.287786 0.702137
O O12 0.000000 0.255725 0.750000
O O13 0.110283 0.002894 0.820680
O O14 0.140974 0.294345 0.970400
O O15 0.857365 0.720679 0.524463
O O16 0.872494 0.009829 0.416195
O O17 0.128677 0.289456 0.215009
O O18 0.000000 0.748940 0.750000
#
# Coordination Sequence:
#
# PCOD9226270 Si02
#       8
#     4   4   4   4   4   4   4   4
#     4  10  19  31  51  75  98 135 181 219 240 290
#     4  11  20  33  54  76 102 137 178 217 252 302
#     4  11  20  32  54  77 103 136 177 216 256 301
#     4  10  16  32  52  73  95 131 184 223 237 283
#     4   9  18  34  57  79 102 137 177 211 253 311
#     4  10  21  34  53  82 110 132 168 220 264 306
#     4  10  21  34  53  82 110 133 166 220 266 307
#     4   9  17  35  58  78 101 138 179 210 249 313
#
# _framework density 23.776561999999998
#
# number of rings (size 3 to 8) (size 9 to 14) (size 15 to 20)
#    0.000    2.000    3.750    2.250    1.750    3.000 
#    0.000    0.625    0.000    4.500    0.000    0.000 
#    0.000    0.000    0.000    0.000    0.000    0.000 
#
# Total GULP energy -178445.830214 kJ/mol
# GULP energy per Si atom -5576.432194 kJ/mol
# Density = 2.372245 g / cm^3
# Si number density = 23.776562 Si / 1000 Ang^3
#
#
#
# Elastic Constant Matrix: (Units=GPa)
#
#
# Indices 1 2 3 4 5 6 
#
# 1 74.4614 -6.7521 15.2871 0.0000 -12.8613 0.0000
# 2 -6.7521 65.5989 -1.5640 0.0000 -1.4270 0.0000
# 3 15.2871 -1.5640 165.0772 0.0000 -11.6280 0.0000
# 4 0.0000 0.0000 0.0000 -0.5932 0.0000 6.9505
# 5 -12.8613 -1.4270 -11.6280 0.0000 37.9443 0.0000
# 6 0.0000 0.0000 0.0000 6.9505 0.0000 -6.1422
#
#
#
# Elastic Compliance Matrix: (Units=1/GPa)
#
#
# Indices 1 2 3 4 5 6 
#
# 1 0.014591 0.001580 -0.001005 0.000000 0.004697 0.000000
# 2 0.001580 0.015434 0.000080 0.000000 0.001141 0.000000
# 3 -0.001005 0.000080 0.006263 0.000000 0.001582 0.000000
# 4 0.000000 0.000000 0.000000 0.137514 0.000000 0.155611
# 5 0.004697 0.001141 0.001582 0.000000 0.028474 0.000000
# 6 0.000000 0.000000 0.000000 0.155611 0.000000 0.013280
#
#
# Mechanical properties :
#
#
# Convention : Reuss Voigt Hill
#
# Bulk Modulus (GPa) = 26.59783 35.45329 31.02556
# Shear Modulus (GPa) = 22.04793 26.11955 24.08374
#
# Velocity S-wave (km/s) = 3.04846 3.31802 3.18609
# Velocity P-wave (km/s) = 4.85815 5.44265 5.15869
#
# Compressibility (1/GPa) = 0.03759705
#
# Stress axis : x y z
#
# Youngs Moduli (GPa) = 68.53668 64.79410 159.66689
#
# Poissons Ratio (x) = -0.10238 0.16052
# Poissons Ratio (y) = -0.10829 -0.01281
# Poissons Ratio (z) = 0.06890 -0.00520
#
# Static dielectric constant tensor:
#      x y z
#    x 1.692660 0.000000 -0.076840 
#    y 0.000000 1.975440 0.000000 
#    z -0.076840 0.000000 1.965300 
# 
# From -- ./inp_files/40527.got.cif
#   From: 2010.05.17/outbox.cif.g08.bks.cpg/sg13_21_cif.got.tgz:40527.got - 2010.06.03 16:44:36.
