data_PCOD9226895
_publ_section_title
;
Structure prediction by ZEFSAII (Michael W. Deem and Ramdas Pophale) SiO2 
 PCOD9226895
Probable space group: P 2/C
;
_chemical_formula_sum "Si O2"
_cell_formula_units_Z 32
_cell_length_a 27.825189
_cell_length_b 9.332657
_cell_length_c 21.151264
_cell_angle_alpha 90.000000
_cell_angle_beta 160.544021
_cell_angle_gamma 90.000000
_cell_volume 1829.496544
_symmetry_space_group_name_H-M "P 2/C"
_symmetry_group_IT_number 13
_symmetry_cell_setting 'monoclinic'
loop_
_space_group_symop_operation_xyz
x,y,z
-x,y,1/2-z
-x,-y,-z
x,-y,1/2+z
loop_
_atom_site_type_symbol
_atom_site_label
_atom_site_fract_x
_atom_site_fract_y
_atom_site_fract_z
Si Si1 0.852472 0.411092 0.244885
Si Si2 0.474755 0.356728 0.647180
Si Si3 0.589407 0.146824 0.535077
Si Si4 0.550641 0.815504 0.502887
Si Si5 0.218390 0.387598 0.147597
Si Si6 0.633353 0.642336 0.801546
Si Si7 0.148593 0.649758 0.153771
Si Si8 0.076497 0.411387 0.779372
O O1 0.862673 0.562278 0.295021
O O2 0.870174 0.451322 0.193752
O O3 0.985676 0.314827 0.431850
O O4 0.697731 0.355148 0.070616
O O5 0.500000 0.307040 0.750000
O O6 0.524197 0.263277 0.648938
O O7 0.540454 0.515840 0.718575
O O8 0.548934 0.179567 0.558117
O O9 0.468292 0.223574 0.341220
O O10 0.740435 0.221487 0.706481
O O11 0.588168 0.976296 0.528659
O O12 0.692340 0.728768 0.702039
O O13 0.307475 0.411680 0.193347
O O14 0.204047 0.531531 0.171324
O O15 0.055832 0.343453 0.924923
O O16 0.777169 0.673278 0.021272
O O17 0.000000 0.452438 0.750000
#
# Coordination Sequence:
#
# PCOD9226895 Si02
#       8
#     4   4   4   4   4   4   4   4
#     4  10  19  31  52  80 109 133 172 225 272 322
#     4  12  21  34  54  80 113 139 171 225 278 325
#     4  10  20  36  58  79 105 147 187 230 258 324
#     4  10  21  36  55  80 110 144 188 221 274 321
#     4   9  17  32  56  78 106 136 174 230 268 316
#     4  10  18  31  54  82 103 138 182 218 271 325
#     4  10  18  32  55  79 104 133 180 226 268 310
#     4   9  18  31  50  80 107 133 173 223 278 325
#
# _framework density 17.491150999999999
#
# number of rings (size 3 to 8) (size 9 to 14) (size 15 to 20)
#    0.000    2.000    3.750    0.750    0.000    2.000 
#    0.000    2.500    2.750    0.000    0.000    0.000 
#    0.000    0.000    0.000    0.000    0.000    0.000 
#
# Total GULP energy -178220.380812 kJ/mol
# GULP energy per Si atom -5569.386900 kJ/mol
# Density = 1.745134 g / cm^3
# Si number density = 17.491151 Si / 1000 Ang^3
#
#
#
# Elastic Constant Matrix: (Units=GPa)
#
#
# Indices 1 2 3 4 5 6 
#
# 1 46.3779 9.2132 19.2322 0.0000 -12.4444 0.0000
# 2 9.2132 45.7290 16.6819 0.0000 -4.4491 0.0000
# 3 19.2322 16.6819 63.2016 0.0000 5.4189 0.0000
# 4 0.0000 0.0000 0.0000 10.4185 0.0000 1.3153
# 5 -12.4444 -4.4491 5.4189 0.0000 31.0780 0.0000
# 6 0.0000 0.0000 0.0000 1.3153 0.0000 15.8597
#
#
#
# Elastic Compliance Matrix: (Units=1/GPa)
#
#
# Indices 1 2 3 4 5 6 
#
# 1 0.029423 -0.001047 -0.009821 0.000000 0.013345 0.000000
# 2 -0.001047 0.024915 -0.006627 0.000000 0.004303 0.000000
# 3 -0.009821 -0.006627 0.021297 0.000000 -0.008595 0.000000
# 4 0.000000 0.000000 0.000000 0.096999 0.000000 -0.008045
# 5 0.013345 0.004303 -0.008595 0.000000 0.039635 0.000000
# 6 0.000000 0.000000 0.000000 -0.008045 0.000000 0.063720
#
#
# Mechanical properties :
#
#
# Convention : Reuss Voigt Hill
#
# Bulk Modulus (GPa) = 24.60288 27.28479 25.94384
# Shear Modulus (GPa) = 15.40700 18.81665 17.11182
#
# Velocity S-wave (km/s) = 2.97112 3.28347 3.13119
# Velocity P-wave (km/s) = 5.08592 5.47795 5.28557
#
# Compressibility (1/GPa) = 0.04064565
#
# Stress axis : x y z
#
# Youngs Moduli (GPa) = 33.98650 40.13658 46.95491
#
# Poissons Ratio (x) = 0.04202 0.46116
# Poissons Ratio (y) = 0.03558 0.31115
# Poissons Ratio (z) = 0.33379 0.26597
#
# Static dielectric constant tensor:
#      x y z
#    x 1.630160 0.000000 -0.015450 
#    y 0.000000 1.549430 0.000000 
#    z -0.015450 0.000000 1.645550 
# 
# From -- ./inp_files/82535.got.cif
#   From: 2010.05.17/outbox.cif.g08.bks.cpg/sg13_42_cif.got.tgz:82535.got - 2010.06.03 16:44:36.
