data_PCOD9226498
_publ_section_title
;
Structure prediction by ZEFSAII (Michael W. Deem and Ramdas Pophale) SiO2 
 PCOD9226498
Probable space group: P 2/C
;
_chemical_formula_sum "Si O2"
_cell_formula_units_Z 20
_cell_length_a 8.125408
_cell_length_b 9.750409
_cell_length_c 21.259160
_cell_angle_alpha 90.000000
_cell_angle_beta 141.045663
_cell_angle_gamma 90.000000
_cell_volume 1058.907793
_symmetry_space_group_name_H-M "P 2/C"
_symmetry_group_IT_number 13
_symmetry_cell_setting 'monoclinic'
loop_
_space_group_symop_operation_xyz
x,y,z
-x,y,1/2-z
-x,-y,-z
x,-y,1/2+z
loop_
_atom_site_type_symbol
_atom_site_label
_atom_site_fract_x
_atom_site_fract_y
_atom_site_fract_z
Si Si1 0.476318 0.417864 0.089902
Si Si2 0.723371 0.133597 0.136128
Si Si3 0.848156 0.375378 0.621930
Si Si4 0.464248 0.655120 0.311310
Si Si5 0.542756 0.846747 0.448425
O O1 0.598514 0.267784 0.131052
O O2 0.690399 0.507665 0.113656
O O3 0.429278 0.504802 0.138437
O O4 0.218404 0.408011 0.970240
O O5 0.000000 0.104090 0.250000
O O6 0.534267 0.002882 0.087007
O O7 0.744976 0.160641 0.066886
O O8 0.707127 0.232498 0.596323
O O9 0.150538 0.359179 0.726406
O O10 0.500000 0.694230 0.250000
O O11 0.588440 0.762147 0.397993
#
# Coordination Sequence:
#
# PCOD9226498 Si02
#       5
#     4   4   4   4   4
#     4   9  18  31  51  75  95 126 171 212 249 287
#     4  10  17  30  56  80  98 121 167 224 254 281
#     4   9  17  33  52  71  98 129 169 212 244 289
#     4  11  21  33  50  73 106 141 166 197 249 310
#     4   9  19  33  53  78  98 130 172 204 250 304
#
# _framework density 18.887385999999999
#
# number of rings (size 3 to 8) (size 9 to 14) (size 15 to 20)
#    0.000    2.400    0.000    6.000    0.000    0.800 
#    0.000    1.000    0.000   16.800    0.000    0.000 
#    0.000    0.000    0.000    0.000    0.000    0.000 
#
# Total GULP energy -111434.073578 kJ/mol
# GULP energy per Si atom -5571.703679 kJ/mol
# Density = 1.884440 g / cm^3
# Si number density = 18.887386 Si / 1000 Ang^3
#
#
#
# Elastic Constant Matrix: (Units=GPa)
#
#
# Indices 1 2 3 4 5 6 
#
# 1 25.9724 10.9649 25.5205 0.0000 -24.7965 0.0000
# 2 10.9649 105.7845 7.7139 0.0000 -9.9988 0.0000
# 3 25.5205 7.7139 117.5147 0.0000 -23.7294 0.0000
# 4 0.0000 0.0000 0.0000 20.7184 0.0000 -6.6782
# 5 -24.7965 -9.9988 -23.7294 0.0000 30.7137 0.0000
# 6 0.0000 0.0000 0.0000 -6.6782 0.0000 9.0725
#
#
#
# Elastic Compliance Matrix: (Units=1/GPa)
#
#
# Indices 1 2 3 4 5 6 
#
# 1 0.183041 -0.005165 -0.011743 0.000000 0.137023 0.000000
# 2 -0.005165 0.009899 0.000332 0.000000 -0.000690 0.000000
# 3 -0.011743 0.000332 0.010836 0.000000 -0.001001 0.000000
# 4 0.000000 0.000000 0.000000 0.063281 0.000000 0.046581
# 5 0.137023 -0.000690 -0.001001 0.000000 0.142185 0.000000
# 6 0.000000 0.000000 0.000000 0.046581 0.000000 0.144511
#
#
# Mechanical properties :
#
#
# Convention : Reuss Voigt Hill
#
# Bulk Modulus (GPa) = 5.86082 37.51893 21.68987
# Shear Modulus (GPa) = 7.76663 25.77240 16.76951
#
# Velocity S-wave (km/s) = 2.03002 3.69796 2.98294
# Velocity P-wave (km/s) = 2.93333 6.17583 4.83453
#
# Compressibility (1/GPa) = 0.17062462
#
# Stress axis : x y z
#
# Youngs Moduli (GPa) = 5.46325 101.01984 92.28560
#
# Poissons Ratio (x) = 0.52177 1.08373
# Poissons Ratio (y) = 0.02822 -0.03068
# Poissons Ratio (z) = 0.06416 -0.03359
#
# Static dielectric constant tensor:
#      x y z
#    x 1.681220 0.000000 -0.047680 
#    y 0.000000 1.663890 0.000000 
#    z -0.047680 0.000000 1.705460 
# 
# From -- ./inp_files/45703.got.cif
#   From: 2010.05.17/outbox.cif.g08.bks.cpg/sg13_23_cif.got.tgz:45703.got - 2010.06.03 16:44:36.
