data_PCOD9226139
_publ_section_title
;
Structure prediction by ZEFSAII (Michael W. Deem and Ramdas Pophale) SiO2 
 PCOD9226139
Probable space group: P 2/C
;
_chemical_formula_sum "Si O2"
_cell_formula_units_Z 24
_cell_length_a 19.117366
_cell_length_b 13.502477
_cell_length_c 23.292162
_cell_angle_alpha 90.000000
_cell_angle_beta 171.154839
_cell_angle_gamma 90.000000
_cell_volume 924.502309
_symmetry_space_group_name_H-M "P 2/C"
_symmetry_group_IT_number 13
_symmetry_cell_setting 'monoclinic'
loop_
_space_group_symop_operation_xyz
x,y,z
-x,y,1/2-z
-x,-y,-z
x,-y,1/2+z
loop_
_atom_site_type_symbol
_atom_site_label
_atom_site_fract_x
_atom_site_fract_y
_atom_site_fract_z
Si Si1 0.104935 0.704208 0.228808
Si Si2 0.623330 0.787686 0.740538
Si Si3 0.895063 0.295792 0.271190
Si Si4 0.505016 1.000000 0.685781
Si Si5 0.514505 0.500000 0.442705
Si Si6 0.623327 0.212314 0.740536
O O1 0.182969 0.785098 0.342025
O O2 0.499999 0.716581 0.499999
O O3 0.206231 0.600158 0.342478
O O4 0.674859 0.716985 0.837837
O O5 0.732757 0.898501 0.849255
O O6 0.000002 0.753564 0.000001
O O7 0.325139 0.283015 0.662162
O O8 0.793766 0.399842 0.157519
O O9 0.817033 0.214902 0.157977
O O10 0.500000 1.000000 0.750000
O O11 0.732757 0.101499 0.849255
O O12 0.000000 0.000000 0.250000
O O13 0.500000 0.500000 0.500000
O O14 0.000000 0.500000 0.000000
#
# Coordination Sequence:
#
# PCOD9226139 Si02
#       6
#     4   4   4   4   4   4
#     4   9  17  29  50  80 112 142 173 215 267 318
#     4  10  20  36  56  80 109 143 181 222 269 323
#     4   9  17  29  50  80 112 142 173 215 267 318
#     4  12  25  40  57  80 106 142 186 232 279 324
#     4  10  16  26  46  80 118 144 168 214 269 318
#     4  10  20  36  56  80 109 143 181 222 269 323
#
# _framework density 25.959913
#
# number of rings (size 3 to 8) (size 9 to 14) (size 15 to 20)
#    0.000    2.000    0.000    7.500    0.000    0.000 
#    0.000    6.667    0.000    0.000    0.000   23.333 
#    0.000    0.000    0.000    0.000    0.000    0.000 
#
# Total GULP energy -134095.063421 kJ/mol
# GULP energy per Si atom -5587.294309 kJ/mol
# Density = 2.590083 g / cm^3
# Si number density = 25.959913 Si / 1000 Ang^3
#
#
#
# Elastic Constant Matrix: (Units=GPa)
#
#
# Indices 1 2 3 4 5 6 
#
# 1 134.2957 40.3713 42.5464 0.0000 -58.6205 0.0000
# 2 40.3713 160.0965 22.4725 0.0000 -41.2123 0.0000
# 3 42.5464 22.4725 178.5153 0.0000 -48.2822 0.0000
# 4 0.0000 0.0000 0.0000 37.6746 0.0000 -6.2698
# 5 -58.6205 -41.2123 -48.2822 0.0000 57.6036 0.0000
# 6 0.0000 0.0000 0.0000 -6.2698 0.0000 36.7749
#
#
#
# Elastic Compliance Matrix: (Units=1/GPa)
#
#
# Indices 1 2 3 4 5 6 
#
# 1 0.013461 0.000223 0.000662 0.000000 0.014412 0.000000
# 2 0.000223 0.007722 0.000686 0.000000 0.006327 0.000000
# 3 0.000662 0.000686 0.007336 0.000000 0.007313 0.000000
# 4 0.000000 0.000000 0.000000 0.027318 0.000000 0.004658
# 5 0.014412 0.006327 0.007313 0.000000 0.042683 0.000000
# 6 0.000000 0.000000 0.000000 0.004658 0.000000 0.027987
#
#
# Mechanical properties :
#
#
# Convention : Reuss Voigt Hill
#
# Bulk Modulus (GPa) = 31.58590 75.96533 53.77561
# Shear Modulus (GPa) = 37.33627 50.91177 44.12402
#
# Velocity S-wave (km/s) = 3.79651 4.43331 4.12721
# Velocity P-wave (km/s) = 5.60460 7.45196 6.59331
#
# Compressibility (1/GPa) = 0.03165970
#
# Stress axis : x y z
#
# Youngs Moduli (GPa) = 74.29040 129.49405 136.32312
#
# Poissons Ratio (x) = -0.02885 -0.09023
# Poissons Ratio (y) = -0.01655 -0.09350
# Poissons Ratio (z) = -0.04917 -0.08882
#
# Static dielectric constant tensor:
#      x y z
#    x 77.708610 0.000000 -23.086640 
#    y 0.000000 2.102410 0.000000 
#    z -23.086640 0.000000 9.336370 
# 
# From -- ./inp_files/88594.got.cif
#   From: 2010.05.17/outbox.cif.g08.bks.cpg/sg13_45_cif.got.tgz:88594.got - 2010.06.03 16:44:36.
