data_PCOD9226393
_publ_section_title
;
Structure prediction by ZEFSAII (Michael W. Deem and Ramdas Pophale) SiO2 
 PCOD9226393
Probable space group: P 2/C
;
_chemical_formula_sum "Si O2"
_cell_formula_units_Z 32
_cell_length_a 22.251042
_cell_length_b 6.914756
_cell_length_c 7.555649
_cell_angle_alpha 90.000000
_cell_angle_beta 93.420511
_cell_angle_gamma 90.000000
_cell_volume 1160.445147
_symmetry_space_group_name_H-M "P 2/C"
_symmetry_group_IT_number 13
_symmetry_cell_setting 'monoclinic'
loop_
_space_group_symop_operation_xyz
x,y,z
-x,y,1/2-z
-x,-y,-z
x,-y,1/2+z
loop_
_atom_site_type_symbol
_atom_site_label
_atom_site_fract_x
_atom_site_fract_y
_atom_site_fract_z
Si Si1 0.935326 0.882824 0.829408
Si Si2 0.548476 0.243789 0.028123
Si Si3 0.313771 0.599173 0.231202
Si Si4 0.570559 0.699393 0.115599
Si Si5 0.937624 0.691766 0.212289
Si Si6 0.806990 0.905576 0.621429
Si Si7 0.672981 0.200402 0.147992
Si Si8 0.813860 0.691341 0.246952
O O1 0.869834 0.848810 0.728326
O O2 0.000000 0.840636 0.750000
O O3 0.936876 0.119255 0.840149
O O4 0.936392 0.778171 0.016654
O O5 0.476602 0.202353 0.029111
O O6 0.557301 0.248921 0.817709
O O7 0.603892 0.121192 0.121443
O O8 0.557550 0.467569 0.090955
O O9 0.357179 0.713595 0.372094
O O10 0.334381 0.379643 0.221582
O O11 0.317994 0.707908 0.046568
O O12 0.246343 0.575505 0.289458
O O13 0.876432 0.581586 0.241707
O O14 0.000000 0.584658 0.250000
O O15 0.738866 0.892820 0.693766
O O16 0.808285 0.793797 0.436457
O O17 0.814138 0.136656 0.604579
#
# Coordination Sequence:
#
# PCOD9226393 Si02
#       8
#     4   4   4   4   4   4   4   4
#     4  10  17  27  44  66  90 116 147 185 226 264
#     4   8  13  23  40  62  86 112 144 183 224 263
#     4   9  18  30  46  68  93 120 151 187 227 271
#     4   8  13  23  40  62  86 112 144 183 224 263
#     4  10  17  27  44  66  90 116 147 185 226 264
#     4  10  19  31  46  67  93 121 153 187 224 267
#     4   9  18  30  46  68  93 120 151 187 227 271
#     4  10  19  31  46  67  93 121 153 187 224 267
#
# _framework density 27.575623
#
# number of rings (size 3 to 8) (size 9 to 14) (size 15 to 20)
#    0.000    2.750    0.000    5.250    0.000    2.000 
#    0.000    0.000    0.000    1.500    0.000    5.250 
#    0.000    0.000    0.000    0.000    0.000    1.000 
#
# Total GULP energy -178700.699717 kJ/mol
# GULP energy per Si atom -5584.396866 kJ/mol
# Density = 2.751286 g / cm^3
# Si number density = 27.575623 Si / 1000 Ang^3
#
#
#
# Elastic Constant Matrix: (Units=GPa)
#
#
# Indices 1 2 3 4 5 6 
#
# 1 237.7964 -8.2968 72.2117 0.0000 35.1462 0.0000
# 2 -8.2968 56.1021 16.0063 0.0000 8.5033 0.0000
# 3 72.2117 16.0063 74.8923 0.0000 9.5670 0.0000
# 4 0.0000 0.0000 0.0000 11.4547 0.0000 -8.5114
# 5 35.1462 8.5033 9.5670 0.0000 41.9879 0.0000
# 6 0.0000 0.0000 0.0000 -8.5114 0.0000 -34.3989
#
#
#
# Elastic Compliance Matrix: (Units=1/GPa)
#
#
# Indices 1 2 3 4 5 6 
#
# 1 0.007316 0.003942 -0.007223 0.000000 -0.005277 0.000000
# 2 0.003942 0.021483 -0.007638 0.000000 -0.005910 0.000000
# 3 -0.007223 -0.007638 0.021608 0.000000 0.002669 0.000000
# 4 0.000000 0.000000 0.000000 0.073742 0.000000 -0.018246
# 5 -0.005277 -0.005910 0.002669 0.000000 0.028822 0.000000
# 6 0.000000 0.000000 0.000000 -0.018246 0.000000 -0.024556
#
#
# Mechanical properties :
#
#
# Convention : Reuss Voigt Hill
#
# Bulk Modulus (GPa) = 35.00075 58.73702 46.86889
# Shear Modulus (GPa) = 31.29409 23.06672 27.18041
#
# Velocity S-wave (km/s) = 3.37240 2.89535 3.14294
# Velocity P-wave (km/s) = 5.28056 5.70298 5.49583
#
# Compressibility (1/GPa) = 0.02857081
#
# Stress axis : x y z
#
# Youngs Moduli (GPa) = 136.68598 46.54935 46.27898
#
# Poissons Ratio (x) = -0.18352 0.33426
# Poissons Ratio (y) = -0.53887 0.35346
# Poissons Ratio (z) = 0.98724 0.35553
#
# Static dielectric constant tensor:
#      x y z
#    x 2.308240 0.000000 -0.026430 
#    y 0.000000 2.156140 0.000000 
#    z -0.026430 0.000000 2.144470 
# 
# From -- ./inp_files/21586.got.cif
#   From: 2010.05.17/outbox.cif.g08.bks.cpg/sg13_11_cif.got.tgz:21586.got - 2010.06.03 16:44:36.
