data_PCOD9226265
_publ_section_title
;
Structure prediction by ZEFSAII (Michael W. Deem and Ramdas Pophale) SiO2 
 PCOD9226265
Probable space group: P 2/C
;
_chemical_formula_sum "Si O2"
_cell_formula_units_Z 22
_cell_length_a 24.042932
_cell_length_b 5.203602
_cell_length_c 24.918325
_cell_angle_alpha 90.000000
_cell_angle_beta 155.823753
_cell_angle_gamma 90.000000
_cell_volume 1276.767527
_symmetry_space_group_name_H-M "P 2/C"
_symmetry_group_IT_number 13
_symmetry_cell_setting 'monoclinic'
loop_
_space_group_symop_operation_xyz
x,y,z
-x,y,1/2-z
-x,-y,-z
x,-y,1/2+z
loop_
_atom_site_type_symbol
_atom_site_label
_atom_site_fract_x
_atom_site_fract_y
_atom_site_fract_z
Si Si1 0.041071 0.452202 0.596892
Si Si2 0.715701 0.088170 0.532805
Si Si3 0.000000 0.751708 0.250000
Si Si4 0.907573 0.618106 0.578431
Si Si5 0.630897 0.402040 0.901299
Si Si6 0.871514 0.055742 0.272727
O O1 0.912451 0.490765 0.523755
O O2 0.000000 0.500000 0.500000
O O3 0.142855 0.674735 0.708467
O O4 0.099740 0.172867 0.660925
O O5 0.656872 0.366034 0.465878
O O6 0.862355 0.088194 0.631860
O O7 0.624493 0.864433 0.427807
O O8 0.754894 0.025110 0.628574
O O9 0.998583 0.560335 0.197600
O O10 0.761693 0.622229 0.477195
O O11 0.991498 0.880603 0.641766
O O12 0.500000 0.449981 0.750000
#
# Coordination Sequence:
#
# PCOD9226265 Si02
#       6
#     4   4   2   4   4   4
#     4  10  20  32  49  79 108 127 162 211 269 309
#     4  11  19  33  50  73 104 133 166 210 248 310
#     4  10  16  32  50  82 100 130 160 214 260 308
#     4   9  20  30  53  73 109 128 167 202 259 304
#     4  11  23  33  47  74 108 142 169 198 247 305
#     4  10  18  33  51  78  98 131 165 209 265 295
#
# _framework density 17.231013999999998
#
# number of rings (size 3 to 8) (size 9 to 14) (size 15 to 20)
#    1.091    0.727    1.818    5.455    2.545    0.727 
#    0.000    0.000    0.000    0.000    0.000    7.636 
#    0.000    0.000    0.000    0.000    0.000    0.000 
#
# Total GULP energy -122491.274466 kJ/mol
# GULP energy per Si atom -5567.785203 kJ/mol
# Density = 1.719180 g / cm^3
# Si number density = 17.231014 Si / 1000 Ang^3
#
#
#
# Elastic Constant Matrix: (Units=GPa)
#
#
# Indices 1 2 3 4 5 6 
#
# 1 48.5527 11.0937 20.3496 0.0000 -28.3956 0.0000
# 2 11.0937 98.8462 23.6211 0.0000 -6.3700 0.0000
# 3 20.3496 23.6211 84.5331 0.0000 -14.2710 0.0000
# 4 0.0000 0.0000 0.0000 27.2933 0.0000 -10.3090
# 5 -28.3956 -6.3700 -14.2710 0.0000 27.3854 0.0000
# 6 0.0000 0.0000 0.0000 -10.3090 0.0000 16.1866
#
#
#
# Elastic Compliance Matrix: (Units=1/GPa)
#
#
# Indices 1 2 3 4 5 6 
#
# 1 0.053734 -0.001767 -0.003404 0.000000 0.053531 0.000000
# 2 -0.001767 0.010926 -0.002750 0.000000 -0.000724 0.000000
# 3 -0.003404 -0.002750 0.013940 0.000000 0.003095 0.000000
# 4 0.000000 0.000000 0.000000 0.048245 0.000000 0.030726
# 5 0.053531 -0.000724 0.003095 0.000000 0.093466 0.000000
# 6 0.000000 0.000000 0.000000 0.030726 0.000000 0.081349
#
#
# Mechanical properties :
#
#
# Convention : Reuss Voigt Hill
#
# Bulk Modulus (GPa) = 15.93457 38.00677 26.97067
# Shear Modulus (GPa) = 14.77450 25.96422 20.36936
#
# Velocity S-wave (km/s) = 2.93138 3.88600 3.44195
# Velocity P-wave (km/s) = 4.55247 6.49921 5.61092
#
# Compressibility (1/GPa) = 0.06275665
#
# Stress axis : x y z
#
# Youngs Moduli (GPa) = 18.61019 91.52890 71.73572
#
# Poissons Ratio (x) = 0.16177 0.24421
# Poissons Ratio (y) = 0.03289 0.19725
# Poissons Ratio (z) = 0.06335 0.25168
#
# Static dielectric constant tensor:
#      x y z
#    x 1.594360 0.000000 -0.016350 
#    y 0.000000 1.636780 0.000000 
#    z -0.016350 0.000000 1.562950 
# 
# From -- ./inp_files/89372.got.cif
#   From: 2010.05.17/outbox.cif.g08.bks.cpg/sg13_45_cif.got.tgz:89372.got - 2010.06.03 16:44:36.
