data_PCOD9226461
_publ_section_title
;
Structure prediction by ZEFSAII (Michael W. Deem and Ramdas Pophale) SiO2 
 PCOD9226461
Probable space group: P 2/C
;
_chemical_formula_sum "Si O2"
_cell_formula_units_Z 24
_cell_length_a 21.523131
_cell_length_b 5.384086
_cell_length_c 18.486046
_cell_angle_alpha 90.000000
_cell_angle_beta 155.773861
_cell_angle_gamma 90.000000
_cell_volume 879.031382
_symmetry_space_group_name_H-M "P 2/C"
_symmetry_group_IT_number 13
_symmetry_cell_setting 'monoclinic'
loop_
_space_group_symop_operation_xyz
x,y,z
-x,y,1/2-z
-x,-y,-z
x,-y,1/2+z
loop_
_atom_site_type_symbol
_atom_site_label
_atom_site_fract_x
_atom_site_fract_y
_atom_site_fract_z
Si Si1 0.579682 0.259875 0.025101
Si Si2 0.682029 0.242175 0.636554
Si Si3 0.675715 0.385547 0.420900
Si Si4 0.851823 0.113764 0.146433
Si Si5 0.065836 0.247247 0.487478
Si Si6 0.213820 0.746940 0.614105
O O1 0.631720 0.509758 0.041895
O O2 0.697064 0.250178 0.216579
O O3 0.608246 0.995628 0.019941
O O4 0.417064 0.265961 0.892559
O O5 0.856826 0.236203 0.849964
O O6 0.500000 0.370225 0.250000
O O7 0.744847 0.658166 0.509485
O O8 0.689647 0.337053 0.350217
O O9 0.777019 0.159170 0.561395
O O10 0.000000 0.123461 0.250000
O O11 0.902755 0.172936 0.283643
O O12 0.089895 0.529997 0.489058
O O13 0.157560 0.025920 0.545552
#
# Coordination Sequence:
#
# PCOD9226461 Si02
#       6
#     4   4   4   4   4   4
#     4   8  14  23  40  60  94 120 147 187 244 286
#     4   8  14  24  37  66  92 116 145 196 242 280
#     4  12  24  36  50  74 105 134 168 206 246 295
#     4  12  21  36  55  74  97 135 171 205 249 293
#     4  10  18  28  50  71  94 121 163 202 242 286
#     4  10  17  30  46  70  94 129 160 197 241 289
#
# _framework density 27.302781
#
# number of rings (size 3 to 8) (size 9 to 14) (size 15 to 20)
#    0.000    2.000    3.333    2.000    0.000    0.000 
#    0.000    0.000    0.000    0.000    0.000    2.333 
#    0.000    0.000    0.000    0.000    0.000    0.000 
#
# Total GULP energy -134240.865330 kJ/mol
# GULP energy per Si atom -5593.369389 kJ/mol
# Density = 2.724064 g / cm^3
# Si number density = 27.302781 Si / 1000 Ang^3
#
#
#
# Elastic Constant Matrix: (Units=GPa)
#
#
# Indices 1 2 3 4 5 6 
#
# 1 81.1859 17.1527 23.2722 0.0000 19.0579 0.0000
# 2 17.1527 209.9422 60.8593 0.0000 14.0889 0.0000
# 3 23.2722 60.8593 124.6832 0.0000 2.3523 0.0000
# 4 0.0000 0.0000 0.0000 48.9936 0.0000 1.5126
# 5 19.0579 14.0889 2.3523 0.0000 45.8050 0.0000
# 6 0.0000 0.0000 0.0000 1.5126 0.0000 19.3369
#
#
#
# Elastic Compliance Matrix: (Units=1/GPa)
#
#
# Indices 1 2 3 4 5 6 
#
# 1 0.014437 -0.000043 -0.002563 0.000000 -0.005862 0.000000
# 2 -0.000043 0.005663 -0.002726 0.000000 -0.001584 0.000000
# 3 -0.002563 -0.002726 0.009803 0.000000 0.001402 0.000000
# 4 0.000000 0.000000 0.000000 0.020460 0.000000 -0.001600
# 5 -0.005862 -0.001584 0.001402 0.000000 0.024686 0.000000
# 6 0.000000 0.000000 0.000000 -0.001600 0.000000 0.051840
#
#
# Mechanical properties :
#
#
# Convention : Reuss Voigt Hill
#
# Bulk Modulus (GPa) = 51.97924 68.70885 60.34405
# Shear Modulus (GPa) = 34.72998 43.79557 39.26277
#
# Velocity S-wave (km/s) = 3.57042 4.00943 3.79628
# Velocity P-wave (km/s) = 6.00638 6.83039 6.43159
#
# Compressibility (1/GPa) = 0.01923845
#
# Stress axis : x y z
#
# Youngs Moduli (GPa) = 69.26510 176.57247 102.00880
#
# Poissons Ratio (x) = 0.00762 0.26145
# Poissons Ratio (y) = 0.00299 0.27812
# Poissons Ratio (z) = 0.17753 0.48141
#
# Static dielectric constant tensor:
#      x y z
#    x 2.162610 0.000000 0.016140 
#    y 0.000000 2.283550 0.000000 
#    z 0.016140 0.000000 2.131390 
# 
# From -- ./inp_files/89435.got.cif
#   From: 2010.05.17/outbox.cif.g08.bks.cpg/sg13_45_cif.got.tgz:89435.got - 2010.06.03 16:44:36.
