data_PCOD9226044
_publ_section_title
;
Structure prediction by ZEFSAII (Michael W. Deem and Ramdas Pophale) SiO2 
 PCOD9226044
Probable space group: P 2/C
;
_chemical_formula_sum "Si O2"
_cell_formula_units_Z 20
_cell_length_a 7.851722
_cell_length_b 22.197356
_cell_length_c 5.410294
_cell_angle_alpha 90.000000
_cell_angle_beta 121.672552
_cell_angle_gamma 90.000000
_cell_volume 802.506588
_symmetry_space_group_name_H-M "P 2/C"
_symmetry_group_IT_number 13
_symmetry_cell_setting 'monoclinic'
loop_
_space_group_symop_operation_xyz
x,y,z
-x,y,1/2-z
-x,-y,-z
x,-y,1/2+z
loop_
_atom_site_type_symbol
_atom_site_label
_atom_site_fract_x
_atom_site_fract_y
_atom_site_fract_z
Si Si1 0.759898 0.164783 0.596864
Si Si2 0.725523 0.974423 0.171726
Si Si3 0.871286 0.659399 0.903798
Si Si4 0.770546 0.524801 0.845102
Si Si5 0.243153 0.220768 0.402205
O O1 0.724494 0.097384 0.663197
O O2 0.688166 0.174645 0.259557
O O3 0.000000 0.172744 0.750000
O O4 0.687790 0.208998 0.763732
O O5 0.815380 0.000795 0.488295
O O6 0.500000 0.000000 0.000000
O O7 0.770092 0.596089 0.889185
O O8 0.731286 0.714120 0.707587
O O9 0.000000 0.647525 0.750000
O O10 0.000000 0.676191 0.250000
O O11 0.685207 0.508785 0.515422
O O12 0.000000 0.500000 0.000000
O O13 0.000000 0.215570 0.250000
#
# Coordination Sequence:
#
# PCOD9226044 Si02
#       5
#     4   4   4   4   4
#     4  10  19  33  48  68  96 119 152 192 236 284
#     4  10  21  36  54  75  95 118 148 188 233 292
#     4  11  16  23  36  50  77 110 153 200 243 270
#     4  10  15  22  29  47  70 103 149 200 245 256
#     4   9  18  28  41  62  85 121 154 193 241 270
#
# _framework density 24.921916
#
# number of rings (size 3 to 8) (size 9 to 14) (size 15 to 20)
#    0.000    2.000    4.000    4.200    0.000    0.800 
#    0.000    0.000    0.000    0.000    0.000    0.000 
#    0.000    0.000    0.000    0.000    0.000    0.000 
#
# Total GULP energy -111784.078486 kJ/mol
# GULP energy per Si atom -5589.203924 kJ/mol
# Density = 2.486519 g / cm^3
# Si number density = 24.921916 Si / 1000 Ang^3
#
#
#
# Elastic Constant Matrix: (Units=GPa)
#
#
# Indices 1 2 3 4 5 6 
#
# 1 90.6383 -3.9653 32.9166 0.0000 -17.7091 0.0000
# 2 -3.9653 162.2154 54.7981 0.0000 -21.9032 0.0000
# 3 32.9166 54.7981 229.0819 0.0000 -23.5481 0.0000
# 4 0.0000 0.0000 0.0000 47.0418 0.0000 -28.2261
# 5 -17.7091 -21.9032 -23.5481 0.0000 38.2381 0.0000
# 6 0.0000 0.0000 0.0000 -28.2261 0.0000 -46.5388
#
#
#
# Elastic Compliance Matrix: (Units=1/GPa)
#
#
# Indices 1 2 3 4 5 6 
#
# 1 0.012853 0.001664 -0.001639 0.000000 0.005896 0.000000
# 2 0.001664 0.007272 -0.001571 0.000000 0.003969 0.000000
# 3 -0.001639 -0.001571 0.005131 0.000000 0.001501 0.000000
# 4 0.000000 0.000000 0.000000 0.015586 0.000000 -0.009453
# 5 0.005896 0.003969 0.001501 0.000000 0.032080 0.000000
# 6 0.000000 0.000000 0.000000 -0.009453 0.000000 -0.015754
#
#
# Mechanical properties :
#
#
# Convention : Reuss Voigt Hill
#
# Bulk Modulus (GPa) = 45.11710 72.15940 58.63825
# Shear Modulus (GPa) = 73.91387 34.29396 54.10392
#
# Velocity S-wave (km/s) = 5.45184 3.71355 4.66439
# Velocity P-wave (km/s) = 7.60084 6.88508 7.25180
#
# Compressibility (1/GPa) = 0.02216454
#
# Stress axis : x y z
#
# Youngs Moduli (GPa) = 77.80380 137.51828 194.90465
#
# Poissons Ratio (x) = -0.22882 0.31940
# Poissons Ratio (y) = -0.12946 0.30612
# Poissons Ratio (z) = 0.12750 0.21598
#
# Static dielectric constant tensor:
#      x y z
#    x 1.916560 0.000000 0.086150 
#    y 0.000000 1.908950 0.000000 
#    z 0.086150 0.000000 1.916900 
# 
# From -- ./inp_files/2130.got.cif
#   From: 2010.05.17/outbox.cif.g08.bks.cpg/sg13_2_cif.got.tgz:2130.got - 2010.06.03 16:44:36.
