data_PCOD9226077
_publ_section_title
;
Structure prediction by ZEFSAII (Michael W. Deem and Ramdas Pophale) SiO2 
 PCOD9226077
Probable space group: P 2/C
;
_chemical_formula_sum "Si O2"
_cell_formula_units_Z 24
_cell_length_a 12.456414
_cell_length_b 6.707600
_cell_length_c 12.824492
_cell_angle_alpha 90.000000
_cell_angle_beta 81.798967
_cell_angle_gamma 90.000000
_cell_volume 1060.562465
_symmetry_space_group_name_H-M "P 2/C"
_symmetry_group_IT_number 13
_symmetry_cell_setting 'monoclinic'
loop_
_space_group_symop_operation_xyz
x,y,z
-x,y,1/2-z
-x,-y,-z
x,-y,1/2+z
loop_
_atom_site_type_symbol
_atom_site_label
_atom_site_fract_x
_atom_site_fract_y
_atom_site_fract_z
Si Si1 0.369822 0.634742 0.501720
Si Si2 0.138154 0.590433 0.500868
Si Si3 0.543252 0.734100 0.626277
Si Si4 0.777459 0.795763 0.622377
Si Si5 0.218932 0.498295 0.189671
Si Si6 0.908256 0.828603 0.176448
O O1 0.253876 0.711207 0.476874
O O2 0.451832 0.776692 0.551615
O O3 0.424880 0.496549 0.407139
O O4 0.322761 0.487563 0.600095
O O5 0.167729 0.368079 0.459847
O O6 0.121936 0.579231 0.626709
O O7 0.060215 0.695175 0.429549
O O8 0.500000 0.754224 0.750000
O O9 0.657020 0.850336 0.599884
O O10 0.756863 0.670791 0.730651
O O11 0.858535 0.970295 0.639016
O O12 0.182427 0.696630 0.251668
O O13 0.000000 0.862372 0.250000
#
# Coordination Sequence:
#
# PCOD9226077 Si02
#       6
#     4   4   4   4   4   4
#     4   8  17  31  59  89 108 155 194 232 291 355
#     4   8  19  40  60  82 116 153 193 250 290 351
#     4  10  15  30  61  84 117 155 185 233 295 348
#     4  10  20  35  59  88 125 150 195 247 287 353
#     4   9  19  40  62  81 119 157 195 246 299 349
#     4  11  24  39  60  87 117 157 204 250 301 347
#
# _framework density 22.629501000000001
#
# number of rings (size 3 to 8) (size 9 to 14) (size 15 to 20)
#    1.000    1.667    1.667    0.000    0.000    4.667 
#    0.000    2.500   14.667    0.000    0.000    0.000 
#    0.000    0.000    0.000    0.000    0.000    0.000 
#
# Total GULP energy -133682.614829 kJ/mol
# GULP energy per Si atom -5570.108951 kJ/mol
# Density = 2.257799 g / cm^3
# Si number density = 22.629501 Si / 1000 Ang^3
#
#
#
# Elastic Constant Matrix: (Units=GPa)
#
#
# Indices 1 2 3 4 5 6 
#
# 1 104.6395 16.8423 19.1821 0.0000 27.8173 0.0000
# 2 16.8423 51.5130 9.1946 0.0000 7.2640 0.0000
# 3 19.1821 9.1946 75.6613 0.0000 16.0045 0.0000
# 4 0.0000 0.0000 0.0000 31.2629 0.0000 63.9859
# 5 27.8173 7.2640 16.0045 0.0000 47.3649 0.0000
# 6 0.0000 0.0000 0.0000 63.9859 0.0000 114.8673
#
#
#
# Elastic Compliance Matrix: (Units=1/GPa)
#
#
# Indices 1 2 3 4 5 6 
#
# 1 0.011874 -0.002777 -0.001387 0.000000 -0.006079 0.000000
# 2 -0.002777 0.020749 -0.001604 0.000000 -0.001009 0.000000
# 3 -0.001387 -0.001604 0.014581 0.000000 -0.003866 0.000000
# 4 0.000000 0.000000 0.000000 -0.228316 0.000000 0.127182
# 5 -0.006079 -0.001009 -0.003866 0.000000 0.026144 0.000000
# 6 0.000000 0.000000 0.000000 0.127182 0.000000 -0.062140
#
#
# Mechanical properties :
#
#
# Convention : Reuss Voigt Hill
#
# Bulk Modulus (GPa) = 28.03658 35.80576 31.92117
# Shear Modulus (GPa) = -25.81553 51.13867 12.66157
#
# Velocity S-wave (km/s) = -3.38122 4.75892 2.36798
# Velocity P-wave (km/s) = 1.68145 6.78626 4.64898
#
# Compressibility (1/GPa) = 0.03566769
#
# Stress axis : x y z
#
# Youngs Moduli (GPa) = 84.21807 48.19451 68.58147
#
# Poissons Ratio (x) = 0.13386 0.09512
# Poissons Ratio (y) = 0.23391 0.11000
# Poissons Ratio (z) = 0.11681 0.07730
#
# Static dielectric constant tensor:
#      x y z
#    x 1.998510 0.000000 0.036030 
#    y 0.000000 1.796810 0.000000 
#    z 0.036030 0.000000 1.851190 
# 
# From -- ./inp_files/52243.got.cif
#   From: 2010.05.17/outbox.cif.g08.bks.cpg/sg13_27_cif.got.tgz:52243.got - 2010.06.03 16:44:36.
