data_PCOD9226150
_publ_section_title
;
Structure prediction by ZEFSAII (Michael W. Deem and Ramdas Pophale) SiO2 
 PCOD9226150
Probable space group: P 2/C
;
_chemical_formula_sum "Si O2"
_cell_formula_units_Z 24
_cell_length_a 17.263150
_cell_length_b 13.334601
_cell_length_c 19.447300
_cell_angle_alpha 90.000000
_cell_angle_beta 166.029796
_cell_angle_gamma 90.000000
_cell_volume 1080.756164
_symmetry_space_group_name_H-M "P 2/C"
_symmetry_group_IT_number 13
_symmetry_cell_setting 'monoclinic'
loop_
_space_group_symop_operation_xyz
x,y,z
-x,y,1/2-z
-x,-y,-z
x,-y,1/2+z
loop_
_atom_site_type_symbol
_atom_site_label
_atom_site_fract_x
_atom_site_fract_y
_atom_site_fract_z
Si Si1 0.347110 0.705767 0.274176
Si Si2 0.272512 0.507577 0.674982
Si Si3 0.807025 0.358331 0.701902
Si Si4 0.684865 0.993111 0.845910
Si Si5 0.800014 0.836041 0.737449
Si Si6 0.746354 0.864343 0.125327
O O1 0.377754 0.607292 0.253328
O O2 0.308061 0.670625 0.319821
O O3 0.647712 0.783164 0.538312
O O4 0.014926 0.757330 0.965377
O O5 0.000000 0.500000 0.500000
O O6 0.130904 0.577928 0.492940
O O7 0.564752 0.565082 0.959928
O O8 0.781240 0.253571 0.638499
O O9 0.500000 0.041519 0.750000
O O10 0.421525 0.944666 0.569196
O O11 0.895919 0.898976 0.051506
O O12 0.954803 0.071464 0.055389
O O13 0.486318 0.869600 0.508999
#
# Coordination Sequence:
#
# PCOD9226150 Si02
#       6
#     4   4   4   4   4   4
#     4  10  18  30  51  82 116 146 178 221 278 330
#     4  10  16  27  46  78 118 145 169 217 276 327
#     4  10  18  29  49  79 113 145 178 219 272 328
#     4  12  25  40  57  80 110 148 190 237 288 334
#     4  11  21  36  57  83 112 147 188 231 276 332
#     4  11  21  38  58  82 111 147 188 231 278 333
#
# _framework density 22.206675000000001
#
# number of rings (size 3 to 8) (size 9 to 14) (size 15 to 20)
#    0.000    1.333    0.000   12.500    0.000    0.000 
#    0.000    0.000    0.000    0.000    0.000   17.500 
#    0.000    0.000    0.000    0.000    0.000    0.000 
#
# Total GULP energy -133876.088607 kJ/mol
# GULP energy per Si atom -5578.170359 kJ/mol
# Density = 2.215613 g / cm^3
# Si number density = 22.206675 Si / 1000 Ang^3
#
#
#
# Elastic Constant Matrix: (Units=GPa)
#
#
# Indices 1 2 3 4 5 6 
#
# 1 14.9401 8.6679 7.2564 0.0000 2.5379 0.0000
# 2 8.6679 82.6402 -1.5120 0.0000 -6.0653 0.0000
# 3 7.2564 -1.5120 96.9118 0.0000 -17.1258 0.0000
# 4 0.0000 0.0000 0.0000 38.5361 0.0000 -33.7132
# 5 2.5379 -6.0653 -17.1258 0.0000 25.1968 0.0000
# 6 0.0000 0.0000 0.0000 -33.7132 0.0000 34.8492
#
#
#
# Elastic Compliance Matrix: (Units=1/GPa)
#
#
# Indices 1 2 3 4 5 6 
#
# 1 0.079793 -0.009748 -0.009048 0.000000 -0.016534 0.000000
# 2 -0.009748 0.013566 0.001923 0.000000 0.005555 0.000000
# 3 -0.009048 0.001923 0.012807 0.000000 0.010079 0.000000
# 4 0.000000 0.000000 0.000000 0.168866 0.000000 0.163362
# 5 -0.016534 0.005555 0.010079 0.000000 0.049541 0.000000
# 6 0.000000 0.000000 0.000000 0.163362 0.000000 0.186732
#
#
# Mechanical properties :
#
#
# Convention : Reuss Voigt Hill
#
# Bulk Modulus (GPa) = 13.80846 24.81297 19.31072
# Shear Modulus (GPa) = 8.78437 31.72175 20.25306
#
# Velocity S-wave (km/s) = 1.99106 3.78362 3.02325
# Velocity P-wave (km/s) = 3.39373 5.50324 4.57182
#
# Compressibility (1/GPa) = 0.07241936
#
# Stress axis : x y z
#
# Youngs Moduli (GPa) = 12.53237 73.71377 78.08025
#
# Poissons Ratio (x) = 0.71859 0.70651
# Poissons Ratio (y) = 0.12217 -0.15016
# Poissons Ratio (z) = 0.11340 -0.14176
#
# Static dielectric constant tensor:
#      x y z
#    x 1.865730 0.000000 0.011140 
#    y 0.000000 1.885360 0.000000 
#    z 0.011140 0.000000 1.764180 
# 
# From -- ./inp_files/93866.got.cif
#   From: 2010.05.17/outbox.cif.g08.bks.cpg/sg13_47_cif.got.tgz:93866.got - 2010.06.03 16:44:36.
