data_PCOD9226188
_publ_section_title
;
Structure prediction by ZEFSAII (Michael W. Deem and Ramdas Pophale) SiO2 
 PCOD9226188
Probable space group: P 2/C
;
_chemical_formula_sum "Si O2"
_cell_formula_units_Z 28
_cell_length_a 14.133681
_cell_length_b 22.274735
_cell_length_c 5.284865
_cell_angle_alpha 90.000000
_cell_angle_beta 104.787346
_cell_angle_gamma 90.000000
_cell_volume 1608.696835
_symmetry_space_group_name_H-M "P 2/C"
_symmetry_group_IT_number 13
_symmetry_cell_setting 'monoclinic'
loop_
_space_group_symop_operation_xyz
x,y,z
-x,y,1/2-z
-x,-y,-z
x,-y,1/2+z
loop_
_atom_site_type_symbol
_atom_site_label
_atom_site_fract_x
_atom_site_fract_y
_atom_site_fract_z
Si Si1 0.064824 0.334926 0.048889
Si Si2 0.273679 0.876531 0.621626
Si Si3 0.388716 0.122488 0.702674
Si Si4 0.387268 0.268682 0.694507
Si Si5 0.883325 0.964959 0.163930
Si Si6 0.268041 0.268061 0.116164
Si Si7 0.888939 0.473867 0.403813
O O1 0.159318 0.294140 0.063623
O O2 0.101615 0.402997 0.121626
O O3 0.000000 0.316959 0.250000
O O4 0.000000 0.335608 0.750000
O O5 0.346513 0.894995 0.445228
O O6 0.172052 0.906676 0.474707
O O7 0.263825 0.804531 0.614050
O O8 0.319611 0.895573 0.921300
O O9 0.500000 0.101524 0.750000
O O10 0.390216 0.195574 0.699453
O O11 0.500000 0.288803 0.750000
O O12 0.328297 0.287019 0.405141
O O13 0.327858 0.286654 0.905598
O O14 0.000000 0.956502 0.250000
O O15 0.857665 0.985570 0.430804
O O16 0.841217 0.493591 0.633269
O O17 0.000000 0.500000 0.500000
#
# Coordination Sequence:
#
# PCOD9226188 Si02
#       7
#     4   4   4   4   4   4   4
#     4  12  21  32  48  71 111 145 163 205 244 293
#     4  10  19  34  53  73 103 128 158 210 252 299
#     4   9  17  30  53  78  98 129 162 191 247 314
#     4   9  17  33  52  71 100 133 170 215 247 293
#     4  10  21  37  56  74  90 125 177 217 240 277
#     4  10  21  32  48  80 105 132 169 198 260 320
#     4  10  16  30  48  67  89 137 178 205 228 275
#
# _framework density 17.405394000000001
#
# number of rings (size 3 to 8) (size 9 to 14) (size 15 to 20)
#    0.000    2.000    2.857    2.571    0.000    4.000 
#    0.000    2.143    0.000    8.571    0.000    0.000 
#    0.000   11.429    0.000    0.000    0.000    0.000 
#
# Total GULP energy -156071.679349 kJ/mol
# GULP energy per Si atom -5573.988548 kJ/mol
# Density = 1.736578 g / cm^3
# Si number density = 17.405394 Si / 1000 Ang^3
#
#
#
# Elastic Constant Matrix: (Units=GPa)
#
#
# Indices 1 2 3 4 5 6 
#
# 1 94.6946 28.8738 58.3247 0.0000 -9.0775 0.0000
# 2 28.8738 24.0908 18.9328 0.0000 3.9595 0.0000
# 3 58.3247 18.9328 122.6593 0.0000 -19.0555 0.0000
# 4 0.0000 0.0000 0.0000 9.6162 0.0000 -6.0602
# 5 -9.0775 3.9595 -19.0555 0.0000 30.5190 0.0000
# 6 0.0000 0.0000 0.0000 -6.0602 0.0000 -5.5130
#
#
#
# Elastic Compliance Matrix: (Units=1/GPa)
#
#
# Indices 1 2 3 4 5 6 
#
# 1 0.021440 -0.021920 -0.005957 0.000000 0.005502 0.000000
# 2 -0.021920 0.073849 -0.003851 0.000000 -0.018505 0.000000
# 3 -0.005957 -0.003851 0.012604 0.000000 0.006598 0.000000
# 4 0.000000 0.000000 0.000000 0.061433 0.000000 -0.067531
# 5 0.005502 -0.018505 0.006598 0.000000 0.040923 0.000000
# 6 0.000000 0.000000 0.000000 -0.067531 0.000000 -0.107157
#
#
# Mechanical properties :
#
#
# Convention : Reuss Voigt Hill
#
# Bulk Modulus (GPa) = 22.50263 50.41191 36.45727
# Shear Modulus (GPa) = 27.56923 15.94534 21.75728
#
# Velocity S-wave (km/s) = 3.98420 3.03002 3.53941
# Velocity P-wave (km/s) = 5.84138 6.42399 6.13960
#
# Compressibility (1/GPa) = 0.04443924
#
# Stress axis : x y z
#
# Youngs Moduli (GPa) = 46.64116 13.54106 79.33676
#
# Poissons Ratio (x) = 0.29682 0.47259
# Poissons Ratio (y) = 1.02237 0.30551
# Poissons Ratio (z) = 0.27783 0.05214
#
# Static dielectric constant tensor:
#      x y z
#    x 1.587830 0.000000 -0.035170 
#    y 0.000000 1.577680 0.000000 
#    z -0.035170 0.000000 1.677370 
# 
# From -- ./inp_files/4150.got.cif
#   From: 2010.05.17/outbox.cif.g08.bks.cpg/sg13_3_cif.got.tgz:4150.got - 2010.06.03 16:44:36.
