data_PCOD9226761
_publ_section_title
;
Structure prediction by ZEFSAII (Michael W. Deem and Ramdas Pophale) SiO2 
 PCOD9226761
Probable space group: P 2/C
;
_chemical_formula_sum "Si O2"
_cell_formula_units_Z 30
_cell_length_a 6.252812
_cell_length_b 12.168371
_cell_length_c 25.837743
_cell_angle_alpha 90.000000
_cell_angle_beta 54.824601
_cell_angle_gamma 90.000000
_cell_volume 1606.915142
_symmetry_space_group_name_H-M "P 2/C"
_symmetry_group_IT_number 13
_symmetry_cell_setting 'monoclinic'
loop_
_space_group_symop_operation_xyz
x,y,z
-x,y,1/2-z
-x,-y,-z
x,-y,1/2+z
loop_
_atom_site_type_symbol
_atom_site_label
_atom_site_fract_x
_atom_site_fract_y
_atom_site_fract_z
Si Si1 0.716314 0.943489 0.542982
Si Si2 0.500000 0.607286 0.750000
Si Si3 0.977599 0.790456 0.581512
Si Si4 0.460077 0.852867 0.042003
Si Si5 0.022021 0.749327 0.689357
Si Si6 0.280273 0.530724 0.683667
Si Si7 0.096539 0.449805 0.040198
Si Si8 0.663632 0.615890 0.421402
O O1 0.670316 0.883036 0.494719
O O2 0.743824 0.859697 0.587407
O O3 0.497429 0.039887 0.573019
O O4 0.000000 0.000000 0.500000
O O5 0.490818 0.536278 0.699667
O O6 0.751240 0.683757 0.719673
O O7 0.242036 0.819621 0.513751
O O8 0.039371 0.815130 0.633367
O O9 0.941527 0.659229 0.579274
O O10 0.314011 0.746872 0.084718
O O11 0.239009 0.651749 0.663298
O O12 0.000000 0.801804 0.750000
O O13 0.350785 0.441925 0.631714
O O14 0.000000 0.507118 0.750000
O O15 0.114741 0.548542 0.078661
O O16 0.393003 0.407446 0.989460
O O17 0.000000 0.500000 0.000000
#
# Coordination Sequence:
#
# PCOD9226761 Si02
#       8
#     4   2   4   4   4   4   4   4
#     4   9  18  33  50  70  94 122 167 203 252 307
#     4   8  18  30  46  66  94 138 166 194 230 280
#     4  10  18  30  48  71  98 132 161 200 250 300
#     4   9  19  33  48  72  98 125 161 207 253 301
#     4   9  18  31  44  68  98 128 169 198 235 296
#     4   9  18  31  45  66  97 131 170 198 230 289
#     4  10  20  28  43  73 104 132 160 193 242 305
#     4  10  19  31  46  70 101 132 160 200 247 294
#
# _framework density 18.669312000000001
#
# number of rings (size 3 to 8) (size 9 to 14) (size 15 to 20)
#    0.000    2.933    1.333    0.800    1.867    2.133 
#    0.000    0.000    0.000    0.000    0.000   22.400 
#    0.000    0.000    0.000    0.000    0.000    0.000 
#
# Total GULP energy -167065.337303 kJ/mol
# GULP energy per Si atom -5568.844577 kJ/mol
# Density = 1.862682 g / cm^3
# Si number density = 18.669312 Si / 1000 Ang^3
#
#
#
# Elastic Constant Matrix: (Units=GPa)
#
#
# Indices 1 2 3 4 5 6 
#
# 1 99.7407 47.2972 14.5310 0.0000 35.1985 0.0000
# 2 47.2972 99.7316 28.6532 0.0000 19.9281 0.0000
# 3 14.5310 28.6532 47.6347 0.0000 20.6837 0.0000
# 4 0.0000 0.0000 0.0000 15.7856 0.0000 10.1618
# 5 35.1985 19.9281 20.6837 0.0000 32.9610 0.0000
# 6 0.0000 0.0000 0.0000 10.1618 0.0000 21.3738
#
#
#
# Elastic Compliance Matrix: (Units=1/GPa)
#
#
# Indices 1 2 3 4 5 6 
#
# 1 0.020153 -0.007426 0.007855 0.000000 -0.021960 0.000000
# 2 -0.007426 0.015212 -0.008707 0.000000 0.004197 0.000000
# 3 0.007855 -0.008707 0.034626 0.000000 -0.024852 0.000000
# 4 0.000000 0.000000 0.000000 0.091288 0.000000 -0.043401
# 5 -0.021960 0.004197 -0.024852 0.000000 0.066847 0.000000
# 6 0.000000 0.000000 0.000000 -0.043401 0.000000 0.067420
#
#
# Mechanical properties :
#
#
# Convention : Reuss Voigt Hill
#
# Bulk Modulus (GPa) = 18.71504 47.56332 33.13918
# Shear Modulus (GPa) = 15.15545 24.46578 19.81062
#
# Velocity S-wave (km/s) = 2.85227 3.62398 3.26104
# Velocity P-wave (km/s) = 4.57095 6.56072 5.65405
#
# Compressibility (1/GPa) = 0.05343296
#
# Stress axis : x y z
#
# Youngs Moduli (GPa) = 49.62077 65.73921 28.88022
#
# Poissons Ratio (x) = 0.48818 -0.22685
# Poissons Ratio (y) = 0.36849 0.25147
# Poissons Ratio (z) = -0.38976 0.57241
#
# Static dielectric constant tensor:
#      x y z
#    x 1.693440 0.000000 0.003500 
#    y 0.000000 1.698900 0.000000 
#    z 0.003500 0.000000 1.693550 
# 
# From -- ./inp_files/83748.got.cif
#   From: 2010.05.17/outbox.cif.g08.bks.cpg/sg13_42_cif.got.tgz:83748.got - 2010.06.03 16:44:36.
