data_PCOD9226714
_publ_section_title
;
Structure prediction by ZEFSAII (Michael W. Deem and Ramdas Pophale) SiO2 
 PCOD9226714
Probable space group: P 2/C
;
_chemical_formula_sum "Si O2"
_cell_formula_units_Z 26
_cell_length_a 18.161598
_cell_length_b 5.522933
_cell_length_c 23.028156
_cell_angle_alpha 90.000000
_cell_angle_beta 36.326176
_cell_angle_gamma 90.000000
_cell_volume 1368.309508
_symmetry_space_group_name_H-M "P 2/C"
_symmetry_group_IT_number 13
_symmetry_cell_setting 'monoclinic'
loop_
_space_group_symop_operation_xyz
x,y,z
-x,y,1/2-z
-x,-y,-z
x,-y,1/2+z
loop_
_atom_site_type_symbol
_atom_site_label
_atom_site_fract_x
_atom_site_fract_y
_atom_site_fract_z
Si Si1 0.005191 0.962625 0.067346
Si Si2 0.576370 0.249074 0.464217
Si Si3 0.262124 0.941793 0.736905
Si Si4 0.905436 0.460673 0.505690
Si Si5 0.500000 0.962068 0.750000
Si Si6 0.495744 0.749677 0.136087
Si Si7 0.672310 0.616914 0.703741
O O1 0.086397 0.725258 0.028724
O O2 0.868923 0.923734 0.181284
O O3 0.055013 0.225197 0.055006
O O4 0.000000 0.000000 0.000000
O O5 0.500000 0.500000 0.500000
O O6 0.693845 0.209613 0.347309
O O7 0.595554 0.254250 0.521421
O O8 0.500000 0.000000 0.500000
O O9 0.248045 0.757901 0.799419
O O10 0.374280 0.117570 0.685524
O O11 0.764932 0.422084 0.617699
O O12 0.000000 0.500000 0.500000
O O13 0.616669 0.795082 0.691754
O O14 0.471454 0.118069 0.825194
O O15 0.445320 0.489348 0.187296
#
# Coordination Sequence:
#
# PCOD9226714 Si02
#       7
#     4   4   4   4   2   4   4
#     4  10  18  29  45  77 107 134 168 206 277 330
#     4  10  20  33  52  79 107 146 177 218 279 337
#     4  10  19  30  52  77 112 140 170 223 281 337
#     4  10  19  29  49  75 105 139 169 216 276 327
#     4  10  24  34  50  78 106 150 190 228 278 324
#     4  10  20  35  51  74 112 143 188 223 275 341
#     4  11  19  33  52  73 112 143 181 226 274 341
#
# _framework density 19.001548
#
# number of rings (size 3 to 8) (size 9 to 14) (size 15 to 20)
#    0.000    1.846    4.615    2.308    2.154    0.000 
#    0.000    0.000    0.000    0.000    0.000    1.077 
#    0.000    0.000    0.000    0.000    0.000    0.000 
#
# Total GULP energy -144789.935169 kJ/mol
# GULP energy per Si atom -5568.843660 kJ/mol
# Density = 1.895830 g / cm^3
# Si number density = 19.001548 Si / 1000 Ang^3
#
#
#
# Elastic Constant Matrix: (Units=GPa)
#
#
# Indices 1 2 3 4 5 6 
#
# 1 38.7192 5.9447 31.6653 0.0000 17.4867 0.0000
# 2 5.9447 92.2867 6.3917 0.0000 6.4137 0.0000
# 3 31.6653 6.3917 99.5216 0.0000 6.2940 0.0000
# 4 0.0000 0.0000 0.0000 28.4986 0.0000 -2.0621
# 5 17.4867 6.4137 6.2940 0.0000 16.7539 0.0000
# 6 0.0000 0.0000 0.0000 -2.0621 0.0000 6.2207
#
#
#
# Elastic Compliance Matrix: (Units=1/GPa)
#
#
# Indices 1 2 3 4 5 6 
#
# 1 0.071684 0.001422 -0.018575 0.000000 -0.068386 0.000000
# 2 0.001422 0.011180 -0.000825 0.000000 -0.005454 0.000000
# 3 -0.018575 -0.000825 0.015124 0.000000 0.014021 0.000000
# 4 0.000000 0.000000 0.000000 0.035952 0.000000 0.011918
# 5 -0.068386 -0.005454 0.014021 0.000000 0.127885 0.000000
# 6 0.000000 0.000000 0.000000 0.011918 0.000000 0.164705
#
#
# Mechanical properties :
#
#
# Convention : Reuss Voigt Hill
#
# Bulk Modulus (GPa) = 16.12070 35.39230 25.75650
# Shear Modulus (GPa) = 10.34843 22.72968 16.53905
#
# Velocity S-wave (km/s) = 2.33622 3.46237 2.95346
# Velocity P-wave (km/s) = 3.97235 5.88646 5.02145
#
# Compressibility (1/GPa) = 0.06203203
#
# Stress axis : x y z
#
# Youngs Moduli (GPa) = 13.95006 89.44217 66.11875
#
# Poissons Ratio (x) = -0.12714 1.22813
# Poissons Ratio (y) = -0.01983 0.05458
# Poissons Ratio (z) = 0.25912 0.07383
#
# Static dielectric constant tensor:
#      x y z
#    x 1.662210 0.000000 -0.012390 
#    y 0.000000 1.769730 0.000000 
#    z -0.012390 0.000000 1.675010 
# 
# From -- ./inp_files/77271.got.cif
#   From: 2010.05.17/outbox.cif.g08.bks.cpg/sg13_39_cif.got.tgz:77271.got - 2010.06.03 16:44:36.
