data_PCOD9226688
_publ_section_title
;
Structure prediction by ZEFSAII (Michael W. Deem and Ramdas Pophale) SiO2 
 PCOD9226688
Probable space group: P 2/C
;
_chemical_formula_sum "Si O2"
_cell_formula_units_Z 14
_cell_length_a 6.849308
_cell_length_b 15.500157
_cell_length_c 5.522293
_cell_angle_alpha 90.000000
_cell_angle_beta 77.590914
_cell_angle_gamma 90.000000
_cell_volume 572.579707
_symmetry_space_group_name_H-M "P 2/C"
_symmetry_group_IT_number 13
_symmetry_cell_setting 'monoclinic'
loop_
_space_group_symop_operation_xyz
x,y,z
-x,y,1/2-z
-x,-y,-z
x,-y,1/2+z
loop_
_atom_site_type_symbol
_atom_site_label
_atom_site_fract_x
_atom_site_fract_y
_atom_site_fract_z
Si Si1 0.764516 0.210920 0.590733
Si Si2 0.500000 0.946875 0.250000
Si Si3 0.779146 0.275130 0.085954
Si Si4 0.226795 0.528236 0.733744
O O1 0.693477 0.116177 0.687778
O O2 0.684637 0.226662 0.340958
O O3 0.999275 0.233480 0.501148
O O4 0.696050 0.269135 0.836476
O O5 0.500000 0.000000 0.500000
O O6 0.783561 0.373550 0.172962
O O7 0.313422 0.522589 0.440415
O O8 0.000000 0.494727 0.750000
#
# Coordination Sequence:
#
# PCOD9226688 Si02
#       4
#     4   2   4   4
#     4  10  21  37  60  82 113 145 185 234 282 341
#     4  12  26  46  62  84 110 144 186 234 294 360
#     4  10  19  37  57  90 115 148 195 231 269 329
#     4  10  18  26  48  86 122 149 182 234 273 303
#
# _framework density 24.450745999999999
#
# number of rings (size 3 to 8) (size 9 to 14) (size 15 to 20)
#    0.000    1.714    2.857    3.429    8.000    0.000 
#    0.000   17.143    0.000    0.000    0.000   34.000 
#    0.000    0.000    0.000    0.000    0.000    0.000 
#
# Total GULP energy -78138.047757 kJ/mol
# GULP energy per Si atom -5581.289125 kJ/mol
# Density = 2.439509 g / cm^3
# Si number density = 24.450746 Si / 1000 Ang^3
#
#
#
# Elastic Constant Matrix: (Units=GPa)
#
#
# Indices 1 2 3 4 5 6 
#
# 1 97.6526 20.4980 65.1924 0.0000 2.6133 0.0000
# 2 20.4980 150.4836 92.4534 0.0000 0.8279 0.0000
# 3 65.1924 92.4534 330.4480 0.0000 18.1425 0.0000
# 4 0.0000 0.0000 0.0000 70.4677 0.0000 -14.8143
# 5 2.6133 0.8279 18.1425 0.0000 56.9836 0.0000
# 6 0.0000 0.0000 0.0000 -14.8143 0.0000 90.8275
#
#
#
# Elastic Compliance Matrix: (Units=1/GPa)
#
#
# Indices 1 2 3 4 5 6 
#
# 1 0.011801 -0.000207 -0.002280 0.000000 0.000188 0.000000
# 2 -0.000207 0.008049 -0.002244 0.000000 0.000607 0.000000
# 3 -0.002280 -0.002244 0.004169 0.000000 -0.001190 0.000000
# 4 0.000000 0.000000 0.000000 0.014695 0.000000 0.002397
# 5 0.000188 0.000607 -0.001190 0.000000 0.017910 0.000000
# 6 0.000000 0.000000 0.000000 0.002397 0.000000 0.011401
#
#
# Mechanical properties :
#
#
# Convention : Reuss Voigt Hill
#
# Bulk Modulus (GPa) = 68.70440 103.87464 86.28952
# Shear Modulus (GPa) = 60.72220 70.35178 65.53699
#
# Velocity S-wave (km/s) = 4.98883 5.36985 5.18284
# Velocity P-wave (km/s) = 7.83228 9.00125 8.43704
#
# Compressibility (1/GPa) = 0.01455511
#
# Stress axis : x y z
#
# Youngs Moduli (GPa) = 84.73603 124.23814 239.84328
#
# Poissons Ratio (x) = 0.02577 0.54696
# Poissons Ratio (y) = 0.01758 0.53830
# Poissons Ratio (z) = 0.19324 0.27884
#
# Static dielectric constant tensor:
#      x y z
#    x 2.097100 0.000000 0.008470 
#    y 0.000000 1.910590 0.000000 
#    z 0.008470 0.000000 2.010720 
# 
# From -- ./inp_files/867.got.cif
#   From: 2010.05.17/outbox.cif.g08.bks.cpg/sg13_1_cif.got.tgz:867.got - 2010.06.03 16:44:36.
