data_PCOD9226632
_publ_section_title
;
Structure prediction by ZEFSAII (Michael W. Deem and Ramdas Pophale) SiO2 
 PCOD9226632
Probable space group: P 2/C
;
_chemical_formula_sum "Si O2"
_cell_formula_units_Z 20
_cell_length_a 9.570741
_cell_length_b 12.875600
_cell_length_c 9.229449
_cell_angle_alpha 90.000000
_cell_angle_beta 133.801871
_cell_angle_gamma 90.000000
_cell_volume 820.858237
_symmetry_space_group_name_H-M "P 2/C"
_symmetry_group_IT_number 13
_symmetry_cell_setting 'monoclinic'
loop_
_space_group_symop_operation_xyz
x,y,z
-x,y,1/2-z
-x,-y,-z
x,-y,1/2+z
loop_
_atom_site_type_symbol
_atom_site_label
_atom_site_fract_x
_atom_site_fract_y
_atom_site_fract_z
Si Si1 0.422114 0.359400 0.907134
Si Si2 0.720951 0.000385 0.599202
Si Si3 0.912222 0.198911 0.845484
Si Si4 0.500000 0.131116 0.250000
Si Si5 0.248696 0.774262 0.810819
Si Si6 0.500000 0.469453 0.250000
O O1 0.282947 0.263713 0.773626
O O2 0.378311 0.454465 0.767334
O O3 0.648066 0.324098 0.042530
O O4 0.395034 0.399670 0.052990
O O5 0.776644 0.881237 0.618574
O O6 0.500000 0.000000 0.500000
O O7 0.855021 0.076344 0.790306
O O8 0.684280 0.061670 0.424337
O O9 0.000000 0.225197 0.750000
O O10 0.058901 0.233328 0.076676
O O11 0.578092 0.199132 0.177177
#
# Coordination Sequence:
#
# PCOD9226632 Si02
#       6
#     4   4   4   2   4   2
#     4  11  23  47  70 100 128 175 226 281 343 396
#     4  10  20  35  57  94 133 170 217 252 309 393
#     4  12  21  38  68  97 131 177 220 266 333 404
#     4  10  17  35  58  86 132 182 209 253 314 382
#     4  11  21  38  62  94 132 172 217 263 323 397
#     4  10  25  47  74  92 132 170 223 299 348 382
#
# _framework density 24.364744999999999
#
# number of rings (size 3 to 8) (size 9 to 14) (size 15 to 20)
#    0.000    1.200    6.000    2.400    0.000    0.800 
#    0.000   12.000    0.000    0.000    0.000    0.000 
#    0.000    0.000    0.000    0.000    0.000    0.000 
#
# Total GULP energy -111671.774926 kJ/mol
# GULP energy per Si atom -5583.588746 kJ/mol
# Density = 2.430929 g / cm^3
# Si number density = 24.364745 Si / 1000 Ang^3
#
#
#
# Elastic Constant Matrix: (Units=GPa)
#
#
# Indices 1 2 3 4 5 6 
#
# 1 50.1094 9.5456 15.4209 0.0000 2.5785 0.0000
# 2 9.5456 106.5915 49.1135 0.0000 0.8596 0.0000
# 3 15.4209 49.1135 157.7694 0.0000 22.8532 0.0000
# 4 0.0000 0.0000 0.0000 21.2919 0.0000 -17.7183
# 5 2.5785 0.8596 22.8532 0.0000 36.3115 0.0000
# 6 0.0000 0.0000 0.0000 -17.7183 0.0000 22.3233
#
#
#
# Elastic Compliance Matrix: (Units=1/GPa)
#
#
# Indices 1 2 3 4 5 6 
#
# 1 0.020686 -0.001104 -0.001617 0.000000 -0.000425 0.000000
# 2 -0.001104 0.011156 -0.003673 0.000000 0.002126 0.000000
# 3 -0.001617 -0.003673 0.008374 0.000000 -0.005068 0.000000
# 4 0.000000 0.000000 0.000000 0.138340 0.000000 0.109802
# 5 -0.000425 0.002126 -0.005068 0.000000 0.030709 0.000000
# 6 0.000000 0.000000 0.000000 0.109802 0.000000 0.131948
#
#
# Mechanical properties :
#
#
# Convention : Reuss Voigt Hill
#
# Bulk Modulus (GPa) = 36.45838 51.40336 43.93087
# Shear Modulus (GPa) = 13.76872 32.01135 22.89004
#
# Velocity S-wave (km/s) = 2.37978 3.62862 3.06841
# Velocity P-wave (km/s) = 4.74839 6.22086 5.53382
#
# Compressibility (1/GPa) = 0.02742854
#
# Stress axis : x y z
#
# Youngs Moduli (GPa) = 48.34171 89.64095 119.41901
#
# Poissons Ratio (x) = 0.09898 0.19305
# Poissons Ratio (y) = 0.05338 0.43859
# Poissons Ratio (z) = 0.07815 0.32923
#
# Static dielectric constant tensor:
#      x y z
#    x 2.006410 0.000000 -0.062670 
#    y 0.000000 2.035720 0.000000 
#    z -0.062670 0.000000 2.010360 
# 
# From -- ./inp_files/33440.got.cif
#   From: 2010.05.17/outbox.cif.g08.bks.cpg/sg13_17_cif.got.tgz:33440.got - 2010.06.03 16:44:36.
