data_PCOD9226144
_publ_section_title
;
Structure prediction by ZEFSAII (Michael W. Deem and Ramdas Pophale) SiO2 
 PCOD9226144
Probable space group: P 2/C
;
_chemical_formula_sum "Si O2"
_cell_formula_units_Z 28
_cell_length_a 33.334161
_cell_length_b 9.092582
_cell_length_c 8.897515
_cell_angle_alpha 90.000000
_cell_angle_beta 147.293698
_cell_angle_gamma 90.000000
_cell_volume 1457.158775
_symmetry_space_group_name_H-M "P 2/C"
_symmetry_group_IT_number 13
_symmetry_cell_setting 'monoclinic'
loop_
_space_group_symop_operation_xyz
x,y,z
-x,y,1/2-z
-x,-y,-z
x,-y,1/2+z
loop_
_atom_site_type_symbol
_atom_site_label
_atom_site_fract_x
_atom_site_fract_y
_atom_site_fract_z
Si Si1 0.750586 0.447127 0.634765
Si Si2 0.639550 0.211046 0.403851
Si Si3 0.896087 0.601621 0.179394
Si Si4 0.641556 0.936769 0.590797
Si Si5 0.500000 0.464015 0.250000
Si Si6 0.000000 0.547716 0.250000
Si Si7 0.247358 0.708814 0.679335
Si Si8 0.469381 0.298266 0.873802
O O1 0.704029 0.329935 0.584412
O O2 0.837358 0.469499 0.954260
O O3 0.720988 0.609726 0.584393
O O4 0.746752 0.393885 0.451307
O O5 0.643314 0.107465 0.560263
O O6 0.643769 0.103448 0.272438
O O7 0.558121 0.281753 0.143360
O O8 0.944702 0.634661 0.186010
O O9 0.949710 0.550483 0.480998
O O10 0.839230 0.726729 0.054010
O O11 0.709623 0.855153 0.723279
O O12 0.570044 0.852041 0.295954
O O13 0.544335 0.361438 0.504482
O O14 0.550217 0.573917 0.307776
#
# Coordination Sequence:
#
# PCOD9226144 Si02
#       8
#     4   4   4   4   2   2   4   4
#     4   9  19  34  53  80 113 143 179 228 271 328
#     4  11  24  39  56  79 112 153 192 233 282 328
#     4   9  16  30  50  85 114 138 172 225 264 334
#     4  11  24  39  56  79 112 153 192 233 282 328
#     4  10  24  34  60  80 104 134 176 236 308 324
#     4  10  16  26  54  86 114 136 170 212 290 314
#     4   9  19  34  53  80 113 143 179 228 271 328
#     4  11  23  40  57  86 109 141 194 249 275 336
#
# _framework density 19.215475999999999
#
# number of rings (size 3 to 8) (size 9 to 14) (size 15 to 20)
#    0.857    1.143    2.857    0.429    6.000    1.143 
#    0.000    0.000    0.000    0.000    0.000    6.000 
#    0.000    0.000    0.000    0.000    0.000    0.000 
#
# Total GULP energy -156062.507778 kJ/mol
# GULP energy per Si atom -5573.660992 kJ/mol
# Density = 1.917174 g / cm^3
# Si number density = 19.215476 Si / 1000 Ang^3
#
#
#
# Elastic Constant Matrix: (Units=GPa)
#
#
# Indices 1 2 3 4 5 6 
#
# 1 85.0391 14.8432 30.4233 0.0000 11.9335 0.0000
# 2 14.8432 26.3976 7.0865 0.0000 3.9463 0.0000
# 3 30.4233 7.0865 64.6734 0.0000 15.0718 0.0000
# 4 0.0000 0.0000 0.0000 7.8479 0.0000 -23.5684
# 5 11.9335 3.9463 15.0718 0.0000 31.8722 0.0000
# 6 0.0000 0.0000 0.0000 -23.5684 0.0000 4.8012
#
#
#
# Elastic Compliance Matrix: (Units=1/GPa)
#
#
# Indices 1 2 3 4 5 6 
#
# 1 0.015375 -0.006720 -0.006011 0.000000 -0.002082 0.000000
# 2 -0.006720 0.042253 -0.000939 0.000000 -0.002271 0.000000
# 3 -0.006011 -0.000939 0.020051 0.000000 -0.007115 0.000000
# 4 0.000000 0.000000 0.000000 -0.009273 0.000000 -0.045517
# 5 -0.002082 -0.002271 -0.007115 0.000000 0.035801 0.000000
# 6 0.000000 0.000000 0.000000 -0.045517 0.000000 -0.015157
#
#
# Mechanical properties :
#
#
# Convention : Reuss Voigt Hill
#
# Bulk Modulus (GPa) = 19.86585 31.20179 25.53382
# Shear Modulus (GPa) = 37.54595 17.15475 27.35035
#
# Velocity S-wave (km/s) = 4.42514 2.99115 3.77682
# Velocity P-wave (km/s) = 6.03904 5.31059 5.68649
#
# Compressibility (1/GPa) = 0.05033765
#
# Stress axis : x y z
#
# Youngs Moduli (GPa) = 65.04091 23.66712 49.87296
#
# Poissons Ratio (x) = 0.15905 0.29979
# Poissons Ratio (y) = 0.43709 0.04684
# Poissons Ratio (z) = 0.39096 0.02223
#
# Static dielectric constant tensor:
#      x y z
#    x 1.725600 0.000000 -0.001650 
#    y 0.000000 1.641230 0.000000 
#    z -0.001650 0.000000 1.685240 
# 
# From -- ./inp_files/24900.got.cif
#   From: 2010.05.17/outbox.cif.g08.bks.cpg/sg13_13_cif.got.tgz:24900.got - 2010.06.03 16:44:36.
