data_PCOD9226725
_publ_section_title
;
Structure prediction by ZEFSAII (Michael W. Deem and Ramdas Pophale) SiO2 
 PCOD9226725
Probable space group: P 2/C
;
_chemical_formula_sum "Si O2"
_cell_formula_units_Z 30
_cell_length_a 6.404025
_cell_length_b 11.961832
_cell_length_c 23.309138
_cell_angle_alpha 90.000000
_cell_angle_beta 101.632387
_cell_angle_gamma 90.000000
_cell_volume 1748.897149
_symmetry_space_group_name_H-M "P 2/C"
_symmetry_group_IT_number 13
_symmetry_cell_setting 'monoclinic'
loop_
_space_group_symop_operation_xyz
x,y,z
-x,y,1/2-z
-x,-y,-z
x,-y,1/2+z
loop_
_atom_site_type_symbol
_atom_site_label
_atom_site_fract_x
_atom_site_fract_y
_atom_site_fract_z
Si Si1 0.411342 0.434782 0.551582
Si Si2 0.666248 0.165264 0.310269
Si Si3 0.341525 0.795668 0.432697
Si Si4 0.363953 0.993523 0.352201
Si Si5 0.335072 0.834512 0.952014
Si Si6 0.385873 0.340233 0.094184
Si Si7 0.005552 0.284206 0.509985
Si Si8 0.000000 0.935705 0.750000
O O1 0.500000 0.500000 0.500000
O O2 0.555724 0.326336 0.569203
O O3 0.422852 0.528254 0.601456
O O4 0.174637 0.382866 0.531422
O O5 0.500000 0.188522 0.250000
O O6 0.672403 0.269085 0.353411
O O7 0.888383 0.138019 0.292774
O O8 0.572951 0.056362 0.338675
O O9 0.379589 0.870827 0.379300
O O10 0.470641 0.854111 0.492635
O O11 0.100336 0.774180 0.440460
O O12 0.300628 0.070149 0.403513
O O13 0.186904 0.997933 0.292556
O O14 0.410574 0.723144 0.922036
O O15 0.131452 0.806253 0.978885
O O16 0.191821 0.328323 0.038401
#
# Coordination Sequence:
#
# PCOD9226725 Si02
#       8
#     4   4   4   4   4   4   4   2
#     4  11  19  33  49  75 107 143 177 201 251 315
#     4   9  20  37  57  77 100 129 173 224 269 308
#     4  10  21  31  48  78 107 141 173 204 255 314
#     4  10  20  35  52  75 106 135 169 218 261 313
#     4   9  18  31  49  76 107 137 167 208 260 312
#     4  10  18  31  53  77 103 139 169 213 262 301
#     4  10  18  29  49  77 107 138 171 206 248 311
#     4  10  20  36  56  78  94 130 180 216 266 318
#
# _framework density 17.153668
#
# number of rings (size 3 to 8) (size 9 to 14) (size 15 to 20)
#    0.000    2.133    4.000    1.600    0.000    2.667 
#    0.000    0.000    0.000    4.000    0.000    0.933 
#    0.000    0.000    0.000    0.000    0.000    0.000 
#
# Total GULP energy -167178.960373 kJ/mol
# GULP energy per Si atom -5572.632012 kJ/mol
# Density = 1.711463 g / cm^3
# Si number density = 17.153668 Si / 1000 Ang^3
#
#
#
# Elastic Constant Matrix: (Units=GPa)
#
#
# Indices 1 2 3 4 5 6 
#
# 1 83.2213 37.0173 18.3149 0.0000 -19.6696 0.0000
# 2 37.0173 112.8273 46.2585 0.0000 -14.5528 0.0000
# 3 18.3149 46.2585 64.9718 0.0000 -15.7623 0.0000
# 4 0.0000 0.0000 0.0000 22.7272 0.0000 -3.4249
# 5 -19.6696 -14.5528 -15.7623 0.0000 22.4008 0.0000
# 6 0.0000 0.0000 0.0000 -3.4249 0.0000 7.8412
#
#
#
# Elastic Compliance Matrix: (Units=1/GPa)
#
#
# Indices 1 2 3 4 5 6 
#
# 1 0.016699 -0.004475 0.001604 0.000000 0.012885 0.000000
# 2 -0.004475 0.013810 -0.008860 0.000000 -0.001192 0.000000
# 3 0.001604 -0.008860 0.024349 0.000000 0.012786 0.000000
# 4 0.000000 0.000000 0.000000 0.047100 0.000000 0.020573
# 5 0.012885 -0.001192 0.012786 0.000000 0.064178 0.000000
# 6 0.000000 0.000000 0.000000 0.020573 0.000000 0.136518
#
#
# Mechanical properties :
#
#
# Convention : Reuss Voigt Hill
#
# Bulk Modulus (GPa) = 31.84975 51.57796 41.71386
# Shear Modulus (GPa) = 14.85528 21.22249 18.03888
#
# Velocity S-wave (km/s) = 2.94600 3.52120 3.24636
# Velocity P-wave (km/s) = 5.49359 6.83120 6.19858
#
# Compressibility (1/GPa) = 0.03139742
#
# Stress axis : x y z
#
# Youngs Moduli (GPa) = 59.88477 72.41088 41.06905
#
# Poissons Ratio (x) = 0.32401 -0.06589
# Poissons Ratio (y) = 0.26796 0.36388
# Poissons Ratio (z) = -0.09608 0.64158
#
# Static dielectric constant tensor:
#      x y z
#    x 1.618760 0.000000 -0.004230 
#    y 0.000000 1.594660 0.000000 
#    z -0.004230 0.000000 1.586610 
# 
# From -- ./inp_files/83689.got.cif
#   From: 2010.05.17/outbox.cif.g08.bks.cpg/sg13_42_cif.got.tgz:83689.got - 2010.06.03 16:44:36.
