data_PCOD9226142
_publ_section_title
;
Structure prediction by ZEFSAII (Michael W. Deem and Ramdas Pophale) SiO2 
 PCOD9226142
Probable space group: P 2/C
;
_chemical_formula_sum "Si O2"
_cell_formula_units_Z 26
_cell_length_a 12.102728
_cell_length_b 21.596591
_cell_length_c 5.677717
_cell_angle_alpha 90.000000
_cell_angle_beta 115.448729
_cell_angle_gamma 90.000000
_cell_volume 1340.033388
_symmetry_space_group_name_H-M "P 2/C"
_symmetry_group_IT_number 13
_symmetry_cell_setting 'monoclinic'
loop_
_space_group_symop_operation_xyz
x,y,z
-x,y,1/2-z
-x,-y,-z
x,-y,1/2+z
loop_
_atom_site_type_symbol
_atom_site_label
_atom_site_fract_x
_atom_site_fract_y
_atom_site_fract_z
Si Si1 0.000000 0.352543 0.750000
Si Si2 0.640121 0.975877 0.126750
Si Si3 0.346148 0.523280 0.718088
Si Si4 0.245794 0.650123 0.710566
Si Si5 0.361749 0.827642 0.376235
Si Si6 0.643112 0.220191 0.126520
Si Si7 0.879529 0.439050 0.026018
O O1 0.878855 0.322320 0.522350
O O2 0.935061 0.396464 0.876861
O O3 0.635486 0.901771 0.120031
O O4 0.694125 0.999566 0.426843
O O5 0.500000 0.000000 0.000000
O O6 0.396926 0.491723 0.526326
O O7 0.323856 0.596319 0.649036
O O8 0.212984 0.491775 0.631020
O O9 0.333622 0.706567 0.853048
O O10 0.193648 0.609917 0.879121
O O11 0.307053 0.805090 0.576329
O O12 0.500406 0.800252 0.498908
O O13 0.305269 0.805871 0.074496
O O14 0.000000 0.467788 0.250000
#
# Coordination Sequence:
#
# PCOD9226142 Si02
#       7
#     2   4   4   4   4   4   4
#     4  10  18  32  46  68 100 118 162 198 266 304
#     4  10  16  26  49  76 106 127 151 185 241 288
#     4  10  19  30  44  65  90 116 149 198 260 310
#     4  10  21  30  47  69  95 131 161 205 246 303
#     4  10  20  35  51  75 101 140 167 197 226 273
#     4  10  20  33  50  68  99 134 180 195 226 282
#     4   9  19  30  45  67  93 121 153 203 269 317
#
# _framework density 19.402501000000001
#
# number of rings (size 3 to 8) (size 9 to 14) (size 15 to 20)
#    0.000    2.154    1.538    4.615    3.231    1.846 
#    0.000    0.000    0.000    0.000    0.000   51.692 
#    0.000    0.000    0.000   51.231    0.000    0.000 
#
# Total GULP energy -144740.198176 kJ/mol
# GULP energy per Si atom -5566.930699 kJ/mol
# Density = 1.935834 g / cm^3
# Si number density = 19.402501 Si / 1000 Ang^3
#
#
#
# Elastic Constant Matrix: (Units=GPa)
#
#
# Indices 1 2 3 4 5 6 
#
# 1 49.3013 22.0290 33.5304 0.0000 -11.5406 0.0000
# 2 22.0290 145.7755 41.0057 0.0000 2.6284 0.0000
# 3 33.5304 41.0057 131.1493 0.0000 -24.5252 0.0000
# 4 0.0000 0.0000 0.0000 40.5197 0.0000 3.0646
# 5 -11.5406 2.6284 -24.5252 0.0000 30.0662 0.0000
# 6 0.0000 0.0000 0.0000 3.0646 0.0000 13.8846
#
#
#
# Elastic Compliance Matrix: (Units=1/GPa)
#
#
# Indices 1 2 3 4 5 6 
#
# 1 0.026187 -0.002780 -0.004603 0.000000 0.006540 0.000000
# 2 -0.002780 0.008060 -0.002526 0.000000 -0.003832 0.000000
# 3 -0.004603 -0.002526 0.010977 0.000000 0.007408 0.000000
# 4 0.000000 0.000000 0.000000 0.025098 0.000000 -0.005540
# 5 0.006540 -0.003832 0.007408 0.000000 0.042148 0.000000
# 6 0.000000 0.000000 0.000000 -0.005540 0.000000 0.073245
#
#
# Mechanical properties :
#
#
# Convention : Reuss Voigt Hill
#
# Bulk Modulus (GPa) = 39.36152 57.70627 48.53390
# Shear Modulus (GPa) = 23.36441 32.20484 27.78462
#
# Velocity S-wave (km/s) = 3.47392 4.07852 3.78830
# Velocity P-wave (km/s) = 6.03504 7.21009 6.64857
#
# Compressibility (1/GPa) = 0.02540552
#
# Stress axis : x y z
#
# Youngs Moduli (GPa) = 38.18666 124.07587 91.10265
#
# Poissons Ratio (x) = 0.34499 0.41932
# Poissons Ratio (y) = 0.10618 0.23010
# Poissons Ratio (z) = 0.17576 0.31337
#
# Static dielectric constant tensor:
#      x y z
#    x 1.710290 0.000000 -0.027040 
#    y 0.000000 1.640700 0.000000 
#    z -0.027040 0.000000 1.872270 
# 
# From -- ./inp_files/5187.got.cif
#   From: 2010.05.17/outbox.cif.g08.bks.cpg/sg13_3_cif.got.tgz:5187.got - 2010.06.03 16:44:36.
