data_PCOD9226129
_publ_section_title
;
Structure prediction by ZEFSAII (Michael W. Deem and Ramdas Pophale) SiO2 
 PCOD9226129
Probable space group: P 2/C
;
_chemical_formula_sum "Si O2"
_cell_formula_units_Z 24
_cell_length_a 29.094566
_cell_length_b 6.990614
_cell_length_c 5.330795
_cell_angle_alpha 90.000000
_cell_angle_beta 95.918156
_cell_angle_gamma 90.000000
_cell_volume 1078.445721
_symmetry_space_group_name_H-M "P 2/C"
_symmetry_group_IT_number 13
_symmetry_cell_setting 'monoclinic'
loop_
_space_group_symop_operation_xyz
x,y,z
-x,y,1/2-z
-x,-y,-z
x,-y,1/2+z
loop_
_atom_site_type_symbol
_atom_site_label
_atom_site_fract_x
_atom_site_fract_y
_atom_site_fract_z
Si Si1 0.221280 0.128022 0.636624
Si Si2 0.648875 0.731741 0.927139
Si Si3 0.882536 0.128347 0.961890
Si Si4 0.450175 0.626757 0.764012
Si Si5 0.314194 0.704733 0.053145
Si Si6 0.020463 0.286740 0.511371
O O1 0.169375 0.209580 0.585802
O O2 0.261760 0.281455 0.617477
O O3 0.225630 0.975375 0.409373
O O4 0.596187 0.744491 0.809059
O O5 0.680948 0.798185 0.717243
O O6 0.664810 0.507837 0.967167
O O7 0.656011 0.804441 0.211830
O O8 0.886852 0.981520 0.730001
O O9 0.924418 0.276129 0.961994
O O10 0.500000 0.723984 0.750000
O O11 0.448672 0.465371 0.541180
O O12 0.000000 0.197377 0.250000
O O13 0.000000 0.500000 0.500000
O O14 0.000000 0.197974 0.750000
#
# Coordination Sequence:
#
# PCOD9226129 Si02
#       6
#     4   4   4   4   4   4
#     4  10  21  37  53  74 100 133 177 215 247 289
#     4  10  17  30  45  74 102 126 161 201 260 316
#     4  10  21  37  58  79 103 137 179 220 257 304
#     4  10  16  25  41  65 102 133 159 199 251 316
#     4  10  18  30  49  68  99 130 160 208 254 300
#     4  10  21  37  55  82 114 141 168 212 264 311
#
# _framework density 22.254251
#
# number of rings (size 3 to 8) (size 9 to 14) (size 15 to 20)
#    0.000    2.000    3.333    2.000    0.000    2.000 
#    0.000    6.667    0.000    0.000    0.000    0.000 
#    0.000   22.667    0.000    0.000    0.000    0.000 
#
# Total GULP energy -133872.695933 kJ/mol
# GULP energy per Si atom -5578.028997 kJ/mol
# Density = 2.220360 g / cm^3
# Si number density = 22.254251 Si / 1000 Ang^3
#
#
#
# Elastic Constant Matrix: (Units=GPa)
#
#
# Indices 1 2 3 4 5 6 
#
# 1 176.4042 7.3622 -12.1368 0.0000 1.9930 0.0000
# 2 7.3622 59.7427 -14.2894 0.0000 2.1003 0.0000
# 3 -12.1368 -14.2894 154.8127 0.0000 -6.8239 0.0000
# 4 0.0000 0.0000 0.0000 -16.5406 0.0000 0.3802
# 5 1.9930 2.1003 -6.8239 0.0000 35.4920 0.0000
# 6 0.0000 0.0000 0.0000 0.3802 0.0000 19.7449
#
#
#
# Elastic Compliance Matrix: (Units=1/GPa)
#
#
# Indices 1 2 3 4 5 6 
#
# 1 0.005723 -0.000606 0.000383 0.000000 -0.000212 0.000000
# 2 -0.000606 0.017199 0.001509 0.000000 -0.000693 0.000000
# 3 0.000383 0.001509 0.006681 0.000000 0.001174 0.000000
# 4 0.000000 0.000000 0.000000 -0.060430 0.000000 0.001164
# 5 -0.000212 -0.000693 0.001174 0.000000 0.028454 0.000000
# 6 0.000000 0.000000 0.000000 0.001164 0.000000 0.050624
#
#
# Mechanical properties :
#
#
# Convention : Reuss Voigt Hill
#
# Bulk Modulus (GPa) = 31.07987 39.20352 35.14169
# Shear Modulus (GPa) = 88.65127 35.07415 61.86271
#
# Velocity S-wave (km/s) = 6.31840 3.97428 5.27812
# Velocity P-wave (km/s) = 8.19912 6.22208 7.27805
#
# Compressibility (1/GPa) = 0.03217517
#
# Stress axis : x y z
#
# Youngs Moduli (GPa) = 174.73767 58.14454 149.68893
#
# Poissons Ratio (x) = 0.03524 -0.05739
# Poissons Ratio (y) = 0.10591 -0.22593
# Poissons Ratio (z) = -0.06699 -0.08776
#
# Static dielectric constant tensor:
#      x y z
#    x 1.821350 0.000000 0.003060 
#    y 0.000000 2.602520 0.000000 
#    z 0.003060 0.000000 1.885290 
# 
# From -- ./inp_files/7336.got.cif
#   From: 2010.05.17/outbox.cif.g08.bks.cpg/sg13_4_cif.got.tgz:7336.got - 2010.06.03 16:44:36.
