data_PCOD9226655
_publ_section_title
;
Structure prediction by ZEFSAII (Michael W. Deem and Ramdas Pophale) SiO2 
 PCOD9226655
Probable space group: P 2/C
;
_chemical_formula_sum "Si O2"
_cell_formula_units_Z 32
_cell_length_a 17.605115
_cell_length_b 11.968470
_cell_length_c 13.897271
_cell_angle_alpha 90.000000
_cell_angle_beta 26.827450
_cell_angle_gamma 90.000000
_cell_volume 1321.530800
_symmetry_space_group_name_H-M "P 2/C"
_symmetry_group_IT_number 13
_symmetry_cell_setting 'monoclinic'
loop_
_space_group_symop_operation_xyz
x,y,z
-x,y,1/2-z
-x,-y,-z
x,-y,1/2+z
loop_
_atom_site_type_symbol
_atom_site_label
_atom_site_fract_x
_atom_site_fract_y
_atom_site_fract_z
Si Si1 0.373333 0.732042 0.825118
Si Si2 0.669957 0.711919 0.002994
Si Si3 0.775332 0.943696 0.923311
Si Si4 0.918195 0.472631 0.243647
Si Si5 0.144170 0.334843 0.841024
Si Si6 0.528196 0.631867 0.960967
Si Si7 0.542163 0.023412 0.342744
Si Si8 0.922365 0.167204 0.733335
O O1 0.500000 0.665240 0.750000
O O2 0.337435 0.652955 0.776901
O O3 0.430808 0.845434 0.705942
O O4 0.260392 0.785419 0.035166
O O5 0.500000 0.743469 0.250000
O O6 0.797643 0.814615 0.875128
O O7 0.753963 0.601256 0.950228
O O8 0.611758 0.685389 0.960523
O O9 0.918770 0.033197 0.735005
O O10 0.706359 0.964478 0.109906
O O11 0.618221 0.981338 0.035057
O O12 0.868647 0.572726 0.229188
O O13 0.000000 0.512393 0.250000
O O14 0.044205 0.390322 0.042768
O O15 0.340734 0.319058 0.648592
O O16 0.046636 0.228515 0.902801
O O17 0.500000 0.500000 0.000000
O O18 0.500000 0.000000 0.500000
O O19 0.000000 0.198974 0.750000
#
# Coordination Sequence:
#
# PCOD9226655 Si02
#       8
#     4   4   4   4   4   4   4   4
#     4  11  21  40  67  96 135 174 231 293 343 404
#     4  12  25  44  71 104 146 184 234 289 353 420
#     4  10  21  41  61  99 135 175 229 281 343 413
#     4  11  26  47  70  98 146 192 224 288 366 427
#     4  11  24  49  72 102 138 183 241 285 361 427
#     4  12  25  42  70 107 134 179 238 300 344 417
#     4  10  17  36  65  92 125 176 219 275 347 400
#     4  11  24  42  71 100 138 185 236 288 345 424
#
# _framework density 24.214344000000001
#
# number of rings (size 3 to 8) (size 9 to 14) (size 15 to 20)
#    0.000    1.000    6.250    1.875    1.750    3.000 
#    2.250    0.625    0.000    0.000    0.000    0.000 
#    0.000    0.000    0.000    0.000    0.000    0.000 
#
# Total GULP energy -178657.022343 kJ/mol
# GULP energy per Si atom -5583.031948 kJ/mol
# Density = 2.415923 g / cm^3
# Si number density = 24.214344 Si / 1000 Ang^3
#
#
#
# Elastic Constant Matrix: (Units=GPa)
#
#
# Indices 1 2 3 4 5 6 
#
# 1 109.7634 13.2736 12.4590 0.0000 14.1052 0.0000
# 2 13.2736 101.0579 16.3199 0.0000 11.2604 0.0000
# 3 12.4590 16.3199 34.2299 0.0000 12.3916 0.0000
# 4 0.0000 0.0000 0.0000 25.4725 0.0000 11.6907
# 5 14.1052 11.2604 12.3916 0.0000 39.6220 0.0000
# 6 0.0000 0.0000 0.0000 11.6907 0.0000 18.2084
#
#
#
# Elastic Compliance Matrix: (Units=1/GPa)
#
#
# Indices 1 2 3 4 5 6 
#
# 1 0.009781 -0.000621 -0.002331 0.000000 -0.002576 0.000000
# 2 -0.000621 0.010855 -0.004412 0.000000 -0.001484 0.000000
# 3 -0.002331 -0.004412 0.035422 0.000000 -0.008994 0.000000
# 4 0.000000 0.000000 0.000000 0.055659 0.000000 -0.035736
# 5 -0.002576 -0.001484 -0.008994 0.000000 0.029390 0.000000
# 6 0.000000 0.000000 0.000000 -0.035736 0.000000 0.077864
#
#
# Mechanical properties :
#
#
# Convention : Reuss Voigt Hill
#
# Bulk Modulus (GPa) = 24.19584 36.57291 30.38437
# Shear Modulus (GPa) = 20.20383 30.19382 25.19882
#
# Velocity S-wave (km/s) = 2.89169 3.53503 3.22942
# Velocity P-wave (km/s) = 4.60035 5.63902 5.14596
#
# Compressibility (1/GPa) = 0.04132942
#
# Stress axis : x y z
#
# Youngs Moduli (GPa) = 102.23551 92.12563 28.23083
#
# Poissons Ratio (x) = 0.05723 0.06582
# Poissons Ratio (y) = 0.06351 0.12455
# Poissons Ratio (z) = 0.23834 0.40645
#
# Static dielectric constant tensor:
#      x y z
#    x -1.709920 0.000000 1.989010 
#    y 0.000000 1.998550 0.000000 
#    z 1.989010 0.000000 1.019340 
# 
# From -- ./inp_files/55781.got.cif
#   From: 2010.05.17/outbox.cif.g08.bks.cpg/sg13_28_cif.got.tgz:55781.got - 2010.06.03 16:44:36.
