data_PCOD9226892
_publ_section_title
;
Structure prediction by ZEFSAII (Michael W. Deem and Ramdas Pophale) SiO2 
 PCOD9226892
Probable space group: P 2/C
;
_chemical_formula_sum "Si O2"
_cell_formula_units_Z 26
_cell_length_a 16.561480
_cell_length_b 5.670074
_cell_length_c 25.310530
_cell_angle_alpha 90.000000
_cell_angle_beta 23.731329
_cell_angle_gamma 90.000000
_cell_volume 956.531576
_symmetry_space_group_name_H-M "P 2/C"
_symmetry_group_IT_number 13
_symmetry_cell_setting 'monoclinic'
loop_
_space_group_symop_operation_xyz
x,y,z
-x,y,1/2-z
-x,-y,-z
x,-y,1/2+z
loop_
_atom_site_type_symbol
_atom_site_label
_atom_site_fract_x
_atom_site_fract_y
_atom_site_fract_z
Si Si1 0.271153 0.412662 0.706440
Si Si2 0.264994 0.078699 0.235600
Si Si3 0.260179 0.390001 0.901360
Si Si4 0.288409 0.111074 0.345368
Si Si5 0.286822 0.522257 0.507924
Si Si6 0.000000 0.172443 0.250000
Si Si7 0.676013 0.171320 0.932150
O O1 0.175008 0.663808 0.777476
O O2 0.485071 0.420374 0.609738
O O3 0.313977 0.374358 0.618352
O O4 0.161366 0.174812 0.790523
O O5 0.329282 0.084879 0.258507
O O6 0.459264 0.074348 0.079257
O O7 0.500000 0.365666 0.750000
O O8 0.192513 0.629215 0.911998
O O9 0.180834 0.130662 0.930594
O O10 0.252964 0.447875 0.967319
O O11 0.500000 0.124747 0.250000
O O12 0.131162 0.683033 0.631308
O O13 0.246921 0.268376 0.557572
O O14 0.835869 0.018168 0.318834
#
# Coordination Sequence:
#
# PCOD9226892 Si02
#       7
#     4   4   4   4   4   2   4
#     4  11  22  37  64  88 127 161 204 258 307 361
#     4  11  20  36  61  92 127 152 199 259 308 359
#     4  10  20  32  58  87 123 152 197 254 314 348
#     4  10  18  31  53  90 119 150 188 253 317 348
#     4  11  23  40  59  93 127 161 206 255 305 369
#     4  12  26  38  62  82 134 168 204 238 308 376
#     4  11  24  39  59  90 126 164 207 249 309 368
#
# _framework density 27.181539000000001
#
# number of rings (size 3 to 8) (size 9 to 14) (size 15 to 20)
#    0.000    1.231    1.538    9.231    4.308    0.000 
#    0.000    0.000    0.000    0.000    0.000   11.846 
#    0.000    0.000    0.000    0.000    0.000    0.000 
#
# Total GULP energy -145612.084808 kJ/mol
# GULP energy per Si atom -5600.464800 kJ/mol
# Density = 2.711967 g / cm^3
# Si number density = 27.181539 Si / 1000 Ang^3
#
#
#
# Elastic Constant Matrix: (Units=GPa)
#
#
# Indices 1 2 3 4 5 6 
#
# 1 109.5110 31.9682 51.4145 0.0000 11.0447 0.0000
# 2 31.9682 227.3882 28.8508 0.0000 2.9156 0.0000
# 3 51.4145 28.8508 61.1588 0.0000 1.7646 0.0000
# 4 0.0000 0.0000 0.0000 559.3248 0.0000 743.3175
# 5 11.0447 2.9156 1.7646 0.0000 46.0729 0.0000
# 6 0.0000 0.0000 0.0000 743.3175 0.0000 1034.3871
#
#
#
# Elastic Compliance Matrix: (Units=1/GPa)
#
#
# Indices 1 2 3 4 5 6 
#
# 1 0.015612 -0.000532 -0.012781 0.000000 -0.003219 0.000000
# 2 -0.000532 0.004698 -0.001766 0.000000 -0.000102 0.000000
# 3 -0.012781 -0.001766 0.027868 0.000000 0.002108 0.000000
# 4 0.000000 0.000000 0.000000 0.039727 0.000000 -0.028548
# 5 -0.003219 -0.000102 0.002108 0.000000 0.022402 0.000000
# 6 0.000000 0.000000 0.000000 -0.028548 0.000000 0.021482
#
#
# Mechanical properties :
#
#
# Convention : Reuss Voigt Hill
#
# Bulk Modulus (GPa) = 55.49381 69.16945 62.33163
# Shear Modulus (GPa) = 29.77042 347.01193 188.39118
#
# Velocity S-wave (km/s) = 3.31304 11.31113 8.33420
# Velocity P-wave (km/s) = 5.92413 14.00326 10.75143
#
# Compressibility (1/GPa) = 0.01802003
#
# Stress axis : x y z
#
# Youngs Moduli (GPa) = 64.05373 212.85943 35.88409
#
# Poissons Ratio (x) = 0.11324 0.45862
# Poissons Ratio (y) = 0.03408 0.06337
# Poissons Ratio (z) = 0.81865 0.37591
#
# Static dielectric constant tensor:
#      x y z
#    x 2.139670 0.000000 -0.043190 
#    y 0.000000 2.235080 0.000000 
#    z -0.043190 0.000000 2.104410 
# 
# From -- ./inp_files/87711.got.cif
#   From: 2010.05.17/outbox.cif.g08.bks.cpg/sg13_44_cif.got.tgz:87711.got - 2010.06.03 16:44:36.
