data_PCOD9226398
_publ_section_title
;
Structure prediction by ZEFSAII (Michael W. Deem and Ramdas Pophale) SiO2 
 PCOD9226398
Probable space group: P 2/C
;
_chemical_formula_sum "Si O2"
_cell_formula_units_Z 24
_cell_length_a 9.934921
_cell_length_b 14.739350
_cell_length_c 8.455978
_cell_angle_alpha 90.000000
_cell_angle_beta 44.176812
_cell_angle_gamma 90.000000
_cell_volume 862.901892
_symmetry_space_group_name_H-M "P 2/C"
_symmetry_group_IT_number 13
_symmetry_cell_setting 'monoclinic'
loop_
_space_group_symop_operation_xyz
x,y,z
-x,y,1/2-z
-x,-y,-z
x,-y,1/2+z
loop_
_atom_site_type_symbol
_atom_site_label
_atom_site_fract_x
_atom_site_fract_y
_atom_site_fract_z
Si Si1 0.224414 0.215882 0.563411
Si Si2 0.765191 0.526304 0.940654
Si Si3 0.196549 0.307327 0.277851
Si Si4 0.287873 0.032828 0.356596
Si Si5 0.757323 0.360760 0.744277
Si Si6 0.704197 0.134036 0.492937
O O1 0.298749 0.260403 0.339816
O O2 0.221312 0.109822 0.534754
O O3 0.314670 0.261350 0.642221
O O4 0.000000 0.241812 0.750000
O O5 0.706400 0.599957 0.858767
O O6 0.729405 0.423452 0.922596
O O7 0.000000 0.527383 0.750000
O O8 0.690544 0.571987 0.163160
O O9 0.978809 0.338596 0.504838
O O10 0.204059 0.230169 0.135317
O O11 0.500000 0.016581 0.250000
O O12 0.190561 0.934426 0.469057
O O13 0.298740 0.075598 0.171597
O O14 0.500000 0.156013 0.750000
#
# Coordination Sequence:
#
# PCOD9226398 Si02
#       6
#     4   4   4   4   4   4
#     4   9  18  34  51  74 108 138 168 214 264 306
#     4  10  17  27  47  74 101 133 167 203 250 308
#     4   9  18  31  47  72 101 131 168 210 257 304
#     4  10  20  35  56  77 100 138 180 215 257 311
#     4  10  18  30  50  77 106 136 169 209 259 311
#     4  10  20  35  54  74  99 132 176 221 257 304
#
# _framework density 27.813126
#
# number of rings (size 3 to 8) (size 9 to 14) (size 15 to 20)
#    0.000    2.333    0.000    6.500    0.000    2.667 
#    0.000   10.000    0.000    1.000    0.000   21.000 
#    0.000    0.000    0.000    0.000    0.000    0.000 
#
# Total GULP energy -134007.688445 kJ/mol
# GULP energy per Si atom -5583.653685 kJ/mol
# Density = 2.774982 g / cm^3
# Si number density = 27.813126 Si / 1000 Ang^3
#
#
#
# Elastic Constant Matrix: (Units=GPa)
#
#
# Indices 1 2 3 4 5 6 
#
# 1 63.2561 24.8895 36.9191 0.0000 1.9305 0.0000
# 2 24.8895 201.7748 74.2683 0.0000 14.4960 0.0000
# 3 36.9191 74.2683 136.9866 0.0000 0.7675 0.0000
# 4 0.0000 0.0000 0.0000 108.5384 0.0000 -1.7421
# 5 1.9305 14.4960 0.7675 0.0000 32.4272 0.0000
# 6 0.0000 0.0000 0.0000 -1.7421 0.0000 39.6567
#
#
#
# Elastic Compliance Matrix: (Units=1/GPa)
#
#
# Indices 1 2 3 4 5 6 
#
# 1 0.018831 -0.000500 -0.004800 0.000000 -0.000784 0.000000
# 2 -0.000500 0.006448 -0.003346 0.000000 -0.002774 0.000000
# 3 -0.004800 -0.003346 0.010399 0.000000 0.001535 0.000000
# 4 0.000000 0.000000 0.000000 0.009220 0.000000 0.000405
# 5 -0.000784 -0.002774 0.001535 0.000000 0.032089 0.000000
# 6 0.000000 0.000000 0.000000 0.000405 0.000000 0.025234
#
#
# Mechanical properties :
#
#
# Convention : Reuss Voigt Hill
#
# Bulk Modulus (GPa) = 54.38520 74.90792 64.64656
# Shear Modulus (GPa) = 39.79611 53.85382 46.82496
#
# Velocity S-wave (km/s) = 3.78675 4.40508 4.10757
# Velocity P-wave (km/s) = 6.22218 7.27077 6.76682
#
# Compressibility (1/GPa) = 0.01838736
#
# Stress axis : x y z
#
# Youngs Moduli (GPa) = 53.10496 155.07563 96.16410
#
# Poissons Ratio (x) = 0.07752 0.46155
# Poissons Ratio (y) = 0.02654 0.32175
# Poissons Ratio (z) = 0.25488 0.51886
#
# Static dielectric constant tensor:
#      x y z
#    x 2.257890 0.000000 -0.038990 
#    y 0.000000 2.239060 0.000000 
#    z -0.038990 0.000000 2.409220 
# 
# From -- ./inp_files/19456.got.cif
#   From: 2010.05.17/outbox.cif.g08.bks.cpg/sg13_10_cif.got.tgz:19456.got - 2010.06.03 16:44:36.
