data_PCOD9226361
_publ_section_title
;
Structure prediction by ZEFSAII (Michael W. Deem and Ramdas Pophale) SiO2 
 PCOD9226361
Probable space group: P 2/C
;
_chemical_formula_sum "Si O2"
_cell_formula_units_Z 20
_cell_length_a 9.870513
_cell_length_b 11.365924
_cell_length_c 9.589326
_cell_angle_alpha 90.000000
_cell_angle_beta 45.325422
_cell_angle_gamma 90.000000
_cell_volume 765.015539
_symmetry_space_group_name_H-M "P 2/C"
_symmetry_group_IT_number 13
_symmetry_cell_setting 'monoclinic'
loop_
_space_group_symop_operation_xyz
x,y,z
-x,y,1/2-z
-x,-y,-z
x,-y,1/2+z
loop_
_atom_site_type_symbol
_atom_site_label
_atom_site_fract_x
_atom_site_fract_y
_atom_site_fract_z
Si Si1 0.324059 0.589691 0.059333
Si Si2 0.937011 0.852594 0.983447
Si Si3 0.500000 0.254255 0.250000
Si Si4 0.000000 0.779346 0.250000
Si Si5 0.158330 0.582935 0.463741
Si Si6 0.682746 0.040869 0.276818
O O1 0.183080 0.694671 0.109344
O O2 0.318883 0.588530 0.227828
O O3 0.513460 0.646417 0.863434
O O4 0.237298 0.477654 0.044998
O O5 0.907468 0.716736 0.964693
O O6 0.974978 0.845884 0.124554
O O7 0.751582 0.936165 0.123407
O O8 0.125534 0.912757 0.782827
O O9 0.631721 0.155629 0.226189
O O10 0.000000 0.500000 0.500000
O O11 0.500000 0.000000 0.500000
#
# Coordination Sequence:
#
# PCOD9226361 Si02
#       6
#     4   4   2   2   4   4
#     4  11  22  37  71  94 134 179 221 277 339 413
#     4  10  22  39  68  96 128 176 229 275 335 403
#     4  12  24  46  64  94 134 180 222 278 356 404
#     4  10  16  40  66  92 122 180 222 262 348 414
#     4  11  19  40  66 100 129 174 225 273 337 404
#     4  11  23  41  65  94 127 175 227 278 327 406
#
# _framework density 26.143259
#
# number of rings (size 3 to 8) (size 9 to 14) (size 15 to 20)
#    0.000    1.200    6.000    2.400    0.000    0.800 
#    0.000    9.000    0.000    0.000    0.000    0.000 
#    0.000    0.000    0.000    0.000    0.000    0.000 
#
# Total GULP energy -111611.217654 kJ/mol
# GULP energy per Si atom -5580.560883 kJ/mol
# Density = 2.608376 g / cm^3
# Si number density = 26.143259 Si / 1000 Ang^3
#
#
#
# Elastic Constant Matrix: (Units=GPa)
#
#
# Indices 1 2 3 4 5 6 
#
# 1 56.2691 24.8785 24.1774 0.0000 -0.6170 0.0000
# 2 24.8785 214.6353 74.4731 0.0000 -25.2510 0.0000
# 3 24.1774 74.4731 142.0017 0.0000 15.6860 0.0000
# 4 0.0000 0.0000 0.0000 40.7637 0.0000 -3.4626
# 5 -0.6170 -25.2510 15.6860 0.0000 32.6215 0.0000
# 6 0.0000 0.0000 0.0000 -3.4626 0.0000 62.3625
#
#
#
# Elastic Compliance Matrix: (Units=1/GPa)
#
#
# Indices 1 2 3 4 5 6 
#
# 1 0.019506 -0.001209 -0.002771 0.000000 0.000766 0.000000
# 2 -0.001209 0.007254 -0.004453 0.000000 0.007733 0.000000
# 3 -0.002771 -0.004453 0.010810 0.000000 -0.008697 0.000000
# 4 0.000000 0.000000 0.000000 0.024648 0.000000 0.001369
# 5 0.000766 0.007733 -0.008697 0.000000 0.040837 0.000000
# 6 0.000000 0.000000 0.000000 0.001369 0.000000 0.016111
#
#
# Mechanical properties :
#
#
# Convention : Reuss Voigt Hill
#
# Bulk Modulus (GPa) = 48.30263 73.32934 60.81599
# Shear Modulus (GPa) = 34.98128 46.44133 40.71130
#
# Velocity S-wave (km/s) = 3.66192 4.21933 3.95047
# Velocity P-wave (km/s) = 6.03289 7.20048 6.64239
#
# Compressibility (1/GPa) = 0.02070281
#
# Stress axis : x y z
#
# Youngs Moduli (GPa) = 51.26733 137.85495 92.50696
#
# Poissons Ratio (x) = 0.16670 0.25638
# Poissons Ratio (y) = 0.06199 0.41191
# Poissons Ratio (z) = 0.14208 0.61383
#
# Static dielectric constant tensor:
#      x y z
#    x 2.987670 0.000000 0.497240 
#    y 0.000000 1.992630 0.000000 
#    z 0.497240 0.000000 2.056390 
# 
# From -- ./inp_files/33049.got.cif
#   From: 2010.05.17/outbox.cif.g08.bks.cpg/sg13_17_cif.got.tgz:33049.got - 2010.06.03 16:44:36.
