data_PCOD9226613
_publ_section_title
;
Structure prediction by ZEFSAII (Michael W. Deem and Ramdas Pophale) SiO2 
 PCOD9226613
Probable space group: P 2/C
;
_chemical_formula_sum "Si O2"
_cell_formula_units_Z 32
_cell_length_a 5.964143
_cell_length_b 15.554825
_cell_length_c 20.549091
_cell_angle_alpha 90.000000
_cell_angle_beta 138.271704
_cell_angle_gamma 90.000000
_cell_volume 1268.873882
_symmetry_space_group_name_H-M "P 2/C"
_symmetry_group_IT_number 13
_symmetry_cell_setting 'monoclinic'
loop_
_space_group_symop_operation_xyz
x,y,z
-x,y,1/2-z
-x,-y,-z
x,-y,1/2+z
loop_
_atom_site_type_symbol
_atom_site_label
_atom_site_fract_x
_atom_site_fract_y
_atom_site_fract_z
Si Si1 0.345349 0.598872 0.102315
Si Si2 0.512764 0.777794 0.176652
Si Si3 0.332567 0.328605 0.463909
Si Si4 0.017341 0.998117 0.403063
Si Si5 0.555081 0.953868 0.121828
Si Si6 0.637799 0.239388 0.342971
Si Si7 0.553608 0.410820 0.391366
Si Si8 0.775780 0.186683 0.505400
O O1 0.566926 0.674861 0.183959
O O2 0.452170 0.502821 0.143280
O O3 0.423285 0.612446 0.043534
O O4 0.929473 0.599473 0.007498
O O5 0.500000 0.801523 0.250000
O O6 0.662656 0.858254 0.169147
O O7 0.139498 0.777760 0.066721
O O8 0.302177 0.390309 0.395516
O O9 0.617315 0.257186 0.516684
O O10 0.010484 0.269249 0.405359
O O11 0.145532 0.003429 0.354614
O O12 0.158516 0.903074 0.448518
O O13 0.644514 0.994317 0.357258
O O14 0.250315 0.055023 0.501985
O O15 0.500000 0.193482 0.250000
O O16 0.487698 0.332674 0.327859
O O17 0.583620 0.184599 0.395869
#
# Coordination Sequence:
#
# PCOD9226613 Si02
#       8
#     4   4   4   4   4   4   4   4
#     4  10  18  34  52  80 111 151 199 246 300 356
#     4  11  21  37  59  85 124 166 204 251 305 367
#     4  10  17  34  59  79 111 149 194 247 311 373
#     4   9  18  34  63  86 120 153 205 246 305 360
#     4   9  19  36  57  91 116 160 204 254 297 361
#     4  10  21  36  57  83 111 146 190 258 317 365
#     4   9  19  32  55  78 108 149 197 251 303 362
#     4  10  20  36  57  86 113 156 197 242 301 369
#
# _framework density 25.21921
#
# number of rings (size 3 to 8) (size 9 to 14) (size 15 to 20)
#    0.000    2.250    3.750    1.125    1.750    2.500 
#    0.000    6.250    2.750    0.000    6.500    0.000 
#    0.000    0.000    0.000    0.000    0.000    0.000 
#
# Total GULP energy -178197.104458 kJ/mol
# GULP energy per Si atom -5568.659514 kJ/mol
# Density = 2.516181 g / cm^3
# Si number density = 25.219210 Si / 1000 Ang^3
#
#
#
# Elastic Constant Matrix: (Units=GPa)
#
#
# Indices 1 2 3 4 5 6 
#
# 1 137.6829 17.6091 30.0657 0.0000 -17.8759 0.0000
# 2 17.6091 103.2375 1.1710 0.0000 4.4384 0.0000
# 3 30.0657 1.1710 34.5404 0.0000 -5.6550 0.0000
# 4 0.0000 0.0000 0.0000 79.3324 0.0000 13.3754
# 5 -17.8759 4.4384 -5.6550 0.0000 20.4903 0.0000
# 6 0.0000 0.0000 0.0000 13.3754 0.0000 19.0741
#
#
#
# Elastic Compliance Matrix: (Units=1/GPa)
#
#
# Indices 1 2 3 4 5 6 
#
# 1 0.010086 -0.001942 -0.007545 0.000000 0.007137 0.000000
# 2 -0.001942 0.010168 0.000741 0.000000 -0.003692 0.000000
# 3 -0.007545 0.000741 0.036017 0.000000 0.003198 0.000000
# 4 0.000000 0.000000 0.000000 0.014295 0.000000 -0.010024
# 5 0.007137 -0.003692 0.003198 0.000000 0.056712 0.000000
# 6 0.000000 0.000000 0.000000 -0.010024 0.000000 0.059457
#
#
# Mechanical properties :
#
#
# Convention : Reuss Voigt Hill
#
# Bulk Modulus (GPa) = 25.78649 41.46139 33.62394
# Shear Modulus (GPa) = 23.02536 38.88702 30.95619
#
# Velocity S-wave (km/s) = 3.02488 3.93104 3.50735
# Velocity P-wave (km/s) = 4.73783 6.08935 5.45560
#
# Compressibility (1/GPa) = 0.03878000
#
# Stress axis : x y z
#
# Youngs Moduli (GPa) = 99.15200 98.34889 27.76449
#
# Poissons Ratio (x) = 0.19095 0.20947
# Poissons Ratio (y) = 0.19251 -0.02057
# Poissons Ratio (z) = 0.74807 -0.07286
#
# Static dielectric constant tensor:
#      x y z
#    x 2.198160 0.000000 -0.021870 
#    y 0.000000 2.073110 0.000000 
#    z -0.021870 0.000000 2.101010 
# 
# From -- ./inp_files/74016.got.cif
#   From: 2010.05.17/outbox.cif.g08.bks.cpg/sg13_38_cif.got.tgz:74016.got - 2010.06.03 16:44:36.
