data_PCOD9226410
_publ_section_title
;
Structure prediction by ZEFSAII (Michael W. Deem and Ramdas Pophale) SiO2 
 PCOD9226410
Probable space group: P 2/C
;
_chemical_formula_sum "Si O2"
_cell_formula_units_Z 32
_cell_length_a 5.526344
_cell_length_b 17.446916
_cell_length_c 20.667060
_cell_angle_alpha 90.000000
_cell_angle_beta 56.129266
_cell_angle_gamma 90.000000
_cell_volume 1654.507686
_symmetry_space_group_name_H-M "P 2/C"
_symmetry_group_IT_number 13
_symmetry_cell_setting 'monoclinic'
loop_
_space_group_symop_operation_xyz
x,y,z
-x,y,1/2-z
-x,-y,-z
x,-y,1/2+z
loop_
_atom_site_type_symbol
_atom_site_label
_atom_site_fract_x
_atom_site_fract_y
_atom_site_fract_z
Si Si1 0.334876 0.667734 0.470874
Si Si2 0.843912 0.176496 0.448131
Si Si3 0.884247 0.618252 0.444294
Si Si4 0.507122 0.229317 0.175882
Si Si5 0.673250 0.029013 0.538241
Si Si6 0.421240 0.385860 0.131868
Si Si7 0.956272 0.552233 0.616198
Si Si8 0.250488 0.077893 0.170162
O O1 0.327658 0.744911 0.514735
O O2 0.673969 0.645300 0.417173
O O3 0.149882 0.602479 0.536565
O O4 0.143621 0.671864 0.433472
O O5 0.724639 0.119394 0.521294
O O6 0.817330 0.124532 0.386867
O O7 0.175898 0.207284 0.399494
O O8 0.644018 0.608979 0.537543
O O9 0.015024 0.535948 0.407215
O O10 0.500000 0.258130 0.250000
O O11 0.366358 0.296574 0.154848
O O12 0.346931 0.148671 0.200066
O O13 0.500000 0.000000 0.500000
O O14 0.487934 0.987047 0.621064
O O15 0.000000 0.000000 0.500000
O O16 0.124808 0.428335 0.157323
O O17 0.624738 0.420366 0.157821
O O18 0.000000 0.040138 0.250000
#
# Coordination Sequence:
#
# PCOD9226410 Si02
#       8
#     4   4   4   4   4   4   4   4
#     4  10  18  27  45  68 101 130 170 214 266 315
#     4  11  21  36  51  76 107 149 182 231 283 339
#     4  10  17  28  46  69  97 133 169 210 264 309
#     4  12  22  33  52  75 108 151 188 223 273 342
#     4  10  22  37  57  77 107 143 187 232 285 334
#     4  10  19  29  43  67 100 134 173 215 254 309
#     4  10  17  29  46  67  97 136 169 210 265 304
#     4  11  22  36  56  79 107 148 194 234 279 352
#
# _framework density 19.341100999999998
#
# number of rings (size 3 to 8) (size 9 to 14) (size 15 to 20)
#    0.000    1.500    5.000    5.250    0.000    0.000 
#    0.000    0.000    0.000    0.000    0.000    0.000 
#    0.000    6.000    0.000    1.125    0.000    0.000 
#
# Total GULP energy -178139.091254 kJ/mol
# GULP energy per Si atom -5566.846602 kJ/mol
# Density = 1.929708 g / cm^3
# Si number density = 19.341101 Si / 1000 Ang^3
#
#
#
# Elastic Constant Matrix: (Units=GPa)
#
#
# Indices 1 2 3 4 5 6 
#
# 1 130.7876 19.7188 17.1373 0.0000 1.4076 0.0000
# 2 19.7188 77.2338 36.6344 0.0000 -5.1836 0.0000
# 3 17.1373 36.6344 43.6718 0.0000 -6.6937 0.0000
# 4 0.0000 0.0000 0.0000 1.4316 0.0000 -7.9635
# 5 1.4076 -5.1836 -6.6937 0.0000 18.7953 0.0000
# 6 0.0000 0.0000 0.0000 -7.9635 0.0000 -7.9706
#
#
#
# Elastic Compliance Matrix: (Units=1/GPa)
#
#
# Indices 1 2 3 4 5 6 
#
# 1 0.008160 -0.000921 -0.002710 0.000000 -0.001830 0.000000
# 2 -0.000921 0.021613 -0.017817 0.000000 -0.000316 0.000000
# 3 -0.002710 -0.017817 0.040390 0.000000 0.009674 0.000000
# 4 0.000000 0.000000 0.000000 0.106519 0.000000 -0.106425
# 5 -0.001830 -0.000316 0.009674 0.000000 0.056700 0.000000
# 6 0.000000 0.000000 0.000000 -0.106425 0.000000 -0.019132
#
#
# Mechanical properties :
#
#
# Convention : Reuss Voigt Hill
#
# Bulk Modulus (GPa) = 36.67460 44.29713 40.48587
# Shear Modulus (GPa) = 18.78038 14.33143 16.55590
#
# Velocity S-wave (km/s) = 3.11948 2.72505 2.92891
# Velocity P-wave (km/s) = 5.65491 5.73185 5.69351
#
# Compressibility (1/GPa) = 0.02726682
#
# Stress axis : x y z
#
# Youngs Moduli (GPa) = 122.55504 46.26887 24.75836
#
# Poissons Ratio (x) = 0.04259 0.06710
# Poissons Ratio (y) = 0.11282 0.44112
# Poissons Ratio (z) = 0.33215 0.82438
#
# Static dielectric constant tensor:
#      x y z
#    x 1.881480 0.000000 0.005660 
#    y 0.000000 1.679500 0.000000 
#    z 0.005660 0.000000 1.693120 
# 
# From -- ./inp_files/73991.got.cif
#   From: 2010.05.17/outbox.cif.g08.bks.cpg/sg13_37_cif.got.tgz:73991.got - 2010.06.03 16:44:36.
