data_PCOD9226687
_publ_section_title
;
Structure prediction by ZEFSAII (Michael W. Deem and Ramdas Pophale) SiO2 
 PCOD9226687
Probable space group: P 2/C
;
_chemical_formula_sum "Si O2"
_cell_formula_units_Z 32
_cell_length_a 25.702711
_cell_length_b 11.645679
_cell_length_c 13.008424
_cell_angle_alpha 90.000000
_cell_angle_beta 25.145285
_cell_angle_gamma 90.000000
_cell_volume 1654.514288
_symmetry_space_group_name_H-M "P 2/C"
_symmetry_group_IT_number 13
_symmetry_cell_setting 'monoclinic'
loop_
_space_group_symop_operation_xyz
x,y,z
-x,y,1/2-z
-x,-y,-z
x,-y,1/2+z
loop_
_atom_site_type_symbol
_atom_site_label
_atom_site_fract_x
_atom_site_fract_y
_atom_site_fract_z
Si Si1 0.659381 0.382366 0.178429
Si Si2 0.813612 0.986284 0.855525
Si Si3 0.241641 0.272532 0.702741
Si Si4 0.309101 0.152292 0.270432
Si Si5 0.403780 0.862322 0.197182
Si Si6 0.633191 0.371705 0.816540
Si Si7 0.021668 0.117276 0.096347
Si Si8 0.366681 0.038234 0.533127
O O1 0.694250 0.288591 0.204019
O O2 0.515010 0.377279 0.403749
O O3 0.678475 0.508876 0.188956
O O4 0.731265 0.344904 0.947609
O O5 0.895827 0.028535 0.615459
O O6 0.786900 0.092703 0.980159
O O7 0.890674 0.887459 0.775740
O O8 0.678456 0.937086 0.079268
O O9 0.296334 0.336155 0.705163
O O10 0.309731 0.147555 0.574595
O O11 0.099531 0.234477 0.963673
O O12 0.297590 0.081530 0.184682
O O13 0.452043 0.129357 0.043959
O O14 0.358382 0.731840 0.279942
O O15 0.376839 0.906488 0.130208
O O16 0.000000 0.076129 0.250000
O O17 0.500000 0.016710 0.250000
#
# Coordination Sequence:
#
# PCOD9226687 Si02
#       8
#     4   4   4   4   4   4   4   4
#     4  10  19  35  56  82 119 161 193 252 301 352
#     4  10  20  35  53  85 118 145 189 247 303 357
#     4  11  20  35  58  79 109 160 205 239 295 366
#     4  10  18  32  52  82 119 151 180 233 312 362
#     4   9  18  33  53  79 116 150 184 240 297 362
#     4   9  19  34  57  85 114 153 207 244 292 362
#     4  11  22  34  56  84 110 154 197 243 293 358
#     4  10  18  26  47  80 110 143 189 233 283 360
#
# _framework density 19.341024000000001
#
# number of rings (size 3 to 8) (size 9 to 14) (size 15 to 20)
#    0.000    2.000    1.250    6.375    1.750    0.000 
#    0.000    3.750    0.000    3.000    0.000    1.750 
#    0.000    0.000    0.000    0.000    0.000    0.000 
#
# Total GULP energy -178287.987994 kJ/mol
# GULP energy per Si atom -5571.499625 kJ/mol
# Density = 1.929700 g / cm^3
# Si number density = 19.341024 Si / 1000 Ang^3
#
#
#
# Elastic Constant Matrix: (Units=GPa)
#
#
# Indices 1 2 3 4 5 6 
#
# 1 67.2695 30.7759 29.8046 0.0000 0.9178 0.0000
# 2 30.7759 139.5431 34.8740 0.0000 4.6316 0.0000
# 3 29.8046 34.8740 102.5749 0.0000 13.9334 0.0000
# 4 0.0000 0.0000 0.0000 23.8639 0.0000 0.3550
# 5 0.9178 4.6316 13.9334 0.0000 34.2573 0.0000
# 6 0.0000 0.0000 0.0000 0.3550 0.0000 26.4534
#
#
#
# Elastic Compliance Matrix: (Units=1/GPa)
#
#
# Indices 1 2 3 4 5 6 
#
# 1 0.018191 -0.002939 -0.004524 0.000000 0.001750 0.000000
# 2 -0.002939 0.008307 -0.001935 0.000000 -0.000257 0.000000
# 3 -0.004524 -0.001935 0.012352 0.000000 -0.004641 0.000000
# 4 0.000000 0.000000 0.000000 0.041913 0.000000 -0.000562
# 5 0.001750 -0.000257 -0.004641 0.000000 0.031066 0.000000
# 6 0.000000 0.000000 0.000000 -0.000562 0.000000 0.037810
#
#
# Mechanical properties :
#
#
# Convention : Reuss Voigt Hill
#
# Bulk Modulus (GPa) = 49.86950 55.58848 52.72899
# Shear Modulus (GPa) = 28.55196 31.17714 29.86455
#
# Velocity S-wave (km/s) = 3.84635 4.01929 3.93377
# Velocity P-wave (km/s) = 6.75027 7.09529 6.92493
#
# Compressibility (1/GPa) = 0.02005234
#
# Stress axis : x y z
#
# Youngs Moduli (GPa) = 54.97255 120.38498 80.95975
#
# Poissons Ratio (x) = 0.35386 0.36626
# Poissons Ratio (y) = 0.16159 0.15667
# Poissons Ratio (z) = 0.24869 0.23296
#
# Static dielectric constant tensor:
#      x y z
#    x 1.835160 0.000000 -0.016980 
#    y 0.000000 1.704340 0.000000 
#    z -0.016980 0.000000 1.691680 
# 
# From -- ./inp_files/41841.got.cif
#   From: 2010.05.17/outbox.cif.g08.bks.cpg/sg13_21_cif.got.tgz:41841.got - 2010.06.03 16:44:36.
