data_PCOD9226551
_publ_section_title
;
Structure prediction by ZEFSAII (Michael W. Deem and Ramdas Pophale) SiO2 
 PCOD9226551
Probable space group: P 2/C
;
_chemical_formula_sum "Si O2"
_cell_formula_units_Z 24
_cell_length_a 15.351327
_cell_length_b 8.052808
_cell_length_c 14.135574
_cell_angle_alpha 90.000000
_cell_angle_beta 35.772135
_cell_angle_gamma 90.000000
_cell_volume 1021.499492
_symmetry_space_group_name_H-M "P 2/C"
_symmetry_group_IT_number 13
_symmetry_cell_setting 'monoclinic'
loop_
_space_group_symop_operation_xyz
x,y,z
-x,y,1/2-z
-x,-y,-z
x,-y,1/2+z
loop_
_atom_site_type_symbol
_atom_site_label
_atom_site_fract_x
_atom_site_fract_y
_atom_site_fract_z
Si Si1 0.345586 0.829649 0.303322
Si Si2 0.278130 0.383536 0.175572
Si Si3 0.366690 0.955639 0.498327
Si Si4 0.985715 0.760553 0.966480
Si Si5 0.486553 0.468143 0.159187
Si Si6 0.925703 0.894453 0.213209
O O1 0.328017 0.903327 0.423857
O O2 0.436502 0.658386 0.220734
O O3 0.189114 0.770858 0.400203
O O4 0.453164 0.962969 0.155836
O O5 0.322261 0.202274 0.099489
O O6 0.099077 0.384446 0.336304
O O7 0.357835 0.397882 0.206214
O O8 0.359609 0.514956 0.034928
O O9 0.255067 0.104937 0.621218
O O10 0.037947 0.923069 0.861541
O O11 0.995783 0.779858 0.070619
O O12 0.500000 0.385619 0.250000
O O13 0.000000 0.872639 0.250000
#
# Coordination Sequence:
#
# PCOD9226551 Si02
#       6
#     4   4   4   4   4   4
#     4  10  17  32  56  82 107 143 194 236 267 337
#     4   9  19  34  54  81 110 141 186 231 284 338
#     4   9  17  33  55  79 106 146 189 235 271 337
#     4  10  21  33  55  83 110 145 188 238 285 336
#     4  10  18  35  58  80 110 152 188 230 285 341
#     4  10  19  35  55  77 110 151 187 233 291 334
#
# _framework density 23.494872000000001
#
# number of rings (size 3 to 8) (size 9 to 14) (size 15 to 20)
#    0.000    2.333    5.000    0.000    0.000    1.333 
#    0.000    5.000    0.000    0.000    0.000    0.000 
#    0.000    0.000    0.000    0.000    0.000    0.000 
#
# Total GULP energy -133852.518658 kJ/mol
# GULP energy per Si atom -5577.188277 kJ/mol
# Density = 2.344140 g / cm^3
# Si number density = 23.494872 Si / 1000 Ang^3
#
#
#
# Elastic Constant Matrix: (Units=GPa)
#
#
# Indices 1 2 3 4 5 6 
#
# 1 120.4077 6.2554 79.3161 0.0000 1.6580 0.0000
# 2 6.2554 35.1544 12.1467 0.0000 -5.0952 0.0000
# 3 79.3161 12.1467 124.4955 0.0000 -37.3946 0.0000
# 4 0.0000 0.0000 0.0000 1.7150 0.0000 -6.1720
# 5 1.6580 -5.0952 -37.3946 0.0000 39.3750 0.0000
# 6 0.0000 0.0000 0.0000 -6.1720 0.0000 6.0347
#
#
#
# Elastic Compliance Matrix: (Units=1/GPa)
#
#
# Indices 1 2 3 4 5 6 
#
# 1 0.021367 0.000109 -0.019433 0.000000 -0.019341 0.000000
# 2 0.000109 0.029503 -0.002522 0.000000 0.001418 0.000000
# 3 -0.019433 -0.002522 0.029111 0.000000 0.028139 0.000000
# 4 0.000000 0.000000 0.000000 -0.217509 0.000000 -0.222459
# 5 -0.019341 0.001418 0.028139 0.000000 0.053118 0.000000
# 6 0.000000 0.000000 0.000000 -0.222459 0.000000 -0.061813
#
#
# Mechanical properties :
#
#
# Convention : Reuss Voigt Hill
#
# Bulk Modulus (GPa) = 27.55611 52.83268 40.19440
# Shear Modulus (GPa) = -55.28906 21.58091 -16.85407
#
# Velocity S-wave (km/s) = -4.85628 3.03403 -2.68125
# Velocity P-wave (km/s) = 4.43741 5.89995 2.74944
#
# Compressibility (1/GPa) = 0.03628959
#
# Stress axis : x y z
#
# Youngs Moduli (GPa) = 46.80162 33.89432 34.35096
#
# Poissons Ratio (x) = -0.00370 0.66754
# Poissons Ratio (y) = -0.00511 0.08664
# Poissons Ratio (z) = 0.90949 0.08549
#
# Static dielectric constant tensor:
#      x y z
#    x 1.923840 0.000000 -0.024650 
#    y 0.000000 1.874630 0.000000 
#    z -0.024650 0.000000 2.015460 
# 
# From -- ./inp_files/53482.got.cif
#   From: 2010.05.17/outbox.cif.g08.bks.cpg/sg13_27_cif.got.tgz:53482.got - 2010.06.03 16:44:36.
