data_PCOD9226414
_publ_section_title
;
Structure prediction by ZEFSAII (Michael W. Deem and Ramdas Pophale) SiO2 
 PCOD9226414
Probable space group: P 2/C
;
_chemical_formula_sum "Si O2"
_cell_formula_units_Z 32
_cell_length_a 9.663582
_cell_length_b 11.863504
_cell_length_c 13.628529
_cell_angle_alpha 90.000000
_cell_angle_beta 43.930952
_cell_angle_gamma 90.000000
_cell_volume 1083.998668
_symmetry_space_group_name_H-M "P 2/C"
_symmetry_group_IT_number 13
_symmetry_cell_setting 'monoclinic'
loop_
_space_group_symop_operation_xyz
x,y,z
-x,y,1/2-z
-x,-y,-z
x,-y,1/2+z
loop_
_atom_site_type_symbol
_atom_site_label
_atom_site_fract_x
_atom_site_fract_y
_atom_site_fract_z
Si Si1 0.263080 0.934015 0.614735
Si Si2 0.205208 0.698176 0.643864
Si Si3 0.257563 0.438005 0.858132
Si Si4 0.743574 0.810723 0.139590
Si Si5 0.289389 0.836042 0.114961
Si Si6 0.260026 0.938416 0.851961
Si Si7 0.735624 0.310662 0.151891
Si Si8 0.611758 0.389072 0.910532
O O1 0.160817 0.822882 0.625058
O O2 0.491494 0.892333 0.486209
O O3 0.235608 0.941815 0.746201
O O4 0.197029 0.055896 0.608428
O O5 0.258291 0.696435 0.732052
O O6 0.404685 0.669137 0.484084
O O7 0.000000 0.629471 0.750000
O O8 0.500000 0.440868 0.750000
O O9 0.180535 0.314449 0.933099
O O10 0.187349 0.564621 0.922376
O O11 0.241265 0.427173 0.748890
O O12 0.500000 0.809732 0.250000
O O13 0.778466 0.812604 0.239843
O O14 0.807955 0.937765 0.075579
O O15 0.295108 0.709446 0.069170
O O16 0.500000 0.936492 0.750000
O O17 0.186414 0.813247 0.921437
O O18 0.500000 0.312269 0.250000
O O19 0.500000 0.500000 0.000000
#
# Coordination Sequence:
#
# PCOD9226414 Si02
#       8
#     4   4   4   4   4   4   4   4
#     4   8  14  25  39  60  89 117 146 191 240 282
#     4  10  19  30  47  72 102 132 162 205 259 305
#     4   9  16  26  43  67  94 121 159 210 251 275
#     4   8  13  21  34  57  87 111 141 187 240 274
#     4   8  14  23  39  61  89 111 149 198 237 272
#     4   8  13  21  35  57  86 110 142 188 233 279
#     4   9  16  27  44  67  93 123 160 206 249 284
#     4  10  17  28  46  72  96 127 169 209 244 292
#
# _framework density 29.520332
#
# number of rings (size 3 to 8) (size 9 to 14) (size 15 to 20)
#    0.000    3.250    1.250    0.000    0.000    0.000 
#    0.000    0.000    0.000    3.750    0.000    0.000 
#    0.000  952.000    0.000    0.000    0.000    0.000 
#
# Total GULP energy -178364.428019 kJ/mol
# GULP energy per Si atom -5573.888376 kJ/mol
# Density = 2.945314 g / cm^3
# Si number density = 29.520332 Si / 1000 Ang^3
#
#
#
# Elastic Constant Matrix: (Units=GPa)
#
#
# Indices 1 2 3 4 5 6 
#
# 1 80.6291 40.4309 16.7956 0.0000 13.0321 0.0000
# 2 40.4309 401.1338 38.0158 0.0000 11.3781 0.0000
# 3 16.7956 38.0158 90.7151 0.0000 -1.8353 0.0000
# 4 0.0000 0.0000 0.0000 36.9389 0.0000 4.7195
# 5 13.0321 11.3781 -1.8353 0.0000 35.5518 0.0000
# 6 0.0000 0.0000 0.0000 4.7195 0.0000 30.8898
#
#
#
# Elastic Compliance Matrix: (Units=1/GPa)
#
#
# Indices 1 2 3 4 5 6 
#
# 1 0.014224 -0.001076 -0.002284 0.000000 -0.004988 0.000000
# 2 -0.001076 0.002706 -0.000945 0.000000 -0.000520 0.000000
# 3 -0.002284 -0.000945 0.011878 0.000000 0.001753 0.000000
# 4 0.000000 0.000000 0.000000 0.027611 0.000000 -0.004219
# 5 -0.004988 -0.000520 0.001753 0.000000 0.030213 0.000000
# 6 0.000000 0.000000 0.000000 -0.004219 0.000000 0.033018
#
#
# Mechanical properties :
#
#
# Convention : Reuss Voigt Hill
#
# Bulk Modulus (GPa) = 49.50932 84.77363 67.14147
# Shear Modulus (GPa) = 37.03957 52.49182 44.76570
#
# Velocity S-wave (km/s) = 3.54604 4.22140 3.89837
# Velocity P-wave (km/s) = 5.79427 7.24842 6.56175
#
# Compressibility (1/GPa) = 0.02019822
#
# Stress axis : x y z
#
# Youngs Moduli (GPa) = 70.30512 369.58991 84.19004
#
# Poissons Ratio (x) = 0.39758 0.19225
# Poissons Ratio (y) = 0.07563 0.07958
# Poissons Ratio (z) = 0.16055 0.34935
#
# Static dielectric constant tensor:
#      x y z
#    x 2.450150 0.000000 0.024930 
#    y 0.000000 2.915180 0.000000 
#    z 0.024930 0.000000 2.386430 
# 
# From -- ./inp_files/78472.got.cif
#   From: 2010.05.17/outbox.cif.g08.bks.cpg/sg13_40_cif.got.tgz:78472.got - 2010.06.03 16:44:36.
