data_PCOD9226073
_publ_section_title
;
Structure prediction by ZEFSAII (Michael W. Deem and Ramdas Pophale) SiO2 
 PCOD9226073
Probable space group: P 2/C
;
_chemical_formula_sum "Si O2"
_cell_formula_units_Z 28
_cell_length_a 26.735613
_cell_length_b 7.891641
_cell_length_c 8.402301
_cell_angle_alpha 90.000000
_cell_angle_beta 139.123583
_cell_angle_gamma 90.000000
_cell_volume 1160.162085
_symmetry_space_group_name_H-M "P 2/C"
_symmetry_group_IT_number 13
_symmetry_cell_setting 'monoclinic'
loop_
_space_group_symop_operation_xyz
x,y,z
-x,y,1/2-z
-x,-y,-z
x,-y,1/2+z
loop_
_atom_site_type_symbol
_atom_site_label
_atom_site_fract_x
_atom_site_fract_y
_atom_site_fract_z
Si Si1 0.104769 0.091228 0.744746
Si Si2 0.735066 0.891220 0.724736
Si Si3 0.000000 0.735864 0.250000
Si Si4 0.729911 0.246723 0.850564
Si Si5 0.110664 0.318747 0.254511
Si Si6 0.000000 0.724654 0.750000
Si Si7 0.575515 0.379810 0.338875
Si Si8 0.420925 0.745634 0.018495
O O1 0.041955 0.146127 0.722306
O O2 0.068165 0.167737 0.497808
O O3 0.113793 0.888607 0.755145
O O4 0.187001 0.163029 0.997380
O O5 0.732643 0.825583 0.537663
O O6 0.657629 0.838651 0.628528
O O7 0.738204 0.094734 0.743264
O O8 0.070372 0.634365 0.494449
O O9 0.649882 0.328976 0.617270
O O10 0.802708 0.370887 0.010089
O O11 0.047451 0.367796 0.228899
O O12 0.500000 0.318030 0.250000
O O13 0.574331 0.583640 0.351292
O O14 0.579524 0.315217 0.166867
O O15 0.500000 0.843662 0.250000
#
# Coordination Sequence:
#
# PCOD9226073 Si02
#       8
#     4   4   2   4   4   2   4   4
#     4  10  18  27  46  72 114 153 199 238 292 339
#     4  11  23  37  57  89 128 160 197 245 303 352
#     4  10  15  30  42  74 103 162 191 244 283 340
#     4  11  23  37  57  89 128 160 197 245 303 352
#     4  10  18  27  46  72 114 153 199 238 292 339
#     4  10  19  26  46  70 111 154 203 240 289 346
#     4  11  23  43  69  92 118 151 198 241 289 353
#     4  11  23  43  69  92 118 151 198 241 289 353
#
# _framework density 24.134557999999998
#
# number of rings (size 3 to 8) (size 9 to 14) (size 15 to 20)
#    0.000    1.429    1.429    7.714    8.000    0.571 
#    0.000    2.857    0.000    0.000    0.000    6.000 
#    0.000    0.000    0.000    0.000    0.000    0.000 
#
# Total GULP energy -156587.519995 kJ/mol
# GULP energy per Si atom -5592.411428 kJ/mol
# Density = 2.407963 g / cm^3
# Si number density = 24.134558 Si / 1000 Ang^3
#
#
#
# Elastic Constant Matrix: (Units=GPa)
#
#
# Indices 1 2 3 4 5 6 
#
# 1 93.4025 3.9805 54.8604 0.0000 17.3045 0.0000
# 2 3.9805 30.5582 21.1496 0.0000 2.8686 0.0000
# 3 54.8604 21.1496 210.3293 0.0000 39.2293 0.0000
# 4 0.0000 0.0000 0.0000 32.6761 0.0000 -9.2580
# 5 17.3045 2.8686 39.2293 0.0000 64.1035 0.0000
# 6 0.0000 0.0000 0.0000 -9.2580 0.0000 -11.8871
#
#
#
# Elastic Compliance Matrix: (Units=1/GPa)
#
#
# Indices 1 2 3 4 5 6 
#
# 1 0.012797 0.000631 -0.003106 0.000000 -0.001582 0.000000
# 2 0.000631 0.035229 -0.003817 0.000000 0.000589 0.000000
# 3 -0.003106 -0.003817 0.006502 0.000000 -0.002970 0.000000
# 4 0.000000 0.000000 0.000000 0.025071 0.000000 -0.019526
# 5 -0.001582 0.000589 -0.002970 0.000000 0.017818 0.000000
# 6 0.000000 0.000000 0.000000 -0.019526 0.000000 -0.068917
#
#
# Mechanical properties :
#
#
# Convention : Reuss Voigt Hill
#
# Bulk Modulus (GPa) = 23.84108 54.91898 39.38003
# Shear Modulus (GPa) = 90.80218 33.93180 62.36699
#
# Velocity S-wave (km/s) = 6.14044 3.75366 5.08895
# Velocity P-wave (km/s) = 7.75714 6.44913 7.13318
#
# Compressibility (1/GPa) = 0.04194441
#
# Stress axis : x y z
#
# Youngs Moduli (GPa) = 78.14324 28.38604 153.78892
#
# Poissons Ratio (x) = -0.01792 0.47772
# Poissons Ratio (y) = -0.04934 0.58700
# Poissons Ratio (z) = 0.24274 0.10835
#
# Static dielectric constant tensor:
#      x y z
#    x 1.926950 0.000000 0.018370 
#    y 0.000000 1.994850 0.000000 
#    z 0.018370 0.000000 1.986220 
# 
# From -- ./inp_files/24477.got.cif
#   From: 2010.05.17/outbox.cif.g08.bks.cpg/sg13_13_cif.got.tgz:24477.got - 2010.06.03 16:44:36.
