data_PCOD9226497
_publ_section_title
;
Structure prediction by ZEFSAII (Michael W. Deem and Ramdas Pophale) SiO2 
 PCOD9226497
Probable space group: P 2/C
;
_chemical_formula_sum "Si O2"
_cell_formula_units_Z 20
_cell_length_a 16.929094
_cell_length_b 12.106321
_cell_length_c 9.111043
_cell_angle_alpha 90.000000
_cell_angle_beta 32.014855
_cell_angle_gamma 90.000000
_cell_volume 989.928550
_symmetry_space_group_name_H-M "P 2/C"
_symmetry_group_IT_number 13
_symmetry_cell_setting 'monoclinic'
loop_
_space_group_symop_operation_xyz
x,y,z
-x,y,1/2-z
-x,-y,-z
x,-y,1/2+z
loop_
_atom_site_type_symbol
_atom_site_label
_atom_site_fract_x
_atom_site_fract_y
_atom_site_fract_z
Si Si1 0.796894 0.802562 0.965732
Si Si2 0.841823 0.454889 0.929898
Si Si3 0.865746 0.747368 0.170802
Si Si4 0.672041 0.622047 0.987466
Si Si5 0.887220 0.043680 0.800565
O O1 0.778192 0.747781 0.155409
O O2 0.690509 0.748177 0.013094
O O3 0.963839 0.773690 0.645173
O O4 0.792602 0.935413 0.991395
O O5 0.865903 0.361384 0.768257
O O6 0.000000 0.491150 0.750000
O O7 0.756614 0.551493 0.979305
O O8 0.749142 0.403860 0.210912
O O9 0.808042 0.849508 0.360241
O O10 0.500000 0.590811 0.250000
O O11 0.000000 0.080145 0.750000
O O12 0.000000 0.000000 0.500000
#
# Coordination Sequence:
#
# PCOD9226497 Si02
#       5
#     4   4   4   4   4
#     4  10  20  36  58  87 128 157 199 245 304 357
#     4  12  24  40  66  91 117 158 212 258 293 359
#     4  10  20  34  60  97 119 153 201 263 294 345
#     4  12  27  43  61  87 128 164 197 250 320 370
#     4  10  17  30  55  93 129 151 191 256 307 341
#
# _framework density 20.203476999999999
#
# number of rings (size 3 to 8) (size 9 to 14) (size 15 to 20)
#    0.000    1.200    6.000    3.000    5.600    0.000 
#    0.000    0.000    0.000    6.000    0.000    0.000 
#    0.000    0.000    0.000    0.000    0.000    0.000 
#
# Total GULP energy -111681.804679 kJ/mol
# GULP energy per Si atom -5584.090234 kJ/mol
# Density = 2.015749 g / cm^3
# Si number density = 20.203477 Si / 1000 Ang^3
#
#
#
# Elastic Constant Matrix: (Units=GPa)
#
#
# Indices 1 2 3 4 5 6 
#
# 1 86.0355 39.9860 45.6466 0.0000 20.7457 0.0000
# 2 39.9860 96.3642 6.6764 0.0000 0.9115 0.0000
# 3 45.6466 6.6764 57.6138 0.0000 3.8636 0.0000
# 4 0.0000 0.0000 0.0000 6.3776 0.0000 15.3855
# 5 20.7457 0.9115 3.8636 0.0000 32.9728 0.0000
# 6 0.0000 0.0000 0.0000 15.3855 0.0000 28.5693
#
#
#
# Elastic Compliance Matrix: (Units=1/GPa)
#
#
# Indices 1 2 3 4 5 6 
#
# 1 0.035846 -0.012918 -0.025616 0.000000 -0.019195 0.000000
# 2 -0.012918 0.015117 0.008029 0.000000 0.006769 0.000000
# 3 -0.025616 0.008029 0.035938 0.000000 0.011684 0.000000
# 4 0.000000 0.000000 0.000000 -0.524112 0.000000 0.282251
# 5 -0.019195 0.006769 0.011684 0.000000 0.040849 0.000000
# 6 0.000000 0.000000 0.000000 0.282251 0.000000 -0.116998
#
#
# Mechanical properties :
#
#
# Convention : Reuss Voigt Hill
#
# Bulk Modulus (GPa) = 38.62290 47.18129 42.90209
# Shear Modulus (GPa) = -11.26840 23.43088 6.08124
#
# Velocity S-wave (km/s) = -2.36423 3.40920 1.73682
# Velocity P-wave (km/s) = 3.42136 6.23703 5.03022
#
# Compressibility (1/GPa) = 0.02589138
#
# Stress axis : x y z
#
# Youngs Moduli (GPa) = 27.89692 66.14951 27.82532
#
# Poissons Ratio (x) = 0.85452 0.71278
# Poissons Ratio (y) = 0.36037 -0.22341
# Poissons Ratio (z) = 0.71462 -0.53111
#
# Static dielectric constant tensor:
#      x y z
#    x 1.703530 0.000000 0.007250 
#    y 0.000000 1.806220 0.000000 
#    z 0.007250 0.000000 1.692390 
# 
# From -- ./inp_files/15268.got.cif
#   From: 2010.05.17/outbox.cif.g08.bks.cpg/sg13_8_cif.got.tgz:15268.got - 2010.06.03 16:44:36.
