data_PCOD9226104
_publ_section_title
;
Structure prediction by ZEFSAII (Michael W. Deem and Ramdas Pophale) SiO2 
 PCOD9226104
Probable space group: P 2/C
;
_chemical_formula_sum "Si O2"
_cell_formula_units_Z 28
_cell_length_a 11.627526
_cell_length_b 24.927966
_cell_length_c 5.407571
_cell_angle_alpha 90.000000
_cell_angle_beta 112.501499
_cell_angle_gamma 90.000000
_cell_volume 1448.061585
_symmetry_space_group_name_H-M "P 2/C"
_symmetry_group_IT_number 13
_symmetry_cell_setting 'monoclinic'
loop_
_space_group_symop_operation_xyz
x,y,z
-x,y,1/2-z
-x,-y,-z
x,-y,1/2+z
loop_
_atom_site_type_symbol
_atom_site_label
_atom_site_fract_x
_atom_site_fract_y
_atom_site_fract_z
Si Si1 0.353583 0.691422 0.913009
Si Si2 0.731799 0.808793 0.499146
Si Si3 0.147485 0.849271 0.397512
Si Si4 0.359109 0.522081 0.417455
Si Si5 0.638055 0.648526 0.084003
Si Si6 0.219006 0.026210 0.996504
Si Si7 0.500000 0.954842 0.750000
Si Si8 0.500000 0.887022 0.250000
O O1 0.329191 0.751703 0.981247
O O2 0.300479 0.678147 0.598537
O O3 0.499282 0.674361 0.000884
O O4 0.302011 0.656579 0.098020
O O5 0.801352 0.814325 0.292367
O O6 0.620628 0.850644 0.377635
O O7 0.813633 0.825534 0.804103
O O8 0.199013 0.910578 0.434148
O O9 0.000000 0.852234 0.250000
O O10 0.500000 0.500000 0.500000
O O11 0.300152 0.492849 0.605101
O O12 0.368561 0.585391 0.470855
O O13 0.167830 0.993406 0.719224
O O14 0.367630 0.015460 0.141008
O O15 0.494944 0.919907 0.498374
#
# Coordination Sequence:
#
# PCOD9226104 Si02
#       8
#     4   4   4   4   4   4   2   2
#     4  10  19  30  49  71 104 141 181 239 284 331
#     4  12  23  41  63  89 115 150 193 236 299 341
#     4  12  27  47  65  86 116 151 195 239 278 344
#     4  10  16  24  39  60  95 153 211 231 256 323
#     4  10  18  30  43  73 113 149 192 242 282 329
#     4  12  24  42  66  92 118 151 184 223 286 343
#     4  12  22  39  60  92 126 150 170 221 282 336
#     4  12  20  37  64  88 118 144 180 231 276 344
#
# _framework density 19.336193000000002
#
# number of rings (size 3 to 8) (size 9 to 14) (size 15 to 20)
#    0.000    0.857    2.857    8.571    0.000    2.857 
#    0.000    0.000    0.000    0.000    0.000    0.000 
#    0.000    0.000    0.000    0.000    0.000  608.571 
#
# Total GULP energy -156227.601073 kJ/mol
# GULP energy per Si atom -5579.557181 kJ/mol
# Density = 1.929218 g / cm^3
# Si number density = 19.336193 Si / 1000 Ang^3
#
#
#
# Elastic Constant Matrix: (Units=GPa)
#
#
# Indices 1 2 3 4 5 6 
#
# 1 33.7446 7.0493 37.6553 0.0000 0.4033 0.0000
# 2 7.0493 107.3351 39.1142 0.0000 -16.5483 0.0000
# 3 37.6553 39.1142 165.1546 0.0000 -41.3343 0.0000
# 4 0.0000 0.0000 0.0000 32.0272 0.0000 -12.4963
# 5 0.4033 -16.5483 -41.3343 0.0000 36.4465 0.0000
# 6 0.0000 0.0000 0.0000 -12.4963 0.0000 8.5842
#
#
#
# Elastic Compliance Matrix: (Units=1/GPa)
#
#
# Indices 1 2 3 4 5 6 
#
# 1 0.046611 -0.000327 -0.014963 0.000000 -0.017634 0.000000
# 2 -0.000327 0.010384 -0.001681 0.000000 0.002812 0.000000
# 3 -0.014963 -0.001681 0.013566 0.000000 0.014787 0.000000
# 4 0.000000 0.000000 0.000000 0.072276 0.000000 0.105215
# 5 -0.017634 0.002812 0.014787 0.000000 0.045680 0.000000
# 6 0.000000 0.000000 0.000000 0.105215 0.000000 0.269659
#
#
# Mechanical properties :
#
#
# Convention : Reuss Voigt Hill
#
# Bulk Modulus (GPa) = 27.30903 52.65244 39.98073
# Shear Modulus (GPa) = 9.91426 30.23928 20.07677
#
# Velocity S-wave (km/s) = 2.26681 3.95887 3.22576
# Velocity P-wave (km/s) = 4.58314 6.94161 5.88180
#
# Compressibility (1/GPa) = 0.03661793
#
# Stress axis : x y z
#
# Youngs Moduli (GPa) = 21.45428 96.30005 73.71627
#
# Poissons Ratio (x) = 0.03150 1.10303
# Poissons Ratio (y) = 0.00702 0.12391
# Poissons Ratio (z) = 0.32102 0.16187
#
# Static dielectric constant tensor:
#      x y z
#    x 1.673080 0.000000 -0.013310 
#    y 0.000000 1.681890 0.000000 
#    z -0.013310 0.000000 1.823790 
# 
# From -- ./inp_files/4183.got.cif
#   From: 2010.05.17/outbox.cif.g08.bks.cpg/sg13_3_cif.got.tgz:4183.got - 2010.06.03 16:44:36.
