data_PCOD9226242
_publ_section_title
;
Structure prediction by ZEFSAII (Michael W. Deem and Ramdas Pophale) SiO2 
 PCOD9226242
Probable space group: P 2/C
;
_chemical_formula_sum "Si O2"
_cell_formula_units_Z 18
_cell_length_a 14.533968
_cell_length_b 8.849559
_cell_length_c 22.428529
_cell_angle_alpha 90.000000
_cell_angle_beta 17.852107
_cell_angle_gamma 90.000000
_cell_volume 884.348899
_symmetry_space_group_name_H-M "P 2/C"
_symmetry_group_IT_number 13
_symmetry_cell_setting 'monoclinic'
loop_
_space_group_symop_operation_xyz
x,y,z
-x,y,1/2-z
-x,-y,-z
x,-y,1/2+z
loop_
_atom_site_type_symbol
_atom_site_label
_atom_site_fract_x
_atom_site_fract_y
_atom_site_fract_z
Si Si1 0.626217 0.275529 0.322085
Si Si2 0.000000 0.678045 0.250000
Si Si3 0.723666 0.382562 0.799152
Si Si4 0.727914 0.134044 0.375462
Si Si5 0.181824 0.362331 0.417835
O O1 0.282682 0.231242 0.548590
O O2 0.624558 0.457098 0.333747
O O3 0.824864 0.201203 0.251273
O O4 0.737525 0.250695 0.186426
O O5 0.877585 0.588184 0.268417
O O6 0.966573 0.310565 0.604199
O O7 0.458712 0.266345 0.976138
O O8 0.000000 0.091066 0.250000
O O9 0.500000 0.000000 0.500000
O O10 0.500000 0.411198 0.250000
O O11 0.000000 0.500000 0.500000
#
# Coordination Sequence:
#
# PCOD9226242 Si02
#       5
#     4   2   4   4   4
#     4  10  22  35  63  89 124 161 206 249 307 361
#     4  10  16  30  54  84 118 148 200 238 302 336
#     4  10  22  35  63  89 124 161 206 249 307 361
#     4  11  26  42  63  91 125 160 211 257 310 364
#     4  10  20  36  57  92 129 166 200 252 308 368
#
# _framework density 20.353957000000001
#
# number of rings (size 3 to 8) (size 9 to 14) (size 15 to 20)
#    0.000    1.778    2.222    2.667   12.444    1.778 
#    0.000    1.111    0.000    0.000    0.000    0.000 
#    0.000    0.000    0.000    0.000    0.000    0.000 
#
# Total GULP energy -100345.962339 kJ/mol
# GULP energy per Si atom -5574.775685 kJ/mol
# Density = 2.030763 g / cm^3
# Si number density = 20.353957 Si / 1000 Ang^3
#
#
#
# Elastic Constant Matrix: (Units=GPa)
#
#
# Indices 1 2 3 4 5 6 
#
# 1 144.9941 25.8990 78.6331 0.0000 9.8416 0.0000
# 2 25.8990 67.6053 16.2327 0.0000 -8.4275 0.0000
# 3 78.6331 16.2327 101.0260 0.0000 10.2769 0.0000
# 4 0.0000 0.0000 0.0000 7.5086 0.0000 -2.7463
# 5 9.8416 -8.4275 10.2769 0.0000 59.1184 0.0000
# 6 0.0000 0.0000 0.0000 -2.7463 0.0000 13.8107
#
#
#
# Elastic Compliance Matrix: (Units=1/GPa)
#
#
# Indices 1 2 3 4 5 6 
#
# 1 0.012374 -0.002658 -0.009117 0.000000 -0.000854 0.000000
# 2 -0.002658 0.016382 -0.000861 0.000000 0.002927 0.000000
# 3 -0.009117 -0.000861 0.017297 0.000000 -0.001612 0.000000
# 4 0.000000 0.000000 0.000000 0.143628 0.000000 0.028561
# 5 -0.000854 0.002927 -0.001612 0.000000 0.017755 0.000000
# 6 0.000000 0.000000 0.000000 0.028561 0.000000 0.078087
#
#
# Mechanical properties :
#
#
# Convention : Reuss Voigt Hill
#
# Bulk Modulus (GPa) = 48.12296 61.68386 54.90341
# Shear Modulus (GPa) = 15.73699 28.94490 22.34094
#
# Velocity S-wave (km/s) = 2.78360 3.77514 3.31663
# Velocity P-wave (km/s) = 5.83315 7.02663 6.45752
#
# Compressibility (1/GPa) = 0.02078010
#
# Stress axis : x y z
#
# Youngs Moduli (GPa) = 80.81447 61.04399 57.81254
#
# Poissons Ratio (x) = 0.16223 0.52710
# Poissons Ratio (y) = 0.21478 0.04980
# Poissons Ratio (z) = 0.73682 0.05258
#
# Static dielectric constant tensor:
#      x y z
#    x 1.762660 0.000000 0.008270 
#    y 0.000000 1.754250 0.000000 
#    z 0.008270 0.000000 1.782070 
# 
# From -- ./inp_files/87136.got.cif
#   From: 2010.05.17/outbox.cif.g08.bks.cpg/sg13_44_cif.got.tgz:87136.got - 2010.06.03 16:44:36.
