data_PCOD9226342
_publ_section_title
;
Structure prediction by ZEFSAII (Michael W. Deem and Ramdas Pophale) SiO2 
 PCOD9226342
Probable space group: P 2/C
;
_chemical_formula_sum "Si O2"
_cell_formula_units_Z 32
_cell_length_a 13.511352
_cell_length_b 20.333893
_cell_length_c 5.193063
_cell_angle_alpha 90.000000
_cell_angle_beta 96.347759
_cell_angle_gamma 90.000000
_cell_volume 1417.986643
_symmetry_space_group_name_H-M "P 2/C"
_symmetry_group_IT_number 13
_symmetry_cell_setting 'monoclinic'
loop_
_space_group_symop_operation_xyz
x,y,z
-x,y,1/2-z
-x,-y,-z
x,-y,1/2+z
loop_
_atom_site_type_symbol
_atom_site_label
_atom_site_fract_x
_atom_site_fract_y
_atom_site_fract_z
Si Si1 0.379930 0.538818 0.232432
Si Si2 0.778086 0.043079 0.493235
Si Si3 0.747471 0.763665 0.326942
Si Si4 0.104415 0.164051 0.920802
Si Si5 0.888360 0.301928 0.259451
Si Si6 0.546442 0.925671 0.007167
Si Si7 0.564403 0.274601 0.028295
Si Si8 0.698315 0.346450 0.431855
O O1 0.500000 0.543839 0.250000
O O2 0.350249 0.482442 0.435117
O O3 0.336772 0.602717 0.363126
O O4 0.856263 0.099336 0.431563
O O5 0.663404 0.068223 0.483658
O O6 0.791788 0.987746 0.279633
O O7 0.807840 0.826365 0.262397
O O8 0.830233 0.717104 0.482620
O O9 0.655339 0.773269 0.486780
O O10 0.702617 0.724802 0.072231
O O11 0.000000 0.156265 0.750000
O O12 0.102525 0.231904 0.083966
O O13 0.812533 0.352365 0.373399
O O14 0.000000 0.326019 0.250000
O O15 0.500000 0.891049 0.750000
O O16 0.500000 0.894223 0.250000
O O17 0.500000 0.000000 0.000000
O O18 0.500000 0.253007 0.250000
O O19 0.500000 0.286845 0.750000
O O20 0.377715 0.338365 0.330148
#
# Coordination Sequence:
#
# PCOD9226342 Si02
#       8
#     4   4   4   4   4   4   4   4
#     4  10  24  41  61  96 144 192 237 273 328 405
#     4  12  25  41  68  99 127 171 226 262 323 420
#     4  10  22  42  66  97 125 178 226 277 344 409
#     4  11  25  44  67  93 137 173 214 291 349 401
#     4  10  21  42  73  99 126 171 232 288 353 411
#     4  10  16  35  64  85 114 157 206 255 303 357
#     4  11  22  37  63  96 137 176 215 273 341 404
#     4  10  23  38  68 101 130 184 232 284 332 402
#
# _framework density 22.567205000000001
#
# number of rings (size 3 to 8) (size 9 to 14) (size 15 to 20)
#    0.000    1.500    5.000    0.000    7.000    1.000 
#    0.000    0.625    5.500    1.500    0.000    0.000 
#    0.000    0.000    0.000    0.000    0.000    0.000 
#
# Total GULP energy -178592.130676 kJ/mol
# GULP energy per Si atom -5581.004084 kJ/mol
# Density = 2.251584 g / cm^3
# Si number density = 22.567205 Si / 1000 Ang^3
#
#
#
# Elastic Constant Matrix: (Units=GPa)
#
#
# Indices 1 2 3 4 5 6 
#
# 1 136.0688 42.9300 42.6194 0.0000 -3.5979 0.0000
# 2 42.9300 70.4759 16.4730 0.0000 -1.9653 0.0000
# 3 42.6194 16.4730 132.2459 0.0000 -4.2833 0.0000
# 4 0.0000 0.0000 0.0000 5.2999 0.0000 2.5027
# 5 -3.5979 -1.9653 -4.2833 0.0000 35.8548 0.0000
# 6 0.0000 0.0000 0.0000 2.5027 0.0000 12.7421
#
#
#
# Elastic Compliance Matrix: (Units=1/GPa)
#
#
# Indices 1 2 3 4 5 6 
#
# 1 0.009843 -0.005404 -0.002486 0.000000 0.000395 0.000000
# 2 -0.005404 0.017594 -0.000438 0.000000 0.000370 0.000000
# 3 -0.002486 -0.000438 0.008441 0.000000 0.000735 0.000000
# 4 0.000000 0.000000 0.000000 0.207974 0.000000 -0.040849
# 5 0.000395 0.000370 0.000735 0.000000 0.028038 0.000000
# 6 0.000000 0.000000 0.000000 -0.040849 0.000000 0.086503
#
#
# Mechanical properties :
#
#
# Convention : Reuss Voigt Hill
#
# Bulk Modulus (GPa) = 52.02407 60.31503 56.16955
# Shear Modulus (GPa) = 13.10763 26.56390 19.83577
#
# Velocity S-wave (km/s) = 2.41265 3.43461 2.96795
# Velocity P-wave (km/s) = 5.55555 6.52025 6.05714
#
# Compressibility (1/GPa) = 0.01922187
#
# Stress axis : x y z
#
# Youngs Moduli (GPa) = 101.59141 56.83860 118.46482
#
# Poissons Ratio (x) = 0.30715 0.29455
# Poissons Ratio (y) = 0.54899 0.05189
# Poissons Ratio (z) = 0.25259 0.02490
#
# Static dielectric constant tensor:
#      x y z
#    x 1.285570 0.000000 0.663620 
#    y 0.000000 1.362490 0.000000 
#    z 0.663620 0.000000 1.108470 
# 
# From -- ./inp_files/4364.got.cif
#   From: 2010.05.17/outbox.cif.g08.bks.cpg/sg13_3_cif.got.tgz:4364.got - 2010.06.03 16:44:36.
