data_PCOD9226174
_publ_section_title
;
Structure prediction by ZEFSAII (Michael W. Deem and Ramdas Pophale) SiO2 
 PCOD9226174
Probable space group: P 2/C
;
_chemical_formula_sum "Si O2"
_cell_formula_units_Z 28
_cell_length_a 12.091687
_cell_length_b 15.406989
_cell_length_c 8.942611
_cell_angle_alpha 90.000000
_cell_angle_beta 126.134828
_cell_angle_gamma 90.000000
_cell_volume 1345.495666
_symmetry_space_group_name_H-M "P 2/C"
_symmetry_group_IT_number 13
_symmetry_cell_setting 'monoclinic'
loop_
_space_group_symop_operation_xyz
x,y,z
-x,y,1/2-z
-x,-y,-z
x,-y,1/2+z
loop_
_atom_site_type_symbol
_atom_site_label
_atom_site_fract_x
_atom_site_fract_y
_atom_site_fract_z
Si Si1 0.234549 0.748127 0.571729
Si Si2 0.576203 0.611426 0.603830
Si Si3 0.968000 0.143496 0.393437
Si Si4 0.705196 0.539585 0.412624
Si Si5 0.355978 0.071805 0.062940
Si Si6 0.754197 0.387206 0.654908
Si Si7 0.798102 0.972482 0.324073
O O1 0.336494 0.688508 0.752309
O O2 0.114004 0.785167 0.578807
O O3 0.315676 0.830845 0.574112
O O4 0.186045 0.692005 0.391043
O O5 0.621568 0.595454 0.468163
O O6 0.618144 0.525805 0.734432
O O7 0.413129 0.625015 0.485282
O O8 0.000000 0.170882 0.250000
O O9 0.103982 0.110212 0.585384
O O10 0.877848 0.054790 0.317894
O O11 0.787840 0.473434 0.585091
O O12 0.784605 0.597540 0.353801
O O13 0.500000 0.052833 0.250000
O O14 0.245910 0.008779 0.051851
O O15 0.336254 0.054340 0.873788
#
# Coordination Sequence:
#
# PCOD9226174 Si02
#       7
#     4   4   4   4   4   4   4
#     4  10  22  32  52  78 119 155 186 238 298 326
#     4  10  16  29  48  79 116 155 189 237 289 344
#     4  10  20  40  62  82 108 149 208 250 277 329
#     4   9  16  26  51  76 113 158 198 228 280 350
#     4  11  21  38  58  90 121 149 177 232 305 364
#     4  10  16  29  47  81 115 154 193 238 288 350
#     4  10  21  37  66  85 107 147 197 240 283 341
#
# _framework density 20.810175999999998
#
# number of rings (size 3 to 8) (size 9 to 14) (size 15 to 20)
#    0.000    2.000    1.429    6.000    0.000    0.000 
#    2.571    0.000    0.000    0.000    0.000   16.000 
#    0.000    0.000    0.000    0.000    0.000    0.000 
#
# Total GULP energy -156224.722816 kJ/mol
# GULP energy per Si atom -5579.454386 kJ/mol
# Density = 2.076281 g / cm^3
# Si number density = 20.810176 Si / 1000 Ang^3
#
#
#
# Elastic Constant Matrix: (Units=GPa)
#
#
# Indices 1 2 3 4 5 6 
#
# 1 71.4402 46.8682 29.1050 0.0000 -35.4226 0.0000
# 2 46.8682 79.7830 36.7103 0.0000 -13.2218 0.0000
# 3 29.1050 36.7103 87.4706 0.0000 -29.0747 0.0000
# 4 0.0000 0.0000 0.0000 -5.5446 0.0000 11.2084
# 5 -35.4226 -13.2218 -29.0747 0.0000 41.9513 0.0000
# 6 0.0000 0.0000 0.0000 11.2084 0.0000 21.1911
#
#
#
# Elastic Compliance Matrix: (Units=1/GPa)
#
#
# Indices 1 2 3 4 5 6 
#
# 1 0.042690 -0.022452 0.006299 0.000000 0.033336 0.000000
# 2 -0.022452 0.027350 -0.009672 0.000000 -0.017041 0.000000
# 3 0.006299 -0.009672 0.018386 0.000000 0.015013 0.000000
# 4 0.000000 0.000000 0.000000 -0.087162 0.000000 0.046102
# 5 0.033336 -0.017041 0.015013 0.000000 0.057019 0.000000
# 6 0.000000 0.000000 0.000000 0.046102 0.000000 0.022806
#
#
# Mechanical properties :
#
#
# Convention : Reuss Voigt Hill
#
# Bulk Modulus (GPa) = 27.19242 51.56231 39.37736
# Shear Modulus (GPa) = 34.48345 19.92027 27.20186
#
# Velocity S-wave (km/s) = 4.07510 3.09728 3.61936
# Velocity P-wave (km/s) = 5.93609 6.13369 6.03570
#
# Compressibility (1/GPa) = 0.03677496
#
# Stress axis : x y z
#
# Youngs Moduli (GPa) = 23.42454 36.56367 54.38943
#
# Poissons Ratio (x) = 0.82093 -0.34258
# Poissons Ratio (y) = 0.52593 0.52606
# Poissons Ratio (z) = -0.14754 0.35365
#
# Static dielectric constant tensor:
#      x y z
#    x 1.777040 0.000000 -0.000670 
#    y 0.000000 1.740460 0.000000 
#    z -0.000670 0.000000 1.777190 
# 
# From -- ./inp_files/16844.got.cif
#   From: 2010.05.17/outbox.cif.g08.bks.cpg/sg13_9_cif.got.tgz:16844.got - 2010.06.03 16:44:36.
