data_PCOD9226250
_publ_section_title
;
Structure prediction by ZEFSAII (Michael W. Deem and Ramdas Pophale) SiO2 
 PCOD9226250
Probable space group: P 2/C
;
_chemical_formula_sum "Si O2"
_cell_formula_units_Z 28
_cell_length_a 26.372055
_cell_length_b 8.812796
_cell_length_c 21.375058
_cell_angle_alpha 90.000000
_cell_angle_beta 18.110483
_cell_angle_gamma 90.000000
_cell_volume 1544.245447
_symmetry_space_group_name_H-M "P 2/C"
_symmetry_group_IT_number 13
_symmetry_cell_setting 'monoclinic'
loop_
_space_group_symop_operation_xyz
x,y,z
-x,y,1/2-z
-x,-y,-z
x,-y,1/2+z
loop_
_atom_site_type_symbol
_atom_site_label
_atom_site_fract_x
_atom_site_fract_y
_atom_site_fract_z
Si Si1 0.518424 0.448759 0.653438
Si Si2 0.651736 0.378940 0.254594
Si Si3 0.000000 0.019408 0.750000
Si Si4 0.739011 0.778282 0.095654
Si Si5 0.000000 0.465953 0.250000
Si Si6 0.652025 0.703244 0.326187
Si Si7 0.155094 0.417238 0.785996
Si Si8 0.976635 0.285142 0.684005
O O1 0.500000 0.466745 0.750000
O O2 0.422794 0.577682 0.725457
O O3 0.425203 0.291220 0.743397
O O4 0.703578 0.470264 0.408746
O O5 0.654121 0.536799 0.290548
O O6 0.527944 0.271117 0.436612
O O7 0.829816 0.312524 0.043925
O O8 0.955076 0.127783 0.744573
O O9 0.160158 0.916851 0.551111
O O10 0.704354 0.811049 0.208910
O O11 0.869732 0.640652 0.936312
O O12 0.914638 0.576374 0.300424
O O13 0.766546 0.684180 0.251358
O O14 0.096792 0.311955 0.797542
O O15 0.000000 0.500000 0.000000
#
# Coordination Sequence:
#
# PCOD9226250 Si02
#       8
#     4   4   2   4   2   4   4   4
#     4  10  20  33  60  93 116 152 201 261 305 348
#     4   9  17  32  56  87 119 144 192 253 309 355
#     4  10  26  38  60  84 124 172 198 240 296 378
#     4  10  19  38  58  79 117 164 209 235 293 372
#     4  10  16  30  58  82 102 154 200 256 286 344
#     4   9  17  32  56  84 111 152 193 250 298 349
#     4  11  20  31  57 100 122 142 198 270 316 345
#     4  11  20  35  58  92 120 152 195 254 309 358
#
# _framework density 18.131833
#
# number of rings (size 3 to 8) (size 9 to 14) (size 15 to 20)
#    0.000    2.000    4.286    1.714    2.000    1.143 
#    0.000    1.429    6.286    0.000    0.000    0.000 
#    0.000    0.000    0.000    0.000    0.000    0.000 
#
# Total GULP energy -155921.820145 kJ/mol
# GULP energy per Si atom -5568.636434 kJ/mol
# Density = 1.809056 g / cm^3
# Si number density = 18.131833 Si / 1000 Ang^3
#
#
#
# Elastic Constant Matrix: (Units=GPa)
#
#
# Indices 1 2 3 4 5 6 
#
# 1 162.7291 34.8732 52.2903 0.0000 6.7828 0.0000
# 2 34.8732 68.0580 38.0232 0.0000 6.3398 0.0000
# 3 52.2903 38.0232 117.2623 0.0000 9.8448 0.0000
# 4 0.0000 0.0000 0.0000 19.1731 0.0000 5.5969
# 5 6.7828 6.3398 9.8448 0.0000 26.0105 0.0000
# 6 0.0000 0.0000 0.0000 5.5969 0.0000 15.9454
#
#
#
# Elastic Compliance Matrix: (Units=1/GPa)
#
#
# Indices 1 2 3 4 5 6 
#
# 1 0.007486 -0.002384 -0.002531 0.000000 -0.000413 0.000000
# 2 -0.002384 0.018831 -0.004864 0.000000 -0.002127 0.000000
# 3 -0.002531 -0.004864 0.011442 0.000000 -0.002485 0.000000
# 4 0.000000 0.000000 0.000000 0.058111 0.000000 -0.020397
# 5 -0.000413 -0.002127 -0.002485 0.000000 0.040013 0.000000
# 6 0.000000 0.000000 0.000000 -0.020397 0.000000 0.069874
#
#
# Mechanical properties :
#
#
# Convention : Reuss Voigt Hill
#
# Bulk Modulus (GPa) = 54.94002 66.49144 60.71573
# Shear Modulus (GPa) = 21.60929 27.08330 24.34629
#
# Velocity S-wave (km/s) = 3.45597 3.86902 3.66831
# Velocity P-wave (km/s) = 6.80375 7.53059 7.17638
#
# Compressibility (1/GPa) = 0.01820167
#
# Stress axis : x y z
#
# Youngs Moduli (GPa) = 133.57441 53.10507 87.39413
#
# Poissons Ratio (x) = 0.12658 0.22118
# Poissons Ratio (y) = 0.31840 0.42512
# Poissons Ratio (z) = 0.33805 0.25833
#
# Static dielectric constant tensor:
#      x y z
#    x 1.659390 0.000000 0.030930 
#    y 0.000000 1.619970 0.000000 
#    z 0.030930 0.000000 1.688160 
# 
# From -- ./inp_files/75375.got.cif
#   From: 2010.05.17/outbox.cif.g08.bks.cpg/sg13_38_cif.got.tgz:75375.got - 2010.06.03 16:44:36.
