data_PCOD9226041
_publ_section_title
;
Structure prediction by ZEFSAII (Michael W. Deem and Ramdas Pophale) SiO2 
 PCOD9226041
Probable space group: P 2/C
;
_chemical_formula_sum "Si O2"
_cell_formula_units_Z 22
_cell_length_a 10.987547
_cell_length_b 12.819192
_cell_length_c 9.574986
_cell_angle_alpha 90.000000
_cell_angle_beta 47.284906
_cell_angle_gamma 90.000000
_cell_volume 990.902251
_symmetry_space_group_name_H-M "P 2/C"
_symmetry_group_IT_number 13
_symmetry_cell_setting 'monoclinic'
loop_
_space_group_symop_operation_xyz
x,y,z
-x,y,1/2-z
-x,-y,-z
x,-y,1/2+z
loop_
_atom_site_type_symbol
_atom_site_label
_atom_site_fract_x
_atom_site_fract_y
_atom_site_fract_z
Si Si1 0.178099 0.638039 0.356148
Si Si2 0.559981 0.321504 0.500726
Si Si3 0.175846 0.117026 0.859875
Si Si4 0.792539 0.500243 0.415048
Si Si5 0.500000 0.352878 0.250000
Si Si6 0.000000 0.996061 0.250000
Si Si7 0.500000 0.848861 0.250000
O O1 0.380416 0.637588 0.192875
O O2 0.134856 0.759492 0.390013
O O3 0.124048 0.573242 0.533348
O O4 0.122020 0.577738 0.261412
O O5 0.687486 0.415670 0.408089
O O6 0.534478 0.287788 0.361776
O O7 0.606310 0.227034 0.565413
O O8 0.368905 0.098766 0.749359
O O9 0.125794 0.072488 0.747065
O O10 0.082920 0.064439 0.063150
O O11 0.657389 0.573711 0.596879
#
# Coordination Sequence:
#
# PCOD9226041 Si02
#       7
#     4   4   4   4   2   2   2
#     4  10  18  28  53  86 127 160 204 241 299 373
#     4  10  15  25  42  82 129 167 188 240 301 363
#     4  10  22  44  69  96 118 165 214 272 318 381
#     4  11  14  25  44  81 129 168 188 236 301 372
#     4  10  15  20  36  67 128 180 193 206 286 377
#     4  10  24  48  72  84 116 174 218 260 344 388
#     4  10  19  36  66 101 128 148 211 274 312 353
#
# _framework density 22.201989000000001
#
# number of rings (size 3 to 8) (size 9 to 14) (size 15 to 20)
#    0.000    1.818    7.273    1.091    0.000    0.727 
#    0.000   14.545    0.000    4.364    0.000    0.000 
#    0.000    0.000    0.000    0.000    0.000    0.000 
#
# Total GULP energy -122784.139842 kJ/mol
# GULP energy per Si atom -5581.097266 kJ/mol
# Density = 2.215146 g / cm^3
# Si number density = 22.201989 Si / 1000 Ang^3
#
#
#
# Elastic Constant Matrix: (Units=GPa)
#
#
# Indices 1 2 3 4 5 6 
#
# 1 114.1271 50.3714 43.3234 0.0000 36.6949 0.0000
# 2 50.3714 101.7037 45.7256 0.0000 19.5831 0.0000
# 3 43.3234 45.7256 111.2593 0.0000 50.8008 0.0000
# 4 0.0000 0.0000 0.0000 17.1212 0.0000 -4.1529
# 5 36.6949 19.5831 50.8008 0.0000 40.7887 0.0000
# 6 0.0000 0.0000 0.0000 -4.1529 0.0000 5.8408
#
#
#
# Elastic Compliance Matrix: (Units=1/GPa)
#
#
# Indices 1 2 3 4 5 6 
#
# 1 0.014883 -0.006076 0.003439 0.000000 -0.014755 0.000000
# 2 -0.006076 0.014556 -0.006773 0.000000 0.006913 0.000000
# 3 0.003439 -0.006773 0.024020 0.000000 -0.029758 0.000000
# 4 0.000000 0.000000 0.000000 0.070579 0.000000 0.050183
# 5 -0.014755 0.006913 -0.029758 0.000000 0.071534 0.000000
# 6 0.000000 0.000000 0.000000 0.050183 0.000000 0.206891
#
#
# Mechanical properties :
#
#
# Convention : Reuss Voigt Hill
#
# Bulk Modulus (GPa) = 28.86937 67.32567 48.09752
# Shear Modulus (GPa) = 11.55193 25.26145 18.40669
#
# Velocity S-wave (km/s) = 2.28351 3.37679 2.88246
# Velocity P-wave (km/s) = 4.47033 6.75230 5.72614
#
# Compressibility (1/GPa) = 0.03463879
#
# Stress axis : x y z
#
# Youngs Moduli (GPa) = 67.19292 68.70173 41.63244
#
# Poissons Ratio (x) = 0.41744 -0.14318
# Poissons Ratio (y) = 0.40827 0.28196
# Poissons Ratio (z) = -0.23108 0.46529
#
# Static dielectric constant tensor:
#      x y z
#    x 1.913410 0.000000 -0.020970 
#    y 0.000000 1.805130 0.000000 
#    z -0.020970 0.000000 1.860500 
# 
# From -- ./inp_files/15627.got.cif
#   From: 2010.05.17/outbox.cif.g08.bks.cpg/sg13_8_cif.got.tgz:15627.got - 2010.06.03 16:44:36.
