data_PCOD9226796
_publ_section_title
;
Structure prediction by ZEFSAII (Michael W. Deem and Ramdas Pophale) SiO2 
 PCOD9226796
Probable space group: P 2/C
;
_chemical_formula_sum "Si O2"
_cell_formula_units_Z 24
_cell_length_a 13.312985
_cell_length_b 14.141687
_cell_length_c 15.407240
_cell_angle_alpha 90.000000
_cell_angle_beta 21.208435
_cell_angle_gamma 90.000000
_cell_volume 1049.359365
_symmetry_space_group_name_H-M "P 2/C"
_symmetry_group_IT_number 13
_symmetry_cell_setting 'monoclinic'
loop_
_space_group_symop_operation_xyz
x,y,z
-x,y,1/2-z
-x,-y,-z
x,-y,1/2+z
loop_
_atom_site_type_symbol
_atom_site_label
_atom_site_fract_x
_atom_site_fract_y
_atom_site_fract_z
Si Si1 0.733474 0.875580 0.866184
Si Si2 0.303628 0.516165 0.574276
Si Si3 0.892764 0.943130 0.170507
Si Si4 0.050756 0.240860 0.474551
Si Si5 0.557201 0.710223 0.104148
Si Si6 0.820047 0.555294 0.571082
O O1 0.838824 0.806754 0.703581
O O2 0.899468 0.974065 0.735957
O O3 0.422574 0.908926 0.090719
O O4 0.703706 0.811376 0.974924
O O5 0.500000 0.500000 0.500000
O O6 0.274547 0.627705 0.579402
O O7 0.012570 0.467570 0.832769
O O8 0.507663 0.480903 0.334160
O O9 0.055871 0.844380 0.040567
O O10 0.000000 0.000000 0.000000
O O11 0.738658 0.277010 0.705252
O O12 0.196431 0.334188 0.392113
O O13 0.500000 0.688089 0.250000
O O14 0.000000 0.500000 0.500000
#
# Coordination Sequence:
#
# PCOD9226796 Si02
#       6
#     4   4   4   4   4   4
#     4   9  17  31  47  69 107 133 164 216 268 325
#     4  10  19  34  50  72 104 143 180 224 265 317
#     4   8  16  29  48  72 100 127 166 216 268 321
#     4  10  18  30  51  77 103 135 180 226 274 324
#     4  11  22  32  48  76 111 144 176 217 279 342
#     4  10  18  30  52  72 103 138 181 226 268 310
#
# _framework density 22.871096999999999
#
# number of rings (size 3 to 8) (size 9 to 14) (size 15 to 20)
#    0.000    2.333    3.333    2.000    2.333    0.667 
#    0.000    0.000    0.000    0.000    0.000    1.167 
#   30.000    0.000    0.000    0.000    0.000    0.000 
#
# Total GULP energy -133900.472625 kJ/mol
# GULP energy per Si atom -5579.186359 kJ/mol
# Density = 2.281904 g / cm^3
# Si number density = 22.871097 Si / 1000 Ang^3
#
#
#
# Elastic Constant Matrix: (Units=GPa)
#
#
# Indices 1 2 3 4 5 6 
#
# 1 55.9447 22.4913 34.4870 0.0000 8.2241 0.0000
# 2 22.4913 192.2393 32.1563 0.0000 13.6548 0.0000
# 3 34.4870 32.1563 133.8342 0.0000 -3.8730 0.0000
# 4 0.0000 0.0000 0.0000 48.2684 0.0000 16.6578
# 5 8.2241 13.6548 -3.8730 0.0000 41.9588 0.0000
# 6 0.0000 0.0000 0.0000 16.6578 0.0000 -0.2857
#
#
#
# Elastic Compliance Matrix: (Units=1/GPa)
#
#
# Indices 1 2 3 4 5 6 
#
# 1 0.022547 -0.001381 -0.005608 0.000000 -0.004487 0.000000
# 2 -0.001381 0.005658 -0.001052 0.000000 -0.001668 0.000000
# 3 -0.005608 -0.001052 0.009236 0.000000 0.002294 0.000000
# 4 0.000000 0.000000 0.000000 0.000981 0.000000 0.057190
# 5 -0.004487 -0.001668 0.002294 0.000000 0.025467 0.000000
# 6 0.000000 0.000000 0.000000 0.057190 0.000000 -0.165716
#
#
# Mechanical properties :
#
#
# Convention : Reuss Voigt Hill
#
# Bulk Modulus (GPa) = 46.81865 62.25413 54.53639
# Shear Modulus (GPa) = -63.59159 37.51389 -13.03885
#
# Velocity S-wave (km/s) = -5.27870 4.05437 -2.39027
# Velocity P-wave (km/s) = 4.07895 7.01398 4.03473
#
# Compressibility (1/GPa) = 0.02135901
#
# Stress axis : x y z
#
# Youngs Moduli (GPa) = 44.35231 176.74662 108.27063
#
# Poissons Ratio (x) = 0.24410 0.60718
# Poissons Ratio (y) = 0.06125 0.11388
# Poissons Ratio (z) = 0.24873 0.18590
#
# Static dielectric constant tensor:
#      x y z
#    x 1.859880 0.000000 0.025930 
#    y 0.000000 1.869480 0.000000 
#    z 0.025930 0.000000 1.869850 
# 
# From -- ./inp_files/69903.got.cif
#   From: 2010.05.17/outbox.cif.g08.bks.cpg/sg13_35_cif.got.tgz:69903.got - 2010.06.03 16:44:36.
