data_PCOD9226840
_publ_section_title
;
Structure prediction by ZEFSAII (Michael W. Deem and Ramdas Pophale) SiO2 
 PCOD9226840
Probable space group: P 2/C
;
_chemical_formula_sum "Si O2"
_cell_formula_units_Z 28
_cell_length_a 8.900080
_cell_length_b 17.842226
_cell_length_c 11.848566
_cell_angle_alpha 90.000000
_cell_angle_beta 41.570273
_cell_angle_gamma 90.000000
_cell_volume 1248.459992
_symmetry_space_group_name_H-M "P 2/C"
_symmetry_group_IT_number 13
_symmetry_cell_setting 'monoclinic'
loop_
_space_group_symop_operation_xyz
x,y,z
-x,y,1/2-z
-x,-y,-z
x,-y,1/2+z
loop_
_atom_site_type_symbol
_atom_site_label
_atom_site_fract_x
_atom_site_fract_y
_atom_site_fract_z
Si Si1 0.425033 0.862453 0.423516
Si Si2 0.823345 0.029819 0.746729
Si Si3 0.882774 0.421125 0.540925
Si Si4 0.066255 0.731838 0.022401
Si Si5 0.956449 0.115667 0.087997
Si Si6 0.531952 0.576506 0.049597
Si Si7 0.627056 0.730544 0.436876
O O1 0.500000 0.845673 0.250000
O O2 0.588854 0.925629 0.381619
O O3 0.167600 0.885401 0.554185
O O4 0.453467 0.791100 0.487106
O O5 0.955068 0.075241 0.574908
O O6 0.000000 0.034266 0.750000
O O7 0.778701 0.944095 0.734661
O O8 0.040970 0.349635 0.478666
O O9 0.669505 0.418018 0.745630
O O10 0.770442 0.419939 0.480476
O O11 0.000000 0.500000 0.500000
O O12 0.089449 0.798991 0.920172
O O13 0.836379 0.737675 0.228617
O O14 0.266821 0.740999 0.999883
O O15 0.488284 0.649539 0.999872
O O16 0.500000 0.500000 0.000000
#
# Coordination Sequence:
#
# PCOD9226840 Si02
#       7
#     4   4   4   4   4   4   4
#     4  10  18  31  54  80 108 137 185 232 277 330
#     4  10  20  34  52  77 110 139 181 231 286 333
#     4  10  21  36  59  86 117 159 186 235 285 341
#     4  10  18  32  55  81 109 140 190 226 282 337
#     4  10  20  33  54  80 106 145 179 235 283 331
#     4  10  21  35  56  89 121 146 193 238 286 340
#     4  10  18  30  56  82 108 141 180 240 281 331
#
# _framework density 22.427631000000002
#
# number of rings (size 3 to 8) (size 9 to 14) (size 15 to 20)
#    0.000    2.000    2.857    2.571    2.000    2.286 
#    0.000    2.857    6.286    0.000   18.571    0.000 
#    0.000    0.000    0.000    0.000    0.000    0.000 
#
# Total GULP energy -156490.998668 kJ/mol
# GULP energy per Si atom -5588.964238 kJ/mol
# Density = 2.237658 g / cm^3
# Si number density = 22.427631 Si / 1000 Ang^3
#
#
#
# Elastic Constant Matrix: (Units=GPa)
#
#
# Indices 1 2 3 4 5 6 
#
# 1 159.9399 80.7861 23.8499 0.0000 14.1146 0.0000
# 2 80.7861 202.5348 25.7283 0.0000 11.6446 0.0000
# 3 23.8499 25.7283 47.2570 0.0000 7.6498 0.0000
# 4 0.0000 0.0000 0.0000 14.6286 0.0000 8.8287
# 5 14.1146 11.6446 7.6498 0.0000 12.9462 0.0000
# 6 0.0000 0.0000 0.0000 8.8287 0.0000 36.5318
#
#
#
# Elastic Compliance Matrix: (Units=1/GPa)
#
#
# Indices 1 2 3 4 5 6 
#
# 1 0.008438 -0.002813 -0.001822 0.000000 -0.005593 0.000000
# 2 -0.002813 0.006380 -0.001793 0.000000 -0.001612 0.000000
# 3 -0.001822 -0.001793 0.024851 0.000000 -0.011085 0.000000
# 4 0.000000 0.000000 0.000000 0.080033 0.000000 -0.019342
# 5 -0.005593 -0.001612 -0.011085 0.000000 0.091341 0.000000
# 6 0.000000 0.000000 0.000000 -0.019342 0.000000 0.032048
#
#
# Mechanical properties :
#
#
# Convention : Reuss Voigt Hill
#
# Bulk Modulus (GPa) = 37.29383 74.49558 55.89471
# Shear Modulus (GPa) = 18.87617 31.44580 25.16099
#
# Velocity S-wave (km/s) = 2.90426 3.74853 3.35307
# Velocity P-wave (km/s) = 5.28308 7.21272 6.32196
#
# Compressibility (1/GPa) = 0.02681409
#
# Stress axis : x y z
#
# Youngs Moduli (GPa) = 118.50560 156.74368 40.24002
#
# Poissons Ratio (x) = 0.44090 0.07331
# Poissons Ratio (y) = 0.33334 0.07214
# Poissons Ratio (z) = 0.21590 0.28101
#
# Static dielectric constant tensor:
#      x y z
#    x 1.781930 0.000000 0.011240 
#    y 0.000000 1.800260 0.000000 
#    z 0.011240 0.000000 1.949820 
# 
# From -- ./inp_files/47461.got.cif
#   From: 2010.05.17/outbox.cif.g08.bks.cpg/sg13_24_cif.got.tgz:47461.got - 2010.06.03 16:44:36.
