data_PCOD9226565
_publ_section_title
;
Structure prediction by ZEFSAII (Michael W. Deem and Ramdas Pophale) SiO2 
 PCOD9226565
Probable space group: P 2/C
;
_chemical_formula_sum "Si O2"
_cell_formula_units_Z 30
_cell_length_a 12.009792
_cell_length_b 15.325107
_cell_length_c 19.324056
_cell_angle_alpha 90.000000
_cell_angle_beta 151.303237
_cell_angle_gamma 90.000000
_cell_volume 1707.795544
_symmetry_space_group_name_H-M "P 2/C"
_symmetry_group_IT_number 13
_symmetry_cell_setting 'monoclinic'
loop_
_space_group_symop_operation_xyz
x,y,z
-x,y,1/2-z
-x,-y,-z
x,-y,1/2+z
loop_
_atom_site_type_symbol
_atom_site_label
_atom_site_fract_x
_atom_site_fract_y
_atom_site_fract_z
Si Si1 0.558988 0.949307 0.604455
Si Si2 0.861557 0.346505 0.042141
Si Si3 0.497725 0.366040 0.528260
Si Si4 0.270955 0.194062 0.889467
Si Si5 0.500000 0.739749 0.250000
Si Si6 0.151990 0.491851 0.263583
Si Si7 0.528374 0.873480 0.145529
Si Si8 0.996650 0.174322 0.328945
O O1 0.366313 0.873429 0.498655
O O2 0.801961 0.898535 0.733359
O O3 0.500000 0.000000 0.500000
O O4 0.562804 0.022143 0.666214
O O5 0.681871 0.341414 0.009104
O O6 0.703271 0.321751 0.890607
O O7 0.035169 0.264864 0.147619
O O8 0.993374 0.438710 0.122524
O O9 0.592538 0.284543 0.537608
O O10 0.355359 0.426516 0.398269
O O11 0.712900 0.419101 0.679456
O O12 0.334923 0.156277 0.848507
O O13 0.000000 0.206647 0.750000
O O14 0.591550 0.807076 0.241227
O O15 0.000000 0.507545 0.250000
O O16 0.251937 0.860705 0.985849
O O17 0.000000 0.196572 0.250000
#
# Coordination Sequence:
#
# PCOD9226565 Si02
#       8
#     4   4   4   4   2   4   4   4
#     4  10  20  29  50  80 107 133 177 233 284 327
#     4  10  19  33  55  75 105 151 190 224 268 330
#     4  10  17  33  50  85 113 134 177 225 290 351
#     4  11  20  30  51  80 113 139 167 226 299 339
#     4  10  20  40  56  72 110 154 204 232 248 330
#     4   9  18  29  54  83 115 135 170 232 294 338
#     4  10  22  34  53  78 105 144 187 232 273 323
#     4  11  16  31  55  76 105 138 183 234 277 334
#
# _framework density 17.566504999999999
#
# number of rings (size 3 to 8) (size 9 to 14) (size 15 to 20)
#    0.000    1.867    5.333    2.400    3.733    0.000 
#    0.000    3.333    0.000    0.000    0.000    0.000 
#    0.000    0.000    0.000    0.000    0.000    0.000 
#
# Total GULP energy -167044.515822 kJ/mol
# GULP energy per Si atom -5568.150527 kJ/mol
# Density = 1.752652 g / cm^3
# Si number density = 17.566505 Si / 1000 Ang^3
#
#
#
# Elastic Constant Matrix: (Units=GPa)
#
#
# Indices 1 2 3 4 5 6 
#
# 1 19.5557 4.9866 7.0580 0.0000 2.1065 0.0000
# 2 4.9866 78.7604 26.9375 0.0000 0.2863 0.0000
# 3 7.0580 26.9375 67.5264 0.0000 0.1490 0.0000
# 4 0.0000 0.0000 0.0000 45.1474 0.0000 3.7433
# 5 2.1065 0.2863 0.1490 0.0000 29.3259 0.0000
# 6 0.0000 0.0000 0.0000 3.7433 0.0000 15.6589
#
#
#
# Elastic Compliance Matrix: (Units=1/GPa)
#
#
# Indices 1 2 3 4 5 6 
#
# 1 0.053762 -0.001703 -0.004931 0.000000 -0.003820 0.000000
# 2 -0.001703 0.014757 -0.005709 0.000000 0.000007 0.000000
# 3 -0.004931 -0.005709 0.017601 0.000000 0.000321 0.000000
# 4 0.000000 0.000000 0.000000 0.022598 0.000000 -0.005402
# 5 -0.003820 0.000007 0.000321 0.000000 0.034372 0.000000
# 6 0.000000 0.000000 0.000000 -0.005402 0.000000 0.065153
#
#
# Mechanical properties :
#
#
# Convention : Reuss Voigt Hill
#
# Bulk Modulus (GPa) = 16.27797 27.08963 21.68380
# Shear Modulus (GPa) = 19.73109 26.48378 23.10744
#
# Velocity S-wave (km/s) = 3.35509 3.88703 3.63081
# Velocity P-wave (km/s) = 4.92904 5.96658 5.47245
#
# Compressibility (1/GPa) = 0.06143271
#
# Stress axis : x y z
#
# Youngs Moduli (GPa) = 18.60065 67.76403 56.81457
#
# Poissons Ratio (x) = 0.11543 0.28017
# Poissons Ratio (y) = 0.03168 0.32435
# Poissons Ratio (z) = 0.09173 0.38686
#
# Static dielectric constant tensor:
#      x y z
#    x 1.585670 0.000000 -0.011450 
#    y 0.000000 1.679090 0.000000 
#    z -0.011450 0.000000 1.632320 
# 
# From -- ./inp_files/87562.got.cif
#   From: 2010.05.17/outbox.cif.g08.bks.cpg/sg13_44_cif.got.tgz:87562.got - 2010.06.03 16:44:36.
