data_PCOD9226721
_publ_section_title
;
Structure prediction by ZEFSAII (Michael W. Deem and Ramdas Pophale) SiO2 
 PCOD9226721
Probable space group: P 2/C
;
_chemical_formula_sum "Si O2"
_cell_formula_units_Z 28
_cell_length_a 21.200028
_cell_length_b 9.762173
_cell_length_c 10.922494
_cell_angle_alpha 90.000000
_cell_angle_beta 147.901502
_cell_angle_gamma 90.000000
_cell_volume 1201.176947
_symmetry_space_group_name_H-M "P 2/C"
_symmetry_group_IT_number 13
_symmetry_cell_setting 'monoclinic'
loop_
_space_group_symop_operation_xyz
x,y,z
-x,y,1/2-z
-x,-y,-z
x,-y,1/2+z
loop_
_atom_site_type_symbol
_atom_site_label
_atom_site_fract_x
_atom_site_fract_y
_atom_site_fract_z
Si Si1 0.000000 0.827275 0.250000
Si Si2 0.252186 0.492795 0.167370
Si Si3 0.954129 0.658714 0.418629
Si Si4 0.321413 0.595834 0.532033
Si Si5 0.452976 0.840546 0.860973
Si Si6 0.754957 0.828589 0.787209
Si Si7 0.593754 0.863185 0.309154
Si Si8 0.000000 0.347343 0.250000
O O1 0.993160 0.735110 0.361238
O O2 0.124909 0.902997 0.473411
O O3 0.331840 0.538909 0.413035
O O4 0.314008 0.506279 0.136375
O O5 0.229832 0.332710 0.159390
O O6 0.123004 0.565019 0.953470
O O7 0.998793 0.727095 0.617634
O O8 0.000000 0.500000 0.500000
O O9 0.812015 0.657616 0.185511
O O10 0.413208 0.712139 0.717665
O O11 0.353407 0.866761 0.802536
O O12 0.443712 0.978254 0.768640
O O13 0.572100 0.812280 0.135159
O O14 0.716739 0.850527 0.583795
O O15 0.500000 0.794496 0.250000
#
# Coordination Sequence:
#
# PCOD9226721 Si02
#       8
#     2   4   4   4   4   4   4   2
#     4  12  19  30  54  83 116 153 188 214 273 342
#     4  10  18  29  47  79 117 153 178 222 265 337
#     4  11  17  27  47  76 111 155 191 220 247 328
#     4  10  19  30  52  81 116 143 188 227 275 327
#     4   9  18  38  59  81 101 137 194 254 278 324
#     4  10  19  33  55  85 112 148 184 227 282 346
#     4   9  19  37  65  78  95 137 200 247 294 335
#     4  10  19  26  46  73 114 157 202 212 245 312
#
# _framework density 23.310471
#
# number of rings (size 3 to 8) (size 9 to 14) (size 15 to 20)
#    0.000    2.000    4.286    2.571    0.000    0.000 
#    0.000    5.714    0.000    3.429    0.000    0.000 
#    0.000    0.000    0.000    0.000    0.000    0.000 
#
# Total GULP energy -156249.678754 kJ/mol
# GULP energy per Si atom -5580.345670 kJ/mol
# Density = 2.325742 g / cm^3
# Si number density = 23.310471 Si / 1000 Ang^3
#
#
#
# Elastic Constant Matrix: (Units=GPa)
#
#
# Indices 1 2 3 4 5 6 
#
# 1 88.9236 5.9439 49.8721 0.0000 -39.8223 0.0000
# 2 5.9439 20.4321 29.6972 0.0000 -9.3297 0.0000
# 3 49.8721 29.6972 174.4223 0.0000 -47.0947 0.0000
# 4 0.0000 0.0000 0.0000 5.3444 0.0000 -5.6402
# 5 -39.8223 -9.3297 -47.0947 0.0000 53.7714 0.0000
# 6 0.0000 0.0000 0.0000 -5.6402 0.0000 14.3502
#
#
#
# Elastic Compliance Matrix: (Units=1/GPa)
#
#
# Indices 1 2 3 4 5 6 
#
# 1 0.017546 0.003878 -0.002602 0.000000 0.011388 0.000000
# 2 0.003878 0.066072 -0.011116 0.000000 0.004600 0.000000
# 3 -0.002602 -0.011116 0.009599 0.000000 0.004551 0.000000
# 4 0.000000 0.000000 0.000000 0.319736 0.000000 0.125669
# 5 0.011388 0.004600 0.004551 0.000000 0.031815 0.000000
# 6 0.000000 0.000000 0.000000 0.125669 0.000000 0.119079
#
#
# Mechanical properties :
#
#
# Convention : Reuss Voigt Hill
#
# Bulk Modulus (GPa) = 13.59899 50.53381 32.06640
# Shear Modulus (GPa) = 8.22317 27.91086 18.06701
#
# Velocity S-wave (km/s) = 1.88025 3.46403 2.78701
# Velocity P-wave (km/s) = 3.24966 6.14207 4.91352
#
# Compressibility (1/GPa) = 0.07353486
#
# Stress axis : x y z
#
# Youngs Moduli (GPa) = 56.99445 15.13507 104.18090
#
# Poissons Ratio (x) = -0.05869 0.27111
# Poissons Ratio (y) = -0.22102 1.15810
# Poissons Ratio (z) = 0.14832 0.16824
#
# Static dielectric constant tensor:
#      x y z
#    x 1.970020 0.000000 -0.008940 
#    y 0.000000 1.877910 0.000000 
#    z -0.008940 0.000000 1.959510 
# 
# From -- ./inp_files/41813.got.cif
#   From: 2010.05.17/outbox.cif.g08.bks.cpg/sg13_21_cif.got.tgz:41813.got - 2010.06.03 16:44:36.
