data_PCOD9226087
_publ_section_title
;
Structure prediction by ZEFSAII (Michael W. Deem and Ramdas Pophale) SiO2 
 PCOD9226087
Probable space group: P 2/C
;
_chemical_formula_sum "Si O2"
_cell_formula_units_Z 28
_cell_length_a 22.515495
_cell_length_b 17.954385
_cell_length_c 5.435468
_cell_angle_alpha 90.000000
_cell_angle_beta 83.067239
_cell_angle_gamma 90.000000
_cell_volume 2181.232506
_symmetry_space_group_name_H-M "P 2/C"
_symmetry_group_IT_number 13
_symmetry_cell_setting 'monoclinic'
loop_
_space_group_symop_operation_xyz
x,y,z
-x,y,1/2-z
-x,-y,-z
x,-y,1/2+z
loop_
_atom_site_type_symbol
_atom_site_label
_atom_site_fract_x
_atom_site_fract_y
_atom_site_fract_z
Si Si1 0.358428 0.547482 0.820786
Si Si2 0.168060 0.414476 0.915971
Si Si3 0.781479 0.415828 0.109260
Si Si4 0.427077 0.958232 0.286462
Si Si5 0.427704 0.701255 0.786148
Si Si6 0.427258 0.785950 0.286371
Si Si7 0.025137 0.585126 0.487431
O O1 0.367441 0.500000 0.566280
O O2 0.289568 0.575107 0.855216
O O3 0.401005 0.618825 0.799497
O O4 0.194287 0.380092 0.653331
O O5 0.191157 0.500200 0.904422
O O6 0.096590 0.416007 0.951705
O O7 0.194287 0.380092 0.152384
O O8 0.500000 0.958774 0.250000
O O9 0.408140 0.872059 0.295930
O O10 0.408252 0.000000 0.545874
O O11 0.500000 0.698088 0.750000
O O12 0.408858 0.744151 0.546151
O O13 0.408858 0.744151 0.044991
O O14 0.500000 0.786068 0.250000
O O15 0.000000 0.619936 0.250000
O O16 0.000000 0.500000 0.500000
O O17 0.000000 0.619936 0.750000
#
# Coordination Sequence:
#
# PCOD9226087 Si02
#       7
#     4   4   4   4   4   4   4
#     4  12  21  33  45  57  69  83 123 170 199 234
#     4  10  16  25  38  48  67  86 104 131 182 221
#     4  10  16  27  37  51  61  82 107 144 188 217
#     4   9  15  23  40  64  83  99 117 135 151 182
#     4  10  21  33  45  57  73  99 118 145 198 241
#     4   9  17  31  44  58  81 101 117 133 166 226
#     4  10  16  22  31  49  68  86 104 122 149 211
#
# _framework density 12.836779
#
# number of rings (size 3 to 8) (size 9 to 14) (size 15 to 20)
#    0.000    2.000    2.857    6.000    0.000    4.000 
#    0.000    0.000    0.000    0.000    0.000    0.000 
#    0.000    0.000    0.000    0.000    0.000    0.000 
#
# Total GULP energy -155935.996770 kJ/mol
# GULP energy per Si atom -5569.142742 kJ/mol
# Density = 1.280756 g / cm^3
# Si number density = 12.836779 Si / 1000 Ang^3
#
#
#
# Elastic Constant Matrix: (Units=GPa)
#
#
# Indices 1 2 3 4 5 6 
#
# 1 33.8365 27.9115 34.8951 0.0000 6.7625 0.0000
# 2 27.9115 63.1903 51.7484 0.0000 6.6715 0.0000
# 3 34.8951 51.7484 154.1450 0.0000 26.9098 0.0000
# 4 0.0000 0.0000 0.0000 13.6712 0.0000 3.7338
# 5 6.7625 6.6715 26.9098 0.0000 17.1906 0.0000
# 6 0.0000 0.0000 0.0000 3.7338 0.0000 0.3306
#
#
#
# Elastic Compliance Matrix: (Units=1/GPa)
#
#
# Indices 1 2 3 4 5 6 
#
# 1 0.049930 -0.017964 -0.004211 0.000000 -0.006077 0.000000
# 2 -0.017964 0.028504 -0.006612 0.000000 0.006355 0.000000
# 3 -0.004211 -0.006612 0.012279 0.000000 -0.014998 0.000000
# 4 0.000000 0.000000 0.000000 -0.035087 0.000000 0.396292
# 5 -0.006077 0.006355 -0.014998 0.000000 0.081574 0.000000
# 6 0.000000 0.000000 0.000000 0.396292 0.000000 -1.451000
#
#
# Mechanical properties :
#
#
# Convention : Reuss Voigt Hill
#
# Bulk Modulus (GPa) = 30.17656 53.36464 41.77060
# Shear Modulus (GPa) = -4.01548 15.34627 5.66539
#
# Velocity S-wave (km/s) = -1.77056 3.46134 2.10309
# Velocity P-wave (km/s) = 4.40217 7.59187 6.20546
#
# Compressibility (1/GPa) = 0.03313830
#
# Stress axis : x y z
#
# Youngs Moduli (GPa) = 20.02807 35.08327 81.44176
#
# Poissons Ratio (x) = 0.63023 0.34298
# Poissons Ratio (y) = 0.35978 0.53847
# Poissons Ratio (z) = 0.08435 0.23196
#
# Static dielectric constant tensor:
#      x y z
#    x 1.408410 0.000000 0.029190 
#    y 0.000000 1.397770 0.000000 
#    z 0.029190 0.000000 1.512700 
# 
# From -- ./inp_files/6995.got.cif
#   From: 2010.05.17/outbox.cif.g08.bks.cpg/sg13_4_cif.got.tgz:6995.got - 2010.06.03 16:44:36.
