data_PCOD9226798
_publ_section_title
;
Structure prediction by ZEFSAII (Michael W. Deem and Ramdas Pophale) SiO2 
 PCOD9226798
Probable space group: P 2/C
;
_chemical_formula_sum "Si O2"
_cell_formula_units_Z 30
_cell_length_a 22.000602
_cell_length_b 8.577757
_cell_length_c 8.585274
_cell_angle_alpha 90.000000
_cell_angle_beta 117.105200
_cell_angle_gamma 90.000000
_cell_volume 1442.235324
_symmetry_space_group_name_H-M "P 2/C"
_symmetry_group_IT_number 13
_symmetry_cell_setting 'monoclinic'
loop_
_space_group_symop_operation_xyz
x,y,z
-x,y,1/2-z
-x,-y,-z
x,-y,1/2+z
loop_
_atom_site_type_symbol
_atom_site_label
_atom_site_fract_x
_atom_site_fract_y
_atom_site_fract_z
Si Si1 0.811283 0.551535 0.516586
Si Si2 0.662958 0.680960 0.328037
Si Si3 0.735805 0.768959 0.938314
Si Si4 0.459195 0.128136 0.544628
Si Si5 0.384221 0.601592 0.876947
Si Si6 0.312564 0.975155 0.331136
Si Si7 0.904491 0.578074 0.885439
Si Si8 0.000000 0.599315 0.250000
O O1 0.740690 0.628244 0.387546
O O2 0.793136 0.366161 0.520508
O O3 0.841900 0.635025 0.705233
O O4 0.867476 0.553640 0.446817
O O5 0.645195 0.632949 0.483861
O O6 0.614187 0.579502 0.159840
O O7 0.662789 0.859074 0.276769
O O8 0.668019 0.672936 0.810799
O O9 0.738707 0.896305 0.801981
O O10 0.721797 0.868759 0.076683
O O11 0.500000 0.156081 0.750000
O O12 0.450930 0.292882 0.447908
O O13 0.500000 0.000000 0.500000
O O14 0.382241 0.059024 0.468196
O O15 0.955017 0.504758 0.815986
O O16 0.947227 0.676440 0.064004
#
# Coordination Sequence:
#
# PCOD9226798 Si02
#       8
#     4   4   4   4   4   4   4   2
#     4  10  18  30  51  79 109 138 172 220 266 329
#     4  11  20  35  56  81 112 140 172 219 287 335
#     4  10  20  34  51  77 107 139 174 213 276 330
#     4  11  22  39  57  74  98 137 187 226 263 326
#     4  10  21  36  54  78 104 136 171 218 279 332
#     4  11  21  36  56  76 106 142 174 222 279 335
#     4   9  16  28  47  74 112 147 180 216 265 304
#     4   8  16  28  44  72 114 150 178 220 262 304
#
# _framework density 20.801043
#
# number of rings (size 3 to 8) (size 9 to 14) (size 15 to 20)
#    0.000    1.867    0.000    8.000    0.000    0.000 
#    0.000    3.333    0.000    0.000    0.000    0.000 
#    0.000  247.467    0.000    0.000    0.000    0.000 
#
# Total GULP energy -167104.256209 kJ/mol
# GULP energy per Si atom -5570.141874 kJ/mol
# Density = 2.075370 g / cm^3
# Si number density = 20.801043 Si / 1000 Ang^3
#
#
#
# Elastic Constant Matrix: (Units=GPa)
#
#
# Indices 1 2 3 4 5 6 
#
# 1 74.7652 18.9062 30.5829 0.0000 -6.2223 0.0000
# 2 18.9062 81.9424 31.2124 0.0000 6.4262 0.0000
# 3 30.5829 31.2124 115.9890 0.0000 5.7019 0.0000
# 4 0.0000 0.0000 0.0000 23.6823 0.0000 -14.1698
# 5 -6.2223 6.4262 5.7019 0.0000 33.7251 0.0000
# 6 0.0000 0.0000 0.0000 -14.1698 0.0000 9.9146
#
#
#
# Elastic Compliance Matrix: (Units=1/GPa)
#
#
# Indices 1 2 3 4 5 6 
#
# 1 0.015872 -0.002573 -0.003691 0.000000 0.004043 0.000000
# 2 -0.002573 0.014148 -0.002998 0.000000 -0.002664 0.000000
# 3 -0.003691 -0.002998 0.010494 0.000000 -0.001884 0.000000
# 4 0.000000 0.000000 0.000000 0.291460 0.000000 0.416551
# 5 0.004043 -0.002664 -0.001884 0.000000 0.031224 0.000000
# 6 0.000000 0.000000 0.000000 0.416551 0.000000 0.696190
#
#
# Mechanical properties :
#
#
# Convention : Reuss Voigt Hill
#
# Bulk Modulus (GPa) = 45.47534 48.23330 46.85432
# Shear Modulus (GPa) = 4.60726 26.26407 15.43567
#
# Velocity S-wave (km/s) = 1.48987 3.55721 2.72704
# Velocity P-wave (km/s) = 4.98690 6.33324 5.69996
#
# Compressibility (1/GPa) = 0.02198994
#
# Stress axis : x y z
#
# Youngs Moduli (GPa) = 63.00279 70.68049 95.29122
#
# Poissons Ratio (x) = 0.18187 0.35176
# Poissons Ratio (y) = 0.16211 0.28567
# Poissons Ratio (z) = 0.23257 0.21189
#
# Static dielectric constant tensor:
#      x y z
#    x 1.812840 0.000000 -0.008320 
#    y 0.000000 1.778970 0.000000 
#    z -0.008320 0.000000 1.856160 
# 
# From -- ./inp_files/22551.got.cif
#   From: 2010.05.17/outbox.cif.g08.bks.cpg/sg13_12_cif.got.tgz:22551.got - 2010.06.03 16:44:36.
