data_PCOD9226750
_publ_section_title
;
Structure prediction by ZEFSAII (Michael W. Deem and Ramdas Pophale) SiO2 
 PCOD9226750
Probable space group: P 2/C
;
_chemical_formula_sum "Si O2"
_cell_formula_units_Z 28
_cell_length_a 24.437098
_cell_length_b 5.774560
_cell_length_c 18.105665
_cell_angle_alpha 90.000000
_cell_angle_beta 28.063627
_cell_angle_gamma 90.000000
_cell_volume 1201.982464
_symmetry_space_group_name_H-M "P 2/C"
_symmetry_group_IT_number 13
_symmetry_cell_setting 'monoclinic'
loop_
_space_group_symop_operation_xyz
x,y,z
-x,y,1/2-z
-x,-y,-z
x,-y,1/2+z
loop_
_atom_site_type_symbol
_atom_site_label
_atom_site_fract_x
_atom_site_fract_y
_atom_site_fract_z
Si Si1 0.735133 0.121324 0.932584
Si Si2 0.247266 0.488486 0.213171
Si Si3 0.062687 0.189449 0.376190
Si Si4 0.139126 0.831869 0.065552
Si Si5 0.904828 0.668910 0.930725
Si Si6 0.407190 0.293029 0.623097
Si Si7 0.438664 0.909261 0.457310
O O1 0.748081 0.337609 0.861662
O O2 0.773085 0.183356 0.969564
O O3 0.832366 0.935317 0.792540
O O4 0.607758 0.017684 0.063837
O O5 0.123872 0.369373 0.357155
O O6 0.281803 0.618024 0.247031
O O7 0.344681 0.291140 0.085792
O O8 0.979421 0.301140 0.415734
O O9 0.000000 0.000000 0.500000
O O10 0.152006 0.586333 0.009120
O O11 0.000000 0.839764 0.250000
O O12 0.160862 0.082012 0.001465
O O13 0.000000 0.667110 0.750000
O O14 0.500000 0.500000 0.500000
O O15 0.436064 0.198830 0.670611
O O16 0.427822 0.103648 0.533977
#
# Coordination Sequence:
#
# PCOD9226750 Si02
#       7
#     4   4   4   4   4   4   4
#     4  10  18  30  46  70  93 136 176 217 267 322
#     4   9  17  28  43  62  95 132 173 206 261 315
#     4  11  22  33  46  70 101 140 191 228 264 324
#     4  10  18  30  51  66  92 128 184 211 261 311
#     4  10  19  34  50  68  92 133 186 221 267 307
#     4   8  13  25  41  63  91 130 159 193 258 326
#     4   8  15  24  42  66  94 122 165 200 256 322
#
# _framework density 23.29485
#
# number of rings (size 3 to 8) (size 9 to 14) (size 15 to 20)
#    0.000    2.571    2.857    1.714    2.000    0.571 
#    0.000    0.000    0.000    0.000    0.000    0.000 
#    0.000    0.000    0.000  167.143   29.143    0.000 
#
# Total GULP energy -156149.953030 kJ/mol
# GULP energy per Si atom -5576.784037 kJ/mol
# Density = 2.324183 g / cm^3
# Si number density = 23.294850 Si / 1000 Ang^3
#
#
#
# Elastic Constant Matrix: (Units=GPa)
#
#
# Indices 1 2 3 4 5 6 
#
# 1 216.4136 90.8046 59.8757 0.0000 -63.6650 0.0000
# 2 90.8046 178.9199 36.4982 0.0000 -20.9367 0.0000
# 3 59.8757 36.4982 48.2245 0.0000 -21.2543 0.0000
# 4 0.0000 0.0000 0.0000 32.0998 0.0000 -16.3832
# 5 -63.6650 -20.9367 -21.2543 0.0000 42.1983 0.0000
# 6 0.0000 0.0000 0.0000 -16.3832 0.0000 62.6839
#
#
#
# Elastic Compliance Matrix: (Units=1/GPa)
#
#
# Indices 1 2 3 4 5 6 
#
# 1 0.011219 -0.002979 -0.006255 0.000000 0.012298 0.000000
# 2 -0.002979 0.007432 -0.002933 0.000000 -0.002284 0.000000
# 3 -0.006255 -0.002933 0.033318 0.000000 0.005889 0.000000
# 4 0.000000 0.000000 0.000000 0.035948 0.000000 0.009395
# 5 0.012298 -0.002284 0.005889 0.000000 0.044085 0.000000
# 6 0.000000 0.000000 0.000000 0.009395 0.000000 0.018409
#
#
# Mechanical properties :
#
#
# Convention : Reuss Voigt Hill
#
# Bulk Modulus (GPa) = 36.18539 90.87945 63.53242
# Shear Modulus (GPa) = 27.18043 44.48835 35.83439
#
# Velocity S-wave (km/s) = 3.41955 4.37486 3.92637
# Velocity P-wave (km/s) = 5.58198 8.03844 6.92008
#
# Compressibility (1/GPa) = 0.02763546
#
# Stress axis : x y z
#
# Youngs Moduli (GPa) = 89.13386 134.55489 30.01378
#
# Poissons Ratio (x) = 0.40081 0.18774
# Poissons Ratio (y) = 0.26551 0.08803
# Poissons Ratio (z) = 0.55753 0.39464
#
# Static dielectric constant tensor:
#      x y z
#    x 1.811770 0.000000 -0.022810 
#    y 0.000000 1.912870 0.000000 
#    z -0.022810 0.000000 1.912900 
# 
# From -- ./inp_files/77248.got.cif
#   From: 2010.05.17/outbox.cif.g08.bks.cpg/sg13_39_cif.got.tgz:77248.got - 2010.06.03 16:44:36.
