data_PCOD9226603
_publ_section_title
;
Structure prediction by ZEFSAII (Michael W. Deem and Ramdas Pophale) SiO2 
 PCOD9226603
Probable space group: P 2/C
;
_chemical_formula_sum "Si O2"
_cell_formula_units_Z 32
_cell_length_a 7.884990
_cell_length_b 23.254690
_cell_length_c 17.364504
_cell_angle_alpha 90.000000
_cell_angle_beta 34.135675
_cell_angle_gamma 90.000000
_cell_volume 1786.720063
_symmetry_space_group_name_H-M "P 2/C"
_symmetry_group_IT_number 13
_symmetry_cell_setting 'monoclinic'
loop_
_space_group_symop_operation_xyz
x,y,z
-x,y,1/2-z
-x,-y,-z
x,-y,1/2+z
loop_
_atom_site_type_symbol
_atom_site_label
_atom_site_fract_x
_atom_site_fract_y
_atom_site_fract_z
Si Si1 0.043706 0.163829 0.888070
Si Si2 0.676670 0.820491 0.060836
Si Si3 0.127573 0.949271 0.116210
Si Si4 0.582680 0.542888 0.804370
Si Si5 0.306454 0.749514 0.085688
Si Si6 0.716577 0.463836 0.475163
Si Si7 0.654117 0.641512 0.900814
Si Si8 0.816515 0.922518 0.893157
O O1 0.091152 0.187992 0.956047
O O2 0.357336 0.169217 0.723594
O O3 0.981451 0.095903 0.906234
O O4 0.792923 0.199007 0.934370
O O5 0.581063 0.770622 0.037347
O O6 0.783449 0.875168 0.971285
O O7 0.000000 0.934830 0.250000
O O8 0.049757 0.015818 0.130208
O O9 0.483830 0.939155 0.988898
O O10 0.500000 0.560833 0.750000
O O11 0.549197 0.596603 0.874610
O O12 0.934214 0.525025 0.675020
O O13 0.376556 0.489263 0.907841
O O14 0.000000 0.737133 0.250000
O O15 0.429866 0.694291 0.994846
O O16 0.500000 0.500000 0.500000
O O17 0.663111 0.397093 0.475523
O O18 0.000000 0.658307 0.750000
O O19 0.000000 0.901194 0.750000
#
# Coordination Sequence:
#
# PCOD9226603 Si02
#       8
#     4   4   4   4   4   4   4   4
#     4  10  19  36  60  80 102 141 194 226 277 335
#     4  10  20  36  59  80 105 144 183 235 280 326
#     4  10  17  34  57  80 107 145 182 218 276 341
#     4  10  19  34  57  87 118 146 183 229 273 319
#     4  10  20  38  59  79 104 144 191 236 271 318
#     4   9  18  34  56  81 111 150 185 215 267 334
#     4   9  20  37  56  78 111 152 181 215 279 333
#     4  10  20  31  55  84 111 140 175 224 282 339
#
# _framework density 17.909913
#
# number of rings (size 3 to 8) (size 9 to 14) (size 15 to 20)
#    0.000    2.250    2.500    1.875    0.000    3.000 
#    4.500    0.625    2.750    0.000    0.000    0.000 
#    0.000    0.000    0.000    0.000    0.000    0.000 
#
# Total GULP energy -178219.790584 kJ/mol
# GULP energy per Si atom -5569.368456 kJ/mol
# Density = 1.786915 g / cm^3
# Si number density = 17.909913 Si / 1000 Ang^3
#
#
#
# Elastic Constant Matrix: (Units=GPa)
#
#
# Indices 1 2 3 4 5 6 
#
# 1 67.7618 27.3113 30.0835 0.0000 14.5665 0.0000
# 2 27.3113 79.2206 42.3338 0.0000 7.2022 0.0000
# 3 30.0835 42.3338 65.4933 0.0000 10.0507 0.0000
# 4 0.0000 0.0000 0.0000 33.9863 0.0000 -0.9268
# 5 14.5665 7.2022 10.0507 0.0000 20.1701 0.0000
# 6 0.0000 0.0000 0.0000 -0.9268 0.0000 15.3047
#
#
#
# Elastic Compliance Matrix: (Units=1/GPa)
#
#
# Indices 1 2 3 4 5 6 
#
# 1 0.021032 -0.003039 -0.005990 0.000000 -0.011119 0.000000
# 2 -0.003039 0.019733 -0.011494 0.000000 0.000876 0.000000
# 3 -0.005990 -0.011494 0.026156 0.000000 -0.004603 0.000000
# 4 0.000000 0.000000 0.000000 0.029472 0.000000 0.001785
# 5 -0.011119 0.000876 -0.004603 0.000000 0.059589 0.000000
# 6 0.000000 0.000000 0.000000 0.001785 0.000000 0.065448
#
#
# Mechanical properties :
#
#
# Convention : Reuss Voigt Hill
#
# Bulk Modulus (GPa) = 38.64638 45.77032 42.20835
# Shear Modulus (GPa) = 18.44334 21.40869 19.92601
#
# Velocity S-wave (km/s) = 3.21251 3.46114 3.33914
# Velocity P-wave (km/s) = 5.94856 6.44857 6.20360
#
# Compressibility (1/GPa) = 0.02587564
#
# Stress axis : x y z
#
# Youngs Moduli (GPa) = 47.54661 50.67672 38.23230
#
# Poissons Ratio (x) = 0.15400 0.22902
# Poissons Ratio (y) = 0.14449 0.43942
# Poissons Ratio (z) = 0.28481 0.58246
#
# Static dielectric constant tensor:
#      x y z
#    x 1.652930 0.000000 0.019580 
#    y 0.000000 1.618050 0.000000 
#    z 0.019580 0.000000 1.626780 
# 
# From -- ./inp_files/64768.got.cif
#   From: 2010.05.17/outbox.cif.g08.bks.cpg/sg13_33_cif.got.tgz:64768.got - 2010.06.03 16:44:36.
