data_PCOD9226275
_publ_section_title
;
Structure prediction by ZEFSAII (Michael W. Deem and Ramdas Pophale) SiO2 
 PCOD9226275
Probable space group: P 2/C
;
_chemical_formula_sum "Si O2"
_cell_formula_units_Z 30
_cell_length_a 9.858108
_cell_length_b 9.374002
_cell_length_c 17.283255
_cell_angle_alpha 90.000000
_cell_angle_beta 118.572796
_cell_angle_gamma 90.000000
_cell_volume 1402.628335
_symmetry_space_group_name_H-M "P 2/C"
_symmetry_group_IT_number 13
_symmetry_cell_setting 'monoclinic'
loop_
_space_group_symop_operation_xyz
x,y,z
-x,y,1/2-z
-x,-y,-z
x,-y,1/2+z
loop_
_atom_site_type_symbol
_atom_site_label
_atom_site_fract_x
_atom_site_fract_y
_atom_site_fract_z
Si Si1 0.721343 0.105629 0.464500
Si Si2 0.897878 0.169317 0.150916
Si Si3 0.376766 0.092255 0.317541
Si Si4 0.148035 0.960080 0.136596
Si Si5 0.093362 0.459480 0.408606
Si Si6 0.500000 0.351019 0.250000
Si Si7 0.070857 0.767206 0.351912
Si Si8 0.215157 0.591992 0.597587
O O1 0.542215 0.065551 0.403424
O O2 0.815466 0.985768 0.443152
O O3 0.759914 0.244925 0.422745
O O4 0.785034 0.154042 0.565839
O O5 0.753250 0.095271 0.152353
O O6 0.000000 0.225076 0.250000
O O7 0.016467 0.069525 0.134931
O O8 0.833458 0.309739 0.093072
O O9 0.302249 0.991455 0.229945
O O10 0.405958 0.243967 0.281541
O O11 0.071233 0.806013 0.129366
O O12 0.107610 0.599374 0.359368
O O13 0.913486 0.423465 0.372493
O O14 0.160739 0.507204 0.508718
O O15 0.618570 0.449240 0.327093
O O16 0.000000 0.816186 0.250000
#
# Coordination Sequence:
#
# PCOD9226275 Si02
#       8
#     4   4   4   4   4   2   4   4
#     4  10  19  38  62  88 108 155 195 245 287 342
#     4  10  19  32  58  90 111 143 196 246 277 332
#     4  10  18  33  62  89 112 139 199 252 285 323
#     4  11  19  38  61  89 107 148 203 242 279 337
#     4  10  19  35  55  82 119 150 189 230 291 346
#     4  10  16  32  54  82 108 140 182 240 292 328
#     4  11  24  37  54  85 125 155 185 234 298 357
#     4   9  17  32  58  82 107 146 194 238 276 338
#
# _framework density 21.388417
#
# number of rings (size 3 to 8) (size 9 to 14) (size 15 to 20)
#    0.000    1.867    4.000    2.800    0.000    0.000 
#    0.000   10.000    2.933    0.000    3.467    0.000 
#    0.000    0.000    0.000    0.000    0.000    0.000 
#
# Total GULP energy -167205.272266 kJ/mol
# GULP energy per Si atom -5573.509076 kJ/mol
# Density = 2.133974 g / cm^3
# Si number density = 21.388417 Si / 1000 Ang^3
#
#
#
# Elastic Constant Matrix: (Units=GPa)
#
#
# Indices 1 2 3 4 5 6 
#
# 1 70.5526 1.4438 34.3347 0.0000 12.4300 0.0000
# 2 1.4438 36.5202 7.4105 0.0000 -0.3123 0.0000
# 3 34.3347 7.4105 122.6421 0.0000 26.0028 0.0000
# 4 0.0000 0.0000 0.0000 14.0009 0.0000 6.8806
# 5 12.4300 -0.3123 26.0028 0.0000 35.0023 0.0000
# 6 0.0000 0.0000 0.0000 6.8806 0.0000 17.5900
#
#
#
# Elastic Compliance Matrix: (Units=1/GPa)
#
#
# Indices 1 2 3 4 5 6 
#
# 1 0.016656 0.000140 -0.004057 0.000000 -0.002900 0.000000
# 2 0.000140 0.027816 -0.002091 0.000000 0.001752 0.000000
# 3 -0.004057 -0.002091 0.010818 0.000000 -0.006615 0.000000
# 4 0.000000 0.000000 0.000000 0.088421 0.000000 -0.034587
# 5 -0.002900 0.001752 -0.006615 0.000000 0.034529 0.000000
# 6 0.000000 0.000000 0.000000 -0.034587 0.000000 0.070380
#
#
# Mechanical properties :
#
#
# Convention : Reuss Voigt Hill
#
# Bulk Modulus (GPa) = 23.10852 35.12143 29.11498
# Shear Modulus (GPa) = 18.17777 25.75372 21.96574
#
# Velocity S-wave (km/s) = 2.91845 3.47377 3.20815
# Velocity P-wave (km/s) = 4.71000 5.70490 5.23116
#
# Compressibility (1/GPa) = 0.04327407
#
# Stress axis : x y z
#
# Youngs Moduli (GPa) = 60.03828 35.95062 92.43548
#
# Poissons Ratio (x) = -0.00503 0.37497
# Poissons Ratio (y) = -0.00840 0.19332
# Poissons Ratio (z) = 0.24355 0.07519
#
# Static dielectric constant tensor:
#      x y z
#    x 1.781100 0.000000 -0.010330 
#    y 0.000000 1.808960 0.000000 
#    z -0.010330 0.000000 1.876530 
# 
# From -- ./inp_files/64454.got.cif
#   From: 2010.05.17/outbox.cif.g08.bks.cpg/sg13_33_cif.got.tgz:64454.got - 2010.06.03 16:44:36.
