data_PCOD9226126
_publ_section_title
;
Structure prediction by ZEFSAII (Michael W. Deem and Ramdas Pophale) SiO2 
 PCOD9226126
Probable space group: P 2/C
;
_chemical_formula_sum "Si O2"
_cell_formula_units_Z 26
_cell_length_a 33.382183
_cell_length_b 6.714704
_cell_length_c 5.185875
_cell_angle_alpha 90.000000
_cell_angle_beta 81.069196
_cell_angle_gamma 90.000000
_cell_volume 1148.328980
_symmetry_space_group_name_H-M "P 2/C"
_symmetry_group_IT_number 13
_symmetry_cell_setting 'monoclinic'
loop_
_space_group_symop_operation_xyz
x,y,z
-x,y,1/2-z
-x,-y,-z
x,-y,1/2+z
loop_
_atom_site_type_symbol
_atom_site_label
_atom_site_fract_x
_atom_site_fract_y
_atom_site_fract_z
Si Si1 0.085862 0.131029 0.742395
Si Si2 0.167705 0.370431 0.666169
Si Si3 0.743692 0.640550 0.473219
Si Si4 0.000000 0.857489 0.250000
Si Si5 0.371206 0.754828 0.258706
Si Si6 0.543543 0.864380 0.156511
Si Si7 0.338319 0.796750 0.793695
O O1 0.127311 0.247043 0.658775
O O2 0.043698 0.248612 0.725970
O O3 0.085412 0.951907 0.534182
O O4 0.167231 0.549790 0.459067
O O5 0.211162 0.266333 0.572429
O O6 0.740651 0.485063 0.713182
O O7 0.706776 0.793245 0.547580
O O8 0.000000 0.000000 0.500000
O O9 0.416354 0.740434 0.322194
O O10 0.339550 0.697812 0.511822
O O11 0.358487 0.988342 0.227875
O O12 0.366285 0.683019 0.972609
O O13 0.500000 0.763823 0.250000
O O14 0.544811 0.043269 0.368783
#
# Coordination Sequence:
#
# PCOD9226126 Si02
#       7
#     4   4   4   2   4   4   4
#     4  10  19  35  56  83 108 141 182 224 262 323
#     4  10  21  38  56  75 108 145 177 224 274 314
#     4  10  21  37  52  68  93 132 172 200 242 297
#     4   8  16  30  52  76 110 142 170 212 274 318
#     4  10  17  30  45  72 102 117 145 195 256 274
#     4  10  16  25  41  63  98 129 150 172 225 313
#     4  10  18  30  47  66  93 125 149 196 238 284
#
# _framework density 22.641597999999998
#
# number of rings (size 3 to 8) (size 9 to 14) (size 15 to 20)
#    0.000    2.154    3.077    1.846    0.000    0.000 
#    5.538    0.769    0.000    0.000    0.000    0.000 
#    0.000   20.923    0.000    0.000    0.000    0.000 
#
# Total GULP energy -144951.584299 kJ/mol
# GULP energy per Si atom -5575.060935 kJ/mol
# Density = 2.259006 g / cm^3
# Si number density = 22.641598 Si / 1000 Ang^3
#
#
#
# Elastic Constant Matrix: (Units=GPa)
#
#
# Indices 1 2 3 4 5 6 
#
# 1 185.4115 0.4508 -13.0556 0.0000 -25.0550 0.0000
# 2 0.4508 26.4808 -20.2350 0.0000 -5.3216 0.0000
# 3 -13.0556 -20.2350 120.0028 0.0000 16.1069 0.0000
# 4 0.0000 0.0000 0.0000 -4.7957 0.0000 -7.2163
# 5 -25.0550 -5.3216 16.1069 0.0000 38.1821 0.0000
# 6 0.0000 0.0000 0.0000 -7.2163 0.0000 7.1088
#
#
#
# Elastic Compliance Matrix: (Units=1/GPa)
#
#
# Indices 1 2 3 4 5 6 
#
# 1 0.005938 0.000892 0.000272 0.000000 0.003906 0.000000
# 2 0.000892 0.043840 0.006986 0.000000 0.003748 0.000000
# 3 0.000272 0.006986 0.009949 0.000000 -0.003045 0.000000
# 4 0.000000 0.000000 0.000000 -0.082501 0.000000 -0.083748
# 5 0.003906 0.003748 -0.003045 0.000000 0.030560 0.000000
# 6 0.000000 0.000000 0.000000 -0.083748 0.000000 0.055656
#
#
# Mechanical properties :
#
#
# Convention : Reuss Voigt Hill
#
# Bulk Modulus (GPa) = 13.15306 29.57949 21.36627
# Shear Modulus (GPa) = 68.97994 32.41472 50.69733
#
# Velocity S-wave (km/s) = 5.52559 3.78781 4.73707
# Velocity P-wave (km/s) = 6.82139 5.67650 6.27511
#
# Compressibility (1/GPa) = 0.07602796
#
# Stress axis : x y z
#
# Youngs Moduli (GPa) = 168.39975 22.81032 100.50801
#
# Poissons Ratio (x) = -0.02034 -0.02735
# Poissons Ratio (y) = -0.15019 -0.70217
# Poissons Ratio (z) = -0.04583 -0.15936
#
# Static dielectric constant tensor:
#      x y z
#    x 1.900610 0.000000 0.010430 
#    y 0.000000 2.239360 0.000000 
#    z 0.010430 0.000000 1.886400 
# 
# From -- ./inp_files/7782.got.cif
#   From: 2010.05.17/outbox.cif.g08.bks.cpg/sg13_4_cif.got.tgz:7782.got - 2010.06.03 16:44:36.
