data_PCOD9226401
_publ_section_title
;
Structure prediction by ZEFSAII (Michael W. Deem and Ramdas Pophale) SiO2 
 PCOD9226401
Probable space group: P 2/C
;
_chemical_formula_sum "Si O2"
_cell_formula_units_Z 22
_cell_length_a 16.928133
_cell_length_b 12.287005
_cell_length_c 11.455801
_cell_angle_alpha 90.000000
_cell_angle_beta 157.555468
_cell_angle_gamma 90.000000
_cell_volume 909.711730
_symmetry_space_group_name_H-M "P 2/C"
_symmetry_group_IT_number 13
_symmetry_cell_setting 'monoclinic'
loop_
_space_group_symop_operation_xyz
x,y,z
-x,y,1/2-z
-x,-y,-z
x,-y,1/2+z
loop_
_atom_site_type_symbol
_atom_site_label
_atom_site_fract_x
_atom_site_fract_y
_atom_site_fract_z
Si Si1 0.228570 0.781911 0.623397
Si Si2 0.069177 0.211196 0.591967
Si Si3 0.771449 0.551754 0.180243
Si Si4 0.311792 0.036458 0.070803
Si Si5 0.253281 0.463642 0.106895
Si Si6 0.000000 0.863618 0.750000
O O1 0.359790 0.876365 0.740496
O O2 0.308101 0.662059 0.707470
O O3 0.160752 0.788525 0.665622
O O4 0.000000 0.791796 0.250000
O O5 0.194601 0.319731 0.796317
O O6 0.177078 0.105315 0.793328
O O7 0.065696 0.207012 0.449123
O O8 0.687242 0.530137 0.195651
O O9 0.680246 0.506144 0.933845
O O10 0.000000 0.500000 0.500000
O O11 0.180270 0.942274 0.949840
O O12 0.500000 0.996298 0.250000
O O13 0.000000 0.467124 0.750000
#
# Coordination Sequence:
#
# PCOD9226401 Si02
#       6
#     4   4   4   4   4   2
#     4   9  15  34  57  80 114 152 198 239 283 355
#     4  11  21  38  59  93 125 154 205 253 302 363
#     4  10  17  27  54  90 121 154 198 241 298 367
#     4  11  23  42  65  84 116 166 207 251 305 365
#     4   9  15  26  48  84 118 148 195 239 285 359
#     4  12  26  38  60  92 126 150 204 266 302 358
#
# _framework density 24.183484
#
# number of rings (size 3 to 8) (size 9 to 14) (size 15 to 20)
#    0.000    1.818   10.000    0.545    3.818    0.727 
#    0.000    0.000    0.000    1.091    0.000    1.273 
#    0.000    0.000    0.000    0.000    0.000    0.000 
#
# Total GULP energy -122934.367542 kJ/mol
# GULP energy per Si atom -5587.925797 kJ/mol
# Density = 2.412844 g / cm^3
# Si number density = 24.183484 Si / 1000 Ang^3
#
#
#
# Elastic Constant Matrix: (Units=GPa)
#
#
# Indices 1 2 3 4 5 6 
#
# 1 236.8362 27.0477 49.3891 0.0000 1.3119 0.0000
# 2 27.0477 40.3335 16.4304 0.0000 4.4570 0.0000
# 3 49.3891 16.4304 50.4351 0.0000 -2.2260 0.0000
# 4 0.0000 0.0000 0.0000 5.9570 0.0000 -5.6232
# 5 1.3119 4.4570 -2.2260 0.0000 57.8232 0.0000
# 6 0.0000 0.0000 0.0000 -5.6232 0.0000 47.8001
#
#
#
# Elastic Compliance Matrix: (Units=1/GPa)
#
#
# Indices 1 2 3 4 5 6 
#
# 1 0.005406 -0.001667 -0.004759 0.000000 -0.000177 0.000000
# 2 -0.001667 0.029486 -0.008086 0.000000 -0.002546 0.000000
# 3 -0.004759 -0.008086 0.027200 0.000000 0.001778 0.000000
# 4 0.000000 0.000000 0.000000 0.188839 0.000000 0.022215
# 5 -0.000177 -0.002546 0.001778 0.000000 0.017563 0.000000
# 6 0.000000 0.000000 0.000000 0.022215 0.000000 0.023534
#
#
# Mechanical properties :
#
#
# Convention : Reuss Voigt Hill
#
# Bulk Modulus (GPa) = 30.23933 57.03768 43.63850
# Shear Modulus (GPa) = 15.05686 37.96524 26.51105
#
# Velocity S-wave (km/s) = 2.49792 3.96647 3.31455
# Velocity P-wave (km/s) = 4.56626 6.67936 5.72121
#
# Compressibility (1/GPa) = 0.03306951
#
# Stress axis : x y z
#
# Youngs Moduli (GPa) = 184.97748 33.91386 36.76479
#
# Poissons Ratio (x) = 0.05654 0.17495
# Poissons Ratio (y) = 0.30840 0.29727
# Poissons Ratio (z) = 0.88024 0.27422
#
# Static dielectric constant tensor:
#      x y z
#    x 1.887710 0.000000 -0.087440 
#    y 0.000000 1.860140 0.000000 
#    z -0.087440 0.000000 1.923470 
# 
# From -- ./inp_files/37262.got.cif
#   From: 2010.05.17/outbox.cif.g08.bks.cpg/sg13_19_cif.got.tgz:37262.got - 2010.06.03 16:44:36.
