data_PCOD9226355
_publ_section_title
;
Structure prediction by ZEFSAII (Michael W. Deem and Ramdas Pophale) SiO2 
 PCOD9226355
Probable space group: P 2/C
;
_chemical_formula_sum "Si O2"
_cell_formula_units_Z 18
_cell_length_a 5.895435
_cell_length_b 8.404536
_cell_length_c 14.654792
_cell_angle_alpha 90.000000
_cell_angle_beta 81.958907
_cell_angle_gamma 90.000000
_cell_volume 718.982205
_symmetry_space_group_name_H-M "P 2/C"
_symmetry_group_IT_number 13
_symmetry_cell_setting 'monoclinic'
loop_
_space_group_symop_operation_xyz
x,y,z
-x,y,1/2-z
-x,-y,-z
x,-y,1/2+z
loop_
_atom_site_type_symbol
_atom_site_label
_atom_site_fract_x
_atom_site_fract_y
_atom_site_fract_z
Si Si1 0.000000 0.762271 0.750000
Si Si2 0.000000 0.729069 0.250000
Si Si3 0.267990 0.337172 0.395021
Si Si4 0.428521 0.030943 0.160030
Si Si5 0.878856 0.860145 0.445983
Si Si6 0.500000 0.569422 0.250000
O O1 0.071002 0.656988 0.831033
O O2 0.204404 0.869551 0.701032
O O3 0.010234 0.827877 0.344245
O O4 0.748259 0.645824 0.261588
O O5 0.387740 0.164251 0.375426
O O6 0.154358 0.307050 0.499179
O O7 0.442859 0.466185 0.345738
O O8 0.500000 0.946918 0.250000
O O9 0.364175 0.919600 0.080435
O O10 0.000000 0.000000 0.500000
#
# Coordination Sequence:
#
# PCOD9226355 Si02
#       6
#     2   2   4   4   4   2
#     4  10  16  38  66 112 144 192 250 306 388 434
#     4  12  34  52  76 116 160 206 252 342 382 454
#     4  11  23  42  80 110 144 217 251 311 380 471
#     4  10  21  38  72 113 150 190 251 321 398 449
#     4  12  27  47  79 117 155 196 262 330 404 467
#     4  12  28  54  78 106 168 210 270 306 380 480
#
# _framework density 25.035388000000001
#
# number of rings (size 3 to 8) (size 9 to 14) (size 15 to 20)
#    0.000    0.889    5.556    2.000    4.667    3.556 
#    0.000    0.000    0.000    0.000    0.000    0.000 
#    0.000    0.000    0.000    0.000    0.000    0.000 
#
# Total GULP energy -100431.781892 kJ/mol
# GULP energy per Si atom -5579.543438 kJ/mol
# Density = 2.497841 g / cm^3
# Si number density = 25.035388 Si / 1000 Ang^3
#
#
#
# Elastic Constant Matrix: (Units=GPa)
#
#
# Indices 1 2 3 4 5 6 
#
# 1 113.5099 47.6325 41.5247 0.0000 11.7407 0.0000
# 2 47.6325 65.5691 45.0387 0.0000 6.5057 0.0000
# 3 41.5247 45.0387 174.9462 0.0000 7.1936 0.0000
# 4 0.0000 0.0000 0.0000 43.4119 0.0000 -12.8886
# 5 11.7407 6.5057 7.1936 0.0000 51.8786 0.0000
# 6 0.0000 0.0000 0.0000 -12.8886 0.0000 52.4348
#
#
#
# Elastic Compliance Matrix: (Units=1/GPa)
#
#
# Indices 1 2 3 4 5 6 
#
# 1 0.012911 -0.008688 -0.000757 0.000000 -0.001727 0.000000
# 2 -0.008688 0.024519 -0.004229 0.000000 -0.000522 0.000000
# 3 -0.000757 -0.004229 0.006995 0.000000 -0.000268 0.000000
# 4 0.000000 0.000000 0.000000 0.024849 0.000000 0.006108
# 5 -0.001727 -0.000522 -0.000268 0.000000 0.019769 0.000000
# 6 0.000000 0.000000 0.000000 0.006108 0.000000 0.020573
#
#
# Mechanical properties :
#
#
# Convention : Reuss Voigt Hill
#
# Bulk Modulus (GPa) = 58.55327 69.15745 63.85536
# Shear Modulus (GPa) = 35.04947 44.20034 39.62491
#
# Velocity S-wave (km/s) = 3.74571 4.20636 3.98270
# Velocity P-wave (km/s) = 6.49200 7.16067 6.83452
#
# Compressibility (1/GPa) = 0.01707847
#
# Stress axis : x y z
#
# Youngs Moduli (GPa) = 77.45263 40.78500 142.95225
#
# Poissons Ratio (x) = 0.35434 0.10819
# Poissons Ratio (y) = 0.67291 0.60448
# Poissons Ratio (z) = 0.05862 0.17246
#
# Static dielectric constant tensor:
#      x y z
#    x 2.025270 0.000000 -0.044920 
#    y 0.000000 2.080520 0.000000 
#    z -0.044920 0.000000 2.102060 
# 
# From -- ./inp_files/43373.got.cif
#   From: 2010.05.17/outbox.cif.g08.bks.cpg/sg13_22_cif.got.tgz:43373.got - 2010.06.03 16:44:36.
