data_PCOD9226506
_publ_section_title
;
Structure prediction by ZEFSAII (Michael W. Deem and Ramdas Pophale) SiO2 
 PCOD9226506
Probable space group: P 2/C
;
_chemical_formula_sum "Si O2"
_cell_formula_units_Z 28
_cell_length_a 18.304809
_cell_length_b 13.288278
_cell_length_c 8.626681
_cell_angle_alpha 90.000000
_cell_angle_beta 46.157248
_cell_angle_gamma 90.000000
_cell_volume 1513.420469
_symmetry_space_group_name_H-M "P 2/C"
_symmetry_group_IT_number 13
_symmetry_cell_setting 'monoclinic'
loop_
_space_group_symop_operation_xyz
x,y,z
-x,y,1/2-z
-x,-y,-z
x,-y,1/2+z
loop_
_atom_site_type_symbol
_atom_site_label
_atom_site_fract_x
_atom_site_fract_y
_atom_site_fract_z
Si Si1 0.155681 0.890145 0.652690
Si Si2 0.620040 0.872874 0.581760
Si Si3 0.073885 0.407395 0.450316
Si Si4 0.271842 0.953572 0.779622
Si Si5 0.881622 0.575728 0.925124
Si Si6 0.209943 0.751219 0.287450
Si Si7 0.981635 0.184144 0.604038
O O1 0.220458 0.890396 0.717098
O O2 0.183924 0.801969 0.491604
O O3 0.187126 0.988595 0.508130
O O4 0.041948 0.877303 0.883379
O O5 0.500000 0.867491 0.750000
O O6 0.658900 0.895720 0.698616
O O7 0.677770 0.775076 0.431750
O O8 0.662214 0.962083 0.407945
O O9 0.116328 0.457340 0.542363
O O10 0.154710 0.402693 0.193976
O O11 0.000000 0.500000 0.500000
O O12 0.026561 0.298389 0.538330
O O13 0.000000 0.615274 0.750000
O O14 0.821178 0.636231 0.142401
O O15 0.134214 0.804196 0.276529
O O16 0.000000 0.144512 0.750000
#
# Coordination Sequence:
#
# PCOD9226506 Si02
#       7
#     4   4   4   4   4   4   4
#     4  10  20  37  54  76 107 145 173 218 265 325
#     4  10  20  36  58  80 102 134 180 234 277 314
#     4  10  18  29  49  74 109 139 178 205 253 305
#     4   9  20  38  57  77 104 137 185 221 272 324
#     4  10  17  31  47  75 110 141 173 213 252 316
#     4  11  20  34  51  75 110 143 175 221 272 312
#     4  12  21  32  50  78 114 146 175 213 260 318
#
# _framework density 18.501138999999998
#
# number of rings (size 3 to 8) (size 9 to 14) (size 15 to 20)
#    0.000    1.714    4.286    3.000    0.000    0.000 
#    0.000   17.857    0.000    0.000    0.000    1.000 
#    0.000    0.000    0.000    0.000    0.000    0.000 
#
# Total GULP energy -156092.090460 kJ/mol
# GULP energy per Si atom -5574.717516 kJ/mol
# Density = 1.845903 g / cm^3
# Si number density = 18.501139 Si / 1000 Ang^3
#
#
#
# Elastic Constant Matrix: (Units=GPa)
#
#
# Indices 1 2 3 4 5 6 
#
# 1 66.7940 16.9452 30.8753 0.0000 17.9672 0.0000
# 2 16.9452 44.5357 17.6639 0.0000 -5.6109 0.0000
# 3 30.8753 17.6639 79.9851 0.0000 1.6839 0.0000
# 4 0.0000 0.0000 0.0000 20.4043 0.0000 6.9833
# 5 17.9672 -5.6109 1.6839 0.0000 37.2800 0.0000
# 6 0.0000 0.0000 0.0000 6.9833 0.0000 18.4512
#
#
#
# Elastic Compliance Matrix: (Units=1/GPa)
#
#
# Indices 1 2 3 4 5 6 
#
# 1 0.023461 -0.007633 -0.007115 0.000000 -0.012135 0.000000
# 2 -0.007633 0.027689 -0.003337 0.000000 0.007997 0.000000
# 3 -0.007115 -0.003337 0.015939 0.000000 0.002207 0.000000
# 4 0.000000 0.000000 0.000000 0.056302 0.000000 -0.021309
# 5 -0.012135 0.007997 0.002207 0.000000 0.033776 0.000000
# 6 0.000000 0.000000 0.000000 -0.021309 0.000000 0.062262
#
#
# Mechanical properties :
#
#
# Convention : Reuss Voigt Hill
#
# Bulk Modulus (GPa) = 32.34229 35.80930 34.07579
# Shear Modulus (GPa) = 18.80366 23.61581 21.20973
#
# Velocity S-wave (km/s) = 3.19148 3.57662 3.38953
# Velocity P-wave (km/s) = 5.57673 6.03767 5.81178
#
# Compressibility (1/GPa) = 0.03091927
#
# Stress axis : x y z
#
# Youngs Moduli (GPa) = 42.62399 36.11519 62.73832
#
# Poissons Ratio (x) = 0.27568 0.44639
# Poissons Ratio (y) = 0.32537 0.20933
# Poissons Ratio (z) = 0.30327 0.12050
#
# Static dielectric constant tensor:
#      x y z
#    x 1.717930 0.000000 0.082650 
#    y 0.000000 1.695100 0.000000 
#    z 0.082650 0.000000 1.682830 
# 
# From -- ./inp_files/16546.got.cif
#   From: 2010.05.17/outbox.cif.g08.bks.cpg/sg13_9_cif.got.tgz:16546.got - 2010.06.03 16:44:36.
