data_PCOD9226567
_publ_section_title
;
Structure prediction by ZEFSAII (Michael W. Deem and Ramdas Pophale) SiO2 
 PCOD9226567
Probable space group: P 2/C
;
_chemical_formula_sum "Si O2"
_cell_formula_units_Z 32
_cell_length_a 20.468063
_cell_length_b 12.866749
_cell_length_c 19.991705
_cell_angle_alpha 90.000000
_cell_angle_beta 21.052884
_cell_angle_gamma 90.000000
_cell_volume 1891.330352
_symmetry_space_group_name_H-M "P 2/C"
_symmetry_group_IT_number 13
_symmetry_cell_setting 'monoclinic'
loop_
_space_group_symop_operation_xyz
x,y,z
-x,y,1/2-z
-x,-y,-z
x,-y,1/2+z
loop_
_atom_site_type_symbol
_atom_site_label
_atom_site_fract_x
_atom_site_fract_y
_atom_site_fract_z
Si Si1 0.814365 0.734113 0.314928
Si Si2 0.181183 0.139460 0.431544
Si Si3 0.345657 0.756771 0.171940
Si Si4 0.236008 0.218790 0.229812
Si Si5 0.049439 0.595116 0.501067
Si Si6 0.926965 0.929281 0.008938
Si Si7 0.303581 0.721070 0.924542
Si Si8 0.971249 0.459062 0.853060
O O1 0.670475 0.754066 0.393737
O O2 0.769975 0.760862 0.433974
O O3 0.864660 0.611392 0.273364
O O4 0.988440 0.801805 0.126436
O O5 0.245103 0.173260 0.296711
O O6 0.309234 0.186673 0.365872
O O7 0.153178 0.016126 0.463517
O O8 0.231495 0.655891 0.304868
O O9 0.227894 0.852311 0.314789
O O10 0.556650 0.764400 0.990895
O O11 0.118344 0.324207 0.342843
O O12 0.102327 0.137921 0.318931
O O13 0.072151 0.548137 0.553215
O O14 0.000000 0.500000 0.500000
O O15 0.000000 0.000000 0.000000
O O16 0.500000 0.675986 0.750000
O O17 0.180810 0.629815 0.011643
O O18 0.000000 0.498271 0.750000
#
# Coordination Sequence:
#
# PCOD9226567 Si02
#       8
#     4   4   4   4   4   4   4   4
#     4  10  17  33  53  76 112 141 169 219 279 321
#     4  10  17  35  53  77 109 146 174 214 274 328
#     4  11  20  34  54  85 112 140 176 232 268 312
#     4  10  21  33  52  83 111 139 183 228 267 312
#     4  11  19  36  55  78 113 143 184 226 271 324
#     4   9  18  34  53  75 111 139 174 213 268 324
#     4  10  20  33  52  82 112 134 175 226 273 325
#     4   9  19  35  54  73 107 148 176 218 277 329
#
# _framework density 16.919307
#
# number of rings (size 3 to 8) (size 9 to 14) (size 15 to 20)
#    0.000    2.000    5.000    2.625    0.000    2.500 
#    6.750    0.000    0.000    6.000    0.000    0.000 
#    0.000    0.000    0.000    0.000    0.000    0.000 
#
# Total GULP energy -178144.329134 kJ/mol
# GULP energy per Si atom -5567.010285 kJ/mol
# Density = 1.688080 g / cm^3
# Si number density = 16.919307 Si / 1000 Ang^3
#
#
#
# Elastic Constant Matrix: (Units=GPa)
#
#
# Indices 1 2 3 4 5 6 
#
# 1 71.1730 39.9603 24.1675 0.0000 1.6284 0.0000
# 2 39.9603 102.0237 41.4233 0.0000 2.9851 0.0000
# 3 24.1675 41.4233 100.4044 0.0000 -11.4435 0.0000
# 4 0.0000 0.0000 0.0000 9.0818 0.0000 4.1865
# 5 1.6284 2.9851 -11.4435 0.0000 23.1130 0.0000
# 6 0.0000 0.0000 0.0000 4.1865 0.0000 18.7297
#
#
#
# Elastic Compliance Matrix: (Units=1/GPa)
#
#
# Indices 1 2 3 4 5 6 
#
# 1 0.018303 -0.006332 -0.001957 0.000000 -0.001441 0.000000
# 2 -0.006332 0.014354 -0.004831 0.000000 -0.003800 0.000000
# 3 -0.001957 -0.004831 0.013259 0.000000 0.007327 0.000000
# 4 0.000000 0.000000 0.000000 0.122759 0.000000 -0.027439
# 5 -0.001441 -0.003800 0.007327 0.000000 0.047486 0.000000
# 6 0.000000 0.000000 0.000000 -0.027439 0.000000 0.059524
#
#
# Mechanical properties :
#
#
# Convention : Reuss Voigt Hill
#
# Bulk Modulus (GPa) = 50.82460 53.85591 52.34025
# Shear Modulus (GPa) = 16.20825 21.38823 18.79824
#
# Velocity S-wave (km/s) = 3.09847 3.55932 3.33686
# Velocity P-wave (km/s) = 6.55022 6.98511 6.77116
#
# Compressibility (1/GPa) = 0.01967551
#
# Stress axis : x y z
#
# Youngs Moduli (GPa) = 54.63591 69.66512 75.42012
#
# Poissons Ratio (x) = 0.44111 0.14763
# Poissons Ratio (y) = 0.34595 0.36436
# Poissons Ratio (z) = 0.10695 0.33656
#
# Static dielectric constant tensor:
#      x y z
#    x 1.607670 0.000000 -0.004600 
#    y 0.000000 1.578670 0.000000 
#    z -0.004600 0.000000 1.616710 
# 
# From -- ./inp_files/81803.got.cif
#   From: 2010.05.17/outbox.cif.g08.bks.cpg/sg13_41_cif.got.tgz:81803.got - 2010.06.03 16:44:36.
