data_PCOD9226130
_publ_section_title
;
Structure prediction by ZEFSAII (Michael W. Deem and Ramdas Pophale) SiO2 
 PCOD9226130
Probable space group: P 2/C
;
_chemical_formula_sum "Si O2"
_cell_formula_units_Z 20
_cell_length_a 26.529770
_cell_length_b 6.827199
_cell_length_c 5.246950
_cell_angle_alpha 90.000000
_cell_angle_beta 113.465905
_cell_angle_gamma 90.000000
_cell_volume 871.752172
_symmetry_space_group_name_H-M "P 2/C"
_symmetry_group_IT_number 13
_symmetry_cell_setting 'monoclinic'
loop_
_space_group_symop_operation_xyz
x,y,z
-x,y,1/2-z
-x,-y,-z
x,-y,1/2+z
loop_
_atom_site_type_symbol
_atom_site_label
_atom_site_fract_x
_atom_site_fract_y
_atom_site_fract_z
Si Si1 0.324314 0.761026 0.788273
Si Si2 0.559021 0.868207 0.321396
Si Si3 0.170099 0.626926 0.135831
Si Si4 0.279935 0.205061 0.700341
Si Si5 0.061013 0.869761 0.836499
O O1 0.317117 0.688926 0.487241
O O2 0.305780 0.990027 0.713319
O O3 0.386146 0.747825 0.012904
O O4 0.283718 0.698060 0.931100
O O5 0.500000 0.768574 0.250000
O O6 0.560695 0.039986 0.541681
O O7 0.175902 0.535864 0.427005
O O8 0.218232 0.785143 0.179836
O O9 0.110636 0.723028 0.982963
O O10 0.000000 0.781771 0.750000
O O11 0.065100 0.962724 0.563068
#
# Coordination Sequence:
#
# PCOD9226130 Si02
#       5
#     4   4   4   4   4
#     4  10  17  32  50  81 103 148 189 234 293 334
#     4  10  16  25  41  70 114 139 171 233 304 350
#     4  12  26  41  59  90 124 159 197 241 296 348
#     4  10  20  31  52  73 110 143 188 229 275 347
#     4  10  23  43  68  94 119 153 201 245 288 347
#
# _framework density 22.942298999999998
#
# number of rings (size 3 to 8) (size 9 to 14) (size 15 to 20)
#    0.000    1.600    4.000    2.400    5.600    0.800 
#    0.000    0.000    0.000    0.000    0.000    0.000 
#    0.000   27.200    0.000    0.000    0.000    0.000 
#
# Total GULP energy -111687.170239 kJ/mol
# GULP energy per Si atom -5584.358512 kJ/mol
# Density = 2.289008 g / cm^3
# Si number density = 22.942299 Si / 1000 Ang^3
#
#
#
# Elastic Constant Matrix: (Units=GPa)
#
#
# Indices 1 2 3 4 5 6 
#
# 1 110.0740 3.2261 30.4777 0.0000 25.8392 0.0000
# 2 3.2261 45.1209 -11.4728 0.0000 13.9696 0.0000
# 3 30.4777 -11.4728 117.9732 0.0000 0.5428 0.0000
# 4 0.0000 0.0000 0.0000 -108.5182 0.0000 39.2455
# 5 25.8392 13.9696 0.5428 0.0000 67.1975 0.0000
# 6 0.0000 0.0000 0.0000 39.2455 0.0000 1.6961
#
#
#
# Elastic Compliance Matrix: (Units=1/GPa)
#
#
# Indices 1 2 3 4 5 6 
#
# 1 0.010828 -0.000218 -0.002800 0.000000 -0.004096 0.000000
# 2 -0.000218 0.024348 0.002447 0.000000 -0.004998 0.000000
# 3 -0.002800 0.002447 0.009435 0.000000 0.000492 0.000000
# 4 0.000000 0.000000 0.000000 -0.000984 0.000000 0.022761
# 5 -0.004096 -0.004998 0.000492 0.000000 0.017491 0.000000
# 6 0.000000 0.000000 0.000000 0.022761 0.000000 0.062936
#
#
# Mechanical properties :
#
#
# Convention : Reuss Voigt Hill
#
# Bulk Modulus (GPa) = 23.00439 35.29221 29.14830
# Shear Modulus (GPa) = 35.79465 8.80422 22.29943
#
# Velocity S-wave (km/s) = 3.95423 1.96109 3.12104
# Velocity P-wave (km/s) = 5.55848 4.53258 5.07154
#
# Compressibility (1/GPa) = 0.04346996
#
# Stress axis : x y z
#
# Youngs Moduli (GPa) = 92.35499 41.07154 105.98274
#
# Poissons Ratio (x) = 0.00895 0.29671
# Poissons Ratio (y) = 0.02014 -0.25935
# Poissons Ratio (z) = 0.25856 -0.10051
#
# Static dielectric constant tensor:
#      x y z
#    x 1.860100 0.000000 -0.026190 
#    y 0.000000 2.879530 0.000000 
#    z -0.026190 0.000000 1.902260 
# 
# From -- ./inp_files/7721.got.cif
#   From: 2010.05.17/outbox.cif.g08.bks.cpg/sg13_4_cif.got.tgz:7721.got - 2010.06.03 16:44:36.
