data_PCOD9226715
_publ_section_title
;
Structure prediction by ZEFSAII (Michael W. Deem and Ramdas Pophale) SiO2 
 PCOD9226715
Probable space group: P 2/C
;
_chemical_formula_sum "Si O2"
_cell_formula_units_Z 20
_cell_length_a 9.492423
_cell_length_b 15.372517
_cell_length_c 5.582915
_cell_angle_alpha 90.000000
_cell_angle_beta 76.770103
_cell_angle_gamma 90.000000
_cell_volume 793.050824
_symmetry_space_group_name_H-M "P 2/C"
_symmetry_group_IT_number 13
_symmetry_cell_setting 'monoclinic'
loop_
_space_group_symop_operation_xyz
x,y,z
-x,y,1/2-z
-x,-y,-z
x,-y,1/2+z
loop_
_atom_site_type_symbol
_atom_site_label
_atom_site_fract_x
_atom_site_fract_y
_atom_site_fract_z
Si Si1 0.662953 0.528869 0.709896
Si Si2 0.834272 0.030981 0.604732
Si Si3 0.310754 0.730194 0.688545
Si Si4 0.000000 0.644039 0.250000
Si Si5 0.261947 0.781357 0.207769
Si Si6 0.000000 0.660956 0.750000
O O1 0.500000 0.490364 0.750000
O O2 0.729717 0.514697 0.420831
O O3 0.649380 0.630169 0.776812
O O4 0.818942 0.129162 0.701929
O O5 0.770943 0.021971 0.358993
O O6 0.000000 0.000000 0.500000
O O7 0.355480 0.760229 0.407634
O O8 0.136805 0.724068 0.720087
O O9 0.341743 0.782848 0.919102
O O10 0.857963 0.705908 0.283355
O O11 0.998096 0.603733 0.512654
#
# Coordination Sequence:
#
# PCOD9226715 Si02
#       6
#     4   4   4   2   4   2
#     4  10  21  38  59  81 105 133 169 220 277 321
#     4  10  19  28  41  65 100 143 179 212 252 300
#     4  10  19  33  51  74 104 138 175 214 255 311
#     4   8  14  24  38  58  88 124 162 194 230 278
#     4  10  18  29  46  69 101 140 177 210 251 302
#     4   8  16  26  42  66  92 126 160 194 238 286
#
# _framework density 25.219066000000002
#
# number of rings (size 3 to 8) (size 9 to 14) (size 15 to 20)
#    0.000    2.400    0.000    3.600    0.000    8.000 
#    0.000    1.000    0.000    0.000    0.000    0.000 
#    0.000   16.000    0.000    0.000    0.000    0.000 
#
# Total GULP energy -111595.650341 kJ/mol
# GULP energy per Si atom -5579.782517 kJ/mol
# Density = 2.516167 g / cm^3
# Si number density = 25.219066 Si / 1000 Ang^3
#
#
#
# Elastic Constant Matrix: (Units=GPa)
#
#
# Indices 1 2 3 4 5 6 
#
# 1 64.7537 9.1715 47.3270 0.0000 5.5863 0.0000
# 2 9.1715 115.2564 61.6401 0.0000 6.6130 0.0000
# 3 47.3270 61.6401 339.9736 0.0000 55.5213 0.0000
# 4 0.0000 0.0000 0.0000 35.5392 0.0000 13.9701
# 5 5.5863 6.6130 55.5213 0.0000 37.1243 0.0000
# 6 0.0000 0.0000 0.0000 13.9701 0.0000 35.8356
#
#
#
# Elastic Compliance Matrix: (Units=1/GPa)
#
#
# Indices 1 2 3 4 5 6 
#
# 1 0.017241 -0.000054 -0.002604 0.000000 0.001310 0.000000
# 2 -0.000054 0.009648 -0.001935 0.000000 0.001183 0.000000
# 3 -0.002604 -0.001935 0.004677 0.000000 -0.006258 0.000000
# 4 0.000000 0.000000 0.000000 0.033230 0.000000 -0.012954
# 5 0.001310 0.001183 -0.006258 0.000000 0.035887 0.000000
# 6 0.000000 0.000000 0.000000 -0.012954 0.000000 0.032955
#
#
# Mechanical properties :
#
#
# Convention : Reuss Voigt Hill
#
# Bulk Modulus (GPa) = 44.68574 84.02900 64.35737
# Shear Modulus (GPa) = 33.27023 48.48948 40.87986
#
# Velocity S-wave (km/s) = 3.63609 4.38965 4.03052
# Velocity P-wave (km/s) = 5.94859 7.68661 6.87276
#
# Compressibility (1/GPa) = 0.02237850
#
# Stress axis : x y z
#
# Youngs Moduli (GPa) = 58.00075 103.65357 213.82696
#
# Poissons Ratio (x) = 0.00564 0.55684
# Poissons Ratio (y) = 0.00315 0.41372
# Poissons Ratio (z) = 0.15104 0.20055
#
# Static dielectric constant tensor:
#      x y z
#    x 2.025710 0.000000 -0.011350 
#    y 0.000000 1.920390 0.000000 
#    z -0.011350 0.000000 2.215620 
# 
# From -- ./inp_files/3183.got.cif
#   From: 2010.05.17/outbox.cif.g08.bks.cpg/sg13_2_cif.got.tgz:3183.got - 2010.06.03 16:44:36.
