data_PCOD9226749
_publ_section_title
;
Structure prediction by ZEFSAII (Michael W. Deem and Ramdas Pophale) SiO2 
 PCOD9226749
Probable space group: P 2/C
;
_chemical_formula_sum "Si O2"
_cell_formula_units_Z 26
_cell_length_a 12.001533
_cell_length_b 11.534046
_cell_length_c 10.627646
_cell_angle_alpha 90.000000
_cell_angle_beta 110.128011
_cell_angle_gamma 90.000000
_cell_volume 1381.296490
_symmetry_space_group_name_H-M "P 2/C"
_symmetry_group_IT_number 13
_symmetry_cell_setting 'monoclinic'
loop_
_space_group_symop_operation_xyz
x,y,z
-x,y,1/2-z
-x,-y,-z
x,-y,1/2+z
loop_
_atom_site_type_symbol
_atom_site_label
_atom_site_fract_x
_atom_site_fract_y
_atom_site_fract_z
Si Si1 0.205267 0.869597 0.391392
Si Si2 0.058254 0.925971 0.916043
Si Si3 0.154833 0.599614 0.989659
Si Si4 0.000000 0.273738 0.250000
Si Si5 0.573390 0.991252 0.899056
Si Si6 0.065215 0.359307 0.907689
Si Si7 0.722459 0.197229 0.862779
O O1 0.311570 0.913366 0.522541
O O2 0.128986 0.763911 0.417845
O O3 0.256387 0.827723 0.276506
O O4 0.119237 0.982050 0.343914
O O5 0.968192 0.824486 0.839972
O O6 0.166058 0.856425 0.019655
O O7 0.000000 0.000000 0.000000
O O8 0.265764 0.668034 0.092358
O O9 0.041058 0.629998 0.033365
O O10 0.110232 0.650880 0.838185
O O11 0.157625 0.461619 0.976803
O O12 0.500000 0.945334 0.750000
O O13 0.615400 0.120098 0.873243
O O14 0.500000 0.000000 0.000000
O O15 0.000000 0.383530 0.750000
#
# Coordination Sequence:
#
# PCOD9226749 Si02
#       7
#     4   4   4   2   4   4   4
#     4  11  21  35  58  85 114 156 199 243 300 355
#     4  10  20  29  47  81 121 150 186 232 285 352
#     4  10  21  36  52  84 120 167 196 232 279 340
#     4  10  18  30  46  70 114 152 190 224 264 330
#     4  11  23  43  65  89 116 150 198 261 325 362
#     4  11  21  35  57  82 126 164 198 231 276 350
#     4  10  20  35  58  82 111 153 199 243 295 366
#
# _framework density 18.822896
#
# number of rings (size 3 to 8) (size 9 to 14) (size 15 to 20)
#    0.000    1.538    3.846    2.769    1.077    1.231 
#    2.769    0.000    0.000    1.846    0.000    0.000 
#    0.000    0.000    0.000    0.000    0.000    0.000 
#
# Total GULP energy -144816.843603 kJ/mol
# GULP energy per Si atom -5569.878600 kJ/mol
# Density = 1.878005 g / cm^3
# Si number density = 18.822896 Si / 1000 Ang^3
#
#
#
# Elastic Constant Matrix: (Units=GPa)
#
#
# Indices 1 2 3 4 5 6 
#
# 1 49.5198 14.0031 20.2848 0.0000 -5.0458 0.0000
# 2 14.0031 103.9832 26.5511 0.0000 3.3024 0.0000
# 3 20.2848 26.5511 88.6737 0.0000 2.9144 0.0000
# 4 0.0000 0.0000 0.0000 22.9046 0.0000 7.0211
# 5 -5.0458 3.3024 2.9144 0.0000 28.0090 0.0000
# 6 0.0000 0.0000 0.0000 7.0211 0.0000 26.2011
#
#
#
# Elastic Compliance Matrix: (Units=1/GPa)
#
#
# Indices 1 2 3 4 5 6 
#
# 1 0.023272 -0.002047 -0.004873 0.000000 0.004941 0.000000
# 2 -0.002047 0.010616 -0.002666 0.000000 -0.001343 0.000000
# 3 -0.004873 -0.002666 0.013254 0.000000 -0.001943 0.000000
# 4 0.000000 0.000000 0.000000 0.047566 0.000000 -0.012746
# 5 0.004941 -0.001343 -0.001943 0.000000 0.036953 0.000000
# 6 0.000000 0.000000 0.000000 -0.012746 0.000000 0.041582
#
#
# Mechanical properties :
#
#
# Convention : Reuss Voigt Hill
#
# Bulk Modulus (GPa) = 35.75242 40.42832 38.09037
# Shear Modulus (GPa) = 24.78431 27.51214 26.14822
#
# Velocity S-wave (km/s) = 3.63259 3.82728 3.73120
# Velocity P-wave (km/s) = 6.05224 6.40747 6.23238
#
# Compressibility (1/GPa) = 0.02797013
#
# Stress axis : x y z
#
# Youngs Moduli (GPa) = 42.96939 94.19715 75.44692
#
# Poissons Ratio (x) = 0.19278 0.36768
# Poissons Ratio (y) = 0.08794 0.20117
# Poissons Ratio (z) = 0.20940 0.25117
#
# Static dielectric constant tensor:
#      x y z
#    x 1.651780 0.000000 -0.022420 
#    y 0.000000 1.841530 0.000000 
#    z -0.022420 0.000000 1.975540 
# 
# From -- ./inp_files/33311.got.cif
#   From: 2010.05.17/outbox.cif.g08.bks.cpg/sg13_17_cif.got.tgz:33311.got - 2010.06.03 16:44:36.
