data_PCOD9226298
_publ_section_title
;
Structure prediction by ZEFSAII (Michael W. Deem and Ramdas Pophale) SiO2 
 PCOD9226298
Probable space group: P 2/C
;
_chemical_formula_sum "Si O2"
_cell_formula_units_Z 32
_cell_length_a 23.694404
_cell_length_b 7.320120
_cell_length_c 14.052792
_cell_angle_alpha 90.000000
_cell_angle_beta 144.587507
_cell_angle_gamma 90.000000
_cell_volume 1412.372457
_symmetry_space_group_name_H-M "P 2/C"
_symmetry_group_IT_number 13
_symmetry_cell_setting 'monoclinic'
loop_
_space_group_symop_operation_xyz
x,y,z
-x,y,1/2-z
-x,-y,-z
x,-y,1/2+z
loop_
_atom_site_type_symbol
_atom_site_label
_atom_site_fract_x
_atom_site_fract_y
_atom_site_fract_z
Si Si1 0.377840 0.544611 0.991501
Si Si2 0.623970 0.977560 0.524856
Si Si3 0.888165 0.627342 0.258614
Si Si4 0.890795 0.428673 0.452718
Si Si5 0.597011 0.004199 0.760533
Si Si6 0.410065 0.432939 0.762357
Si Si7 0.257269 0.703607 0.613302
Si Si8 0.214181 0.752573 0.218907
O O1 0.479690 0.496110 0.081504
O O2 0.387509 0.536032 0.119382
O O3 0.366872 0.759390 0.953253
O O4 0.292919 0.404371 0.853276
O O5 0.517146 0.042368 0.413373
O O6 0.618690 0.013751 0.403626
O O7 0.714966 0.078665 0.697398
O O8 0.882445 0.456329 0.326065
O O9 0.855451 0.788852 0.285731
O O10 0.998740 0.626217 0.375898
O O11 0.812945 0.642749 0.070149
O O12 0.815884 0.292118 0.398571
O O13 0.859032 0.632864 0.447669
O O14 0.676768 0.877969 0.820602
O O15 0.602404 0.217173 0.740533
O O16 0.336980 0.543306 0.727184
#
# Coordination Sequence:
#
# PCOD9226298 Si02
#       8
#     4   4   4   4   4   4   4   4
#     4   9  16  28  50  77 107 140 168 203 250 301
#     4   9  16  28  50  77 107 140 168 203 250 301
#     4   9  19  36  55  78  99 132 175 215 258 304
#     4   9  21  34  54  80 101 127 177 222 251 300
#     4   9  17  28  47  81 110 131 172 209 240 307
#     4   9  17  28  47  81 110 131 172 209 240 307
#     4  12  18  33  60  75  99 144 166 203 269 300
#     4  10  16  33  53  72  99 136 171 207 250 306
#
# _framework density 22.656912999999999
#
# number of rings (size 3 to 8) (size 9 to 14) (size 15 to 20)
#    0.750    1.750    2.500    2.625    0.000    2.000 
#    0.000    3.750    0.000   12.000    0.000    0.000 
#    0.000    0.000    0.000    0.000    0.000    0.000 
#
# Total GULP energy -178478.387290 kJ/mol
# GULP energy per Si atom -5577.449603 kJ/mol
# Density = 2.260534 g / cm^3
# Si number density = 22.656913 Si / 1000 Ang^3
#
#
#
# Elastic Constant Matrix: (Units=GPa)
#
#
# Indices 1 2 3 4 5 6 
#
# 1 122.1162 36.6610 51.0685 0.0000 35.6295 0.0000
# 2 36.6610 91.3233 48.4879 0.0000 26.9685 0.0000
# 3 51.0685 48.4879 125.6321 0.0000 43.6511 0.0000
# 4 0.0000 0.0000 0.0000 7.1033 0.0000 -13.0760
# 5 35.6295 26.9685 43.6511 0.0000 48.8119 0.0000
# 6 0.0000 0.0000 0.0000 -13.0760 0.0000 11.5307
#
#
#
# Elastic Compliance Matrix: (Units=1/GPa)
#
#
# Indices 1 2 3 4 5 6 
#
# 1 0.011120 -0.001850 -0.001946 0.000000 -0.005355 0.000000
# 2 -0.001850 0.014683 -0.003722 0.000000 -0.003434 0.000000
# 3 -0.001946 -0.003722 0.013027 0.000000 -0.008173 0.000000
# 4 0.000000 0.000000 0.000000 -0.129448 0.000000 -0.146796
# 5 -0.005355 -0.003434 -0.008173 0.000000 0.033602 0.000000
# 6 0.000000 0.000000 0.000000 -0.146796 0.000000 -0.079744
#
#
# Mechanical properties :
#
#
# Convention : Reuss Voigt Hill
#
# Bulk Modulus (GPa) = 42.02517 67.94513 54.98515
# Shear Modulus (GPa) = -43.93948 27.01278 -8.46335
#
# Velocity S-wave (km/s) = -4.40857 3.45665 -1.93482
# Velocity P-wave (km/s) = 2.70652 6.78123 4.39658
#
# Compressibility (1/GPa) = 0.02379527
#
# Stress axis : x y z
#
# Youngs Moduli (GPa) = 89.92479 68.10699 76.76430
#
# Poissons Ratio (x) = 0.12597 0.14937
# Poissons Ratio (y) = 0.16633 0.28571
# Poissons Ratio (z) = 0.17498 0.25349
#
# Static dielectric constant tensor:
#      x y z
#    x 1.947570 0.000000 -0.042970 
#    y 0.000000 1.857480 0.000000 
#    z -0.042970 0.000000 1.900410 
# 
# From -- ./inp_files/71164.got.cif
#   From: 2010.05.17/outbox.cif.g08.bks.cpg/sg13_36_cif.got.tgz:71164.got - 2010.06.03 16:44:36.
