data_PCOD9226906
_publ_section_title
;
Structure prediction by ZEFSAII (Michael W. Deem and Ramdas Pophale) SiO2 
 PCOD9226906
Probable space group: P 2/C
;
_chemical_formula_sum "Si O2"
_cell_formula_units_Z 30
_cell_length_a 27.391906
_cell_length_b 11.461625
_cell_length_c 13.957287
_cell_angle_alpha 90.000000
_cell_angle_beta 15.952738
_cell_angle_gamma 90.000000
_cell_volume 1204.359805
_symmetry_space_group_name_H-M "P 2/C"
_symmetry_group_IT_number 13
_symmetry_cell_setting 'monoclinic'
loop_
_space_group_symop_operation_xyz
x,y,z
-x,y,1/2-z
-x,-y,-z
x,-y,1/2+z
loop_
_atom_site_type_symbol
_atom_site_label
_atom_site_fract_x
_atom_site_fract_y
_atom_site_fract_z
Si Si1 0.795769 0.563846 0.466253
Si Si2 0.630312 0.062116 0.117659
Si Si3 0.502728 0.311101 0.634525
Si Si4 0.227380 0.052172 0.967089
Si Si5 0.743431 0.889982 0.735599
Si Si6 0.234307 0.305215 0.985391
Si Si7 0.000000 0.692441 0.250000
Si Si8 0.416569 0.671871 0.806388
O O1 0.856800 0.429963 0.349123
O O2 0.732771 0.607060 0.478371
O O3 0.930606 0.626535 0.286032
O O4 0.613412 0.591228 0.869049
O O5 0.428641 0.061084 0.541699
O O6 0.657465 0.196596 0.036578
O O7 0.754205 0.014630 0.968314
O O8 0.672345 0.975178 0.951185
O O9 0.500000 0.342287 0.750000
O O10 0.594022 0.182699 0.456192
O O11 0.315813 0.298588 0.936928
O O12 0.147777 0.181157 0.124956
O O13 0.139660 0.964820 0.058493
O O14 0.849269 0.779100 0.571766
O O15 0.408532 0.315084 0.589419
O O16 0.500000 0.626564 0.750000
#
# Coordination Sequence:
#
# PCOD9226906 Si02
#       8
#     4   4   4   4   4   4   2   4
#     4  10  22  39  56  80 115 160 203 237 280 343
#     4  10  18  31  57  90 122 147 179 243 318 363
#     4  10  18  31  57  87 111 141 187 248 308 353
#     4  10  18  31  54  90 121 141 180 246 316 369
#     4  11  20  35  57  83 116 156 195 236 291 354
#     4  10  20  32  53  85 117 148 185 241 308 352
#     4  10  24  44  60  74 114 172 218 240 264 336
#     4  10  19  33  58  92 120 142 178 241 311 358
#
# _framework density 24.909500000000001
#
# number of rings (size 3 to 8) (size 9 to 14) (size 15 to 20)
#    0.000    1.867    0.000    9.200    0.000    2.133 
#    0.000    3.333    0.000   12.800    0.000    0.000 
#    0.000    0.000    0.000    0.000    0.000    0.000 
#
# Total GULP energy -167472.738942 kJ/mol
# GULP energy per Si atom -5582.424631 kJ/mol
# Density = 2.485281 g / cm^3
# Si number density = 24.909500 Si / 1000 Ang^3
#
#
#
# Elastic Constant Matrix: (Units=GPa)
#
#
# Indices 1 2 3 4 5 6 
#
# 1 199.2566 75.4484 28.6902 0.0000 -14.1693 0.0000
# 2 75.4484 204.7768 24.9733 0.0000 -24.3652 0.0000
# 3 28.6902 24.9733 32.8859 0.0000 -8.6604 0.0000
# 4 0.0000 0.0000 0.0000 17.8662 0.0000 8.2378
# 5 -14.1693 -24.3652 -8.6604 0.0000 29.4734 0.0000
# 6 0.0000 0.0000 0.0000 8.2378 0.0000 34.1803
#
#
#
# Elastic Compliance Matrix: (Units=1/GPa)
#
#
# Indices 1 2 3 4 5 6 
#
# 1 0.006303 -0.001785 -0.004047 0.000000 0.000365 0.000000
# 2 -0.001785 0.006247 -0.002224 0.000000 0.003652 0.000000
# 3 -0.004047 -0.002224 0.037536 0.000000 0.007245 0.000000
# 4 0.000000 0.000000 0.000000 0.062969 0.000000 -0.015176
# 5 0.000365 0.003652 0.007245 0.000000 0.039253 0.000000
# 6 0.000000 0.000000 0.000000 -0.015176 0.000000 0.032914
#
#
# Mechanical properties :
#
#
# Convention : Reuss Voigt Hill
#
# Bulk Modulus (GPa) = 29.43561 77.23814 53.33687
# Shear Modulus (GPa) = 23.51156 36.82445 30.16801
#
# Velocity S-wave (km/s) = 3.07559 3.84908 3.48387
# Velocity P-wave (km/s) = 4.94521 7.12942 6.13530
#
# Compressibility (1/GPa) = 0.03397246
#
# Stress axis : x y z
#
# Youngs Moduli (GPa) = 158.64426 160.07562 26.64092
#
# Poissons Ratio (x) = 0.28580 0.10782
# Poissons Ratio (y) = 0.28325 0.05926
# Poissons Ratio (z) = 0.64207 0.35609
#
# Static dielectric constant tensor:
#      x y z
#    x 2.003650 0.000000 -0.024580 
#    y 0.000000 2.046150 0.000000 
#    z -0.024580 0.000000 2.088850 
# 
# From -- ./inp_files/59612.got.cif
#   From: 2010.05.17/outbox.cif.g08.bks.cpg/sg13_30_cif.got.tgz:59612.got - 2010.06.03 16:44:36.
