data_PCOD9226334
_publ_section_title
;
Structure prediction by ZEFSAII (Michael W. Deem and Ramdas Pophale) SiO2 
 PCOD9226334
Probable space group: P 2/C
;
_chemical_formula_sum "Si O2"
_cell_formula_units_Z 14
_cell_length_a 4.848945
_cell_length_b 8.321212
_cell_length_c 16.985225
_cell_angle_alpha 90.000000
_cell_angle_beta 131.893052
_cell_angle_gamma 90.000000
_cell_volume 510.160880
_symmetry_space_group_name_H-M "P 2/C"
_symmetry_group_IT_number 13
_symmetry_cell_setting 'monoclinic'
loop_
_space_group_symop_operation_xyz
x,y,z
-x,y,1/2-z
-x,-y,-z
x,-y,1/2+z
loop_
_atom_site_type_symbol
_atom_site_label
_atom_site_fract_x
_atom_site_fract_y
_atom_site_fract_z
Si Si1 0.822611 0.104718 0.598196
Si Si2 0.423997 0.641231 0.323654
Si Si3 0.000000 0.145032 0.250000
Si Si4 0.381610 0.370226 0.046868
O O1 0.624141 0.211853 0.626719
O O2 0.895215 0.238079 0.543760
O O3 0.500000 0.000000 0.500000
O O4 0.088957 0.979987 0.694542
O O5 0.500000 0.693526 0.250000
O O6 0.694207 0.494789 0.397111
O O7 0.000000 0.572667 0.250000
O O8 0.308474 0.256517 0.350971
O O9 0.500000 0.500000 0.000000
#
# Coordination Sequence:
#
# PCOD9226334 Si02
#       4
#     4   4   2   4
#     4   9  19  37  65  94 130 168 221 269 334 395
#     4  11  22  42  69  94 131 175 222 272 331 394
#     4  10  16  34  66  86 136 168 214 274 336 376
#     4   9  19  35  62  94 127 170 223 265 328 397
#
# _framework density 27.442326000000001
#
# number of rings (size 3 to 8) (size 9 to 14) (size 15 to 20)
#    0.000    2.286    2.857    0.000    0.000    0.000 
#    0.000   20.000    0.000    0.000    0.000    0.000 
#    0.000    0.000    0.000    0.000    0.000    0.000 
#
# Total GULP energy -78020.586789 kJ/mol
# GULP energy per Si atom -5572.899056 kJ/mol
# Density = 2.737987 g / cm^3
# Si number density = 27.442326 Si / 1000 Ang^3
#
#
#
# Elastic Constant Matrix: (Units=GPa)
#
#
# Indices 1 2 3 4 5 6 
#
# 1 79.8551 19.9441 11.2548 0.0000 -3.8917 0.0000
# 2 19.9441 222.3155 88.3269 0.0000 -1.5509 0.0000
# 3 11.2548 88.3269 199.7284 0.0000 21.5115 0.0000
# 4 0.0000 0.0000 0.0000 93.8637 0.0000 4.7449
# 5 -3.8917 -1.5509 21.5115 0.0000 32.5024 0.0000
# 6 0.0000 0.0000 0.0000 4.7449 0.0000 19.5017
#
#
#
# Elastic Compliance Matrix: (Units=1/GPa)
#
#
# Indices 1 2 3 4 5 6 
#
# 1 0.012920 -0.000944 -0.000508 0.000000 0.001838 0.000000
# 2 -0.000944 0.005649 -0.002651 0.000000 0.001911 0.000000
# 3 -0.000508 -0.002651 0.006706 0.000000 -0.004626 0.000000
# 4 0.000000 0.000000 0.000000 0.010786 0.000000 -0.002624
# 5 0.001838 0.001911 -0.004626 0.000000 0.034140 0.000000
# 6 0.000000 0.000000 0.000000 -0.002624 0.000000 0.051916
#
#
# Mechanical properties :
#
#
# Convention : Reuss Voigt Hill
#
# Bulk Modulus (GPa) = 58.58972 82.32786 70.45879
# Shear Modulus (GPa) = 36.76089 54.66510 45.71299
#
# Velocity S-wave (km/s) = 3.66398 4.46802 4.08583
# Velocity P-wave (km/s) = 6.26867 7.52882 6.92746
#
# Compressibility (1/GPa) = 0.01706784
#
# Stress axis : x y z
#
# Youngs Moduli (GPa) = 77.40084 177.01012 149.11983
#
# Poissons Ratio (x) = 0.16713 0.07583
# Poissons Ratio (y) = 0.07308 0.39531
# Poissons Ratio (z) = 0.03936 0.46925
#
# Static dielectric constant tensor:
#      x y z
#    x 2.129910 0.000000 0.112910 
#    y 0.000000 2.144510 0.000000 
#    z 0.112910 0.000000 2.250370 
# 
# From -- ./inp_files/43163.got.cif
#   From: 2010.05.17/outbox.cif.g08.bks.cpg/sg13_22_cif.got.tgz:43163.got - 2010.06.03 16:44:36.
