data_PCOD9226539
_publ_section_title
;
Structure prediction by ZEFSAII (Michael W. Deem and Ramdas Pophale) SiO2 
 PCOD9226539
Probable space group: P 2/C
;
_chemical_formula_sum "Si O2"
_cell_formula_units_Z 30
_cell_length_a 26.831181
_cell_length_b 6.416397
_cell_length_c 14.397892
_cell_angle_alpha 90.000000
_cell_angle_beta 149.617548
_cell_angle_gamma 90.000000
_cell_volume 1253.668260
_symmetry_space_group_name_H-M "P 2/C"
_symmetry_group_IT_number 13
_symmetry_cell_setting 'monoclinic'
loop_
_space_group_symop_operation_xyz
x,y,z
-x,y,1/2-z
-x,-y,-z
x,-y,1/2+z
loop_
_atom_site_type_symbol
_atom_site_label
_atom_site_fract_x
_atom_site_fract_y
_atom_site_fract_z
Si Si1 0.809849 0.772069 0.274304
Si Si2 0.194281 0.441069 0.088071
Si Si3 0.397325 0.225512 0.112572
Si Si4 0.000000 0.751260 0.250000
Si Si5 0.602481 0.584898 0.249528
Si Si6 0.017517 0.868876 0.672775
Si Si7 0.187561 0.412139 0.371967
Si Si8 0.395030 0.423222 0.451259
O O1 0.791226 0.670417 0.345516
O O2 0.913541 0.886472 0.452669
O O3 0.825367 0.570213 0.233241
O O4 0.709234 0.877006 0.076547
O O5 0.289014 0.311576 0.275148
O O6 0.086623 0.363904 0.942522
O O7 0.191723 0.455524 0.973759
O O8 0.500000 0.116452 0.250000
O O9 0.400474 0.344683 0.216348
O O10 0.395797 0.426727 0.040769
O O11 0.051875 0.902949 0.258749
O O12 0.702048 0.682805 0.450510
O O13 0.605086 0.564118 0.142880
O O14 0.500036 0.690099 0.115303
O O15 0.000000 0.773510 0.750000
O O16 0.097891 0.744519 0.744173
#
# Coordination Sequence:
#
# PCOD9226539 Si02
#       8
#     4   4   4   2   4   4   4   4
#     4  10  18  31  54  76  95 125 163 203 252 290
#     4  10  17  32  49  71  97 132 165 200 236 296
#     4   8  14  24  41  71 100 116 142 191 244 290
#     4  10  22  34  50  64 100 138 168 200 240 290
#     4   8  14  24  40  71  95 116 145 194 244 284
#     4  10  20  34  47  67  97 129 161 204 243 282
#     4  10  18  31  54  74  97 121 161 208 250 291
#     4   8  14  23  42  65  96 121 149 189 240 280
#
# _framework density 23.929776
#
# number of rings (size 3 to 8) (size 9 to 14) (size 15 to 20)
#    0.400    2.400    1.333    1.200    0.000    0.000 
#    0.000    2.667    0.000    0.800    0.000    9.333 
#    0.000    0.000    0.000    0.000    0.000    0.000 
#
# Total GULP energy -167127.237220 kJ/mol
# GULP energy per Si atom -5570.907907 kJ/mol
# Density = 2.387531 g / cm^3
# Si number density = 23.929776 Si / 1000 Ang^3
#
#
#
# Elastic Constant Matrix: (Units=GPa)
#
#
# Indices 1 2 3 4 5 6 
#
# 1 55.2060 11.9404 7.1572 0.0000 -8.7241 0.0000
# 2 11.9404 28.0171 29.9836 0.0000 6.2347 0.0000
# 3 7.1572 29.9836 167.2275 0.0000 29.1982 0.0000
# 4 0.0000 0.0000 0.0000 -7.1685 0.0000 -17.1019
# 5 -8.7241 6.2347 29.1982 0.0000 53.9004 0.0000
# 6 0.0000 0.0000 0.0000 -17.1019 0.0000 8.8637
#
#
#
# Elastic Compliance Matrix: (Units=1/GPa)
#
#
# Indices 1 2 3 4 5 6 
#
# 1 0.020988 -0.010078 0.000124 0.000000 0.004496 0.000000
# 2 -0.010078 0.049046 -0.007828 0.000000 -0.003064 0.000000
# 3 0.000124 -0.007828 0.007970 0.000000 -0.003392 0.000000
# 4 0.000000 0.000000 0.000000 -0.024897 0.000000 -0.048037
# 5 0.004496 -0.003064 -0.003392 0.000000 0.021472 0.000000
# 6 0.000000 0.000000 0.000000 -0.048037 0.000000 0.020135
#
#
# Mechanical properties :
#
#
# Convention : Reuss Voigt Hill
#
# Bulk Modulus (GPa) = 23.56178 38.73477 31.14828
# Shear Modulus (GPa) = 34.61999 24.54377 29.58188
#
# Velocity S-wave (km/s) = 3.80772 3.20606 3.51977
# Velocity P-wave (km/s) = 5.40363 5.47057 5.43720
#
# Compressibility (1/GPa) = 0.04244161
#
# Stress axis : x y z
#
# Youngs Moduli (GPa) = 47.64611 20.38894 125.46534
#
# Poissons Ratio (x) = 0.20547 -0.01551
# Poissons Ratio (y) = 0.48016 0.98209
# Poissons Ratio (z) = -0.00589 0.15960
#
# Static dielectric constant tensor:
#      x y z
#    x 1.954550 0.000000 0.102490 
#    y 0.000000 1.878360 0.000000 
#    z 0.102490 0.000000 2.021590 
# 
# From -- ./inp_files/59422.got.cif
#   From: 2010.05.17/outbox.cif.g08.bks.cpg/sg13_30_cif.got.tgz:59422.got - 2010.06.03 16:44:36.
