data_PCOD9226512
_publ_section_title
;
Structure prediction by ZEFSAII (Michael W. Deem and Ramdas Pophale) SiO2 
 PCOD9226512
Probable space group: P 2/C
;
_chemical_formula_sum "Si O2"
_cell_formula_units_Z 18
_cell_length_a 16.621235
_cell_length_b 9.784356
_cell_length_c 5.547623
_cell_angle_alpha 90.000000
_cell_angle_beta 71.359694
_cell_angle_gamma 90.000000
_cell_volume 854.873330
_symmetry_space_group_name_H-M "P 2/C"
_symmetry_group_IT_number 13
_symmetry_cell_setting 'monoclinic'
loop_
_space_group_symop_operation_xyz
x,y,z
-x,y,1/2-z
-x,-y,-z
x,-y,1/2+z
loop_
_atom_site_type_symbol
_atom_site_label
_atom_site_fract_x
_atom_site_fract_y
_atom_site_fract_z
Si Si1 0.500000 0.085751 0.250000
Si Si2 0.747215 0.773584 0.941479
Si Si3 0.370406 0.504857 0.477548
Si Si4 0.899593 0.582224 0.845532
Si Si5 0.315116 0.205794 0.496359
O O1 0.413325 0.171697 0.348731
O O2 0.500000 0.000000 0.500000
O O3 0.840410 0.714988 0.898265
O O4 0.737985 0.839674 0.686371
O O5 0.685032 0.641824 0.973727
O O6 0.713284 0.848266 0.214168
O O7 0.418238 0.497206 0.681561
O O8 0.310036 0.371036 0.527763
O O9 0.881735 0.500526 0.611710
O O10 0.000000 0.612871 0.750000
#
# Coordination Sequence:
#
# PCOD9226512 Si02
#       5
#     2   4   4   4   4
#     4  12  26  44  58  74 100 124 168 234 286 324
#     4  10  17  31  51  77 109 141 173 203 243 301
#     4   8  14  25  44  68  95 125 156 188 227 282
#     4  10  18  27  44  74 115 158 186 203 232 282
#     4  10  20  34  54  73  96 136 171 211 264 311
#
# _framework density 21.055752999999999
#
# number of rings (size 3 to 8) (size 9 to 14) (size 15 to 20)
#    0.000    2.222    0.000    6.667    0.000    0.000 
#    0.000   10.000    0.000    0.000    0.000    0.000 
#    0.000   17.778    0.000    0.000    0.000    0.000 
#
# Total GULP energy -100331.526067 kJ/mol
# GULP energy per Si atom -5573.973670 kJ/mol
# Density = 2.100783 g / cm^3
# Si number density = 21.055753 Si / 1000 Ang^3
#
#
#
# Elastic Constant Matrix: (Units=GPa)
#
#
# Indices 1 2 3 4 5 6 
#
# 1 100.0493 11.0381 61.5571 0.0000 13.9992 0.0000
# 2 11.0381 59.7043 9.5829 0.0000 2.9754 0.0000
# 3 61.5571 9.5829 185.4457 0.0000 50.5722 0.0000
# 4 0.0000 0.0000 0.0000 6.6853 0.0000 -1.0617
# 5 13.9992 2.9754 50.5722 0.0000 53.9225 0.0000
# 6 0.0000 0.0000 0.0000 -1.0617 0.0000 4.2483
#
#
#
# Elastic Compliance Matrix: (Units=1/GPa)
#
#
# Indices 1 2 3 4 5 6 
#
# 1 0.012760 -0.001699 -0.004394 0.000000 0.000902 0.000000
# 2 -0.001699 0.017116 -0.000246 0.000000 -0.000272 0.000000
# 3 -0.004394 -0.000246 0.008799 0.000000 -0.007098 0.000000
# 4 0.000000 0.000000 0.000000 0.155764 0.000000 0.038928
# 5 0.000902 -0.000272 -0.007098 0.000000 0.024983 0.000000
# 6 0.000000 0.000000 0.000000 0.038928 0.000000 0.245119
#
#
# Mechanical properties :
#
#
# Convention : Reuss Voigt Hill
#
# Bulk Modulus (GPa) = 38.46442 56.61729 47.54085
# Shear Modulus (GPa) = 10.29050 30.50596 20.39823
#
# Velocity S-wave (km/s) = 2.21311 3.81046 3.11589
# Velocity P-wave (km/s) = 4.98378 6.80493 5.96428
#
# Compressibility (1/GPa) = 0.02599806
#
# Stress axis : x y z
#
# Youngs Moduli (GPa) = 78.37284 58.42355 113.64527
#
# Poissons Ratio (x) = 0.09925 0.49930
# Poissons Ratio (y) = 0.13313 0.02799
# Poissons Ratio (z) = 0.34433 0.01439
#
# Static dielectric constant tensor:
#      x y z
#    x 1.733040 0.000000 0.070350 
#    y 0.000000 1.770030 0.000000 
#    z 0.070350 0.000000 1.868200 
# 
# From -- ./inp_files/4732.got.cif
#   From: 2010.05.17/outbox.cif.g08.bks.cpg/sg13_3_cif.got.tgz:4732.got - 2010.06.03 16:44:36.
