data_PCOD9226409
_publ_section_title
;
Structure prediction by ZEFSAII (Michael W. Deem and Ramdas Pophale) SiO2 
 PCOD9226409
Probable space group: P 2/C
;
_chemical_formula_sum "Si O2"
_cell_formula_units_Z 32
_cell_length_a 6.962031
_cell_length_b 16.766327
_cell_length_c 12.712187
_cell_angle_alpha 90.000000
_cell_angle_beta 110.520871
_cell_angle_gamma 90.000000
_cell_volume 1389.704943
_symmetry_space_group_name_H-M "P 2/C"
_symmetry_group_IT_number 13
_symmetry_cell_setting 'monoclinic'
loop_
_space_group_symop_operation_xyz
x,y,z
-x,y,1/2-z
-x,-y,-z
x,-y,1/2+z
loop_
_atom_site_type_symbol
_atom_site_label
_atom_site_fract_x
_atom_site_fract_y
_atom_site_fract_z
Si Si1 0.598421 0.316439 0.588037
Si Si2 0.568025 0.429012 0.090757
Si Si3 0.892315 0.881119 0.976052
Si Si4 0.017727 0.297742 0.003342
Si Si5 0.753008 0.845145 0.171902
Si Si6 0.825163 0.562431 0.835375
Si Si7 0.823509 0.613512 0.301191
Si Si8 0.160754 0.984148 0.184088
O O1 0.425839 0.348703 0.477148
O O2 0.790221 0.309633 0.541581
O O3 0.615583 0.233057 0.651928
O O4 0.631499 0.382665 0.685748
O O5 0.382404 0.425046 0.137666
O O6 0.768027 0.438971 0.200721
O O7 0.500000 0.500000 0.000000
O O8 0.972593 0.793703 0.959118
O O9 0.794292 0.932024 0.862960
O O10 0.743866 0.868173 0.047152
O O11 0.070013 0.931957 0.069061
O O12 0.041837 0.364247 0.097388
O O13 0.828638 0.319015 0.890592
O O14 0.000000 0.828889 0.250000
O O15 0.693050 0.921701 0.228549
O O16 0.880813 0.470065 0.866398
O O17 0.000000 0.629888 0.250000
O O18 0.000000 0.000504 0.250000
#
# Coordination Sequence:
#
# PCOD9226409 Si02
#       8
#     4   4   4   4   4   4   4   4
#     4   9  15  26  45  63  85 111 148 189 220 249
#     4  10  19  33  47  62  84 119 157 195 221 256
#     4   8  13  23  37  55  84 115 134 171 210 259
#     4   9  17  27  41  64  90 114 144 180 224 267
#     4   8  13  22  38  65  85 107 143 177 216 265
#     4  10  20  31  46  65  86 120 155 189 225 263
#     4  10  17  28  46  66  89 118 147 186 227 265
#     4   8  13  21  37  58  83 113 141 163 209 271
#
# _framework density 23.026468999999999
#
# number of rings (size 3 to 8) (size 9 to 14) (size 15 to 20)
#    0.000    3.250    1.250    3.000    0.000    0.500 
#    0.000    0.625    0.000    0.000    0.000    0.875 
#    0.000    0.000    0.750    0.000    0.000    3.500 
#
# Total GULP energy -178181.433978 kJ/mol
# GULP energy per Si atom -5568.169812 kJ/mol
# Density = 2.297406 g / cm^3
# Si number density = 23.026469 Si / 1000 Ang^3
#
#
#
# Elastic Constant Matrix: (Units=GPa)
#
#
# Indices 1 2 3 4 5 6 
#
# 1 48.2493 2.2943 13.6124 0.0000 -13.9269 0.0000
# 2 2.2943 188.3205 93.1269 0.0000 -5.6378 0.0000
# 3 13.6124 93.1269 129.1828 0.0000 -1.8447 0.0000
# 4 0.0000 0.0000 0.0000 56.3259 0.0000 -6.3886
# 5 -13.9269 -5.6378 -1.8447 0.0000 28.4212 0.0000
# 6 0.0000 0.0000 0.0000 -6.3886 0.0000 5.1857
#
#
#
# Elastic Compliance Matrix: (Units=1/GPa)
#
#
# Indices 1 2 3 4 5 6 
#
# 1 0.025375 0.002022 -0.003952 0.000000 0.012579 0.000000
# 2 0.002022 0.008458 -0.006278 0.000000 0.002261 0.000000
# 3 -0.003952 -0.006278 0.012649 0.000000 -0.002361 0.000000
# 4 0.000000 0.000000 0.000000 0.020638 0.000000 0.025425
# 5 0.012579 0.002261 -0.002361 0.000000 0.041644 0.000000
# 6 0.000000 0.000000 0.000000 0.025425 0.000000 0.224162
#
#
# Mechanical properties :
#
#
# Convention : Reuss Voigt Hill
#
# Bulk Modulus (GPa) = 33.25964 64.86887 49.06425
# Shear Modulus (GPa) = 13.91349 35.10114 24.50731
#
# Velocity S-wave (km/s) = 2.46079 3.90857 3.26592
# Velocity P-wave (km/s) = 4.74863 6.97150 5.96453
#
# Compressibility (1/GPa) = 0.03006647
#
# Stress axis : x y z
#
# Youngs Moduli (GPa) = 39.40855 118.23728 79.05627
#
# Poissons Ratio (x) = -0.23902 0.31239
# Poissons Ratio (y) = -0.07967 0.49629
# Poissons Ratio (z) = 0.15572 0.74226
#
# Static dielectric constant tensor:
#      x y z
#    x 1.995120 0.000000 0.019650 
#    y 0.000000 1.905780 0.000000 
#    z 0.019650 0.000000 1.857810 
# 
# From -- ./inp_files/51302.got.cif
#   From: 2010.05.17/outbox.cif.g08.bks.cpg/sg13_26_cif.got.tgz:51302.got - 2010.06.03 16:44:36.
