data_PCOD9226772
_publ_section_title
;
Structure prediction by ZEFSAII (Michael W. Deem and Ramdas Pophale) SiO2 
 PCOD9226772
Probable space group: P 2/C
;
_chemical_formula_sum "Si O2"
_cell_formula_units_Z 28
_cell_length_a 5.484639
_cell_length_b 22.281711
_cell_length_c 12.808391
_cell_angle_alpha 90.000000
_cell_angle_beta 74.372605
_cell_angle_gamma 90.000000
_cell_volume 1507.414631
_symmetry_space_group_name_H-M "P 2/C"
_symmetry_group_IT_number 13
_symmetry_cell_setting 'monoclinic'
loop_
_space_group_symop_operation_xyz
x,y,z
-x,y,1/2-z
-x,-y,-z
x,-y,1/2+z
loop_
_atom_site_type_symbol
_atom_site_label
_atom_site_fract_x
_atom_site_fract_y
_atom_site_fract_z
Si Si1 0.431703 0.913112 0.568862
Si Si2 0.312097 0.970773 0.371550
Si Si3 0.068644 0.273957 0.126516
Si Si4 0.749834 0.388488 0.165144
Si Si5 0.000000 0.498767 0.250000
Si Si6 0.238509 0.535765 0.024811
Si Si7 0.000000 0.967707 0.750000
Si Si8 0.574247 0.217595 0.117691
O O1 0.618654 0.967257 0.577328
O O2 0.552263 0.848850 0.574284
O O3 0.215435 0.924322 0.680863
O O4 0.331811 0.922449 0.461720
O O5 0.500000 0.960094 0.250000
O O6 0.057479 0.987923 0.340159
O O7 0.988232 0.343853 0.138810
O O8 0.859009 0.243113 0.077304
O O9 0.000000 0.250588 0.250000
O O10 0.362442 0.257987 0.082719
O O11 0.500000 0.361819 0.250000
O O12 0.810963 0.451192 0.216154
O O13 0.707863 0.406155 0.050375
O O14 0.853243 0.540465 0.346875
O O15 0.500000 0.500000 0.000000
O O16 0.000000 0.500000 0.000000
O O17 0.500000 0.216221 0.250000
#
# Coordination Sequence:
#
# PCOD9226772 Si02
#       8
#     4   4   4   4   2   4   2   4
#     4  10  20  32  51  74 107 139 165 227 270 325
#     4   9  19  34  50  76 102 135 180 207 277 329
#     4  10  21  33  50  76 107 143 178 217 267 325
#     4  11  19  33  55  76 115 142 177 221 272 320
#     4  10  20  34  53  80 113 142 180 220 266 330
#     4  10  21  33  51  80 109 143 176 216 272 324
#     4  10  18  30  49  74 105 132 166 208 266 340
#     4  10  21  34  50  77 109 137 181 217 274 325
#
# _framework density 18.574850000000001
#
# number of rings (size 3 to 8) (size 9 to 14) (size 15 to 20)
#    0.000    2.000    2.143    3.000    5.000    0.000 
#    0.000    0.000    0.000    0.000    3.714    0.000 
#    0.000    0.000    0.000    0.000    0.000    0.000 
#
# Total GULP energy -155918.551225 kJ/mol
# GULP energy per Si atom -5568.519687 kJ/mol
# Density = 1.853257 g / cm^3
# Si number density = 18.574850 Si / 1000 Ang^3
#
#
#
# Elastic Constant Matrix: (Units=GPa)
#
#
# Indices 1 2 3 4 5 6 
#
# 1 93.9294 26.7447 26.1694 0.0000 13.3678 0.0000
# 2 26.7447 69.3955 31.0138 0.0000 9.8506 0.0000
# 3 26.1694 31.0138 95.5549 0.0000 3.2814 0.0000
# 4 0.0000 0.0000 0.0000 19.6879 0.0000 12.0816
# 5 13.3678 9.8506 3.2814 0.0000 26.0096 0.0000
# 6 0.0000 0.0000 0.0000 12.0816 0.0000 24.4505
#
#
#
# Elastic Compliance Matrix: (Units=1/GPa)
#
#
# Indices 1 2 3 4 5 6 
#
# 1 0.012942 -0.003220 -0.002323 0.000000 -0.005139 0.000000
# 2 -0.003220 0.018548 -0.004975 0.000000 -0.004742 0.000000
# 3 -0.002323 -0.004975 0.012665 0.000000 0.001480 0.000000
# 4 0.000000 0.000000 0.000000 0.072897 0.000000 -0.036020
# 5 -0.005139 -0.004742 0.001480 0.000000 0.042698 0.000000
# 6 0.000000 0.000000 0.000000 -0.036020 0.000000 0.058698
#
#
# Mechanical properties :
#
#
# Convention : Reuss Voigt Hill
#
# Bulk Modulus (GPa) = 43.25529 47.41506 45.33518
# Shear Modulus (GPa) = 20.22743 25.69304 22.96024
#
# Velocity S-wave (km/s) = 3.30353 3.72320 3.51963
# Velocity P-wave (km/s) = 6.15538 6.63813 6.40131
#
# Compressibility (1/GPa) = 0.02311856
#
# Stress axis : x y z
#
# Youngs Moduli (GPa) = 77.26999 53.91474 78.95617
#
# Poissons Ratio (x) = 0.17361 0.18339
# Poissons Ratio (y) = 0.24882 0.39283
# Poissons Ratio (z) = 0.17947 0.26824
#
# Static dielectric constant tensor:
#      x y z
#    x 1.755940 0.000000 0.024410 
#    y 0.000000 1.643140 0.000000 
#    z 0.024410 0.000000 1.667090 
# 
# From -- ./inp_files/26819.got.cif
#   From: 2010.05.17/outbox.cif.g08.bks.cpg/sg13_14_cif.got.tgz:26819.got - 2010.06.03 16:44:36.
