data_PCOD9226350
_publ_section_title
;
Structure prediction by ZEFSAII (Michael W. Deem and Ramdas Pophale) SiO2 
 PCOD9226350
Probable space group: P 2/C
;
_chemical_formula_sum "Si O2"
_cell_formula_units_Z 22
_cell_length_a 18.761158
_cell_length_b 8.874050
_cell_length_c 13.883854
_cell_angle_alpha 90.000000
_cell_angle_beta 28.980630
_cell_angle_gamma 90.000000
_cell_volume 1119.947849
_symmetry_space_group_name_H-M "P 2/C"
_symmetry_group_IT_number 13
_symmetry_cell_setting 'monoclinic'
loop_
_space_group_symop_operation_xyz
x,y,z
-x,y,1/2-z
-x,-y,-z
x,-y,1/2+z
loop_
_atom_site_type_symbol
_atom_site_label
_atom_site_fract_x
_atom_site_fract_y
_atom_site_fract_z
Si Si1 0.141951 0.638827 0.196806
Si Si2 0.754136 0.146141 0.567077
Si Si3 0.000000 0.604226 0.750000
Si Si4 0.329148 0.325950 0.660954
Si Si5 0.500000 0.728086 0.250000
Si Si6 0.600325 0.542026 0.757097
Si Si7 0.000000 0.899245 0.250000
O O1 0.203485 0.657674 0.230253
O O2 0.031840 0.501786 0.303673
O O3 0.056898 0.788706 0.265940
O O4 0.279219 0.600282 0.961584
O O5 0.862020 0.288085 0.424781
O O6 0.684611 0.181444 0.753511
O O7 0.634893 0.164832 0.622386
O O8 0.859735 0.002585 0.441209
O O9 0.329902 0.473723 0.728686
O O10 0.484201 0.330449 0.421782
O O11 0.493661 0.602752 0.171742
#
# Coordination Sequence:
#
# PCOD9226350 Si02
#       7
#     4   4   2   4   2   4   2
#     4  11  20  38  61  89 125 164 190 256 305 353
#     4  10  21  39  60  88 117 166 204 244 293 366
#     4  10  18  36  60  86 120 156 202 250 304 346
#     4  10  19  33  65  91 122 150 208 253 299 357
#     4  10  16  36  64  86 120 150 204 246 308 334
#     4  10  18  34  61 101 119 145 201 268 303 345
#     4  10  26  42  56  80 136 168 200 234 306 368
#
# _framework density 19.643771999999998
#
# number of rings (size 3 to 8) (size 9 to 14) (size 15 to 20)
#    0.000    1.818    5.455    0.000    0.000    1.455 
#    3.273    0.909    8.000    0.000    0.000    0.000 
#    0.000    0.000    0.000    0.000    0.000    0.000 
#
# Total GULP energy -122526.986780 kJ/mol
# GULP energy per Si atom -5569.408490 kJ/mol
# Density = 1.959906 g / cm^3
# Si number density = 19.643772 Si / 1000 Ang^3
#
#
#
# Elastic Constant Matrix: (Units=GPa)
#
#
# Indices 1 2 3 4 5 6 
#
# 1 172.6902 47.0348 41.6730 0.0000 -33.9341 0.0000
# 2 47.0348 80.4413 19.6146 0.0000 -14.7874 0.0000
# 3 41.6730 19.6146 69.8870 0.0000 -20.3322 0.0000
# 4 0.0000 0.0000 0.0000 12.6524 0.0000 -4.8197
# 5 -33.9341 -14.7874 -20.3322 0.0000 29.7936 0.0000
# 6 0.0000 0.0000 0.0000 -4.8197 0.0000 -4.3680
#
#
#
# Elastic Compliance Matrix: (Units=1/GPa)
#
#
# Indices 1 2 3 4 5 6 
#
# 1 0.008497 -0.003215 -0.002262 0.000000 0.006539 0.000000
# 2 -0.003215 0.015206 -0.001523 0.000000 0.002846 0.000000
# 3 -0.002262 -0.001523 0.018860 0.000000 0.009538 0.000000
# 4 0.000000 0.000000 0.000000 0.055647 0.000000 -0.061401
# 5 0.006539 0.002846 0.009538 0.000000 0.048934 0.000000
# 6 0.000000 0.000000 0.000000 -0.061401 0.000000 -0.161187
#
#
# Mechanical properties :
#
#
# Convention : Reuss Voigt Hill
#
# Bulk Modulus (GPa) = 35.00950 59.96256 47.48603
# Shear Modulus (GPa) = 527.61741 21.92868 274.77304
#
# Velocity S-wave (km/s) = 16.40658 3.34476 11.83983
# Velocity P-wave (km/s) = 19.41036 6.74595 14.53048
#
# Compressibility (1/GPa) = 0.02856368
#
# Stress axis : x y z
#
# Youngs Moduli (GPa) = 117.68792 65.76515 53.02194
#
# Poissons Ratio (x) = 0.21142 0.11995
# Poissons Ratio (y) = 0.37833 0.08073
# Poissons Ratio (z) = 0.26623 0.10014
#
# Static dielectric constant tensor:
#      x y z
#    x 1.728960 0.000000 -0.000340 
#    y 0.000000 1.688630 0.000000 
#    z -0.000340 0.000000 1.799940 
# 
# From -- ./inp_files/45788.got.cif
#   From: 2010.05.17/outbox.cif.g08.bks.cpg/sg13_23_cif.got.tgz:45788.got - 2010.06.03 16:44:36.
