data_PCOD9226527
_publ_section_title
;
Structure prediction by ZEFSAII (Michael W. Deem and Ramdas Pophale) SiO2 
 PCOD9226527
Probable space group: P 2/C
;
_chemical_formula_sum "Si O2"
_cell_formula_units_Z 32
_cell_length_a 25.317974
_cell_length_b 9.344442
_cell_length_c 21.797017
_cell_angle_alpha 90.000000
_cell_angle_beta 160.295060
_cell_angle_gamma 90.000000
_cell_volume 1738.747799
_symmetry_space_group_name_H-M "P 2/C"
_symmetry_group_IT_number 13
_symmetry_cell_setting 'monoclinic'
loop_
_space_group_symop_operation_xyz
x,y,z
-x,y,1/2-z
-x,-y,-z
x,-y,1/2+z
loop_
_atom_site_type_symbol
_atom_site_label
_atom_site_fract_x
_atom_site_fract_y
_atom_site_fract_z
Si Si1 0.254114 0.754648 0.880342
Si Si2 0.828480 0.684375 0.582051
Si Si3 0.403070 0.330714 0.785398
Si Si4 0.839854 0.836883 0.845474
Si Si5 0.815571 0.299088 0.770971
Si Si6 0.909875 0.480820 0.771290
Si Si7 0.344276 0.908927 0.321580
Si Si8 0.758568 0.544151 0.809850
O O1 0.240356 0.782391 0.937968
O O2 0.212270 0.866396 0.781843
O O3 0.125358 0.629167 0.731254
O O4 0.423286 0.690101 0.050259
O O5 0.715586 0.668608 0.401358
O O6 0.857881 0.529772 0.647177
O O7 0.000000 0.736730 0.750000
O O8 0.357801 0.196471 0.778845
O O9 0.379611 0.471169 0.802229
O O10 0.737802 0.701443 0.758772
O O11 0.798026 0.977609 0.837879
O O12 0.017620 0.782459 0.041700
O O13 0.809721 0.360769 0.696017
O O14 0.685253 0.190968 0.651864
O O15 0.805492 0.433948 0.806781
O O16 0.091252 0.447305 0.980382
O O17 0.500000 0.000000 0.500000
#
# Coordination Sequence:
#
# PCOD9226527 Si02
#       8
#     4   4   4   4   4   4   4   4
#     4  10  19  31  55  80 113 138 184 224 282 326
#     4  10  19  35  57  84 106 137 191 244 274 326
#     4  11  21  34  54  85 113 149 186 232 283 338
#     4  11  19  36  53  86 114 151 183 228 283 342
#     4  10  18  34  56  81 111 146 189 223 283 335
#     4   9  17  32  55  84 104 137 181 244 278 317
#     4  11  24  35  52  82 125 152 184 230 286 338
#     4  10  17  31  57  82 111 139 181 233 280 329
#
# _framework density 18.404049000000001
#
# number of rings (size 3 to 8) (size 9 to 14) (size 15 to 20)
#    0.750    1.000    5.000    1.500    1.750    1.500 
#    0.000    0.000    0.000    1.500    0.000    0.000 
#    0.000    0.000    0.000    0.000    0.000    0.000 
#
# Total GULP energy -178243.213136 kJ/mol
# GULP energy per Si atom -5570.100410 kJ/mol
# Density = 1.836216 g / cm^3
# Si number density = 18.404049 Si / 1000 Ang^3
#
#
#
# Elastic Constant Matrix: (Units=GPa)
#
#
# Indices 1 2 3 4 5 6 
#
# 1 109.8101 28.3703 25.7072 0.0000 4.1021 0.0000
# 2 28.3703 67.2451 -4.6678 0.0000 -1.6177 0.0000
# 3 25.7072 -4.6678 31.2572 0.0000 -6.7443 0.0000
# 4 0.0000 0.0000 0.0000 19.9785 0.0000 5.5112
# 5 4.1021 -1.6177 -6.7443 0.0000 30.9584 0.0000
# 6 0.0000 0.0000 0.0000 5.5112 0.0000 25.5181
#
#
#
# Elastic Compliance Matrix: (Units=1/GPa)
#
#
# Indices 1 2 3 4 5 6 
#
# 1 0.014488 -0.007224 -0.014155 0.000000 -0.005381 0.000000
# 2 -0.007224 0.018682 0.009600 0.000000 0.004025 0.000000
# 3 -0.014155 0.009600 0.047830 0.000000 0.012797 0.000000
# 4 0.000000 0.000000 0.000000 0.053225 0.000000 -0.011495
# 5 -0.005381 0.004025 0.012797 0.000000 0.036013 0.000000
# 6 0.000000 0.000000 0.000000 -0.011495 0.000000 0.041671
#
#
# Mechanical properties :
#
#
# Convention : Reuss Voigt Hill
#
# Bulk Modulus (GPa) = 17.40950 34.12576 25.76763
# Shear Modulus (GPa) = 19.63755 25.88450 22.76102
#
# Velocity S-wave (km/s) = 3.27008 3.75434 3.52055
# Velocity P-wave (km/s) = 4.87217 6.11361 5.52785
#
# Compressibility (1/GPa) = 0.05743992
#
# Stress axis : x y z
#
# Youngs Moduli (GPa) = 69.02255 53.52711 20.90757
#
# Poissons Ratio (x) = 0.38670 0.29596
# Poissons Ratio (y) = 0.49865 -0.20071
# Poissons Ratio (z) = 0.97705 -0.51386
#
# Static dielectric constant tensor:
#      x y z
#    x 1.674690 0.000000 0.033400 
#    y 0.000000 1.648570 0.000000 
#    z 0.033400 0.000000 1.650090 
# 
# From -- ./inp_files/89522.got.cif
#   From: 2010.05.17/outbox.cif.g08.bks.cpg/sg13_45_cif.got.tgz:89522.got - 2010.06.03 16:44:36.
