data_PCOD9226668
_publ_section_title
;
Structure prediction by ZEFSAII (Michael W. Deem and Ramdas Pophale) SiO2 
 PCOD9226668
Probable space group: P 2/C
;
_chemical_formula_sum "Si O2"
_cell_formula_units_Z 30
_cell_length_a 15.155573
_cell_length_b 11.856787
_cell_length_c 15.687177
_cell_angle_alpha 90.000000
_cell_angle_beta 149.387398
_cell_angle_gamma 90.000000
_cell_volume 1435.485372
_symmetry_space_group_name_H-M "P 2/C"
_symmetry_group_IT_number 13
_symmetry_cell_setting 'monoclinic'
loop_
_space_group_symop_operation_xyz
x,y,z
-x,y,1/2-z
-x,-y,-z
x,-y,1/2+z
loop_
_atom_site_type_symbol
_atom_site_label
_atom_site_fract_x
_atom_site_fract_y
_atom_site_fract_z
Si Si1 0.029883 0.440593 0.431858
Si Si2 0.692249 0.042072 0.868498
Si Si3 0.784444 0.808113 0.862232
Si Si4 0.419178 0.406816 0.871527
Si Si5 0.000000 0.121272 0.250000
Si Si6 0.312940 0.574670 0.635518
Si Si7 0.828206 0.770294 0.359113
Si Si8 0.251718 0.284404 0.354636
O O1 0.137991 0.516422 0.455719
O O2 0.112334 0.317233 0.517799
O O3 0.000000 0.500000 0.500000
O O4 0.845852 0.402454 0.243252
O O5 0.500000 0.057519 0.750000
O O6 0.722503 0.132225 0.817702
O O7 0.703884 0.919050 0.835497
O O8 0.861613 0.055704 0.072888
O O9 0.735918 0.698764 0.876277
O O10 0.721023 0.777088 0.713960
O O11 0.994004 0.816732 0.032216
O O12 0.337029 0.485952 0.732245
O O13 0.281291 0.314913 0.791983
O O14 0.500000 0.500000 0.000000
O O15 0.566854 0.324695 0.956244
O O16 0.132264 0.201564 0.308826
O O17 0.500000 0.576690 0.750000
#
# Coordination Sequence:
#
# PCOD9226668 Si02
#       8
#     4   4   4   4   2   4   4   4
#     4  10  17  37  63  89 125 173 207 255 329 405
#     4  12  26  47  71  99 136 178 229 296 339 397
#     4  11  22  46  67  89 134 191 221 264 353 412
#     4  11  22  38  64 103 135 169 228 276 328 416
#     4  12  26  44  68 104 132 164 240 292 332 390
#     4  11  23  37  63  95 134 181 220 267 345 406
#     4  10  21  39  69  93 128 180 222 266 345 406
#     4  11  22  39  64  97 134 168 220 283 331 400
#
# _framework density 20.898855000000001
#
# number of rings (size 3 to 8) (size 9 to 14) (size 15 to 20)
#    0.000    1.067    6.667    2.400    1.867    2.133 
#    2.400    1.333    0.000    0.000    0.000    0.000 
#    0.000    0.000    0.000    0.000    0.000    0.000 
#
# Total GULP energy -167103.201632 kJ/mol
# GULP energy per Si atom -5570.106721 kJ/mol
# Density = 2.085129 g / cm^3
# Si number density = 20.898855 Si / 1000 Ang^3
#
#
#
# Elastic Constant Matrix: (Units=GPa)
#
#
# Indices 1 2 3 4 5 6 
#
# 1 70.9515 39.3749 21.8020 0.0000 38.3847 0.0000
# 2 39.3749 112.2373 36.9273 0.0000 19.1643 0.0000
# 3 21.8020 36.9273 73.5613 0.0000 24.9729 0.0000
# 4 0.0000 0.0000 0.0000 29.8213 0.0000 13.1791
# 5 38.3847 19.1643 24.9729 0.0000 44.2884 0.0000
# 6 0.0000 0.0000 0.0000 13.1791 0.0000 21.0170
#
#
#
# Elastic Compliance Matrix: (Units=1/GPa)
#
#
# Indices 1 2 3 4 5 6 
#
# 1 0.031140 -0.007643 0.003274 0.000000 -0.025528 0.000000
# 2 -0.007643 0.012690 -0.005552 0.000000 0.004264 0.000000
# 3 0.003274 -0.005552 0.019242 0.000000 -0.011285 0.000000
# 4 0.000000 0.000000 0.000000 0.046388 0.000000 -0.029089
# 5 -0.025528 0.004264 -0.011285 0.000000 0.049222 0.000000
# 6 0.000000 0.000000 0.000000 -0.029089 0.000000 0.065821
#
#
# Mechanical properties :
#
#
# Convention : Reuss Voigt Hill
#
# Bulk Modulus (GPa) = 23.13269 50.32872 36.73071
# Shear Modulus (GPa) = 19.32316 29.60174 24.46245
#
# Velocity S-wave (km/s) = 3.04403 3.76763 3.42499
# Velocity P-wave (km/s) = 4.84228 6.56209 5.76666
#
# Compressibility (1/GPa) = 0.04322886
#
# Stress axis : x y z
#
# Youngs Moduli (GPa) = 32.11281 78.80403 51.96931
#
# Poissons Ratio (x) = 0.60228 -0.17013
# Poissons Ratio (y) = 0.24543 0.28856
# Poissons Ratio (z) = -0.10513 0.43756
#
# Static dielectric constant tensor:
#      x y z
#    x 1.820540 0.000000 0.177600 
#    y 0.000000 1.748350 0.000000 
#    z 0.177600 0.000000 2.626300 
# 
# From -- ./inp_files/68557.got.cif
#   From: 2010.05.17/outbox.cif.g08.bks.cpg/sg13_35_cif.got.tgz:68557.got - 2010.06.03 16:44:36.
