data_PCOD9226525
_publ_section_title
;
Structure prediction by ZEFSAII (Michael W. Deem and Ramdas Pophale) SiO2 
 PCOD9226525
Probable space group: P 2/C
;
_chemical_formula_sum "Si O2"
_cell_formula_units_Z 26
_cell_length_a 12.477328
_cell_length_b 15.936314
_cell_length_c 8.443491
_cell_angle_alpha 90.000000
_cell_angle_beta 49.920533
_cell_angle_gamma 90.000000
_cell_volume 1284.633780
_symmetry_space_group_name_H-M "P 2/C"
_symmetry_group_IT_number 13
_symmetry_cell_setting 'monoclinic'
loop_
_space_group_symop_operation_xyz
x,y,z
-x,y,1/2-z
-x,-y,-z
x,-y,1/2+z
loop_
_atom_site_type_symbol
_atom_site_label
_atom_site_fract_x
_atom_site_fract_y
_atom_site_fract_z
Si Si1 0.000000 0.503540 0.750000
Si Si2 0.668257 0.795441 0.945630
Si Si3 0.370690 0.263985 0.653917
Si Si4 0.978559 0.211015 0.082308
Si Si5 0.787598 0.109488 0.788099
Si Si6 0.858044 0.384440 0.629774
Si Si7 0.342783 0.974936 0.398034
O O1 0.081287 0.443707 0.792932
O O2 0.111760 0.563821 0.558043
O O3 0.813123 0.782778 0.718223
O O4 0.673722 0.759637 0.121331
O O5 0.535769 0.751004 0.992391
O O6 0.647808 0.895182 0.991394
O O7 0.297249 0.196058 0.610340
O O8 0.300516 0.353773 0.692981
O O9 0.000000 0.194841 0.250000
O O10 0.058106 0.137957 0.911392
O O11 0.051763 0.298681 0.968383
O O12 0.707176 0.063895 0.719370
O O13 0.768700 0.044539 0.946131
O O14 0.500000 0.011373 0.250000
#
# Coordination Sequence:
#
# PCOD9226525 Si02
#       7
#     2   4   4   4   4   4   4
#     4  10  20  34  64  96 114 148 184 238 300 350
#     4  10  17  31  56  82 109 156 207 232 292 342
#     4   9  17  33  56  81 108 156 196 236 278 363
#     4  11  18  36  58  82 110 158 196 243 284 361
#     4  10  21  33  55  76 111 152 205 242 298 342
#     4  10  19  36  62  88 117 147 191 231 292 350
#     4  11  19  33  53  81 111 153 201 259 290 345
#
# _framework density 20.239229999999999
#
# number of rings (size 3 to 8) (size 9 to 14) (size 15 to 20)
#    0.000    1.846    8.462    0.462    0.000    0.615 
#    0.000    3.077    0.000   16.615    0.000    0.000 
#    0.000    0.000    0.000    0.000    0.000    0.000 
#
# Total GULP energy -145145.158655 kJ/mol
# GULP energy per Si atom -5582.506102 kJ/mol
# Density = 2.019316 g / cm^3
# Si number density = 20.239230 Si / 1000 Ang^3
#
#
#
# Elastic Constant Matrix: (Units=GPa)
#
#
# Indices 1 2 3 4 5 6 
#
# 1 41.5771 14.8516 27.4015 0.0000 -28.9943 0.0000
# 2 14.8516 85.3063 32.5213 0.0000 -3.9886 0.0000
# 3 27.4015 32.5213 62.2656 0.0000 -32.2397 0.0000
# 4 0.0000 0.0000 0.0000 26.2171 0.0000 -13.4536
# 5 -28.9943 -3.9886 -32.2397 0.0000 35.9489 0.0000
# 6 0.0000 0.0000 0.0000 -13.4536 0.0000 16.6515
#
#
#
# Elastic Compliance Matrix: (Units=1/GPa)
#
#
# Indices 1 2 3 4 5 6 
#
# 1 0.061291 -0.010690 0.006707 0.000000 0.054262 0.000000
# 2 -0.010690 0.018602 -0.015695 0.000000 -0.020634 0.000000
# 3 0.006707 -0.015695 0.043322 0.000000 0.042520 0.000000
# 4 0.000000 0.000000 0.000000 0.065159 0.000000 0.052645
# 5 0.054262 -0.020634 0.042520 0.000000 0.107426 0.000000
# 6 0.000000 0.000000 0.000000 0.052645 0.000000 0.102590
#
#
# Mechanical properties :
#
#
# Convention : Reuss Voigt Hill
#
# Bulk Modulus (GPa) = 11.92493 37.63308 24.77901
# Shear Modulus (GPa) = 10.73652 23.38846 17.06249
#
# Velocity S-wave (km/s) = 2.30572 3.40310 2.90667
# Velocity P-wave (km/s) = 3.60461 5.83746 4.85124
#
# Compressibility (1/GPa) = 0.08385794
#
# Stress axis : x y z
#
# Youngs Moduli (GPa) = 16.31566 53.75652 23.08271
#
# Poissons Ratio (x) = 0.57468 -0.15481
# Poissons Ratio (y) = 0.17442 0.36229
# Poissons Ratio (z) = -0.10943 0.84373
#
# Static dielectric constant tensor:
#      x y z
#    x 1.754370 0.000000 0.007390 
#    y 0.000000 1.698700 0.000000 
#    z 0.007390 0.000000 1.767070 
# 
# From -- ./inp_files/19833.got.cif
#   From: 2010.05.17/outbox.cif.g08.bks.cpg/sg13_10_cif.got.tgz:19833.got - 2010.06.03 16:44:36.
