data_PCOD9226004
_publ_section_title
;
Structure prediction by ZEFSAII (Michael W. Deem and Ramdas Pophale) SiO2 
 PCOD9226004
Probable space group: P 2/C
;
_chemical_formula_sum "Si O2"
_cell_formula_units_Z 20
_cell_length_a 6.987139
_cell_length_b 25.112403
_cell_length_c 5.464803
_cell_angle_alpha 90.000000
_cell_angle_beta 81.122232
_cell_angle_gamma 90.000000
_cell_volume 947.387879
_symmetry_space_group_name_H-M "P 2/C"
_symmetry_group_IT_number 13
_symmetry_cell_setting 'monoclinic'
loop_
_space_group_symop_operation_xyz
x,y,z
-x,y,1/2-z
-x,-y,-z
x,-y,1/2+z
loop_
_atom_site_type_symbol
_atom_site_label
_atom_site_fract_x
_atom_site_fract_y
_atom_site_fract_z
Si Si1 0.625940 0.140880 0.475046
Si Si2 0.374394 0.742167 0.524382
Si Si3 0.775467 0.521734 0.063319
Si Si4 0.882742 0.639608 0.021692
Si Si5 0.726187 0.977882 0.950511
O O1 0.500000 0.137988 0.250000
O O2 0.723914 0.199141 0.447484
O O3 0.739561 0.085759 0.458875
O O4 0.500000 0.139956 0.750000
O O5 0.500000 0.737209 0.750000
O O6 0.236370 0.691911 0.524229
O O7 0.500000 0.742069 0.250000
O O8 0.692262 0.494772 0.320262
O O9 0.768758 0.585100 0.096973
O O10 0.000000 0.500000 0.000000
O O11 0.000000 0.650209 0.250000
O O12 0.000000 0.626661 0.750000
O O13 0.808161 0.997474 0.679490
O O14 0.500000 0.000000 0.000000
#
# Coordination Sequence:
#
# PCOD9226004 Si02
#       5
#     4   4   4   4   4
#     4  10  16  27  42  61  96 138 164 195 262 319
#     4  10  23  38  52  75 115 155 169 210 280 329
#     4  10  16  30  51  85  99 124 165 236 267 288
#     4  12  21  35  61  85 104 136 192 228 250 314
#     4  10  14  20  36  63  87 120 159 216 245 292
#
# _framework density 21.110679000000001
#
# number of rings (size 3 to 8) (size 9 to 14) (size 15 to 20)
#    0.000    1.600    8.000    1.200    0.000    0.000 
#    0.000    0.000    0.000    3.600    0.000    0.000 
#    0.000    4.800    0.000    0.000    0.000    0.000 
#
# Total GULP energy -111523.706562 kJ/mol
# GULP energy per Si atom -5576.185328 kJ/mol
# Density = 2.106263 g / cm^3
# Si number density = 21.110679 Si / 1000 Ang^3
#
#
#
# Elastic Constant Matrix: (Units=GPa)
#
#
# Indices 1 2 3 4 5 6 
#
# 1 43.9229 33.0090 37.4143 0.0000 20.4323 0.0000
# 2 33.0090 227.1712 39.7745 0.0000 27.0545 0.0000
# 3 37.4143 39.7745 198.6439 0.0000 34.9834 0.0000
# 4 0.0000 0.0000 0.0000 42.7092 0.0000 9.8187
# 5 20.4323 27.0545 34.9834 0.0000 29.3797 0.0000
# 6 0.0000 0.0000 0.0000 9.8187 0.0000 7.5759
#
#
#
# Elastic Compliance Matrix: (Units=1/GPa)
#
#
# Indices 1 2 3 4 5 6 
#
# 1 0.036086 -0.002424 -0.002891 0.000000 -0.019421 0.000000
# 2 -0.002424 0.005116 -0.000044 0.000000 -0.002972 0.000000
# 3 -0.002891 -0.000044 0.006613 0.000000 -0.005823 0.000000
# 4 0.000000 0.000000 0.000000 0.033351 0.000000 -0.043224
# 5 -0.019421 -0.002972 -0.005823 0.000000 0.057215 0.000000
# 6 0.000000 0.000000 0.000000 -0.043224 0.000000 0.188017
#
#
# Mechanical properties :
#
#
# Convention : Reuss Voigt Hill
#
# Bulk Modulus (GPa) = 26.95714 76.68151 51.81933
# Shear Modulus (GPa) = 14.30684 39.90232 27.10458
#
# Velocity S-wave (km/s) = 2.60610 4.35230 3.58708
# Velocity P-wave (km/s) = 4.67470 7.85233 6.46189
#
# Compressibility (1/GPa) = 0.03709592
#
# Stress axis : x y z
#
# Youngs Moduli (GPa) = 27.71135 195.46629 151.21695
#
# Poissons Ratio (x) = 0.47388 0.43717
# Poissons Ratio (y) = 0.06718 0.00670
# Poissons Ratio (z) = 0.08011 0.00866
#
# Static dielectric constant tensor:
#      x y z
#    x 1.467640 0.000000 -0.207820 
#    y 0.000000 1.749120 0.000000 
#    z -0.207820 0.000000 1.627100 
# 
# From -- ./inp_files/2101.got.cif
#   From: 2010.05.17/outbox.cif.g08.bks.cpg/sg13_2_cif.got.tgz:2101.got - 2010.06.03 16:44:36.
