data_PCOD9226648
_publ_section_title
;
Structure prediction by ZEFSAII (Michael W. Deem and Ramdas Pophale) SiO2 
 PCOD9226648
Probable space group: P 2/C
;
_chemical_formula_sum "Si O2"
_cell_formula_units_Z 26
_cell_length_a 7.336943
_cell_length_b 11.194263
_cell_length_c 14.679080
_cell_angle_alpha 90.000000
_cell_angle_beta 65.296725
_cell_angle_gamma 90.000000
_cell_volume 1095.284422
_symmetry_space_group_name_H-M "P 2/C"
_symmetry_group_IT_number 13
_symmetry_cell_setting 'monoclinic'
loop_
_space_group_symop_operation_xyz
x,y,z
-x,y,1/2-z
-x,-y,-z
x,-y,1/2+z
loop_
_atom_site_type_symbol
_atom_site_label
_atom_site_fract_x
_atom_site_fract_y
_atom_site_fract_z
Si Si1 0.566208 0.659016 0.637472
Si Si2 0.821958 0.339818 0.381679
Si Si3 0.333489 0.962227 0.111814
Si Si4 0.603724 0.621305 0.102746
Si Si5 0.500000 0.820921 0.250000
Si Si6 0.798714 0.285575 0.922671
Si Si7 0.000000 0.145311 0.250000
Si Si8 0.000000 0.555225 0.250000
O O1 0.500000 0.703468 0.750000
O O2 0.388235 0.710610 0.610778
O O3 0.583094 0.514564 0.639382
O O4 0.758956 0.693861 0.537240
O O5 0.780128 0.378020 0.492115
O O6 0.999504 0.244931 0.331236
O O7 0.839638 0.455227 0.313105
O O8 0.430478 0.904419 0.182045
O O9 0.200857 0.854879 0.096972
O O10 0.183413 0.062672 0.181486
O O11 0.500000 0.000000 0.000000
O O12 0.639871 0.723306 0.169845
O O13 0.395579 0.661395 0.094461
O O14 0.982677 0.357055 0.839386
#
# Coordination Sequence:
#
# PCOD9226648 Si02
#       8
#     4   4   4   4   2   4   2   2
#     4  11  19  35  61  93 128 164 214 267 333 411
#     4  10  21  37  63  90 127 170 213 269 339 394
#     4  11  24  47  69  95 131 180 232 277 329 397
#     4  10  17  36  60  94 124 162 209 262 331 402
#     4  10  22  38  74  98 124 176 226 282 334 394
#     4  10  20  35  61  88 122 167 213 263 334 393
#     4  11  23  44  70  90 129 181 226 278 330 391
#     4  11  17  32  62  90 125 165 206 262 344 411
#
# _framework density 23.738128
#
# number of rings (size 3 to 8) (size 9 to 14) (size 15 to 20)
#    0.000    1.538    3.846    4.154    0.000    0.000 
#    5.538    3.846   23.692    0.000    0.000    0.000 
#    0.000    0.000    0.000    0.000    0.000    0.000 
#
# Total GULP energy -144746.897163 kJ/mol
# GULP energy per Si atom -5567.188352 kJ/mol
# Density = 2.368410 g / cm^3
# Si number density = 23.738128 Si / 1000 Ang^3
#
#
#
# Elastic Constant Matrix: (Units=GPa)
#
#
# Indices 1 2 3 4 5 6 
#
# 1 54.5660 33.1505 46.2599 0.0000 -4.6487 0.0000
# 2 33.1505 156.9720 67.5460 0.0000 -19.3361 0.0000
# 3 46.2599 67.5460 220.2569 0.0000 -12.9775 0.0000
# 4 0.0000 0.0000 0.0000 46.8247 0.0000 5.9439
# 5 -4.6487 -19.3361 -12.9775 0.0000 32.6302 0.0000
# 6 0.0000 0.0000 0.0000 5.9439 0.0000 7.7870
#
#
#
# Elastic Compliance Matrix: (Units=1/GPa)
#
#
# Indices 1 2 3 4 5 6 
#
# 1 0.023691 -0.003316 -0.003969 0.000000 -0.000168 0.000000
# 2 -0.003316 0.008225 -0.001604 0.000000 0.003763 0.000000
# 3 -0.003969 -0.001604 0.005915 0.000000 0.000837 0.000000
# 4 0.000000 0.000000 0.000000 0.023648 0.000000 -0.018050
# 5 -0.000168 0.003763 0.000837 0.000000 0.033185 0.000000
# 6 0.000000 0.000000 0.000000 -0.018050 0.000000 0.142197
#
#
# Mechanical properties :
#
#
# Convention : Reuss Voigt Hill
#
# Bulk Modulus (GPa) = 49.86806 80.63419 65.25112
# Shear Modulus (GPa) = 19.13337 36.43761 27.78549
#
# Velocity S-wave (km/s) = 2.84213 3.92214 3.42497
# Velocity P-wave (km/s) = 5.64123 7.38599 6.57177
#
# Compressibility (1/GPa) = 0.02005292
#
# Stress axis : x y z
#
# Youngs Moduli (GPa) = 42.20930 121.58454 169.06485
#
# Poissons Ratio (x) = 0.40321 0.67098
# Poissons Ratio (y) = 0.13998 0.27118
# Poissons Ratio (z) = 0.16752 0.19502
#
# Static dielectric constant tensor:
#      x y z
#    x 2.032100 0.000000 -0.045240 
#    y 0.000000 1.941820 0.000000 
#    z -0.045240 0.000000 1.945230 
# 
# From -- ./inp_files/50852.got.cif
#   From: 2010.05.17/outbox.cif.g08.bks.cpg/sg13_26_cif.got.tgz:50852.got - 2010.06.03 16:44:36.
