data_PCOD9226877
_publ_section_title
;
Structure prediction by ZEFSAII (Michael W. Deem and Ramdas Pophale) SiO2 
 PCOD9226877
Probable space group: P 2/C
;
_chemical_formula_sum "Si O2"
_cell_formula_units_Z 32
_cell_length_a 8.934576
_cell_length_b 14.060720
_cell_length_c 14.684761
_cell_angle_alpha 90.000000
_cell_angle_beta 120.226196
_cell_angle_gamma 90.000000
_cell_volume 1593.986410
_symmetry_space_group_name_H-M "P 2/C"
_symmetry_group_IT_number 13
_symmetry_cell_setting 'monoclinic'
loop_
_space_group_symop_operation_xyz
x,y,z
-x,y,1/2-z
-x,-y,-z
x,-y,1/2+z
loop_
_atom_site_type_symbol
_atom_site_label
_atom_site_fract_x
_atom_site_fract_y
_atom_site_fract_z
Si Si1 0.379893 0.631547 0.802956
Si Si2 0.973636 0.812565 0.528346
Si Si3 0.104921 0.145961 0.874437
Si Si4 0.328712 0.675644 0.465613
Si Si5 0.189790 0.433987 0.761598
Si Si6 0.826648 0.072981 0.137578
Si Si7 0.686285 0.838108 0.760114
Si Si8 0.011666 0.390073 0.531812
O O1 0.500000 0.618611 0.750000
O O2 0.260474 0.540297 0.775618
O O3 0.279093 0.729529 0.758814
O O4 0.499726 0.650978 0.927182
O O5 0.832659 0.862399 0.549496
O O6 0.960810 0.697453 0.528866
O O7 0.979962 0.838141 0.423294
O O8 0.157223 0.855014 0.621620
O O9 0.269719 0.215209 0.936944
O O10 0.000000 0.171556 0.750000
O O11 0.162238 0.037002 0.884961
O O12 0.316791 0.625424 0.364682
O O13 0.172512 0.633165 0.478672
O O14 0.159726 0.387671 0.654188
O O15 0.000000 0.434455 0.750000
O O16 0.684197 0.097727 0.169286
O O17 0.000000 0.095562 0.250000
O O18 0.500000 0.841749 0.750000
O O19 0.000000 0.500000 0.500000
#
# Coordination Sequence:
#
# PCOD9226877 Si02
#       8
#     4   4   4   4   4   4   4   4
#     4  11  21  36  55  78 109 146 181 228 285 338
#     4  10  19  34  55  82 114 144 186 239 280 327
#     4  10  18  34  58  84 113 149 190 233 283 339
#     4  10  20  34  53  78 109 147 184 226 279 335
#     4  10  21  35  54  80 108 144 188 227 271 334
#     4   9  20  34  56  85 111 143 189 240 283 328
#     4  10  20  36  54  79 110 146 186 230 283 339
#     4  10  18  31  52  80 110 147 185 227 277 332
#
# _framework density 20.075454000000001
#
# number of rings (size 3 to 8) (size 9 to 14) (size 15 to 20)
#    0.000    2.000    0.000    7.125    0.000    3.500 
#    0.000    3.750    0.000    0.750    0.000    0.000 
#    0.000    0.000    0.000    0.000    0.000    0.000 
#
# Total GULP energy -178549.588433 kJ/mol
# GULP energy per Si atom -5579.674639 kJ/mol
# Density = 2.002976 g / cm^3
# Si number density = 20.075454 Si / 1000 Ang^3
#
#
#
# Elastic Constant Matrix: (Units=GPa)
#
#
# Indices 1 2 3 4 5 6 
#
# 1 29.1949 32.4298 26.8624 0.0000 -10.7461 0.0000
# 2 32.4298 106.3760 19.2737 0.0000 -24.7197 0.0000
# 3 26.8624 19.2737 109.6719 0.0000 -9.4027 0.0000
# 4 0.0000 0.0000 0.0000 21.7542 0.0000 -9.6795
# 5 -10.7461 -24.7197 -9.4027 0.0000 24.0953 0.0000
# 6 0.0000 0.0000 0.0000 -9.6795 0.0000 15.2953
#
#
#
# Elastic Compliance Matrix: (Units=1/GPa)
#
#
# Indices 1 2 3 4 5 6 
#
# 1 0.067185 -0.016219 -0.012895 0.000000 0.008292 0.000000
# 2 -0.016219 0.016393 0.001980 0.000000 0.010357 0.000000
# 3 -0.012895 0.001980 0.012012 0.000000 0.000967 0.000000
# 4 0.000000 0.000000 0.000000 0.063985 0.000000 0.040493
# 5 0.008292 0.010357 0.000967 0.000000 0.056203 0.000000
# 6 0.000000 0.000000 0.000000 0.040493 0.000000 0.091005
#
#
# Mechanical properties :
#
#
# Convention : Reuss Voigt Hill
#
# Bulk Modulus (GPa) = 24.20011 44.70828 34.45420
# Shear Modulus (GPa) = 13.33954 23.34074 18.34014
#
# Velocity S-wave (km/s) = 2.58053 3.41347 3.02580
# Velocity P-wave (km/s) = 4.57816 6.15257 5.42281
#
# Compressibility (1/GPa) = 0.04132212
#
# Stress axis : x y z
#
# Youngs Moduli (GPa) = 14.88423 61.00082 83.25340
#
# Poissons Ratio (x) = 0.98936 1.07353
# Poissons Ratio (y) = 0.24140 -0.16481
# Poissons Ratio (z) = 0.19193 -0.12076
#
# Static dielectric constant tensor:
#      x y z
#    x 1.718300 0.000000 -0.019840 
#    y 0.000000 1.712580 0.000000 
#    z -0.019840 0.000000 1.765650 
# 
# From -- ./inp_files/47697.got.cif
#   From: 2010.05.17/outbox.cif.g08.bks.cpg/sg13_24_cif.got.tgz:47697.got - 2010.06.03 16:44:36.
