data_PCOD9226544
_publ_section_title
;
Structure prediction by ZEFSAII (Michael W. Deem and Ramdas Pophale) SiO2 
 PCOD9226544
Probable space group: P 2/C
;
_chemical_formula_sum "Si O2"
_cell_formula_units_Z 32
_cell_length_a 9.598140
_cell_length_b 10.992505
_cell_length_c 13.316340
_cell_angle_alpha 90.000000
_cell_angle_beta 96.642342
_cell_angle_gamma 90.000000
_cell_volume 1395.544282
_symmetry_space_group_name_H-M "P 2/C"
_symmetry_group_IT_number 13
_symmetry_cell_setting 'monoclinic'
loop_
_space_group_symop_operation_xyz
x,y,z
-x,y,1/2-z
-x,-y,-z
x,-y,1/2+z
loop_
_atom_site_type_symbol
_atom_site_label
_atom_site_fract_x
_atom_site_fract_y
_atom_site_fract_z
Si Si1 0.402933 0.557736 0.435340
Si Si2 0.806950 0.898430 0.013728
Si Si3 0.618255 0.532529 0.320391
Si Si4 0.093250 0.634315 0.436930
Si Si5 0.289241 0.186225 0.682329
Si Si6 0.083626 0.561749 0.660851
Si Si7 0.447579 0.160727 0.907469
Si Si8 0.948519 0.992553 0.853299
O O1 0.433857 0.532921 0.311232
O O2 0.419573 0.497423 0.554496
O O3 0.231501 0.555900 0.420517
O O4 0.440353 0.701513 0.448513
O O5 0.645540 0.915462 0.024732
O O6 0.908739 0.997565 0.070915
O O7 0.859568 0.773076 0.068911
O O8 0.843779 0.900806 0.899931
O O9 0.684718 0.669284 0.329368
O O10 0.748361 0.439112 0.317686
O O11 0.049843 0.620259 0.549948
O O12 0.971955 0.577264 0.359512
O O13 0.359186 0.158104 0.795944
O O14 0.394290 0.131615 0.607753
O O15 0.139800 0.119804 0.662003
O O16 0.000000 0.611194 0.750000
O O17 0.000000 0.953998 0.750000
#
# Coordination Sequence:
#
# PCOD9226544 Si02
#       8
#     4   4   4   4   4   4   4   4
#     4  10  17  32  53  78 113 148 177 220 271 338
#     4  10  22  38  56  82 111 144 191 230 287 345
#     4  11  19  32  54  85 108 141 185 231 282 329
#     4  10  22  39  54  82 117 149 186 235 279 338
#     4  10  18  32  55  84 108 137 179 238 285 321
#     4  11  23  34  55  84 114 152 187 226 281 335
#     4   9  18  33  55  82 111 138 180 229 283 329
#     4  11  22  36  59  84 106 147 190 237 288 344
#
# _framework density 22.930121
#
# number of rings (size 3 to 8) (size 9 to 14) (size 15 to 20)
#    0.000    1.750    5.000    1.500    1.750    2.000 
#    0.000    0.000    0.000    0.000    3.250    0.000 
#    0.000    0.000    0.000    0.000    0.000    0.000 
#
# Total GULP energy -178290.506814 kJ/mol
# GULP energy per Si atom -5571.578338 kJ/mol
# Density = 2.287793 g / cm^3
# Si number density = 22.930121 Si / 1000 Ang^3
#
#
#
# Elastic Constant Matrix: (Units=GPa)
#
#
# Indices 1 2 3 4 5 6 
#
# 1 144.1246 2.6997 57.7556 0.0000 -32.1962 0.0000
# 2 2.6997 31.7464 12.0403 0.0000 2.2441 0.0000
# 3 57.7556 12.0403 128.8940 0.0000 -41.1417 0.0000
# 4 0.0000 0.0000 0.0000 26.9133 0.0000 -8.6650
# 5 -32.1962 2.2441 -41.1417 0.0000 55.3920 0.0000
# 6 0.0000 0.0000 0.0000 -8.6650 0.0000 24.3645
#
#
#
# Elastic Compliance Matrix: (Units=1/GPa)
#
#
# Indices 1 2 3 4 5 6 
#
# 1 0.008791 0.000211 -0.003055 0.000000 0.002832 0.000000
# 2 0.000211 0.033624 -0.004759 0.000000 -0.004775 0.000000
# 3 -0.003055 -0.004759 0.011884 0.000000 0.007244 0.000000
# 4 0.000000 0.000000 0.000000 0.041961 0.000000 0.014923
# 5 0.002832 -0.004775 0.007244 0.000000 0.025273 0.000000
# 6 0.000000 0.000000 0.000000 0.014923 0.000000 0.046351
#
#
# Mechanical properties :
#
#
# Convention : Reuss Voigt Hill
#
# Bulk Modulus (GPa) = 25.58032 49.97289 37.77661
# Shear Modulus (GPa) = 25.49433 36.81861 31.15647
#
# Velocity S-wave (km/s) = 3.33802 4.01145 3.69013
# Velocity P-wave (km/s) = 5.10260 6.58001 5.88783
#
# Compressibility (1/GPa) = 0.03909255
#
# Stress axis : x y z
#
# Youngs Moduli (GPa) = 113.74700 29.74045 84.14733
#
# Poissons Ratio (x) = -0.00627 0.25706
# Poissons Ratio (y) = -0.02398 0.40049
# Poissons Ratio (z) = 0.34749 0.14155
#
# Static dielectric constant tensor:
#      x y z
#    x 1.892790 0.000000 -0.060750 
#    y 0.000000 1.856560 0.000000 
#    z -0.060750 0.000000 1.979930 
# 
# From -- ./inp_files/33843.got.cif
#   From: 2010.05.17/outbox.cif.g08.bks.cpg/sg13_17_cif.got.tgz:33843.got - 2010.06.03 16:44:36.
