data_PCOD9226076
_publ_section_title
;
Structure prediction by ZEFSAII (Michael W. Deem and Ramdas Pophale) SiO2 
 PCOD9226076
Probable space group: P 2/C
;
_chemical_formula_sum "Si O2"
_cell_formula_units_Z 30
_cell_length_a 10.822188
_cell_length_b 11.670439
_cell_length_c 16.180385
_cell_angle_alpha 90.000000
_cell_angle_beta 46.705130
_cell_angle_gamma 90.000000
_cell_volume 1487.385532
_symmetry_space_group_name_H-M "P 2/C"
_symmetry_group_IT_number 13
_symmetry_cell_setting 'monoclinic'
loop_
_space_group_symop_operation_xyz
x,y,z
-x,y,1/2-z
-x,-y,-z
x,-y,1/2+z
loop_
_atom_site_type_symbol
_atom_site_label
_atom_site_fract_x
_atom_site_fract_y
_atom_site_fract_z
Si Si1 0.676775 0.424006 0.079166
Si Si2 0.802360 0.235288 0.319737
Si Si3 0.866704 0.839451 0.080123
Si Si4 0.799699 0.089096 0.170170
Si Si5 0.990362 0.328575 0.848333
Si Si6 0.500000 0.242050 0.250000
Si Si7 0.882360 0.568616 0.658259
Si Si8 0.730011 0.332071 0.524722
O O1 0.533667 0.330083 0.160007
O O2 0.788333 0.427000 0.113341
O O3 0.619149 0.553417 0.087097
O O4 0.802172 0.375569 0.952733
O O5 0.758028 0.126409 0.283177
O O6 0.800968 0.346771 0.261882
O O7 0.708724 0.267105 0.447519
O O8 0.000000 0.217622 0.250000
O O9 0.728990 0.759328 0.098635
O O10 0.958375 0.768180 0.110147
O O11 0.792707 0.956105 0.151286
O O12 0.011838 0.870435 0.945080
O O13 0.663655 0.162550 0.181546
O O14 0.000000 0.289815 0.750000
O O15 0.106843 0.440030 0.812788
O O16 0.076524 0.615201 0.560366
#
# Coordination Sequence:
#
# PCOD9226076 Si02
#       8
#     4   4   4   4   4   2   4   4
#     4  11  19  34  60  88 117 166 187 241 319 370
#     4  10  17  32  56  93 115 147 194 253 306 351
#     4  11  20  38  58  89 113 154 221 256 292 341
#     4  11  23  37  61  84 117 167 206 250 294 365
#     4  11  19  32  58  92 123 143 196 268 306 342
#     4  12  22  42  60  84 130 166 200 238 312 400
#     4  10  15  30  56  89 121 143 184 248 311 351
#     4  10  17  32  59  86 120 138 198 259 299 351
#
# _framework density 20.169619000000001
#
# number of rings (size 3 to 8) (size 9 to 14) (size 15 to 20)
#    0.000    1.333    8.000    2.800    0.000    0.533 
#    0.000    1.333    0.000    1.600    0.000    0.000 
#    0.000    0.000    0.000    0.000    0.000    0.000 
#
# Total GULP energy -167447.712773 kJ/mol
# GULP energy per Si atom -5581.590426 kJ/mol
# Density = 2.012371 g / cm^3
# Si number density = 20.169619 Si / 1000 Ang^3
#
#
#
# Elastic Constant Matrix: (Units=GPa)
#
#
# Indices 1 2 3 4 5 6 
#
# 1 26.7823 17.5994 10.9192 0.0000 4.3136 0.0000
# 2 17.5994 164.0283 39.3271 0.0000 7.2540 0.0000
# 3 10.9192 39.3271 66.2995 0.0000 24.7236 0.0000
# 4 0.0000 0.0000 0.0000 9.4504 0.0000 3.1308
# 5 4.3136 7.2540 24.7236 0.0000 29.8683 0.0000
# 6 0.0000 0.0000 0.0000 3.1308 0.0000 10.9300
#
#
#
# Elastic Compliance Matrix: (Units=1/GPa)
#
#
# Indices 1 2 3 4 5 6 
#
# 1 0.041544 -0.003373 -0.004208 0.000000 -0.001697 0.000000
# 2 -0.003373 0.007518 -0.004925 0.000000 0.002738 0.000000
# 3 -0.004208 -0.004925 0.026073 0.000000 -0.019778 0.000000
# 4 0.000000 0.000000 0.000000 0.116909 0.000000 -0.033487
# 5 -0.001697 0.002738 -0.019778 0.000000 0.049432 0.000000
# 6 0.000000 0.000000 0.000000 -0.033487 0.000000 0.101084
#
#
# Mechanical properties :
#
#
# Convention : Reuss Voigt Hill
#
# Bulk Modulus (GPa) = 19.95141 43.64460 31.79801
# Shear Modulus (GPa) = 13.01133 22.66735 17.83934
#
# Velocity S-wave (km/s) = 2.54263 3.35600 2.97722
# Velocity P-wave (km/s) = 4.30502 6.05828 5.25528
#
# Compressibility (1/GPa) = 0.05012176
#
# Stress axis : x y z
#
# Youngs Moduli (GPa) = 24.07087 133.01082 38.35397
#
# Poissons Ratio (x) = 0.44870 0.16140
# Poissons Ratio (y) = 0.08120 0.18889
# Poissons Ratio (z) = 0.10130 0.65508
#
# Static dielectric constant tensor:
#      x y z
#    x 1.730510 0.000000 -0.006690 
#    y 0.000000 1.725230 0.000000 
#    z -0.006690 0.000000 1.755520 
# 
# From -- ./inp_files/50865.got.cif
#   From: 2010.05.17/outbox.cif.g08.bks.cpg/sg13_26_cif.got.tgz:50865.got - 2010.06.03 16:44:36.
