data_PCOD9226644
_publ_section_title
;
Structure prediction by ZEFSAII (Michael W. Deem and Ramdas Pophale) SiO2 
 PCOD9226644
Probable space group: P 2/C
;
_chemical_formula_sum "Si O2"
_cell_formula_units_Z 30
_cell_length_a 13.748610
_cell_length_b 8.554874
_cell_length_c 15.322025
_cell_angle_alpha 90.000000
_cell_angle_beta 58.328407
_cell_angle_gamma 90.000000
_cell_volume 1533.750228
_symmetry_space_group_name_H-M "P 2/C"
_symmetry_group_IT_number 13
_symmetry_cell_setting 'monoclinic'
loop_
_space_group_symop_operation_xyz
x,y,z
-x,y,1/2-z
-x,-y,-z
x,-y,1/2+z
loop_
_atom_site_type_symbol
_atom_site_label
_atom_site_fract_x
_atom_site_fract_y
_atom_site_fract_z
Si Si1 0.716714 0.841234 0.050086
Si Si2 0.407826 0.857311 0.904276
Si Si3 0.779612 0.736425 0.379655
Si Si4 0.330851 0.196436 0.252805
Si Si5 0.942222 0.943886 0.412634
Si Si6 0.000000 0.195278 0.250000
Si Si7 0.764189 0.369007 0.365926
Si Si8 0.813920 0.126756 0.671651
O O1 0.745213 0.772819 0.131497
O O2 0.611221 0.958569 0.102807
O O3 0.706363 0.727029 0.973119
O O4 0.826374 0.960754 0.990748
O O5 0.542284 0.832900 0.844314
O O6 0.353542 0.769413 0.844873
O O7 0.334692 0.808569 0.022807
O O8 0.887292 0.799051 0.385622
O O9 0.764414 0.551524 0.384204
O O10 0.801492 0.799319 0.272537
O O11 0.280291 0.322402 0.209367
O O12 0.249184 0.042907 0.292377
O O13 0.050188 0.881325 0.416996
O O14 0.007899 0.074717 0.325526
O O15 0.108455 0.302575 0.190550
#
# Coordination Sequence:
#
# PCOD9226644 Si02
#       8
#     4   4   4   4   4   2   4   4
#     4   9  21  36  57  85 111 147 203 242 281 336
#     4   9  21  40  63  89 110 150 201 249 284 342
#     4  11  23  35  56  86 124 156 187 232 303 351
#     4  10  20  40  66  85 112 150 203 246 287 334
#     4  10  17  36  56  79 111 153 195 243 279 337
#     4  10  18  34  58  78 112 150 204 236 280 330
#     4  11  23  36  55  87 123 157 185 239 290 359
#     4  11  19  35  59  83 110 152 197 244 286 337
#
# _framework density 19.559899999999999
#
# number of rings (size 3 to 8) (size 9 to 14) (size 15 to 20)
#    0.000    1.867    2.667    2.000    1.867    3.733 
#    0.000    0.667    0.000    3.200    0.000    0.000 
#    0.000    0.000    0.000    0.000    0.000    0.000 
#
# Total GULP energy -167050.967753 kJ/mol
# GULP energy per Si atom -5568.365592 kJ/mol
# Density = 1.951538 g / cm^3
# Si number density = 19.559900 Si / 1000 Ang^3
#
#
#
# Elastic Constant Matrix: (Units=GPa)
#
#
# Indices 1 2 3 4 5 6 
#
# 1 47.4079 25.0500 1.1879 0.0000 6.0623 0.0000
# 2 25.0500 65.1876 8.6908 0.0000 7.2087 0.0000
# 3 1.1879 8.6908 49.0205 0.0000 -3.0430 0.0000
# 4 0.0000 0.0000 0.0000 -1.3628 0.0000 2.1282
# 5 6.0623 7.2087 -3.0430 0.0000 20.6923 0.0000
# 6 0.0000 0.0000 0.0000 2.1282 0.0000 9.2674
#
#
#
# Elastic Compliance Matrix: (Units=1/GPa)
#
#
# Indices 1 2 3 4 5 6 
#
# 1 0.026889 -0.009973 0.000851 0.000000 -0.004278 0.000000
# 2 -0.009973 0.020168 -0.003622 0.000000 -0.004637 0.000000
# 3 0.000851 -0.003622 0.021278 0.000000 0.004142 0.000000
# 4 0.000000 0.000000 0.000000 -0.540104 0.000000 0.124032
# 5 -0.004278 -0.004637 0.004142 0.000000 0.051805 0.000000
# 6 0.000000 0.000000 0.000000 0.124032 0.000000 0.079423
#
#
# Mechanical properties :
#
#
# Convention : Reuss Voigt Hill
#
# Bulk Modulus (GPa) = 23.33849 25.71927 24.52888
# Shear Modulus (GPa) = -16.62398 14.16520 -1.22939
#
# Velocity S-wave (km/s) = -2.91847 2.69401 -0.79366
# Velocity P-wave (km/s) = 0.77530 4.78063 3.42458
#
# Compressibility (1/GPa) = 0.04284767
#
# Stress axis : x y z
#
# Youngs Moduli (GPa) = 37.18985 49.58253 46.99644
#
# Poissons Ratio (x) = 0.49449 -0.03999
# Poissons Ratio (y) = 0.37090 0.17021
# Poissons Ratio (z) = -0.03165 0.17958
#
# Static dielectric constant tensor:
#      x y z
#    x 1.704130 0.000000 0.029290 
#    y 0.000000 1.655600 0.000000 
#    z 0.029290 0.000000 1.773170 
# 
# From -- ./inp_files/50327.got.cif
#   From: 2010.05.17/outbox.cif.g08.bks.cpg/sg13_26_cif.got.tgz:50327.got - 2010.06.03 16:44:36.
