data_PCOD9226988
_publ_section_title
;
Structure prediction by ZEFSAII (Michael W. Deem and Ramdas Pophale) SiO2 
 PCOD9226988
Probable space group: P 2/C
;
_chemical_formula_sum "Si O2"
_cell_formula_units_Z 24
_cell_length_a 11.698564
_cell_length_b 7.367836
_cell_length_c 13.896028
_cell_angle_alpha 90.000000
_cell_angle_beta 45.449658
_cell_angle_gamma 90.000000
_cell_volume 853.551888
_symmetry_space_group_name_H-M "P 2/C"
_symmetry_group_IT_number 13
_symmetry_cell_setting 'monoclinic'
loop_
_space_group_symop_operation_xyz
x,y,z
-x,y,1/2-z
-x,-y,-z
x,-y,1/2+z
loop_
_atom_site_type_symbol
_atom_site_label
_atom_site_fract_x
_atom_site_fract_y
_atom_site_fract_z
Si Si1 0.000000 0.000000 0.000000
Si Si2 0.245537 0.870399 0.708881
Si Si3 0.650169 0.029954 0.557295
Si Si4 0.574054 0.671952 0.560958
Si Si5 0.872191 0.334006 0.515923
Si Si6 0.000000 0.398165 0.250000
Si Si7 0.401242 0.669885 0.178769
O O1 0.016661 0.769616 0.984210
O O2 0.859330 0.992612 0.166235
O O3 0.317103 0.976250 0.575259
O O4 0.395727 0.760257 0.661083
O O5 0.131763 0.725642 0.723636
O O6 0.794237 0.142112 0.519961
O O7 0.481289 0.137874 0.662621
O O8 0.657747 0.819401 0.579379
O O9 0.632948 0.657781 0.415005
O O10 0.549039 0.468083 0.609497
O O11 0.746300 0.393132 0.669924
O O12 0.912778 0.463419 0.400919
#
# Coordination Sequence:
#
# PCOD9226988 Si02
#       7
#     2   4   4   4   4   2   4
#     4  10  18  32  54  78 104 148 194 226 264 326
#     4   9  17  32  54  80 111 146 183 225 272 326
#     4  10  19  35  57  85 115 145 179 229 287 334
#     4  10  20  35  59  87 113 144 185 233 286 339
#     4  10  19  34  55  80 112 148 187 229 277 331
#     4   8  18  32  52  76 108 152 188 220 270 328
#     4  10  20  35  58  87 116 145 181 232 288 337
#
# _framework density 28.117801
#
# number of rings (size 3 to 8) (size 9 to 14) (size 15 to 20)
#    0.000    2.333    0.000    4.500    0.000    0.000 
#    0.000   10.000    0.000   10.000    0.000   15.167 
#    0.000    0.000    0.000    0.000    0.000    0.000 
#
# Total GULP energy -133680.530927 kJ/mol
# GULP energy per Si atom -5570.022122 kJ/mol
# Density = 2.805380 g / cm^3
# Si number density = 28.117801 Si / 1000 Ang^3
#
#
#
# Elastic Constant Matrix: (Units=GPa)
#
#
# Indices 1 2 3 4 5 6 
#
# 1 78.6347 14.6243 14.9207 0.0000 6.5659 0.0000
# 2 14.6243 95.9214 11.8459 0.0000 14.9131 0.0000
# 3 14.9207 11.8459 240.4930 0.0000 29.8013 0.0000
# 4 0.0000 0.0000 0.0000 31.8673 0.0000 0.4081
# 5 6.5659 14.9131 29.8013 0.0000 41.0567 0.0000
# 6 0.0000 0.0000 0.0000 0.4081 0.0000 26.7691
#
#
#
# Elastic Compliance Matrix: (Units=1/GPa)
#
#
# Indices 1 2 3 4 5 6 
#
# 1 0.013250 -0.001785 -0.000606 0.000000 -0.001030 0.000000
# 2 -0.001785 0.011290 0.000030 0.000000 -0.003837 0.000000
# 3 -0.000606 0.000030 0.004597 0.000000 -0.003251 0.000000
# 4 0.000000 0.000000 0.000000 0.031386 0.000000 -0.000479
# 5 -0.001030 -0.003837 -0.003251 0.000000 0.028275 0.000000
# 6 0.000000 0.000000 0.000000 -0.000479 0.000000 0.037364
#
#
# Mechanical properties :
#
#
# Convention : Reuss Voigt Hill
#
# Bulk Modulus (GPa) = 40.95878 55.31452 48.13665
# Shear Modulus (GPa) = 35.96518 44.84916 40.40717
#
# Velocity S-wave (km/s) = 3.58032 3.99813 3.79498
# Velocity P-wave (km/s) = 5.62939 6.40535 6.02987
#
# Compressibility (1/GPa) = 0.02441479
#
# Stress axis : x y z
#
# Youngs Moduli (GPa) = 75.47100 88.57211 217.52854
#
# Poissons Ratio (x) = 0.15810 0.13192
# Poissons Ratio (y) = 0.13472 -0.00656
# Poissons Ratio (z) = 0.04577 -0.00267
#
# Static dielectric constant tensor:
#      x y z
#    x 0.075710 0.000000 0.326400 
#    y 0.000000 2.135270 0.000000 
#    z 0.326400 0.000000 2.307430 
# 
# From -- ./inp_files/52920.got.cif
#   From: 2010.05.17/outbox.cif.g08.bks.cpg/sg13_27_cif.got.tgz:52920.got - 2010.06.03 16:44:36.
