data_PCOD9226635
_publ_section_title
;
Structure prediction by ZEFSAII (Michael W. Deem and Ramdas Pophale) SiO2 
 PCOD9226635
Probable space group: P 2/C
;
_chemical_formula_sum "Si O2"
_cell_formula_units_Z 30
_cell_length_a 8.460388
_cell_length_b 16.095032
_cell_length_c 11.630495
_cell_angle_alpha 90.000000
_cell_angle_beta 71.515611
_cell_angle_gamma 90.000000
_cell_volume 1502.022652
_symmetry_space_group_name_H-M "P 2/C"
_symmetry_group_IT_number 13
_symmetry_cell_setting 'monoclinic'
loop_
_space_group_symop_operation_xyz
x,y,z
-x,y,1/2-z
-x,-y,-z
x,-y,1/2+z
loop_
_atom_site_type_symbol
_atom_site_label
_atom_site_fract_x
_atom_site_fract_y
_atom_site_fract_z
Si Si1 0.187829 0.416154 0.591985
Si Si2 0.078467 0.818799 0.357221
Si Si3 0.205269 0.822149 0.881335
Si Si4 0.901195 0.997444 0.647814
Si Si5 0.804854 0.642495 0.170554
Si Si6 0.571098 0.322730 0.112417
Si Si7 0.000000 0.287411 0.250000
Si Si8 0.264015 0.394692 0.053924
O O1 0.257742 0.367868 0.686608
O O2 0.271680 0.377372 0.460846
O O3 0.234897 0.511363 0.601340
O O4 0.991782 0.396689 0.628440
O O5 0.188577 0.739639 0.360907
O O6 0.000000 0.802194 0.250000
O O7 0.929854 0.821220 0.484356
O O8 0.166220 0.908387 0.331201
O O9 0.218187 0.917762 0.838001
O O10 0.366066 0.772101 0.888897
O O11 0.126562 0.769497 0.794229
O O12 0.000000 0.987245 0.750000
O O13 0.000000 0.000000 0.500000
O O14 0.716513 0.597805 0.087163
O O15 0.500000 0.350161 0.250000
O O16 0.423055 0.344813 0.061287
O O17 0.895790 0.343360 0.363527
#
# Coordination Sequence:
#
# PCOD9226635 Si02
#       8
#     4   4   4   4   4   4   2   4
#     4  11  24  43  60  90 125 162 218 270 316 373
#     4  10  17  35  60  96 122 150 204 255 322 366
#     4  11  20  38  61  87 126 155 205 260 315 378
#     4   9  19  31  60  98 123 155 200 263 316 387
#     4  11  21  40  68  90 119 168 209 275 318 364
#     4  12  25  41  59  88 129 170 202 259 326 380
#     4  12  20  38  60  92 116 158 214 268 306 376
#     4  12  26  38  62  90 122 172 217 263 318 384
#
# _framework density 19.973065999999999
#
# number of rings (size 3 to 8) (size 9 to 14) (size 15 to 20)
#    0.000    1.067    6.000    1.600    1.867    0.533 
#    0.000    0.000    0.000    0.800    3.467    0.000 
#    0.000    0.000    0.000    0.000    0.000    0.000 
#
# Total GULP energy -167250.745377 kJ/mol
# GULP energy per Si atom -5575.024846 kJ/mol
# Density = 1.992761 g / cm^3
# Si number density = 19.973066 Si / 1000 Ang^3
#
#
#
# Elastic Constant Matrix: (Units=GPa)
#
#
# Indices 1 2 3 4 5 6 
#
# 1 54.2089 33.7881 9.2174 0.0000 10.2409 0.0000
# 2 33.7881 132.9320 10.4401 0.0000 -5.6981 0.0000
# 3 9.2174 10.4401 96.3844 0.0000 10.6193 0.0000
# 4 0.0000 0.0000 0.0000 28.6849 0.0000 8.9886
# 5 10.2409 -5.6981 10.6193 0.0000 25.5936 0.0000
# 6 0.0000 0.0000 0.0000 8.9886 0.0000 20.5401
#
#
#
# Elastic Compliance Matrix: (Units=1/GPa)
#
#
# Indices 1 2 3 4 5 6 
#
# 1 0.024871 -0.006774 -0.000400 0.000000 -0.011294 0.000000
# 2 -0.006774 0.009545 -0.000963 0.000000 0.005235 0.000000
# 3 -0.000400 -0.000963 0.011028 0.000000 -0.004630 0.000000
# 4 0.000000 0.000000 0.000000 0.040402 0.000000 -0.017680
# 5 -0.011294 0.005235 -0.004630 0.000000 0.046678 0.000000
# 6 0.000000 0.000000 0.000000 -0.017680 0.000000 0.056423
#
#
# Mechanical properties :
#
#
# Convention : Reuss Voigt Hill
#
# Bulk Modulus (GPa) = 34.28349 43.37960 38.83155
# Shear Modulus (GPa) = 23.26193 30.30238 26.78215
#
# Velocity S-wave (km/s) = 3.41642 3.89930 3.66582
# Velocity P-wave (km/s) = 5.72405 6.48374 6.11570
#
# Compressibility (1/GPa) = 0.02916856
#
# Stress axis : x y z
#
# Youngs Moduli (GPa) = 40.20720 104.77220 90.68003
#
# Poissons Ratio (x) = 0.70976 0.03631
# Poissons Ratio (y) = 0.27238 0.08730
# Poissons Ratio (z) = 0.01610 0.10087
#
# Static dielectric constant tensor:
#      x y z
#    x 1.725320 0.000000 0.008240 
#    y 0.000000 1.719810 0.000000 
#    z 0.008240 0.000000 1.752650 
# 
# From -- ./inp_files/30367.got.cif
#   From: 2010.05.17/outbox.cif.g08.bks.cpg/sg13_16_cif.got.tgz:30367.got - 2010.06.03 16:44:36.
