data_PCOD9226415
_publ_section_title
;
Structure prediction by ZEFSAII (Michael W. Deem and Ramdas Pophale) SiO2 
 PCOD9226415
Probable space group: P 2/C
;
_chemical_formula_sum "Si O2"
_cell_formula_units_Z 28
_cell_length_a 21.709126
_cell_length_b 5.777325
_cell_length_c 18.054120
_cell_angle_alpha 90.000000
_cell_angle_beta 149.691416
_cell_angle_gamma 90.000000
_cell_volume 1142.725030
_symmetry_space_group_name_H-M "P 2/C"
_symmetry_group_IT_number 13
_symmetry_cell_setting 'monoclinic'
loop_
_space_group_symop_operation_xyz
x,y,z
-x,y,1/2-z
-x,-y,-z
x,-y,1/2+z
loop_
_atom_site_type_symbol
_atom_site_label
_atom_site_fract_x
_atom_site_fract_y
_atom_site_fract_z
Si Si1 0.118003 0.577195 0.320713
Si Si2 0.133249 0.370594 0.661565
Si Si3 0.841789 0.886501 0.835786
Si Si4 0.406314 0.951117 0.834117
Si Si5 0.583400 0.408309 0.520705
Si Si6 0.527982 0.241083 0.853101
Si Si7 0.226550 0.927484 0.911214
O O1 0.097327 0.600885 0.210428
O O2 0.184163 0.324208 0.399418
O O3 0.000000 0.566474 0.250000
O O4 0.178145 0.832760 0.397318
O O5 0.110332 0.623909 0.603170
O O6 0.093596 0.133805 0.579165
O O7 0.283078 0.331751 0.815859
O O8 0.720736 0.885817 0.762298
O O9 0.813761 0.918955 0.718177
O O10 0.485615 0.751989 0.877953
O O11 0.413801 0.157429 0.783085
O O12 0.500000 0.000000 0.000000
O O13 0.500000 0.500000 0.500000
O O14 0.610062 0.614515 0.493824
O O15 0.500000 0.375736 0.750000
O O16 0.626947 0.052471 0.930524
#
# Coordination Sequence:
#
# PCOD9226415 Si02
#       7
#     4   4   4   4   4   4   4
#     4  10  19  32  55  78 106 144 188 236 302 340
#     4  10  17  28  47  76 107 131 173 233 284 314
#     4  10  17  28  50  76  99 139 177 226 278 305
#     4  12  18  31  54  75 103 151 198 227 270 327
#     4  12  18  32  54  75 106 152 188 232 274 330
#     4  12  25  36  50  81 120 165 189 222 281 350
#     4  10  19  36  51  76 116 145 180 244 282 334
#
# _framework density 24.502829999999999
#
# number of rings (size 3 to 8) (size 9 to 14) (size 15 to 20)
#    0.000    1.143    8.571    1.286    0.000    0.571 
#    0.000    0.000    0.000    0.000    0.000    0.000 
#    0.000   43.429    0.000    0.000    0.000    0.000 
#
# Total GULP energy -155944.845132 kJ/mol
# GULP energy per Si atom -5569.458755 kJ/mol
# Density = 2.444706 g / cm^3
# Si number density = 24.502830 Si / 1000 Ang^3
#
#
#
# Elastic Constant Matrix: (Units=GPa)
#
#
# Indices 1 2 3 4 5 6 
#
# 1 131.9550 53.8129 24.2502 0.0000 33.0120 0.0000
# 2 53.8129 198.7115 31.3105 0.0000 34.8429 0.0000
# 3 24.2502 31.3105 27.6979 0.0000 13.3533 0.0000
# 4 0.0000 0.0000 0.0000 29.7773 0.0000 21.0525
# 5 33.0120 34.8429 13.3533 0.0000 35.8170 0.0000
# 6 0.0000 0.0000 0.0000 21.0525 0.0000 40.5763
#
#
#
# Elastic Compliance Matrix: (Units=1/GPa)
#
#
# Indices 1 2 3 4 5 6 
#
# 1 0.010607 -0.000853 -0.004888 0.000000 -0.007124 0.000000
# 2 -0.000853 0.006733 -0.004981 0.000000 -0.003907 0.000000
# 3 -0.004888 -0.004981 0.050601 0.000000 -0.009515 0.000000
# 4 0.000000 0.000000 0.000000 0.053038 0.000000 -0.027518
# 5 -0.007124 -0.003907 -0.009515 0.000000 0.041834 0.000000
# 6 0.000000 0.000000 0.000000 -0.027518 0.000000 0.038922
#
#
# Mechanical properties :
#
#
# Convention : Reuss Voigt Hill
#
# Bulk Modulus (GPa) = 21.50660 64.12349 42.81505
# Shear Modulus (GPa) = 20.94878 37.83351 29.39114
#
# Velocity S-wave (km/s) = 2.92713 3.93370 3.46714
# Velocity P-wave (km/s) = 4.49671 6.84534 5.79133
#
# Compressibility (1/GPa) = 0.04649735
#
# Stress axis : x y z
#
# Youngs Moduli (GPa) = 94.27982 148.51419 19.76251
#
# Poissons Ratio (x) = 0.12670 0.09659
# Poissons Ratio (y) = 0.08043 0.09844
# Poissons Ratio (z) = 0.46080 0.73977
#
# Static dielectric constant tensor:
#      x y z
#    x 1.933810 0.000000 0.013210 
#    y 0.000000 3.936150 0.000000 
#    z 0.013210 0.000000 3.454740 
# 
# From -- ./inp_files/81277.got.cif
#   From: 2010.05.17/outbox.cif.g08.bks.cpg/sg13_41_cif.got.tgz:81277.got - 2010.06.03 16:44:36.
