data_PCOD9226281
_publ_section_title
;
Structure prediction by ZEFSAII (Michael W. Deem and Ramdas Pophale) SiO2 
 PCOD9226281
Probable space group: P 2/C
;
_chemical_formula_sum "Si O2"
_cell_formula_units_Z 24
_cell_length_a 20.936213
_cell_length_b 13.340593
_cell_length_c 10.880662
_cell_angle_alpha 90.000000
_cell_angle_beta 155.697653
_cell_angle_gamma 90.000000
_cell_volume 1250.699493
_symmetry_space_group_name_H-M "P 2/C"
_symmetry_group_IT_number 13
_symmetry_cell_setting 'monoclinic'
loop_
_space_group_symop_operation_xyz
x,y,z
-x,y,1/2-z
-x,-y,-z
x,-y,1/2+z
loop_
_atom_site_type_symbol
_atom_site_label
_atom_site_fract_x
_atom_site_fract_y
_atom_site_fract_z
Si Si1 0.290209 0.678108 0.693605
Si Si2 0.460279 0.740007 0.546993
Si Si3 0.400899 0.479574 0.950370
Si Si4 0.000000 0.815041 0.250000
Si Si5 0.779096 0.057374 0.210270
Si Si6 0.663957 0.947468 0.253073
Si Si7 0.500000 0.788676 0.250000
O O1 0.371915 0.700043 0.707216
O O2 0.139925 0.745249 0.448954
O O3 0.268837 0.563735 0.700384
O O4 0.430960 0.718485 0.024921
O O5 0.500000 0.782020 0.750000
O O6 0.359783 0.637954 0.376771
O O7 0.375656 0.829626 0.328119
O O8 0.500000 0.495166 0.250000
O O9 0.500000 0.500000 0.000000
O O10 0.068814 0.884768 0.477904
O O11 0.729682 0.984600 0.236461
O O12 0.776858 0.022602 0.064670
O O13 0.640960 0.139080 0.964496
O O14 0.500000 0.000000 0.000000
#
# Coordination Sequence:
#
# PCOD9226281 Si02
#       7
#     4   4   4   2   4   4   2
#     4  10  18  36  60  86 115 149 193 237 293 346
#     4  10  20  34  59  93 117 143 194 260 295 332
#     4   9  18  31  57  89 115 142 190 247 295 332
#     4  10  24  36  56  86 124 160 190 234 290 370
#     4  11  22  36  56  86 113 154 199 241 291 345
#     4  12  20  35  59  84 114 151 199 249 288 334
#     4  10  16  32  58  82 104 142 204 242 266 332
#
# _framework density 19.189263
#
# number of rings (size 3 to 8) (size 9 to 14) (size 15 to 20)
#    0.000    1.667    4.167    2.000    0.000    0.667 
#    0.000    0.000    0.000   17.000    0.000    0.000 
#    0.000    0.000    0.000    0.000    0.000    0.000 
#
# Total GULP energy -133602.974586 kJ/mol
# GULP energy per Si atom -5566.790608 kJ/mol
# Density = 1.914559 g / cm^3
# Si number density = 19.189263 Si / 1000 Ang^3
#
#
#
# Elastic Constant Matrix: (Units=GPa)
#
#
# Indices 1 2 3 4 5 6 
#
# 1 89.2439 37.2660 36.2760 0.0000 -28.6061 0.0000
# 2 37.2660 124.2883 44.9805 0.0000 -2.9320 0.0000
# 3 36.2760 44.9805 100.2681 0.0000 -14.0497 0.0000
# 4 0.0000 0.0000 0.0000 26.6830 0.0000 1.4704
# 5 -28.6061 -2.9320 -14.0497 0.0000 32.9356 0.0000
# 6 0.0000 0.0000 0.0000 1.4704 0.0000 24.8178
#
#
#
# Elastic Compliance Matrix: (Units=1/GPa)
#
#
# Indices 1 2 3 4 5 6 
#
# 1 0.018902 -0.004291 -0.002836 0.000000 0.014826 0.000000
# 2 -0.004291 0.010613 -0.003827 0.000000 -0.004415 0.000000
# 3 -0.002836 -0.003827 0.013107 0.000000 0.002787 0.000000
# 4 0.000000 0.000000 0.000000 0.037600 0.000000 -0.002228
# 5 0.014826 -0.004415 0.002787 0.000000 0.044035 0.000000
# 6 0.000000 0.000000 0.000000 -0.002228 0.000000 0.040426
#
#
# Mechanical properties :
#
#
# Convention : Reuss Voigt Hill
#
# Bulk Modulus (GPa) = 48.27910 61.20504 54.74207
# Shear Modulus (GPa) = 25.84022 29.90582 27.87302
#
# Velocity S-wave (km/s) = 3.67358 3.95202 3.81534
# Velocity P-wave (km/s) = 6.57325 7.26563 6.92810
#
# Compressibility (1/GPa) = 0.02071289
#
# Stress axis : x y z
#
# Youngs Moduli (GPa) = 52.90372 94.21976 76.29627
#
# Poissons Ratio (x) = 0.40434 0.21638
# Poissons Ratio (y) = 0.22703 0.29201
# Poissons Ratio (z) = 0.15004 0.36061
#
# Static dielectric constant tensor:
#      x y z
#    x 1.816170 0.000000 -0.045170 
#    y 0.000000 1.732520 0.000000 
#    z -0.045170 0.000000 1.677370 
# 
# From -- ./inp_files/41916.got.cif
#   From: 2010.05.17/outbox.cif.g08.bks.cpg/sg13_21_cif.got.tgz:41916.got - 2010.06.03 16:44:36.
