data_PCOD9226205
_publ_section_title
;
Structure prediction by ZEFSAII (Michael W. Deem and Ramdas Pophale) SiO2 
 PCOD9226205
Probable space group: P 2/C
;
_chemical_formula_sum "Si O2"
_cell_formula_units_Z 28
_cell_length_a 5.428550
_cell_length_b 32.837811
_cell_length_c 8.307749
_cell_angle_alpha 90.000000
_cell_angle_beta 120.458314
_cell_angle_gamma 90.000000
_cell_volume 1276.579203
_symmetry_space_group_name_H-M "P 2/C"
_symmetry_group_IT_number 13
_symmetry_cell_setting 'monoclinic'
loop_
_space_group_symop_operation_xyz
x,y,z
-x,y,1/2-z
-x,-y,-z
x,-y,1/2+z
loop_
_atom_site_type_symbol
_atom_site_label
_atom_site_fract_x
_atom_site_fract_y
_atom_site_fract_z
Si Si1 0.924603 0.047389 0.466615
Si Si2 0.347588 0.346789 0.530606
Si Si3 0.423063 0.918987 0.968823
Si Si4 0.655233 0.261235 0.125607
Si Si5 0.347022 0.172046 0.372609
Si Si6 0.721153 0.525713 0.960969
Si Si7 0.845321 0.382065 0.536934
O O1 0.750705 0.063812 0.249050
O O2 0.724564 0.059468 0.547815
O O3 0.225974 0.069356 0.551479
O O4 0.000000 0.000000 0.500000
O O5 0.500000 0.357399 0.750000
O O6 0.399290 0.299692 0.505774
O O7 0.516027 0.370318 0.447319
O O8 0.023752 0.361577 0.452029
O O9 0.450631 0.870424 0.978963
O O10 0.500000 0.266266 0.250000
O O11 0.575647 0.216447 0.031261
O O12 0.000000 0.260528 0.250000
O O13 0.500000 0.172750 0.250000
O O14 0.000000 0.169166 0.250000
O O15 0.500000 0.536777 0.750000
O O16 0.500000 0.500000 0.000000
O O17 0.851880 0.569263 0.050251
O O18 0.000000 0.500000 0.000000
O O19 0.000000 0.365577 0.750000
#
# Coordination Sequence:
#
# PCOD9226205 Si02
#       7
#     4   4   4   4   4   4   4
#     4  10  18  27  44  69  91 125 161 204 255 307
#     4  10  21  38  58  84 117 155 191 232 301 363
#     4  10  17  30  45  66  98 123 167 210 257 316
#     4  10  21  33  55  86 113 140 185 242 283 338
#     4  10  16  30  49  72 100 128 166 219 277 325
#     4  12  25  42  64  92 124 164 210 258 307 360
#     4  10  21  38  61  85 117 158 200 245 293 357
#
# _framework density 21.933617000000002
#
# number of rings (size 3 to 8) (size 9 to 14) (size 15 to 20)
#    0.000    1.714    2.857    3.429    0.000    2.857 
#    0.000    0.000    0.000    0.000   11.143    0.000 
#    0.000    0.000    0.000    0.000    0.000    0.000 
#
# Total GULP energy -156023.658979 kJ/mol
# GULP energy per Si atom -5572.273535 kJ/mol
# Density = 2.188370 g / cm^3
# Si number density = 21.933617 Si / 1000 Ang^3
#
#
#
# Elastic Constant Matrix: (Units=GPa)
#
#
# Indices 1 2 3 4 5 6 
#
# 1 238.6872 70.2622 16.4310 0.0000 -3.9365 0.0000
# 2 70.2622 169.8487 -12.6578 0.0000 -9.8639 0.0000
# 3 16.4310 -12.6578 46.6367 0.0000 3.9284 0.0000
# 4 0.0000 0.0000 0.0000 -40.3940 0.0000 -4.3105
# 5 -3.9365 -9.8639 3.9284 0.0000 22.0263 0.0000
# 6 0.0000 0.0000 0.0000 -4.3105 0.0000 44.0131
#
#
#
# Elastic Compliance Matrix: (Units=1/GPa)
#
#
# Indices 1 2 3 4 5 6 
#
# 1 0.005019 -0.002236 -0.002402 0.000000 0.000324 0.000000
# 2 -0.002236 0.007137 0.002527 0.000000 0.002346 0.000000
# 3 -0.002402 0.002527 0.023265 0.000000 -0.003447 0.000000
# 4 0.000000 0.000000 0.000000 -0.024500 0.000000 -0.002399
# 5 0.000324 0.002346 -0.003447 0.000000 0.047123 0.000000
# 6 0.000000 0.000000 0.000000 -0.002399 0.000000 0.022486
#
#
# Mechanical properties :
#
#
# Convention : Reuss Voigt Hill
#
# Bulk Modulus (GPa) = 32.05289 67.02705 49.53997
# Shear Modulus (GPa) = 52.54765 30.53823 41.54294
#
# Velocity S-wave (km/s) = 4.89996 3.73540 4.35677
# Velocity P-wave (km/s) = 6.83067 7.01639 6.92415
#
# Compressibility (1/GPa) = 0.03119844
#
# Stress axis : x y z
#
# Youngs Moduli (GPa) = 199.25873 140.10938 42.98293
#
# Poissons Ratio (x) = 0.31333 0.10326
# Poissons Ratio (y) = 0.44560 -0.10864
# Poissons Ratio (z) = 0.47870 -0.35412
#
# Static dielectric constant tensor:
#      x y z
#    x 1.884230 0.000000 -0.028190 
#    y 0.000000 1.853000 0.000000 
#    z -0.028190 0.000000 1.779820 
# 
# From -- ./inp_files/10358.got.cif
#   From: 2010.05.17/outbox.cif.g08.bks.cpg/sg13_6_cif.got.tgz:10358.got - 2010.06.03 16:44:36.
