data_PCOD9226381
_publ_section_title
;
Structure prediction by ZEFSAII (Michael W. Deem and Ramdas Pophale) SiO2 
 PCOD9226381
Probable space group: P 2/C
;
_chemical_formula_sum "Si O2"
_cell_formula_units_Z 28
_cell_length_a 12.486361
_cell_length_b 14.149359
_cell_length_c 8.891865
_cell_angle_alpha 90.000000
_cell_angle_beta 109.613675
_cell_angle_gamma 90.000000
_cell_volume 1479.810072
_symmetry_space_group_name_H-M "P 2/C"
_symmetry_group_IT_number 13
_symmetry_cell_setting 'monoclinic'
loop_
_space_group_symop_operation_xyz
x,y,z
-x,y,1/2-z
-x,-y,-z
x,-y,1/2+z
loop_
_atom_site_type_symbol
_atom_site_label
_atom_site_fract_x
_atom_site_fract_y
_atom_site_fract_z
Si Si1 0.769858 0.457128 0.020749
Si Si2 0.583553 0.671442 0.571401
Si Si3 0.687802 0.998719 0.317655
Si Si4 0.329988 0.663618 0.545896
Si Si5 0.081404 0.539131 0.168934
Si Si6 0.285118 0.866665 0.418667
Si Si7 0.558823 0.118378 0.004550
O O1 0.656951 0.404520 0.017849
O O2 0.859875 0.457871 0.200903
O O3 0.743080 0.568527 0.989985
O O4 0.819058 0.416921 0.886995
O O5 0.450157 0.646992 0.517787
O O6 0.632171 0.681835 0.763899
O O7 0.595630 0.773839 0.503678
O O8 0.754609 0.920935 0.250203
O O9 0.603282 0.939462 0.383785
O O10 0.754089 0.068717 0.460397
O O11 0.619235 0.068497 0.174388
O O12 0.269978 0.756043 0.446560
O O13 0.000000 0.592551 0.250000
O O14 0.000000 0.500000 0.000000
O O15 0.423785 0.877899 0.470347
#
# Coordination Sequence:
#
# PCOD9226381 Si02
#       7
#     4   4   4   4   4   4   4
#     4  11  19  36  55  72  99 138 163 198 253 299
#     4  10  20  32  46  71 105 142 177 203 233 287
#     4  10  17  26  42  60  84 128 178 217 252 270
#     4  10  20  32  46  71 105 142 177 204 232 287
#     4   9  20  36  56  76  92 118 162 214 263 304
#     4  10  17  27  42  62  90 128 175 216 240 274
#     4  10  17  27  42  62  90 128 175 215 240 277
#
# _framework density 18.921347999999998
#
# number of rings (size 3 to 8) (size 9 to 14) (size 15 to 20)
#    0.000    2.000    2.857    3.857    0.000    1.143 
#    0.000    1.429    0.000    0.000    0.000    0.000 
#    0.000    0.000    0.000  324.000    0.000   36.000 
#
# Total GULP energy -155981.923939 kJ/mol
# GULP energy per Si atom -5570.782998 kJ/mol
# Density = 1.887828 g / cm^3
# Si number density = 18.921348 Si / 1000 Ang^3
#
#
#
# Elastic Constant Matrix: (Units=GPa)
#
#
# Indices 1 2 3 4 5 6 
#
# 1 57.6308 24.3509 20.6075 0.0000 -21.8170 0.0000
# 2 24.3509 106.0546 14.7106 0.0000 -7.6218 0.0000
# 3 20.6075 14.7106 67.2799 0.0000 -21.2712 0.0000
# 4 0.0000 0.0000 0.0000 18.2253 0.0000 -5.9253
# 5 -21.8170 -7.6218 -21.2712 0.0000 29.2476 0.0000
# 6 0.0000 0.0000 0.0000 -5.9253 0.0000 1.0664
#
#
#
# Elastic Compliance Matrix: (Units=1/GPa)
#
#
# Indices 1 2 3 4 5 6 
#
# 1 0.026440 -0.004601 -0.001605 0.000000 0.017357 0.000000
# 2 -0.004601 0.010562 -0.001448 0.000000 -0.001733 0.000000
# 3 -0.001605 -0.001448 0.019704 0.000000 0.012756 0.000000
# 4 0.000000 0.000000 0.000000 -0.068031 0.000000 -0.378018
# 5 0.017357 -0.001733 0.012756 0.000000 0.055964 0.000000
# 6 0.000000 0.000000 0.000000 -0.378018 0.000000 -1.162714
#
#
# Mechanical properties :
#
#
# Convention : Reuss Voigt Hill
#
# Bulk Modulus (GPa) = 24.15522 38.92257 31.53889
# Shear Modulus (GPa) = -4.59151 21.12762 8.26806
#
# Velocity S-wave (km/s) = -1.55945 3.34518 2.09265
# Velocity P-wave (km/s) = 3.09052 5.96118 4.74800
#
# Compressibility (1/GPa) = 0.04139891
#
# Stress axis : x y z
#
# Youngs Moduli (GPa) = 37.82081 94.68071 50.75005
#
# Poissons Ratio (x) = 0.43562 0.08146
# Poissons Ratio (y) = 0.17401 0.07348
# Poissons Ratio (z) = 0.06071 0.13709
#
# Static dielectric constant tensor:
#      x y z
#    x 1.686570 0.000000 -0.007470 
#    y 0.000000 1.673080 0.000000 
#    z -0.007470 0.000000 1.736290 
# 
# From -- ./inp_files/16547.got.cif
#   From: 2010.05.17/outbox.cif.g08.bks.cpg/sg13_9_cif.got.tgz:16547.got - 2010.06.03 16:44:36.
