data_PCOD9226628
_publ_section_title
;
Structure prediction by ZEFSAII (Michael W. Deem and Ramdas Pophale) SiO2 
 PCOD9226628
Probable space group: P 2/C
;
_chemical_formula_sum "Si O2"
_cell_formula_units_Z 24
_cell_length_a 11.042243
_cell_length_b 11.607092
_cell_length_c 13.583362
_cell_angle_alpha 90.000000
_cell_angle_beta 144.354782
_cell_angle_gamma 90.000000
_cell_volume 1014.567819
_symmetry_space_group_name_H-M "P 2/C"
_symmetry_group_IT_number 13
_symmetry_cell_setting 'monoclinic'
loop_
_space_group_symop_operation_xyz
x,y,z
-x,y,1/2-z
-x,-y,-z
x,-y,1/2+z
loop_
_atom_site_type_symbol
_atom_site_label
_atom_site_fract_x
_atom_site_fract_y
_atom_site_fract_z
Si Si1 0.515455 0.264024 0.144917
Si Si2 0.918265 0.042131 0.048808
Si Si3 0.691692 0.947432 0.067812
Si Si4 0.147904 0.489916 0.767598
Si Si5 0.963091 0.275805 0.342507
Si Si6 0.495825 0.542918 0.360148
O O1 0.500000 0.231454 0.250000
O O2 0.739800 0.242714 0.242774
O O3 0.490975 0.402530 0.129567
O O4 0.348992 0.189124 0.973784
O O5 0.887465 0.179100 0.016541
O O6 0.720154 0.993645 0.975288
O O7 0.110542 0.996121 0.243125
O O8 0.000000 0.000000 0.000000
O O9 0.500000 0.000000 0.000000
O O10 0.014927 0.587887 0.623537
O O11 0.287782 0.423524 0.782099
O O12 0.000000 0.429815 0.750000
O O13 0.309661 0.567655 0.939986
O O14 0.000000 0.258028 0.250000
O O15 0.500000 0.581204 0.250000
#
# Coordination Sequence:
#
# PCOD9226628 Si02
#       6
#     4   4   4   4   4   4
#     4  10  19  34  58  80 106 145 180 223 275 326
#     4  11  22  35  54  80 109 144 184 228 265 319
#     4  11  21  35  55  79 109 146 184 224 270 322
#     4   9  19  34  60  79 107 145 175 223 271 327
#     4  10  17  35  57  75 106 143 183 215 270 322
#     4   9  19  36  58  83 109 137 180 225 273 325
#
# _framework density 23.655390000000001
#
# number of rings (size 3 to 8) (size 9 to 14) (size 15 to 20)
#    0.000    2.000    3.333    1.000    0.000    0.667 
#    3.000    0.000   22.000    1.000    0.000    0.000 
#    0.000    0.000    0.000    0.000    0.000    0.000 
#
# Total GULP energy -133667.307127 kJ/mol
# GULP energy per Si atom -5569.471130 kJ/mol
# Density = 2.360155 g / cm^3
# Si number density = 23.655390 Si / 1000 Ang^3
#
#
#
# Elastic Constant Matrix: (Units=GPa)
#
#
# Indices 1 2 3 4 5 6 
#
# 1 255.5287 12.0680 38.3544 0.0000 5.6362 0.0000
# 2 12.0680 62.8959 -0.7638 0.0000 0.7927 0.0000
# 3 38.3544 -0.7638 42.4187 0.0000 -4.0197 0.0000
# 4 0.0000 0.0000 0.0000 22.6019 0.0000 -1.0409
# 5 5.6362 0.7927 -4.0197 0.0000 38.3877 0.0000
# 6 0.0000 0.0000 0.0000 -1.0409 0.0000 14.4449
#
#
#
# Elastic Compliance Matrix: (Units=1/GPa)
#
#
# Indices 1 2 3 4 5 6 
#
# 1 0.004628 -0.000926 -0.004307 0.000000 -0.001111 0.000000
# 2 -0.000926 0.016092 0.001120 0.000000 -0.000079 0.000000
# 3 -0.004307 0.001120 0.027823 0.000000 0.003523 0.000000
# 4 0.000000 0.000000 0.000000 0.044391 0.000000 0.003199
# 5 -0.001111 -0.000079 0.003523 0.000000 0.026584 0.000000
# 6 0.000000 0.000000 0.000000 0.003199 0.000000 0.069459
#
#
# Mechanical properties :
#
#
# Convention : Reuss Voigt Hill
#
# Bulk Modulus (GPa) = 24.80410 51.12896 37.96653
# Shear Modulus (GPa) = 23.73701 35.83253 29.78477
#
# Velocity S-wave (km/s) = 3.17117 3.89623 3.55225
# Velocity P-wave (km/s) = 4.89048 6.47316 5.73666
#
# Compressibility (1/GPa) = 0.04031591
#
# Stress axis : x y z
#
# Youngs Moduli (GPa) = 216.06932 62.14416 35.94204
#
# Poissons Ratio (x) = 0.05756 0.15479
# Poissons Ratio (y) = 0.20015 -0.04025
# Poissons Ratio (z) = 0.93055 -0.06959
#
# Static dielectric constant tensor:
#      x y z
#    x 1.912090 0.000000 -0.000990 
#    y 0.000000 1.906470 0.000000 
#    z -0.000990 0.000000 1.992110 
# 
# From -- ./inp_files/51504.got.cif
#   From: 2010.05.17/outbox.cif.g08.bks.cpg/sg13_26_cif.got.tgz:51504.got - 2010.06.03 16:44:36.
