data_PCOD9226660
_publ_section_title
;
Structure prediction by ZEFSAII (Michael W. Deem and Ramdas Pophale) SiO2 
 PCOD9226660
Probable space group: P 2/C
;
_chemical_formula_sum "Si O2"
_cell_formula_units_Z 26
_cell_length_a 13.230070
_cell_length_b 9.094527
_cell_length_c 19.546233
_cell_angle_alpha 90.000000
_cell_angle_beta 33.093211
_cell_angle_gamma 90.000000
_cell_volume 1284.103758
_symmetry_space_group_name_H-M "P 2/C"
_symmetry_group_IT_number 13
_symmetry_cell_setting 'monoclinic'
loop_
_space_group_symop_operation_xyz
x,y,z
-x,y,1/2-z
-x,-y,-z
x,-y,1/2+z
loop_
_atom_site_type_symbol
_atom_site_label
_atom_site_fract_x
_atom_site_fract_y
_atom_site_fract_z
Si Si1 0.427155 0.922541 0.472362
Si Si2 0.500000 0.264977 0.250000
Si Si3 0.289019 0.624409 0.072065
Si Si4 0.226958 0.767187 0.252648
Si Si5 0.672110 0.434161 0.279965
Si Si6 0.813621 0.853223 0.479449
Si Si7 0.821155 0.689651 0.819234
O O1 0.602431 0.875358 0.326796
O O2 0.341441 0.776014 0.552175
O O3 0.500000 0.000000 0.500000
O O4 0.275101 0.018274 0.517643
O O5 0.597334 0.365977 0.252519
O O6 0.334692 0.169336 0.376143
O O7 0.255900 0.730867 0.155383
O O8 0.203242 0.705389 0.056211
O O9 0.190662 0.474953 0.146686
O O10 0.496637 0.578882 0.931633
O O11 0.254084 0.601787 0.268555
O O12 0.030692 0.848497 0.375982
O O13 0.814105 0.328505 0.241172
O O14 0.000000 0.763778 0.750000
#
# Coordination Sequence:
#
# PCOD9226660 Si02
#       7
#     4   2   4   4   4   4   4
#     4  12  23  37  58  96 134 160 208 263 326 390
#     4  10  24  46  64  88 130 172 224 258 310 378
#     4  10  17  37  61  96 127 151 202 270 316 367
#     4  11  20  38  65  95 126 162 215 263 330 370
#     4  10  19  40  66  95 129 167 210 268 310 378
#     4  11  24  39  65  89 128 175 207 260 321 385
#     4  11  21  34  62  98 127 155 203 269 328 370
#
# _framework density 20.247585000000001
#
# number of rings (size 3 to 8) (size 9 to 14) (size 15 to 20)
#    0.000    1.231    4.615    4.154    2.154    0.615 
#    0.000    1.538    0.000    0.000    0.000    0.000 
#    0.000    0.000    0.000    0.000    0.000    0.000 
#
# Total GULP energy -144852.589128 kJ/mol
# GULP energy per Si atom -5571.253428 kJ/mol
# Density = 2.020150 g / cm^3
# Si number density = 20.247585 Si / 1000 Ang^3
#
#
#
# Elastic Constant Matrix: (Units=GPa)
#
#
# Indices 1 2 3 4 5 6 
#
# 1 94.5200 43.5629 40.9930 0.0000 -11.1563 0.0000
# 2 43.5629 70.6083 38.1246 0.0000 -10.1424 0.0000
# 3 40.9930 38.1246 88.3497 0.0000 -18.9797 0.0000
# 4 0.0000 0.0000 0.0000 16.7541 0.0000 -2.2681
# 5 -11.1563 -10.1424 -18.9797 0.0000 40.5894 0.0000
# 6 0.0000 0.0000 0.0000 -2.2681 0.0000 23.7465
#
#
#
# Elastic Compliance Matrix: (Units=1/GPa)
#
#
# Indices 1 2 3 4 5 6 
#
# 1 0.015852 -0.007551 -0.003964 0.000000 0.000616 0.000000
# 2 -0.007551 0.022098 -0.005882 0.000000 0.000696 0.000000
# 3 -0.003964 -0.005882 0.016838 0.000000 0.005314 0.000000
# 4 0.000000 0.000000 0.000000 0.060469 0.000000 0.005776
# 5 0.000616 0.000696 0.005314 0.000000 0.027465 0.000000
# 6 0.000000 0.000000 0.000000 0.005776 0.000000 0.042663
#
#
# Mechanical properties :
#
#
# Convention : Reuss Voigt Hill
#
# Bulk Modulus (GPa) = 50.02030 55.42656 52.72343
# Shear Modulus (GPa) = 22.04158 24.93784 23.48971
#
# Velocity S-wave (km/s) = 3.30298 3.51329 3.40975
# Velocity P-wave (km/s) = 6.26930 6.62506 6.44964
#
# Compressibility (1/GPa) = 0.01999188
#
# Stress axis : x y z
#
# Youngs Moduli (GPa) = 63.08347 45.25389 59.38961
#
# Poissons Ratio (x) = 0.34172 0.23543
# Poissons Ratio (y) = 0.47635 0.34936
# Poissons Ratio (z) = 0.25008 0.26621
#
# Static dielectric constant tensor:
#      x y z
#    x 1.828000 0.000000 -0.106610 
#    y 0.000000 1.582040 0.000000 
#    z -0.106610 0.000000 1.797290 
# 
# From -- ./inp_files/53357.got.cif
#   From: 2010.05.17/outbox.cif.g08.bks.cpg/sg13_27_cif.got.tgz:53357.got - 2010.06.03 16:44:36.
