data_PCOD9226170
_publ_section_title
;
Structure prediction by ZEFSAII (Michael W. Deem and Ramdas Pophale) SiO2 
 PCOD9226170
Probable space group: P 2/C
;
_chemical_formula_sum "Si O2"
_cell_formula_units_Z 28
_cell_length_a 14.041609
_cell_length_b 8.353976
_cell_length_c 21.740867
_cell_angle_alpha 90.000000
_cell_angle_beta 151.689226
_cell_angle_gamma 90.000000
_cell_volume 1209.477372
_symmetry_space_group_name_H-M "P 2/C"
_symmetry_group_IT_number 13
_symmetry_cell_setting 'monoclinic'
loop_
_space_group_symop_operation_xyz
x,y,z
-x,y,1/2-z
-x,-y,-z
x,-y,1/2+z
loop_
_atom_site_type_symbol
_atom_site_label
_atom_site_fract_x
_atom_site_fract_y
_atom_site_fract_z
Si Si1 0.394763 0.190432 0.559650
Si Si2 0.000000 0.532897 0.750000
Si Si3 0.774744 0.518951 0.895404
Si Si4 0.584253 0.475045 0.165975
Si Si5 0.005418 0.658590 0.372438
Si Si6 0.500000 0.783164 0.250000
Si Si7 0.020737 0.991598 0.688558
Si Si8 0.354790 0.238557 0.403271
O O1 0.427475 0.381301 0.583119
O O2 0.497669 0.130131 0.682052
O O3 0.169829 0.121125 0.434794
O O4 0.460206 0.167389 0.524572
O O5 0.061835 0.419163 0.840156
O O6 0.181380 0.645557 0.831907
O O7 0.637558 0.593455 0.763587
O O8 0.687784 0.340648 0.856218
O O9 0.815868 0.621649 0.978949
O O10 0.000000 0.500000 0.000000
O O11 0.534590 0.347860 0.084330
O O12 0.793702 0.570409 0.268427
O O13 0.978793 0.846551 0.349257
O O14 0.000000 0.027301 0.750000
O O15 0.226171 0.895766 0.796011
#
# Coordination Sequence:
#
# PCOD9226170 Si02
#       8
#     4   2   4   4   4   2   4   4
#     4  10  19  35  57  82 114 148 187 243 290 337
#     4  10  16  28  56  82 102 142 202 228 266 342
#     4   9  19  34  57  83 117 148 192 243 283 336
#     4   9  20  34  58  83 113 147 196 235 286 339
#     4  10  19  34  56  82 116 152 187 232 293 347
#     4  10  20  34  60  86 110 150 200 240 290 336
#     4  10  20  35  57  83 118 148 191 232 296 348
#     4  10  18  33  57  84 111 147 194 238 281 345
#
# _framework density 23.150496
#
# number of rings (size 3 to 8) (size 9 to 14) (size 15 to 20)
#    0.000    2.286    2.857    1.286    4.000    0.000 
#    0.000    4.286    9.429    0.000    0.000    0.000 
#    0.000    0.000    0.000    0.000    0.000    0.000 
#
# Total GULP energy -156231.866126 kJ/mol
# GULP energy per Si atom -5579.709504 kJ/mol
# Density = 2.309780 g / cm^3
# Si number density = 23.150496 Si / 1000 Ang^3
#
#
#
# Elastic Constant Matrix: (Units=GPa)
#
#
# Indices 1 2 3 4 5 6 
#
# 1 70.0273 29.3588 51.5212 0.0000 -23.2615 0.0000
# 2 29.3588 89.4071 57.9971 0.0000 -7.3510 0.0000
# 3 51.5212 57.9971 147.7229 0.0000 -34.7480 0.0000
# 4 0.0000 0.0000 0.0000 33.0281 0.0000 0.4616
# 5 -23.2615 -7.3510 -34.7480 0.0000 49.1379 0.0000
# 6 0.0000 0.0000 0.0000 0.4616 0.0000 11.5188
#
#
#
# Elastic Compliance Matrix: (Units=1/GPa)
#
#
# Indices 1 2 3 4 5 6 
#
# 1 0.021170 -0.003495 -0.004530 0.000000 0.006295 0.000000
# 2 -0.003495 0.015805 -0.005781 0.000000 -0.003378 0.000000
# 3 -0.004530 -0.005781 0.011889 0.000000 0.005398 0.000000
# 4 0.000000 0.000000 0.000000 0.030294 0.000000 -0.001214
# 5 0.006295 -0.003378 0.005398 0.000000 0.026643 0.000000
# 6 0.000000 0.000000 0.000000 -0.001214 0.000000 0.086863
#
#
# Mechanical properties :
#
#
# Convention : Reuss Voigt Hill
#
# Bulk Modulus (GPa) = 47.05732 64.99017 56.02374
# Shear Modulus (GPa) = 21.99167 29.95563 25.97365
#
# Velocity S-wave (km/s) = 3.08546 3.60106 3.35318
# Velocity P-wave (km/s) = 5.75015 6.73973 6.26451
#
# Compressibility (1/GPa) = 0.02125068
#
# Stress axis : x y z
#
# Youngs Moduli (GPa) = 47.23736 63.27297 84.11397
#
# Poissons Ratio (x) = 0.22115 0.38107
# Poissons Ratio (y) = 0.16510 0.48623
# Poissons Ratio (z) = 0.21400 0.36575
#
# Static dielectric constant tensor:
#      x y z
#    x 1.978320 0.000000 -0.046770 
#    y 0.000000 1.821190 0.000000 
#    z -0.046770 0.000000 1.924210 
# 
# From -- ./inp_files/80056.got.cif
#   From: 2010.05.17/outbox.cif.g08.bks.cpg/sg13_41_cif.got.tgz:80056.got - 2010.06.03 16:44:36.
