data_PCOD9226376
_publ_section_title
;
Structure prediction by ZEFSAII (Michael W. Deem and Ramdas Pophale) SiO2 
 PCOD9226376
Probable space group: P 2/C
;
_chemical_formula_sum "Si O2"
_cell_formula_units_Z 20
_cell_length_a 7.714764
_cell_length_b 21.754956
_cell_length_c 5.392191
_cell_angle_alpha 90.000000
_cell_angle_beta 57.251736
_cell_angle_gamma 90.000000
_cell_volume 761.150833
_symmetry_space_group_name_H-M "P 2/C"
_symmetry_group_IT_number 13
_symmetry_cell_setting 'monoclinic'
loop_
_space_group_symop_operation_xyz
x,y,z
-x,y,1/2-z
-x,-y,-z
x,-y,1/2+z
loop_
_atom_site_type_symbol
_atom_site_label
_atom_site_fract_x
_atom_site_fract_y
_atom_site_fract_z
Si Si1 0.762081 0.713271 0.410537
Si Si2 0.749639 0.027786 0.596598
Si Si3 0.365632 0.848009 0.104747
Si Si4 0.243388 0.660961 0.587753
Si Si5 0.238344 0.523607 0.796996
O O1 0.750561 0.784383 0.348321
O O2 0.677908 0.704726 0.753207
O O3 0.000000 0.693491 0.250000
O O4 0.677408 0.671759 0.251276
O O5 0.500000 0.020879 0.750000
O O6 0.772610 0.093571 0.713167
O O7 0.819825 0.020241 0.256186
O O8 0.500000 0.838725 0.250000
O O9 0.500000 0.860807 0.750000
O O10 0.254666 0.591701 0.676486
O O11 0.000000 0.675752 0.750000
O O12 0.320166 0.480289 0.513464
O O13 0.000000 0.500000 0.000000
#
# Coordination Sequence:
#
# PCOD9226376 Si02
#       5
#     4   4   4   4   4
#     4  10  22  35  51  73 108 148 171 210 261 318
#     4   9  16  28  49  78 103 126 164 222 272 297
#     4  11  21  35  56  79 106 138 181 219 253 312
#     4  10  18  30  46  69 104 143 165 203 263 318
#     4  10  17  24  42  68 100 134 157 210 262 316
#
# _framework density 26.275998999999999
#
# number of rings (size 3 to 8) (size 9 to 14) (size 15 to 20)
#    0.000    2.000    2.000    5.400    5.600    0.000 
#    0.000    0.000    0.000    1.200    0.000    0.000 
#    0.000   59.200    0.000    0.000    0.000    0.000 
#
# Total GULP energy -111897.055188 kJ/mol
# GULP energy per Si atom -5594.852759 kJ/mol
# Density = 2.621619 g / cm^3
# Si number density = 26.275999 Si / 1000 Ang^3
#
#
#
# Elastic Constant Matrix: (Units=GPa)
#
#
# Indices 1 2 3 4 5 6 
#
# 1 92.6399 26.6360 43.9278 0.0000 42.8290 0.0000
# 2 26.6360 135.2240 49.3486 0.0000 50.6897 0.0000
# 3 43.9278 49.3486 238.2599 0.0000 42.9383 0.0000
# 4 0.0000 0.0000 0.0000 52.0365 0.0000 16.1271
# 5 42.8290 50.6897 42.9383 0.0000 58.1774 0.0000
# 6 0.0000 0.0000 0.0000 16.1271 0.0000 37.7265
#
#
#
# Elastic Compliance Matrix: (Units=1/GPa)
#
#
# Indices 1 2 3 4 5 6 
#
# 1 0.016967 0.002139 -0.001135 0.000000 -0.013516 0.000000
# 2 0.002139 0.011335 -0.000783 0.000000 -0.010874 0.000000
# 3 -0.001135 -0.000783 0.004954 0.000000 -0.002139 0.000000
# 4 0.000000 0.000000 0.000000 0.022152 0.000000 -0.009469
# 5 -0.013516 -0.010874 -0.002139 0.000000 0.038192 0.000000
# 6 0.000000 0.000000 0.000000 -0.009469 0.000000 0.030554
#
#
# Mechanical properties :
#
#
# Convention : Reuss Voigt Hill
#
# Bulk Modulus (GPa) = 29.67527 78.43875 54.05701
# Shear Modulus (GPa) = 37.05219 52.66883 44.86051
#
# Velocity S-wave (km/s) = 3.75922 4.48196 4.13641
# Velocity P-wave (km/s) = 5.49186 7.52998 6.59019
#
# Compressibility (1/GPa) = 0.03369809
#
# Stress axis : x y z
#
# Youngs Moduli (GPa) = 58.93930 88.21883 201.86053
#
# Poissons Ratio (x) = -0.18869 0.22917
# Poissons Ratio (y) = -0.12607 0.15797
# Poissons Ratio (z) = 0.06691 0.06904
#
# Static dielectric constant tensor:
#      x y z
#    x 1.986890 0.000000 -0.072990 
#    y 0.000000 1.992150 0.000000 
#    z -0.072990 0.000000 2.129690 
# 
# From -- ./inp_files/2038.got.cif
#   From: 2010.05.17/outbox.cif.g08.bks.cpg/sg13_2_cif.got.tgz:2038.got - 2010.06.03 16:44:36.
