data_PCOD9226865
_publ_section_title
;
Structure prediction by ZEFSAII (Michael W. Deem and Ramdas Pophale) SiO2 
 PCOD9226865
Probable space group: P 2/C
;
_chemical_formula_sum "Si O2"
_cell_formula_units_Z 32
_cell_length_a 17.823246
_cell_length_b 10.943612
_cell_length_c 26.802521
_cell_angle_alpha 90.000000
_cell_angle_beta 161.537749
_cell_angle_gamma 90.000000
_cell_volume 1655.554498
_symmetry_space_group_name_H-M "P 2/C"
_symmetry_group_IT_number 13
_symmetry_cell_setting 'monoclinic'
loop_
_space_group_symop_operation_xyz
x,y,z
-x,y,1/2-z
-x,-y,-z
x,-y,1/2+z
loop_
_atom_site_type_symbol
_atom_site_label
_atom_site_fract_x
_atom_site_fract_y
_atom_site_fract_z
Si Si1 0.494604 0.398238 0.188669
Si Si2 0.281037 0.345510 0.699825
Si Si3 0.324344 0.855102 0.840391
Si Si4 0.954463 0.538203 0.354402
Si Si5 0.899094 0.713433 0.880987
Si Si6 0.739925 0.621556 0.645647
Si Si7 0.246596 0.981926 0.895895
Si Si8 0.268051 0.721126 0.962661
O O1 0.500000 0.360278 0.250000
O O2 0.643911 0.524359 0.276914
O O3 0.644870 0.309145 0.247738
O O4 0.217445 0.423979 0.002279
O O5 0.148780 0.370039 0.669197
O O6 0.102883 0.277020 0.550752
O O7 0.531484 0.283826 0.869497
O O8 0.132041 0.823857 0.677236
O O9 0.399599 0.722396 0.910148
O O10 0.249507 0.937698 0.840243
O O11 0.542653 0.929843 0.956883
O O12 0.960535 0.409075 0.388226
O O13 0.777940 0.507105 0.196932
O O14 0.667126 0.629289 0.542168
O O15 0.008110 0.678837 0.814708
O O16 0.256952 0.856177 0.933205
O O17 0.000000 0.046310 0.750000
#
# Coordination Sequence:
#
# PCOD9226865 Si02
#       8
#     4   4   4   4   4   4   4   4
#     4  11  17  31  51  74 109 152 187 209 254 318
#     4  11  20  29  50  81 109 145 186 219 257 321
#     4   9  19  35  58  81 103 129 170 233 274 318
#     4  10  18  31  51  74 108 148 187 217 258 311
#     4  10  20  32  49  82 109 139 184 226 261 317
#     4   9  17  33  52  74 106 136 181 227 264 308
#     4  10  18  37  63  80  98 134 180 223 281 335
#     4  10  18  31  52  79 102 138 182 225 268 315
#
# _framework density 19.328870999999999
#
# number of rings (size 3 to 8) (size 9 to 14) (size 15 to 20)
#    0.000    2.000    6.250    0.750    0.000    0.500 
#    0.000    4.375    0.000    0.000    0.000    0.000 
#    0.000    0.000    0.000    0.000    0.000    0.000 
#
# Total GULP energy -178381.048945 kJ/mol
# GULP energy per Si atom -5574.407780 kJ/mol
# Density = 1.928488 g / cm^3
# Si number density = 19.328871 Si / 1000 Ang^3
#
#
#
# Elastic Constant Matrix: (Units=GPa)
#
#
# Indices 1 2 3 4 5 6 
#
# 1 45.8429 8.1407 9.2522 0.0000 -4.6364 0.0000
# 2 8.1407 27.9616 21.4282 0.0000 -1.0478 0.0000
# 3 9.2522 21.4282 73.1434 0.0000 -4.9833 0.0000
# 4 0.0000 0.0000 0.0000 24.4503 0.0000 1.2741
# 5 -4.6364 -1.0478 -4.9833 0.0000 34.0667 0.0000
# 6 0.0000 0.0000 0.0000 1.2741 0.0000 16.1629
#
#
#
# Elastic Compliance Matrix: (Units=1/GPa)
#
#
# Indices 1 2 3 4 5 6 
#
# 1 0.023358 -0.005903 -0.001031 0.000000 0.002847 0.000000
# 2 -0.005903 0.047620 -0.013291 0.000000 -0.001283 0.000000
# 3 -0.001031 -0.013291 0.017836 0.000000 0.002060 0.000000
# 4 0.000000 0.000000 0.000000 0.041068 0.000000 -0.003237
# 5 0.002847 -0.001283 0.002060 0.000000 0.030003 0.000000
# 6 0.000000 0.000000 0.000000 -0.003237 0.000000 0.062125
#
#
# Mechanical properties :
#
#
# Convention : Reuss Voigt Hill
#
# Bulk Modulus (GPa) = 20.67736 24.95444 22.81590
# Shear Modulus (GPa) = 17.94794 22.14445 20.04619
#
# Velocity S-wave (km/s) = 3.05053 3.38844 3.22392
# Velocity P-wave (km/s) = 4.80921 5.31481 5.06832
#
# Compressibility (1/GPa) = 0.04836207
#
# Stress axis : x y z
#
# Youngs Moduli (GPa) = 42.81192 20.99966 56.06504
#
# Poissons Ratio (x) = 0.12397 0.05782
# Poissons Ratio (y) = 0.25274 0.74518
# Poissons Ratio (z) = 0.04415 0.27912
#
# Static dielectric constant tensor:
#      x y z
#    x 1.744140 0.000000 -0.000150 
#    y 0.000000 1.654240 0.000000 
#    z -0.000150 0.000000 1.716100 
# 
# From -- ./inp_files/93346.got.cif
#   From: 2010.05.17/outbox.cif.g08.bks.cpg/sg13_47_cif.got.tgz:93346.got - 2010.06.03 16:44:36.
