data_PCOD9226928
_publ_section_title
;
Structure prediction by ZEFSAII (Michael W. Deem and Ramdas Pophale) SiO2 
 PCOD9226928
Probable space group: P 2/C
;
_chemical_formula_sum "Si O2"
_cell_formula_units_Z 20
_cell_length_a 8.498833
_cell_length_b 5.674439
_cell_length_c 23.280767
_cell_angle_alpha 90.000000
_cell_angle_beta 129.122164
_cell_angle_gamma 90.000000
_cell_volume 871.025000
_symmetry_space_group_name_H-M "P 2/C"
_symmetry_group_IT_number 13
_symmetry_cell_setting 'monoclinic'
loop_
_space_group_symop_operation_xyz
x,y,z
-x,y,1/2-z
-x,-y,-z
x,-y,1/2+z
loop_
_atom_site_type_symbol
_atom_site_label
_atom_site_fract_x
_atom_site_fract_y
_atom_site_fract_z
Si Si1 0.201025 0.091754 0.315483
Si Si2 0.581049 0.424910 0.427181
Si Si3 0.257230 0.113163 0.706775
Si Si4 0.278598 0.604940 0.667808
Si Si5 0.660713 0.807857 0.057723
O O1 0.397157 0.248134 0.369844
O O2 0.239312 0.922302 0.270678
O O3 0.000000 0.230906 0.250000
O O4 0.171613 0.941772 0.366616
O O5 0.698425 0.445438 0.394700
O O6 0.464657 0.648317 0.426420
O O7 0.712243 0.331438 0.511501
O O8 0.500000 0.127482 0.750000
O O9 0.191387 0.867004 0.660227
O O10 0.174902 0.370200 0.669521
O O11 0.500000 0.616979 0.750000
O O12 0.500000 0.000000 0.000000
#
# Coordination Sequence:
#
# PCOD9226928 Si02
#       5
#     4   4   4   4   4
#     4  11  22  36  57  90 126 156 194 252 313 363
#     4  10  19  36  57  88 113 157 203 251 294 356
#     4  10  19  34  55  86 114 155 202 248 293 347
#     4  10  18  31  58  81 113 146 209 251 285 343
#     4   9  20  35  57  84 116 155 201 246 295 356
#
# _framework density 22.961455999999998
#
# number of rings (size 3 to 8) (size 9 to 14) (size 15 to 20)
#    0.000    2.000    4.000    2.400    2.800    0.800 
#    0.000    0.000    0.000    2.400    0.000    0.000 
#    0.000    0.000    0.000    0.000    0.000    0.000 
#
# Total GULP energy -111571.586854 kJ/mol
# GULP energy per Si atom -5578.579343 kJ/mol
# Density = 2.290919 g / cm^3
# Si number density = 22.961456 Si / 1000 Ang^3
#
#
#
# Elastic Constant Matrix: (Units=GPa)
#
#
# Indices 1 2 3 4 5 6 
#
# 1 46.5764 13.9640 38.4645 0.0000 -19.0957 0.0000
# 2 13.9640 135.5939 41.0093 0.0000 -13.7397 0.0000
# 3 38.4645 41.0093 133.9950 0.0000 -26.0515 0.0000
# 4 0.0000 0.0000 0.0000 -4.8273 0.0000 -21.0897
# 5 -19.0957 -13.7397 -26.0515 0.0000 43.0632 0.0000
# 6 0.0000 0.0000 0.0000 -21.0897 0.0000 20.3554
#
#
#
# Elastic Compliance Matrix: (Units=1/GPa)
#
#
# Indices 1 2 3 4 5 6 
#
# 1 0.031268 -0.000110 -0.007087 0.000000 0.009543 0.000000
# 2 -0.000110 0.008186 -0.002239 0.000000 0.001209 0.000000
# 3 -0.007087 -0.002239 0.010690 0.000000 0.002610 0.000000
# 4 0.000000 0.000000 0.000000 -0.037484 0.000000 -0.038837
# 5 0.009543 0.001209 0.002610 0.000000 0.029418 0.000000
# 6 0.000000 0.000000 0.000000 -0.038837 0.000000 0.008889
#
#
# Mechanical properties :
#
#
# Convention : Reuss Voigt Hill
#
# Bulk Modulus (GPa) = 31.97629 55.89344 43.93486
# Shear Modulus (GPa) = 62.29584 26.56676 44.43130
#
# Velocity S-wave (km/s) = 5.21436 3.40518 4.40368
# Velocity P-wave (km/s) = 7.08583 6.31312 6.71061
#
# Compressibility (1/GPa) = 0.03127317
#
# Stress axis : x y z
#
# Youngs Moduli (GPa) = 31.98148 122.16203 93.54584
#
# Poissons Ratio (x) = 0.01341 0.66294
# Poissons Ratio (y) = 0.00351 0.20943
# Poissons Ratio (z) = 0.22665 0.27349
#
# Static dielectric constant tensor:
#      x y z
#    x 1.866020 0.000000 0.276430 
#    y 0.000000 1.909720 0.000000 
#    z 0.276430 0.000000 0.830000 
# 
# From -- ./inp_files/56692.got.cif
#   From: 2010.05.17/outbox.cif.g08.bks.cpg/sg13_29_cif.got.tgz:56692.got - 2010.06.03 16:44:36.
