data_PCOD9226586
_publ_section_title
;
Structure prediction by ZEFSAII (Michael W. Deem and Ramdas Pophale) SiO2 
 PCOD9226586
Probable space group: P 2/C
;
_chemical_formula_sum "Si O2"
_cell_formula_units_Z 26
_cell_length_a 10.111030
_cell_length_b 11.229929
_cell_length_c 20.544096
_cell_angle_alpha 90.000000
_cell_angle_beta 39.520755
_cell_angle_gamma 90.000000
_cell_volume 1484.433493
_symmetry_space_group_name_H-M "P 2/C"
_symmetry_group_IT_number 13
_symmetry_cell_setting 'monoclinic'
loop_
_space_group_symop_operation_xyz
x,y,z
-x,y,1/2-z
-x,-y,-z
x,-y,1/2+z
loop_
_atom_site_type_symbol
_atom_site_label
_atom_site_fract_x
_atom_site_fract_y
_atom_site_fract_z
Si Si1 0.863104 0.599210 0.436089
Si Si2 0.848827 0.673049 0.952436
Si Si3 0.000000 0.531975 0.250000
Si Si4 0.389120 0.352893 0.080981
Si Si5 0.152398 0.168158 0.249133
Si Si6 0.997393 0.803755 0.018096
Si Si7 0.259206 0.978329 0.830942
O O1 0.901580 0.464517 0.446318
O O2 0.619288 0.606468 0.510198
O O3 0.921219 0.700009 0.465675
O O4 0.990426 0.606775 0.319990
O O5 0.647810 0.674191 0.981586
O O6 0.023795 0.734351 0.840250
O O7 0.850176 0.746325 0.018311
O O8 0.206027 0.447919 0.168114
O O9 0.337753 0.236685 0.143006
O O10 0.220918 0.068117 0.272792
O O11 0.000000 0.124673 0.250000
O O12 0.179238 0.873658 0.910035
O O13 0.874455 0.904999 0.103460
O O14 0.500000 0.001037 0.750000
#
# Coordination Sequence:
#
# PCOD9226586 Si02
#       7
#     4   4   2   4   4   4   4
#     4  11  20  34  57  84 113 145 174 219 275 331
#     4   9  17  34  56  79 113 139 173 221 272 320
#     4  10  18  34  52  84 122 134 174 224 270 320
#     4  10  17  33  59  84 105 150 177 215 265 323
#     4   9  16  33  59  79 101 141 190 224 255 311
#     4  10  22  38  56  79 112 144 181 229 270 318
#     4  10  21  40  56  76 108 148 187 227 269 313
#
# _framework density 17.5151
#
# number of rings (size 3 to 8) (size 9 to 14) (size 15 to 20)
#    0.000    2.154    3.846    3.231    0.000    0.000 
#    6.923    0.000    0.000    7.385    0.000    0.000 
#    0.000    0.000    0.000    0.000    0.000    0.000 
#
# Total GULP energy -144906.437670 kJ/mol
# GULP energy per Si atom -5573.324526 kJ/mol
# Density = 1.747524 g / cm^3
# Si number density = 17.515100 Si / 1000 Ang^3
#
#
#
# Elastic Constant Matrix: (Units=GPa)
#
#
# Indices 1 2 3 4 5 6 
#
# 1 86.9548 41.4698 35.3328 0.0000 8.4093 0.0000
# 2 41.4698 67.5268 11.9016 0.0000 16.0376 0.0000
# 3 35.3328 11.9016 48.5839 0.0000 2.4385 0.0000
# 4 0.0000 0.0000 0.0000 19.8361 0.0000 12.9013
# 5 8.4093 16.0376 2.4385 0.0000 27.1903 0.0000
# 6 0.0000 0.0000 0.0000 12.9013 0.0000 7.9121
#
#
#
# Elastic Compliance Matrix: (Units=1/GPa)
#
#
# Indices 1 2 3 4 5 6 
#
# 1 0.022456 -0.011682 -0.013528 0.000000 0.001158 0.000000
# 2 -0.011682 0.023997 0.003160 0.000000 -0.010825 0.000000
# 3 -0.013528 0.003160 0.029664 0.000000 -0.000341 0.000000
# 4 0.000000 0.000000 0.000000 -0.833030 0.000000 1.358316
# 5 0.001158 -0.010825 -0.000341 0.000000 0.042835 0.000000
# 6 0.000000 0.000000 0.000000 1.358316 0.000000 -2.088446
#
#
# Mechanical properties :
#
#
# Convention : Reuss Voigt Hill
#
# Bulk Modulus (GPa) = 31.23177 42.27488 36.75333
# Shear Modulus (GPa) = -1.81967 18.61181 8.39607
#
# Velocity S-wave (km/s) = -1.02038 3.26331 2.19181
# Velocity P-wave (km/s) = 4.05978 6.19577 5.23782
#
# Compressibility (1/GPa) = 0.03201868
#
# Stress axis : x y z
#
# Youngs Moduli (GPa) = 44.53119 41.67236 33.71091
#
# Poissons Ratio (x) = 0.48680 0.45604
# Poissons Ratio (y) = 0.52020 -0.10654
# Poissons Ratio (z) = 0.60241 -0.13170
#
# Static dielectric constant tensor:
#      x y z
#    x 1.600500 0.000000 0.015570 
#    y 0.000000 1.598610 0.000000 
#    z 0.015570 0.000000 1.588250 
# 
# From -- ./inp_files/59578.got.cif
#   From: 2010.05.17/outbox.cif.g08.bks.cpg/sg13_30_cif.got.tgz:59578.got - 2010.06.03 16:44:36.
