data_PCOD9226014
_publ_section_title
;
Structure prediction by ZEFSAII (Michael W. Deem and Ramdas Pophale) SiO2 
 PCOD9226014
Probable space group: P 2/C
;
_chemical_formula_sum "Si O2"
_cell_formula_units_Z 20
_cell_length_a 29.119949
_cell_length_b 6.520816
_cell_length_c 5.160101
_cell_angle_alpha 90.000000
_cell_angle_beta 57.748009
_cell_angle_gamma 90.000000
_cell_volume 828.651371
_symmetry_space_group_name_H-M "P 2/C"
_symmetry_group_IT_number 13
_symmetry_cell_setting 'monoclinic'
loop_
_space_group_symop_operation_xyz
x,y,z
-x,y,1/2-z
-x,-y,-z
x,-y,1/2+z
loop_
_atom_site_type_symbol
_atom_site_label
_atom_site_fract_x
_atom_site_fract_y
_atom_site_fract_z
Si Si1 0.056936 0.141334 0.520044
Si Si2 0.827889 0.858912 0.717841
Si Si3 0.669966 0.204816 0.366794
Si Si4 0.713982 0.745787 0.236721
Si Si5 0.559207 0.642250 0.032257
O O1 0.114291 0.249131 0.403705
O O2 0.000000 0.252907 0.750000
O O3 0.056857 0.046373 0.231595
O O4 0.826502 0.955753 0.435232
O O5 0.774027 0.732389 0.942065
O O6 0.670099 0.306400 0.648989
O O7 0.609993 0.209221 0.429772
O O8 0.697246 0.985737 0.335320
O O9 0.708639 0.323646 0.048515
O O10 0.500000 0.742235 0.250000
O O11 0.561855 0.464557 0.244308
#
# Coordination Sequence:
#
# PCOD9226014 Si02
#       5
#     4   4   4   4   4
#     4   8  14  20  29  45  69 106 149 176 192 223
#     4  10  14  23  36  53  82 112 145 171 199 247
#     4  10  18  30  47  66  89 110 139 175 207 255
#     4  10  17  28  43  69  92 115 140 168 214 260
#     4  10  21  37  53  67  84 111 145 176 210 253
#
# _framework density 24.135601000000001
#
# number of rings (size 3 to 8) (size 9 to 14) (size 15 to 20)
#    0.000    2.400    4.000    1.200    0.000    0.000 
#    0.000    4.000    0.000    0.000    0.000    0.000 
#    0.000    0.000    0.000    0.000    0.000   34.000 
#
# Total GULP energy -111502.402537 kJ/mol
# GULP energy per Si atom -5575.120127 kJ/mol
# Density = 2.408067 g / cm^3
# Si number density = 24.135601 Si / 1000 Ang^3
#
#
#
# Elastic Constant Matrix: (Units=GPa)
#
#
# Indices 1 2 3 4 5 6 
#
# 1 117.7486 -16.5575 38.4986 0.0000 -27.5422 0.0000
# 2 -16.5575 39.2688 -20.0323 0.0000 -9.6314 0.0000
# 3 38.4986 -20.0323 126.6379 0.0000 -2.7157 0.0000
# 4 0.0000 0.0000 0.0000 -35.6549 0.0000 -34.6568
# 5 -27.5422 -9.6314 -2.7157 0.0000 90.4904 0.0000
# 6 0.0000 0.0000 0.0000 -34.6568 0.0000 -10.6479
#
#
#
# Elastic Compliance Matrix: (Units=1/GPa)
#
#
# Indices 1 2 3 4 5 6 
#
# 1 0.010754 0.004132 -0.002538 0.000000 0.003637 0.000000
# 2 0.004132 0.030175 0.003615 0.000000 0.004578 0.000000
# 3 -0.002538 0.003615 0.009238 0.000000 -0.000110 0.000000
# 4 0.000000 0.000000 0.000000 0.012962 0.000000 -0.042190
# 5 0.003637 0.004578 -0.000110 0.000000 0.012642 0.000000
# 6 0.000000 0.000000 0.000000 -0.042190 0.000000 0.043405
#
#
# Mechanical properties :
#
#
# Convention : Reuss Voigt Hill
#
# Bulk Modulus (GPa) = 16.50571 31.94143 24.22357
# Shear Modulus (GPa) = 38.77423 27.62062 33.19742
#
# Velocity S-wave (km/s) = 4.01248 3.38656 3.71274
# Velocity P-wave (km/s) = 5.32168 5.34365 5.33268
#
# Compressibility (1/GPa) = 0.06058510
#
# Stress axis : x y z
#
# Youngs Moduli (GPa) = 92.98807 33.14034 108.25410
#
# Poissons Ratio (x) = -0.13693 0.27472
# Poissons Ratio (y) = -0.38421 -0.39137
# Poissons Ratio (z) = 0.23598 -0.11981
#
# Static dielectric constant tensor:
#      x y z
#    x 1.971870 0.000000 0.007990 
#    y 0.000000 3.448270 0.000000 
#    z 0.007990 0.000000 2.019740 
# 
# From -- ./inp_files/7262.got.cif
#   From: 2010.05.17/outbox.cif.g08.bks.cpg/sg13_4_cif.got.tgz:7262.got - 2010.06.03 16:44:36.
