data_PCOD9226175
_publ_section_title
;
Structure prediction by ZEFSAII (Michael W. Deem and Ramdas Pophale) SiO2 
 PCOD9226175
Probable space group: P 2/C
;
_chemical_formula_sum "Si O2"
_cell_formula_units_Z 22
_cell_length_a 9.568622
_cell_length_b 12.494442
_cell_length_c 8.943448
_cell_angle_alpha 90.000000
_cell_angle_beta 110.776107
_cell_angle_gamma 90.000000
_cell_volume 999.702170
_symmetry_space_group_name_H-M "P 2/C"
_symmetry_group_IT_number 13
_symmetry_cell_setting 'monoclinic'
loop_
_space_group_symop_operation_xyz
x,y,z
-x,y,1/2-z
-x,-y,-z
x,-y,1/2+z
loop_
_atom_site_type_symbol
_atom_site_label
_atom_site_fract_x
_atom_site_fract_y
_atom_site_fract_z
Si Si1 0.614128 0.041093 0.918010
Si Si2 0.412227 0.751754 0.958588
Si Si3 0.500000 0.409808 0.750000
Si Si4 0.710010 0.191859 0.408340
Si Si5 0.192941 0.472545 0.748418
Si Si6 0.070489 0.364267 0.992322
O O1 0.500000 0.079541 0.750000
O O2 0.704949 0.937474 0.897237
O O3 0.682412 0.149413 0.006510
O O4 0.500000 0.000000 0.000000
O O5 0.346035 0.751135 0.765703
O O6 0.587302 0.778606 0.987944
O O7 0.425193 0.659570 0.087098
O O8 0.365952 0.475585 0.773657
O O9 0.868683 0.245093 0.500582
O O10 0.163378 0.436016 0.906235
O O11 0.113370 0.581532 0.665453
O O12 0.100196 0.383401 0.617887
#
# Coordination Sequence:
#
# PCOD9226175 Si02
#       6
#     4   4   2   4   4   4
#     4  10  16  29  49  83 117 151 189 235 290 340
#     4  10  20  31  54  89 120 147 200 245 285 343
#     4  12  22  36  58  96 110 154 202 250 280 350
#     4  10  19  35  56  82 118 161 193 235 296 356
#     4  10  24  40  62  84 119 156 197 246 294 349
#     4  10  22  44  59  84 119 162 193 238 305 356
#
# _framework density 22.006554999999999
#
# number of rings (size 3 to 8) (size 9 to 14) (size 15 to 20)
#    0.000    1.818    6.364    0.000    2.545    2.182 
#    0.000    0.000    0.000    1.091    0.000    0.000 
#    0.000    0.000    0.000    0.000    0.000    0.000 
#
# Total GULP energy -122543.049796 kJ/mol
# GULP energy per Si atom -5570.138627 kJ/mol
# Density = 2.195647 g / cm^3
# Si number density = 22.006555 Si / 1000 Ang^3
#
#
#
# Elastic Constant Matrix: (Units=GPa)
#
#
# Indices 1 2 3 4 5 6 
#
# 1 87.4568 15.9445 5.5121 0.0000 2.7949 0.0000
# 2 15.9445 68.5528 12.9495 0.0000 4.0874 0.0000
# 3 5.5121 12.9495 73.0129 0.0000 -25.0157 0.0000
# 4 0.0000 0.0000 0.0000 15.5993 0.0000 -3.7249
# 5 2.7949 4.0874 -25.0157 0.0000 20.7963 0.0000
# 6 0.0000 0.0000 0.0000 -3.7249 0.0000 20.8199
#
#
#
# Elastic Compliance Matrix: (Units=1/GPa)
#
#
# Indices 1 2 3 4 5 6 
#
# 1 0.012052 -0.002338 -0.001518 0.000000 -0.002987 0.000000
# 2 -0.002338 0.017034 -0.006607 0.000000 -0.010981 0.000000
# 3 -0.001518 -0.006607 0.026362 0.000000 0.033214 0.000000
# 4 0.000000 0.000000 0.000000 0.066966 0.000000 0.011981
# 5 -0.002987 -0.010981 0.033214 0.000000 0.090598 0.000000
# 6 0.000000 0.000000 0.000000 0.011981 0.000000 0.050175
#
#
# Mechanical properties :
#
#
# Convention : Reuss Voigt Hill
#
# Bulk Modulus (GPa) = 28.96803 33.09274 31.03039
# Shear Modulus (GPa) = 16.91355 24.41752 20.66554
#
# Velocity S-wave (km/s) = 2.77531 3.33461 3.06774
# Velocity P-wave (km/s) = 4.84374 5.46777 5.16519
#
# Compressibility (1/GPa) = 0.03452081
#
# Stress axis : x y z
#
# Youngs Moduli (GPa) = 82.97622 58.70641 37.93278
#
# Poissons Ratio (x) = 0.13726 0.05760
# Poissons Ratio (y) = 0.19401 0.25062
# Poissons Ratio (z) = 0.12599 0.38787
#
# Static dielectric constant tensor:
#      x y z
#    x 1.797270 0.000000 0.014080 
#    y 0.000000 1.873670 0.000000 
#    z 0.014080 0.000000 1.809450 
# 
# From -- ./inp_files/12374.got.cif
#   From: 2010.05.17/outbox.cif.g08.bks.cpg/sg13_7_cif.got.tgz:12374.got - 2010.06.03 16:44:36.
