data_PCOD9226908
_publ_section_title
;
Structure prediction by ZEFSAII (Michael W. Deem and Ramdas Pophale) SiO2 
 PCOD9226908
Probable space group: P 2/C
;
_chemical_formula_sum "Si O2"
_cell_formula_units_Z 32
_cell_length_a 17.028467
_cell_length_b 14.881183
_cell_length_c 16.707177
_cell_angle_alpha 90.000000
_cell_angle_beta 162.949455
_cell_angle_gamma 90.000000
_cell_volume 1241.373853
_symmetry_space_group_name_H-M "P 2/C"
_symmetry_group_IT_number 13
_symmetry_cell_setting 'monoclinic'
loop_
_space_group_symop_operation_xyz
x,y,z
-x,y,1/2-z
-x,-y,-z
x,-y,1/2+z
loop_
_atom_site_type_symbol
_atom_site_label
_atom_site_fract_x
_atom_site_fract_y
_atom_site_fract_z
Si Si1 0.905234 0.920956 0.848424
Si Si2 0.085632 0.229178 0.645811
Si Si3 0.794190 0.686984 0.393677
Si Si4 0.583277 0.818972 0.740902
Si Si5 0.593082 0.966027 0.250772
Si Si6 0.352961 0.534135 0.525598
Si Si7 0.864739 0.519096 0.953015
Si Si8 0.748375 0.318723 0.063321
O O1 0.627035 0.940295 0.531677
O O2 0.943248 0.839921 0.946102
O O3 0.000000 0.000000 0.000000
O O4 0.133623 0.915374 0.003370
O O5 0.228901 0.297070 0.723186
O O6 0.832589 0.242971 0.457550
O O7 0.326887 0.191500 0.933990
O O8 0.802156 0.581614 0.421029
O O9 0.100443 0.712018 0.709736
O O10 0.550951 0.720837 0.213892
O O11 0.500000 0.797235 0.750000
O O12 0.650478 0.926320 0.804704
O O13 0.500000 0.944694 0.250000
O O14 0.500000 0.564674 0.750000
O O15 0.568159 0.558032 0.666104
O O16 0.296439 0.426675 0.482950
O O17 0.068420 0.565341 0.213563
O O18 0.000000 0.500000 0.000000
O O19 0.000000 0.298076 0.250000
#
# Coordination Sequence:
#
# PCOD9226908 Si02
#       8
#     4   4   4   4   4   4   4   4
#     4  12  21  37  59  86 111 147 188 236 297 338
#     4  12  23  38  60  85 119 149 190 246 290 352
#     4  10  22  36  55  87 115 154 195 236 289 346
#     4  11  22  38  61  86 109 147 197 245 292 338
#     4  11  22  38  58  85 116 148 190 238 287 349
#     4  10  18  31  55  85 111 140 190 242 281 330
#     4  10  20  35  57  81 114 151 191 236 290 341
#     4  10  18  34  57  82 113 151 193 235 278 337
#
# _framework density 25.777891
#
# number of rings (size 3 to 8) (size 9 to 14) (size 15 to 20)
#    0.000    1.250    2.500    6.000    0.000    2.000 
#    0.000    2.500    0.000    7.500    0.000    0.000 
#    0.000    0.000    0.000    0.000    0.000    0.000 
#
# Total GULP energy -178532.202770 kJ/mol
# GULP energy per Si atom -5579.131337 kJ/mol
# Density = 2.571922 g / cm^3
# Si number density = 25.777891 Si / 1000 Ang^3
#
#
#
# Elastic Constant Matrix: (Units=GPa)
#
#
# Indices 1 2 3 4 5 6 
#
# 1 146.7007 18.4575 44.1305 0.0000 25.0294 0.0000
# 2 18.4575 48.0072 20.6440 0.0000 -0.9296 0.0000
# 3 44.1305 20.6440 130.3193 0.0000 22.4080 0.0000
# 4 0.0000 0.0000 0.0000 21.3224 0.0000 -2.5066
# 5 25.0294 -0.9296 22.4080 0.0000 54.6197 0.0000
# 6 0.0000 0.0000 0.0000 -2.5066 0.0000 19.5059
#
#
#
# Elastic Compliance Matrix: (Units=1/GPa)
#
#
# Indices 1 2 3 4 5 6 
#
# 1 0.008200 -0.002405 -0.001875 0.000000 -0.003029 0.000000
# 2 -0.002405 0.023258 -0.003365 0.000000 0.002878 0.000000
# 3 -0.001875 -0.003365 0.009364 0.000000 -0.003040 0.000000
# 4 0.000000 0.000000 0.000000 0.047618 0.000000 0.006119
# 5 -0.003029 0.002878 -0.003040 0.000000 0.020993 0.000000
# 6 0.000000 0.000000 0.000000 0.006119 0.000000 0.052053
#
#
# Mechanical properties :
#
#
# Convention : Reuss Voigt Hill
#
# Bulk Modulus (GPa) = 39.16633 54.61014 46.88824
# Shear Modulus (GPa) = 26.98530 35.20926 31.09728
#
# Velocity S-wave (km/s) = 3.23900 3.69978 3.47703
# Velocity P-wave (km/s) = 5.40508 6.28347 5.86076
#
# Compressibility (1/GPa) = 0.02553213
#
# Stress axis : x y z
#
# Youngs Moduli (GPa) = 121.94989 42.99686 106.79131
#
# Poissons Ratio (x) = 0.10341 0.20023
# Poissons Ratio (y) = 0.29330 0.35932
# Poissons Ratio (z) = 0.22865 0.14467
#
# Static dielectric constant tensor:
#      x y z
#    x 2.133100 0.000000 0.023890 
#    y 0.000000 2.323060 0.000000 
#    z 0.023890 0.000000 2.093960 
# 
# From -- ./inp_files/54018.got.cif
#   From: 2010.05.17/outbox.cif.g08.bks.cpg/sg13_28_cif.got.tgz:54018.got - 2010.06.03 16:44:36.
