data_PCOD9226416
_publ_section_title
;
Structure prediction by ZEFSAII (Michael W. Deem and Ramdas Pophale) SiO2 
 PCOD9226416
Probable space group: P 2/C
;
_chemical_formula_sum "Si O2"
_cell_formula_units_Z 28
_cell_length_a 29.192161
_cell_length_b 9.302677
_cell_length_c 5.422639
_cell_angle_alpha 90.000000
_cell_angle_beta 111.619800
_cell_angle_gamma 90.000000
_cell_volume 1369.001702
_symmetry_space_group_name_H-M "P 2/C"
_symmetry_group_IT_number 13
_symmetry_cell_setting 'monoclinic'
loop_
_space_group_symop_operation_xyz
x,y,z
-x,y,1/2-z
-x,-y,-z
x,-y,1/2+z
loop_
_atom_site_type_symbol
_atom_site_label
_atom_site_fract_x
_atom_site_fract_y
_atom_site_fract_z
Si Si1 0.051197 0.410172 0.795466
Si Si2 0.717047 0.913567 0.174421
Si Si3 0.121682 0.988713 0.870464
Si Si4 0.559479 0.416296 0.367969
Si Si5 0.804989 0.281774 0.952587
Si Si6 0.400608 0.909410 0.552673
Si Si7 0.159278 0.296561 0.978032
O O1 0.050594 0.470419 0.514091
O O2 0.000000 0.328435 0.750000
O O3 0.102778 0.331106 0.927147
O O4 0.751799 0.776504 0.273503
O O5 0.728343 0.011109 0.436369
O O6 0.658594 0.886958 0.064198
O O7 0.091985 0.003924 0.562213
O O8 0.154900 0.847340 0.936480
O O9 0.159510 0.123214 0.946895
O O10 0.500000 0.418178 0.250000
O O11 0.575804 0.500007 0.650342
O O12 0.575908 0.249496 0.400557
O O13 0.826642 0.361778 0.758028
O O14 0.805480 0.340594 0.229631
O O15 0.413096 0.999837 0.327291
#
# Coordination Sequence:
#
# PCOD9226416 Si02
#       7
#     4   4   4   4   4   4   4
#     4  10  21  37  54  69  87 117 159 206 254 301
#     4  10  18  30  49  78 111 141 176 216 264 319
#     4   8  14  23  39  64  90 112 138 169 212 267
#     4  10  21  38  60  84 114 158 206 247 301 374
#     4  10  17  28  48  75 102 129 159 195 241 299
#     4  10  21  35  56  87 120 153 197 255 304 345
#     4  10  18  29  49  71  92 120 156 196 238 287
#
# _framework density 20.452860000000001
#
# number of rings (size 3 to 8) (size 9 to 14) (size 15 to 20)
#    0.000    2.286    0.000    5.143    0.000    0.571 
#    0.000    0.000    0.000   12.857    0.000    0.000 
#    0.000    0.000    0.000    0.000    0.000    0.000 
#
# Total GULP energy -155940.062040 kJ/mol
# GULP energy per Si atom -5569.287930 kJ/mol
# Density = 2.040631 g / cm^3
# Si number density = 20.452860 Si / 1000 Ang^3
#
#
#
# Elastic Constant Matrix: (Units=GPa)
#
#
# Indices 1 2 3 4 5 6 
#
# 1 36.9696 12.5893 28.0671 0.0000 -9.4362 0.0000
# 2 12.5893 85.8240 16.3648 0.0000 4.1892 0.0000
# 3 28.0671 16.3648 129.4538 0.0000 -34.3089 0.0000
# 4 0.0000 0.0000 0.0000 -5.0848 0.0000 5.6510
# 5 -9.4362 4.1892 -34.3089 0.0000 23.9262 0.0000
# 6 0.0000 0.0000 0.0000 5.6510 0.0000 26.4770
#
#
#
# Elastic Compliance Matrix: (Units=1/GPa)
#
#
# Indices 1 2 3 4 5 6 
#
# 1 0.034131 -0.004410 -0.004952 0.000000 0.007132 0.000000
# 2 -0.004410 0.013252 -0.002895 0.000000 -0.008211 0.000000
# 3 -0.004952 -0.002895 0.014164 0.000000 0.018864 0.000000
# 4 0.000000 0.000000 0.000000 -0.158959 0.000000 0.033927
# 5 0.007132 -0.008211 0.018864 0.000000 0.073095 0.000000
# 6 0.000000 0.000000 0.000000 0.033927 0.000000 0.030528
#
#
# Mechanical properties :
#
#
# Convention : Reuss Voigt Hill
#
# Bulk Modulus (GPa) = 27.00446 40.69884 33.85165
# Shear Modulus (GPa) = 116.08882 22.07877 69.08380
#
# Velocity S-wave (km/s) = 7.54204 3.28913 5.81811
# Velocity P-wave (km/s) = 9.43796 5.86230 7.85626
#
# Compressibility (1/GPa) = 0.03703093
#
# Stress axis : x y z
#
# Youngs Moduli (GPa) = 29.29863 75.46299 70.60144
#
# Poissons Ratio (x) = 0.33282 0.34965
# Poissons Ratio (y) = 0.12922 0.20440
# Poissons Ratio (z) = 0.14510 0.21847
#
# Static dielectric constant tensor:
#      x y z
#    x 1.725690 0.000000 -0.077220 
#    y 0.000000 1.761700 0.000000 
#    z -0.077220 0.000000 1.832360 
# 
# From -- ./inp_files/8107.got.cif
#   From: 2010.05.17/outbox.cif.g08.bks.cpg/sg13_5_cif.got.tgz:8107.got - 2010.06.03 16:44:36.
