data_PCOD9226458
_publ_section_title
;
Structure prediction by ZEFSAII (Michael W. Deem and Ramdas Pophale) SiO2 
 PCOD9226458
Probable space group: P 2/C
;
_chemical_formula_sum "Si O2"
_cell_formula_units_Z 24
_cell_length_a 12.245843
_cell_length_b 8.621334
_cell_length_c 11.557224
_cell_angle_alpha 90.000000
_cell_angle_beta 92.417605
_cell_angle_gamma 90.000000
_cell_volume 1219.073688
_symmetry_space_group_name_H-M "P 2/C"
_symmetry_group_IT_number 13
_symmetry_cell_setting 'monoclinic'
loop_
_space_group_symop_operation_xyz
x,y,z
-x,y,1/2-z
-x,-y,-z
x,-y,1/2+z
loop_
_atom_site_type_symbol
_atom_site_label
_atom_site_fract_x
_atom_site_fract_y
_atom_site_fract_z
Si Si1 0.342442 0.287075 0.137648
Si Si2 0.500000 0.532570 0.250000
Si Si3 0.101019 0.743502 0.674233
Si Si4 0.001232 0.830658 0.441952
Si Si5 0.624345 0.798549 0.126057
Si Si6 0.841353 0.105752 0.763752
Si Si7 0.500000 0.960785 0.750000
O O1 0.424887 0.428002 0.163577
O O2 0.221486 0.329572 0.177714
O O3 0.398293 0.148208 0.212769
O O4 0.339098 0.229067 0.004279
O O5 0.576024 0.640546 0.174786
O O6 0.050303 0.726506 0.544098
O O7 0.000000 0.692921 0.750000
O O8 0.130568 0.924006 0.710283
O O9 0.083046 0.840231 0.338717
O O10 0.882016 0.805484 0.381113
O O11 0.000000 0.000000 0.500000
O O12 0.721716 0.856232 0.213947
O O13 0.531741 0.929165 0.143595
#
# Coordination Sequence:
#
# PCOD9226458 Si02
#       7
#     4   2   4   4   4   4   2
#     4  11  22  40  62  85 125 160 201 256 307 353
#     4  10  26  44  58  82 118 172 214 248 298 362
#     4  11  19  32  57  91 128 153 190 242 313 367
#     4   9  16  29  48  85 126 154 177 232 309 362
#     4  11  21  39  63  88 118 159 206 253 308 359
#     4  10  17  29  55  87 120 149 188 242 300 366
#     4  10  22  36  60 100 114 146 206 262 306 368
#
# _framework density 19.687079000000001
#
# number of rings (size 3 to 8) (size 9 to 14) (size 15 to 20)
#    0.000    1.667    6.667    1.000    0.000    0.000 
#    0.000    3.333    3.667    2.000    0.000    0.000 
#    0.000    0.000    0.000    0.000    0.000    0.000 
#
# Total GULP energy -133697.677344 kJ/mol
# GULP energy per Si atom -5570.736556 kJ/mol
# Density = 1.964227 g / cm^3
# Si number density = 19.687079 Si / 1000 Ang^3
#
#
#
# Elastic Constant Matrix: (Units=GPa)
#
#
# Indices 1 2 3 4 5 6 
#
# 1 111.4014 14.7503 39.9427 0.0000 5.8336 0.0000
# 2 14.7503 38.8970 15.7986 0.0000 1.6638 0.0000
# 3 39.9427 15.7986 95.4061 0.0000 13.9939 0.0000
# 4 0.0000 0.0000 0.0000 4.4761 0.0000 7.2910
# 5 5.8336 1.6638 13.9939 0.0000 31.3072 0.0000
# 6 0.0000 0.0000 0.0000 7.2910 0.0000 2.8656
#
#
#
# Elastic Compliance Matrix: (Units=1/GPa)
#
#
# Indices 1 2 3 4 5 6 
#
# 1 0.010770 -0.002416 -0.004102 0.000000 -0.000045 0.000000
# 2 -0.002416 0.028116 -0.003736 0.000000 0.000626 0.000000
# 3 -0.004102 -0.003736 0.013566 0.000000 -0.005101 0.000000
# 4 0.000000 0.000000 0.000000 -0.071049 0.000000 0.180773
# 5 -0.000045 0.000626 -0.005101 0.000000 0.034197 0.000000
# 6 0.000000 0.000000 0.000000 0.180773 0.000000 -0.110980
#
#
# Mechanical properties :
#
#
# Convention : Reuss Voigt Hill
#
# Bulk Modulus (GPa) = 31.30609 42.96529 37.13569
# Shear Modulus (GPa) = -77.85110 19.41064 -29.22023
#
# Velocity S-wave (km/s) = -6.29525 3.14340 -3.85676
# Velocity P-wave (km/s) = 6.07485 5.91998 0.96376
#
# Compressibility (1/GPa) = 0.03194267
#
# Stress axis : x y z
#
# Youngs Moduli (GPa) = 92.85396 35.56724 73.71488
#
# Poissons Ratio (x) = 0.08593 0.30239
# Poissons Ratio (y) = 0.22433 0.27541
# Poissons Ratio (z) = 0.38090 0.13288
#
# Static dielectric constant tensor:
#      x y z
#    x 1.747620 0.000000 0.019860 
#    y 0.000000 1.699240 0.000000 
#    z 0.019860 0.000000 1.690960 
# 
# From -- ./inp_files/32625.got.cif
#   From: 2010.05.17/outbox.cif.g08.bks.cpg/sg13_17_cif.got.tgz:32625.got - 2010.06.03 16:44:36.
