data_PCOD9226209
_publ_section_title
;
Structure prediction by ZEFSAII (Michael W. Deem and Ramdas Pophale) SiO2 
 PCOD9226209
Probable space group: P 2/C
;
_chemical_formula_sum "Si O2"
_cell_formula_units_Z 26
_cell_length_a 32.548375
_cell_length_b 7.110683
_cell_length_c 5.439778
_cell_angle_alpha 90.000000
_cell_angle_beta 84.849247
_cell_angle_gamma 90.000000
_cell_volume 1253.904739
_symmetry_space_group_name_H-M "P 2/C"
_symmetry_group_IT_number 13
_symmetry_cell_setting 'monoclinic'
loop_
_space_group_symop_operation_xyz
x,y,z
-x,y,1/2-z
-x,-y,-z
x,-y,1/2+z
loop_
_atom_site_type_symbol
_atom_site_label
_atom_site_fract_x
_atom_site_fract_y
_atom_site_fract_z
Si Si1 0.089881 0.122738 0.720679
Si Si2 0.517488 0.784300 0.990611
Si Si3 0.169209 0.381234 0.623542
Si Si4 0.649754 0.713991 0.414387
Si Si5 0.000000 0.124793 0.750000
Si Si6 0.742934 0.382003 0.831207
Si Si7 0.614846 0.280839 0.433149
O O1 0.128995 0.256508 0.680510
O O2 0.044750 0.223140 0.730181
O O3 0.091601 0.985626 0.481336
O O4 0.500000 0.701783 0.750000
O O5 0.500000 0.701821 0.250000
O O6 0.566286 0.755536 0.963968
O O7 0.500000 0.000000 0.000000
O O8 0.168629 0.466746 0.347908
O O9 0.213492 0.279517 0.643148
O O10 0.699109 0.715660 0.389601
O O11 0.630739 0.499544 0.422774
O O12 0.633674 0.798078 0.171602
O O13 0.632445 0.798161 0.671923
O O14 0.000000 0.000000 0.500000
O O15 0.743026 0.537841 0.052078
#
# Coordination Sequence:
#
# PCOD9226209 Si02
#       7
#     4   4   4   4   2   4   4
#     4  10  19  35  56  80 109 157 199 246 288 345
#     4  10  21  37  52  69  92 131 164 190 233 298
#     4  10  21  33  53  84 117 149 189 235 300 355
#     4  10  17  30  48  78 102 119 159 203 255 287
#     4   8  16  30  52  76 104 144 208 244 280 338
#     4  10  16  30  49  75 106 134 164 208 260 325
#     4  10  18  30  51  75  97 122 155 203 241 286
#
# _framework density 20.735229
#
# number of rings (size 3 to 8) (size 9 to 14) (size 15 to 20)
#    0.000    2.154    3.077    1.846    0.000    0.000 
#    0.000   10.000    0.000    0.000   24.000    0.000 
#    0.000    0.000    0.000    0.000    0.000    0.000 
#
# Total GULP energy -144818.663179 kJ/mol
# GULP energy per Si atom -5569.948584 kJ/mol
# Density = 2.068803 g / cm^3
# Si number density = 20.735229 Si / 1000 Ang^3
#
#
#
# Elastic Constant Matrix: (Units=GPa)
#
#
# Indices 1 2 3 4 5 6 
#
# 1 244.0166 25.5422 33.5586 0.0000 -13.0456 0.0000
# 2 25.5422 61.2659 8.2783 0.0000 -0.6687 0.0000
# 3 33.5586 8.2783 170.3289 0.0000 15.4808 0.0000
# 4 0.0000 0.0000 0.0000 -17.9550 0.0000 -13.0853
# 5 -13.0456 -0.6687 15.4808 0.0000 43.0756 0.0000
# 6 0.0000 0.0000 0.0000 -13.0853 0.0000 44.6954
#
#
#
# Elastic Compliance Matrix: (Units=1/GPa)
#
#
# Indices 1 2 3 4 5 6 
#
# 1 0.004500 -0.001729 -0.000955 0.000000 0.001679 0.000000
# 2 -0.001729 0.017107 -0.000483 0.000000 -0.000084 0.000000
# 3 -0.000955 -0.000483 0.006316 0.000000 -0.002567 0.000000
# 4 0.000000 0.000000 0.000000 -0.045901 0.000000 -0.013438
# 5 0.001679 -0.000084 -0.002567 0.000000 0.024645 0.000000
# 6 0.000000 0.000000 0.000000 -0.013438 0.000000 0.018439
#
#
# Mechanical properties :
#
#
# Convention : Reuss Voigt Hill
#
# Bulk Modulus (GPa) = 46.31955 67.81887 57.06921
# Shear Modulus (GPa) = 129.40849 41.17866 85.29358
#
# Velocity S-wave (km/s) = 7.90857 4.46121 6.42059
# Velocity P-wave (km/s) = 10.28499 7.70160 9.08558
#
# Compressibility (1/GPa) = 0.02158916
#
# Stress axis : x y z
#
# Youngs Moduli (GPa) = 222.21270 58.45425 158.32894
#
# Poissons Ratio (x) = 0.10105 0.15124
# Poissons Ratio (y) = 0.38415 0.07650
# Poissons Ratio (z) = 0.21227 0.02824
#
# Static dielectric constant tensor:
#      x y z
#    x 1.789700 0.000000 -0.000900 
#    y 0.000000 1.710060 0.000000 
#    z -0.000900 0.000000 1.761980 
# 
# From -- ./inp_files/7775.got.cif
#   From: 2010.05.17/outbox.cif.g08.bks.cpg/sg13_4_cif.got.tgz:7775.got - 2010.06.03 16:44:36.
