data_PCOD9226123
_publ_section_title
;
Structure prediction by ZEFSAII (Michael W. Deem and Ramdas Pophale) SiO2 
 PCOD9226123
Probable space group: P 2/C
;
_chemical_formula_sum "Si O2"
_cell_formula_units_Z 28
_cell_length_a 35.409845
_cell_length_b 7.089432
_cell_length_c 5.282478
_cell_angle_alpha 90.000000
_cell_angle_beta 102.898514
_cell_angle_gamma 90.000000
_cell_volume 1292.629238
_symmetry_space_group_name_H-M "P 2/C"
_symmetry_group_IT_number 13
_symmetry_cell_setting 'monoclinic'
loop_
_space_group_symop_operation_xyz
x,y,z
-x,y,1/2-z
-x,-y,-z
x,-y,1/2+z
loop_
_atom_site_type_symbol
_atom_site_label
_atom_site_fract_x
_atom_site_fract_y
_atom_site_fract_z
Si Si1 0.138339 0.713279 0.104069
Si Si2 0.542007 0.377826 0.359278
Si Si3 0.107260 0.286821 0.057480
Si Si4 0.781996 0.872544 0.134930
Si Si5 0.698471 0.875307 0.099973
Si Si6 0.616172 0.876963 0.871717
Si Si7 0.982826 0.287041 0.474457
O O1 0.124169 0.498390 0.044813
O O2 0.111049 0.796651 0.283113
O O3 0.181925 0.735751 0.264979
O O4 0.132816 0.801663 0.818845
O O5 0.500000 0.282713 0.250000
O O6 0.543208 0.458832 0.645906
O O7 0.578737 0.248219 0.363630
O O8 0.063279 0.294534 0.082963
O O9 0.784075 0.030643 0.361823
O O10 0.739708 0.778444 0.109950
O O11 0.698363 0.956932 0.385984
O O12 0.657598 0.775122 0.983895
O O13 0.615607 0.960095 0.587056
O O14 0.000000 0.199637 0.250000
O O15 0.000000 0.500000 0.500000
O O16 0.000000 0.198312 0.750000
#
# Coordination Sequence:
#
# PCOD9226123 Si02
#       7
#     4   4   4   4   4   4   4
#     4  10  18  30  46  63  95 124 148 183 231 283
#     4  10  21  36  53  75 112 152 179 213 276 337
#     4  10  19  30  45  69  97 124 143 181 243 288
#     4  10  19  32  50  71  93 124 164 199 234 283
#     4   8  16  30  49  72  95 121 159 210 257 284
#     4  10  19  33  56  81 103 134 182 234 272 309
#     4  10  16  25  41  63  93 113 142 184 223 284
#
# _framework density 21.661276000000001
#
# number of rings (size 3 to 8) (size 9 to 14) (size 15 to 20)
#    0.000    2.286    0.000    6.000    0.000    0.571 
#    0.000    0.000    6.286    0.000    0.000    0.000 
#    0.000  139.429    0.000    0.000    0.000    0.000 
#
# Total GULP energy -156146.847489 kJ/mol
# GULP energy per Si atom -5576.673125 kJ/mol
# Density = 2.161197 g / cm^3
# Si number density = 21.661276 Si / 1000 Ang^3
#
#
#
# Elastic Constant Matrix: (Units=GPa)
#
#
# Indices 1 2 3 4 5 6 
#
# 1 157.8362 5.8714 10.2079 0.0000 26.3004 0.0000
# 2 5.8714 40.5385 -5.3417 0.0000 5.7066 0.0000
# 3 10.2079 -5.3417 125.4272 0.0000 -23.9105 0.0000
# 4 0.0000 0.0000 0.0000 10.4138 0.0000 17.5130
# 5 26.3004 5.7066 -23.9105 0.0000 54.5409 0.0000
# 6 0.0000 0.0000 0.0000 17.5130 0.0000 19.4891
#
#
#
# Elastic Compliance Matrix: (Units=1/GPa)
#
#
# Indices 1 2 3 4 5 6 
#
# 1 0.007107 -0.000652 -0.001360 0.000000 -0.003955 0.000000
# 2 -0.000652 0.025141 0.000744 0.000000 -0.001990 0.000000
# 3 -0.001360 0.000744 0.008975 0.000000 0.004513 0.000000
# 4 0.000000 0.000000 0.000000 -0.187844 0.000000 0.168798
# 5 -0.003955 -0.001990 0.004513 0.000000 0.022429 0.000000
# 6 0.000000 0.000000 0.000000 0.168798 0.000000 -0.100373
#
#
# Mechanical properties :
#
#
# Convention : Reuss Voigt Hill
#
# Bulk Modulus (GPa) = 25.84792 38.36414 32.10603
# Shear Modulus (GPa) = -23.90806 37.75970 6.92582
#
# Velocity S-wave (km/s) = -3.32584 4.17968 1.79005
# Velocity P-wave (km/s) = 1.67020 6.40643 4.37337
#
# Compressibility (1/GPa) = 0.03868783
#
# Stress axis : x y z
#
# Youngs Moduli (GPa) = 140.70739 39.77644 111.41528
#
# Poissons Ratio (x) = 0.02593 0.15154
# Poissons Ratio (y) = 0.09171 -0.08294
# Poissons Ratio (z) = 0.19138 -0.02961
#
# Static dielectric constant tensor:
#      x y z
#    x 1.813010 0.000000 -0.011250 
#    y 0.000000 1.095620 0.000000 
#    z -0.011250 0.000000 1.853620 
# 
# From -- ./inp_files/8060.got.cif
#   From: 2010.05.17/outbox.cif.g08.bks.cpg/sg13_5_cif.got.tgz:8060.got - 2010.06.03 16:44:36.
