data_PCOD9226027
_publ_section_title
;
Structure prediction by ZEFSAII (Michael W. Deem and Ramdas Pophale) SiO2 
 PCOD9226027
Probable space group: P 2/C
;
_chemical_formula_sum "Si O2"
_cell_formula_units_Z 24
_cell_length_a 15.911351
_cell_length_b 8.135287
_cell_length_c 16.716095
_cell_angle_alpha 90.000000
_cell_angle_beta 32.739492
_cell_angle_gamma 90.000000
_cell_volume 1170.220450
_symmetry_space_group_name_H-M "P 2/C"
_symmetry_group_IT_number 13
_symmetry_cell_setting 'monoclinic'
loop_
_space_group_symop_operation_xyz
x,y,z
-x,y,1/2-z
-x,-y,-z
x,-y,1/2+z
loop_
_atom_site_type_symbol
_atom_site_label
_atom_site_fract_x
_atom_site_fract_y
_atom_site_fract_z
Si Si1 0.257432 0.571591 0.003078
Si Si2 0.171528 0.325372 0.749131
Si Si3 0.253118 0.164096 0.831339
Si Si4 0.000000 0.102875 0.250000
Si Si5 0.009549 0.359834 0.369018
Si Si6 0.152733 0.130676 0.503167
Si Si7 0.500000 0.678207 0.250000
O O1 0.228519 0.645536 0.113467
O O2 0.107010 0.471237 0.091534
O O3 0.270744 0.726147 0.932887
O O4 0.395813 0.443079 0.887143
O O5 0.285288 0.227693 0.716744
O O6 0.129044 0.511375 0.810825
O O7 0.014494 0.216273 0.874405
O O8 0.388634 0.214157 0.783607
O O9 0.100192 0.267630 0.980604
O O10 0.207919 0.976075 0.883908
O O11 0.923660 0.221431 0.244136
O O12 0.121797 0.993170 0.102808
#
# Coordination Sequence:
#
# PCOD9226027 Si02
#       7
#     4   4   4   2   4   4   2
#     4  10  19  36  59  76 114 150 198 221 276 351
#     4  11  18  34  57  92 113 141 185 252 292 325
#     4  10  22  34  57  82 121 148 191 235 277 344
#     4  10  14  28  52  86 110 138 176 218 290 344
#     4   9  17  31  54  85 111 147 178 234 294 341
#     4  10  19  33  58  87 114 145 177 241 303 337
#     4  10  24  42  54  78 108 178 196 212 276 340
#
# _framework density 20.508956999999999
#
# number of rings (size 3 to 8) (size 9 to 14) (size 15 to 20)
#    0.000    2.000    3.333    2.000    0.000    1.333 
#    0.000    0.000    0.000    2.000    0.000    0.000 
#    0.000    0.000    0.000    0.000    0.000    0.000 
#
# Total GULP energy -133893.721913 kJ/mol
# GULP energy per Si atom -5578.905080 kJ/mol
# Density = 2.046228 g / cm^3
# Si number density = 20.508957 Si / 1000 Ang^3
#
#
#
# Elastic Constant Matrix: (Units=GPa)
#
#
# Indices 1 2 3 4 5 6 
#
# 1 51.3180 4.8192 11.6217 0.0000 6.5417 0.0000
# 2 4.8192 76.1937 1.7325 0.0000 -4.6303 0.0000
# 3 11.6217 1.7325 23.1621 0.0000 -1.0375 0.0000
# 4 0.0000 0.0000 0.0000 18.7167 0.0000 4.9597
# 5 6.5417 -4.6303 -1.0375 0.0000 20.3711 0.0000
# 6 0.0000 0.0000 0.0000 4.9597 0.0000 16.8304
#
#
#
# Elastic Compliance Matrix: (Units=1/GPa)
#
#
# Indices 1 2 3 4 5 6 
#
# 1 0.023460 -0.001729 -0.012025 0.000000 -0.008539 0.000000
# 2 -0.001729 0.013453 0.000023 0.000000 0.003614 0.000000
# 3 -0.012025 0.000023 0.049492 0.000000 0.006387 0.000000
# 4 0.000000 0.000000 0.000000 0.057954 0.000000 -0.017078
# 5 -0.008539 0.003614 0.006387 0.000000 0.052978 0.000000
# 6 0.000000 0.000000 0.000000 -0.017078 0.000000 0.064449
#
#
# Mechanical properties :
#
#
# Convention : Reuss Voigt Hill
#
# Bulk Modulus (GPa) = 16.96524 20.78005 18.87265
# Shear Modulus (GPa) = 16.18672 20.01699 18.10186
#
# Velocity S-wave (km/s) = 2.81241 3.12751 2.97414
# Velocity P-wave (km/s) = 4.34008 4.81622 4.58433
#
# Compressibility (1/GPa) = 0.05894405
#
# Stress axis : x y z
#
# Youngs Moduli (GPa) = 42.62497 74.33324 20.20538
#
# Poissons Ratio (x) = 0.12855 0.24296
# Poissons Ratio (y) = 0.07371 -0.00047
# Poissons Ratio (z) = 0.51255 -0.00174
#
# Static dielectric constant tensor:
#      x y z
#    x 1.757440 0.000000 0.032660 
#    y 0.000000 1.770530 0.000000 
#    z 0.032660 0.000000 1.743730 
# 
# From -- ./inp_files/65749.got.cif
#   From: 2010.05.17/outbox.cif.g08.bks.cpg/sg13_33_cif.got.tgz:65749.got - 2010.06.03 16:44:36.
