data_PCOD9226753
_publ_section_title
;
Structure prediction by ZEFSAII (Michael W. Deem and Ramdas Pophale) SiO2 
 PCOD9226753
Probable space group: P 2/C
;
_chemical_formula_sum "Si O2"
_cell_formula_units_Z 32
_cell_length_a 18.885417
_cell_length_b 9.613440
_cell_length_c 19.363709
_cell_angle_alpha 90.000000
_cell_angle_beta 147.475156
_cell_angle_gamma 90.000000
_cell_volume 1890.192010
_symmetry_space_group_name_H-M "P 2/C"
_symmetry_group_IT_number 13
_symmetry_cell_setting 'monoclinic'
loop_
_space_group_symop_operation_xyz
x,y,z
-x,y,1/2-z
-x,-y,-z
x,-y,1/2+z
loop_
_atom_site_type_symbol
_atom_site_label
_atom_site_fract_x
_atom_site_fract_y
_atom_site_fract_z
Si Si1 0.156022 0.085228 0.053435
Si Si2 0.447622 0.825589 0.097934
Si Si3 0.412392 0.083937 0.983717
Si Si4 0.114707 0.665863 0.054148
Si Si5 0.713986 0.832856 0.403359
Si Si6 0.553935 0.657138 0.547382
Si Si7 0.851041 0.906653 0.313451
Si Si8 0.183725 0.641179 0.648992
O O1 0.196248 0.243774 0.099137
O O2 0.239890 0.992167 0.070234
O O3 0.170937 0.015133 0.141916
O O4 0.999984 0.077138 0.909364
O O5 0.588257 0.806679 0.250359
O O6 0.333475 0.796099 0.059389
O O7 0.441418 0.730490 0.024340
O O8 0.434371 0.989384 0.068452
O O9 0.261659 0.077396 0.835343
O O10 0.463977 0.241175 0.021004
O O11 0.500000 0.000000 0.000000
O O12 0.168197 0.741038 0.030323
O O13 0.159909 0.758083 0.157110
O O14 0.172524 0.512727 0.108936
O O15 0.956739 0.665888 0.929014
O O16 0.500000 0.500000 0.500000
O O17 0.697259 0.654871 0.700020
#
# Coordination Sequence:
#
# PCOD9226753 Si02
#       8
#     4   4   4   4   4   4   4   4
#     4   9  16  28  49  69  91 123 160 200 226 273
#     4  10  21  33  50  71  98 131 162 196 244 297
#     4  10  18  30  47  69  96 122 153 199 241 274
#     4   9  18  32  51  72 101 132 156 201 244 284
#     4  10  19  35  49  68  99 133 164 193 242 296
#     4  11  20  32  52  76  99 124 160 206 246 286
#     4   9  16  28  46  70  94 122 160 193 237 277
#     4  10  18  30  51  78  97 122 169 203 239 282
#
# _framework density 16.929496
#
# number of rings (size 3 to 8) (size 9 to 14) (size 15 to 20)
#    0.000    2.250    0.000    7.500    0.000    0.000 
#    0.000    3.750    0.000    4.500    0.000    7.000 
#    0.000    0.000    0.000    0.000    0.000    0.000 
#
# Total GULP energy -178380.429011 kJ/mol
# GULP energy per Si atom -5574.388407 kJ/mol
# Density = 1.689096 g / cm^3
# Si number density = 16.929496 Si / 1000 Ang^3
#
#
#
# Elastic Constant Matrix: (Units=GPa)
#
#
# Indices 1 2 3 4 5 6 
#
# 1 67.6638 23.8809 9.5889 0.0000 0.6572 0.0000
# 2 23.8809 116.1948 17.9933 0.0000 0.4908 0.0000
# 3 9.5889 17.9933 63.4612 0.0000 -0.3693 0.0000
# 4 0.0000 0.0000 0.0000 17.2172 0.0000 5.4663
# 5 0.6572 0.4908 -0.3693 0.0000 11.8753 0.0000
# 6 0.0000 0.0000 0.0000 5.4663 0.0000 16.9044
#
#
#
# Elastic Compliance Matrix: (Units=1/GPa)
#
#
# Indices 1 2 3 4 5 6 
#
# 1 0.016089 -0.003060 -0.001568 0.000000 -0.000813 0.000000
# 2 -0.003060 0.009586 -0.002257 0.000000 -0.000297 0.000000
# 3 -0.001568 -0.002257 0.016639 0.000000 0.000697 0.000000
# 4 0.000000 0.000000 0.000000 0.064727 0.000000 -0.020930
# 5 -0.000813 -0.000297 0.000697 0.000000 0.084287 0.000000
# 6 0.000000 0.000000 0.000000 -0.020930 0.000000 0.065924
#
#
# Mechanical properties :
#
#
# Convention : Reuss Voigt Hill
#
# Bulk Modulus (GPa) = 35.03565 38.91624 36.97595
# Shear Modulus (GPa) = 17.82291 22.25650 20.03970
#
# Velocity S-wave (km/s) = 3.24817 3.62976 3.44425
# Velocity P-wave (km/s) = 5.89978 6.37212 6.14050
#
# Compressibility (1/GPa) = 0.02854235
#
# Stress axis : x y z
#
# Youngs Moduli (GPa) = 62.15351 104.31839 60.10103
#
# Poissons Ratio (x) = 0.31926 0.09424
# Poissons Ratio (y) = 0.19022 0.13566
# Poissons Ratio (z) = 0.09746 0.23547
#
# Static dielectric constant tensor:
#      x y z
#    x 1.570300 0.000000 0.014340 
#    y 0.000000 1.607740 0.000000 
#    z 0.014340 0.000000 1.571020 
# 
# From -- ./inp_files/81710.got.cif
#   From: 2010.05.17/outbox.cif.g08.bks.cpg/sg13_41_cif.got.tgz:81710.got - 2010.06.03 16:44:36.
