data_PCOD9226254
_publ_section_title
;
Structure prediction by ZEFSAII (Michael W. Deem and Ramdas Pophale) SiO2 
 PCOD9226254
Probable space group: P 2/C
;
_chemical_formula_sum "Si O2"
_cell_formula_units_Z 16
_cell_length_a 9.926433
_cell_length_b 11.217397
_cell_length_c 8.313987
_cell_angle_alpha 90.000000
_cell_angle_beta 135.151973
_cell_angle_gamma 90.000000
_cell_volume 652.866904
_symmetry_space_group_name_H-M "P 2/C"
_symmetry_group_IT_number 13
_symmetry_cell_setting 'monoclinic'
loop_
_space_group_symop_operation_xyz
x,y,z
-x,y,1/2-z
-x,-y,-z
x,-y,1/2+z
loop_
_atom_site_type_symbol
_atom_site_label
_atom_site_fract_x
_atom_site_fract_y
_atom_site_fract_z
Si Si1 0.000000 0.719669 0.750000
Si Si2 0.767355 0.154675 0.530108
Si Si3 0.500000 0.432260 0.750000
Si Si4 0.807163 0.076656 0.894124
Si Si5 0.284922 0.368575 0.252940
O O1 0.082520 0.643265 0.672879
O O2 0.852570 0.815176 0.551344
O O3 0.703086 0.138084 0.657892
O O4 0.702596 0.259198 0.359462
O O5 0.000000 0.169349 0.750000
O O6 0.709855 0.030714 0.401326
O O7 0.423829 0.367162 0.526304
O O8 0.664852 0.517582 0.813955
O O9 0.000000 0.000000 0.000000
#
# Coordination Sequence:
#
# PCOD9226254 Si02
#       5
#     2   4   2   4   4
#     4  12  20  36  76 106 122 164 224 274 320 398
#     4  10  17  34  64 104 131 164 198 273 329 392
#     4  10  28  52  60  82 140 188 222 278 330 378
#     4  10  16  30  59 114 140 148 188 283 340 386
#     4  11  24  46  69  91 127 180 225 277 334 377
#
# _framework density 24.507293000000001
#
# number of rings (size 3 to 8) (size 9 to 14) (size 15 to 20)
#    0.000    1.500    8.750    0.000    0.000    5.000 
#    2.250    0.000    0.000   18.000    0.000    0.000 
#    0.000    0.000    0.000    0.000    0.000    0.000 
#
# Total GULP energy -89276.154444 kJ/mol
# GULP energy per Si atom -5579.759653 kJ/mol
# Density = 2.445151 g / cm^3
# Si number density = 24.507293 Si / 1000 Ang^3
#
#
#
# Elastic Constant Matrix: (Units=GPa)
#
#
# Indices 1 2 3 4 5 6 
#
# 1 89.9742 57.5148 38.4210 0.0000 -11.7438 0.0000
# 2 57.5148 104.6839 85.6671 0.0000 -14.5617 0.0000
# 3 38.4210 85.6671 161.2162 0.0000 -53.0510 0.0000
# 4 0.0000 0.0000 0.0000 43.2713 0.0000 -21.6031
# 5 -11.7438 -14.5617 -53.0510 0.0000 52.9977 0.0000
# 6 0.0000 0.0000 0.0000 -21.6031 0.0000 15.2314
#
#
#
# Elastic Compliance Matrix: (Units=1/GPa)
#
#
# Indices 1 2 3 4 5 6 
#
# 1 0.017937 -0.012223 0.003613 0.000000 0.004233 0.000000
# 2 -0.012223 0.026870 -0.014654 0.000000 -0.009994 0.000000
# 3 0.003613 -0.014654 0.017994 0.000000 0.014787 0.000000
# 4 0.000000 0.000000 0.000000 0.079170 0.000000 0.112290
# 5 0.004233 -0.009994 0.014787 0.000000 0.031862 0.000000
# 6 0.000000 0.000000 0.000000 0.112290 0.000000 0.224918
#
#
# Mechanical properties :
#
#
# Convention : Reuss Voigt Hill
#
# Bulk Modulus (GPa) = 61.44717 79.89779 70.67248
# Shear Modulus (GPa) = 11.09376 33.91817 22.50597
#
# Velocity S-wave (km/s) = 2.12992 3.72426 3.03370
# Velocity P-wave (km/s) = 5.58356 7.15303 6.41646
#
# Compressibility (1/GPa) = 0.01627414
#
# Stress axis : x y z
#
# Youngs Moduli (GPa) = 55.74979 37.21669 55.57304
#
# Poissons Ratio (x) = 0.45490 -0.20080
# Poissons Ratio (y) = 0.68143 0.81436
# Poissons Ratio (z) = -0.20144 0.54537
#
# Static dielectric constant tensor:
#      x y z
#    x 1.831880 0.000000 0.242610 
#    y 0.000000 1.888320 0.000000 
#    z 0.242610 0.000000 1.933100 
# 
# From -- ./inp_files/15443.got.cif
#   From: 2010.05.17/outbox.cif.g08.bks.cpg/sg13_8_cif.got.tgz:15443.got - 2010.06.03 16:44:36.
