data_PCOD9226367
_publ_section_title
;
Structure prediction by ZEFSAII (Michael W. Deem and Ramdas Pophale) SiO2 
 PCOD9226367
Probable space group: P 2/C
;
_chemical_formula_sum "Si O2"
_cell_formula_units_Z 28
_cell_length_a 8.995290
_cell_length_b 23.752343
_cell_length_c 5.557743
_cell_angle_alpha 90.000000
_cell_angle_beta 94.675293
_cell_angle_gamma 90.000000
_cell_volume 1183.511866
_symmetry_space_group_name_H-M "P 2/C"
_symmetry_group_IT_number 13
_symmetry_cell_setting 'monoclinic'
loop_
_space_group_symop_operation_xyz
x,y,z
-x,y,1/2-z
-x,-y,-z
x,-y,1/2+z
loop_
_atom_site_type_symbol
_atom_site_label
_atom_site_fract_x
_atom_site_fract_y
_atom_site_fract_z
Si Si1 0.301640 0.650525 0.600397
Si Si2 0.278783 0.313622 0.596363
Si Si3 0.828926 0.979013 0.938639
Si Si4 0.331555 0.480247 0.210783
Si Si5 0.825355 0.807818 0.268513
Si Si6 0.014505 0.599627 0.001664
Si Si7 0.172516 0.849987 0.731026
O O1 0.362757 0.671232 0.353872
O O2 0.342717 0.585709 0.655016
O O3 0.120981 0.645662 0.537505
O O4 0.343912 0.687720 0.835963
O O5 0.195249 0.255924 0.647117
O O6 0.165064 0.365471 0.543102
O O7 0.828966 0.914334 0.857488
O O8 0.762925 0.011976 0.698009
O O9 0.000000 0.000000 0.000000
O O10 0.500000 0.504693 0.250000
O O11 0.263953 0.491518 0.464278
O O12 0.763500 0.843085 0.489707
O O13 0.000000 0.822321 0.250000
O O14 0.760507 0.816801 0.990323
O O15 0.000000 0.567898 0.750000
O O16 0.000000 0.568371 0.250000
O O17 0.000000 0.831169 0.750000
#
# Coordination Sequence:
#
# PCOD9226367 Si02
#       7
#     4   4   4   4   4   4   4
#     4  10  18  30  51  67  86 116 148 164 208 268
#     4  10  18  30  45  65  87 118 145 177 213 264
#     4  10  17  24  37  41  62  92 139 182 234 279
#     4  10  21  37  55  75  96 114 137 177 221 254
#     4  10  19  26  37  54  82 100 134 178 228 266
#     4   8  15  25  42  59  83 107 145 163 198 238
#     4  10  18  25  33  51  68  99 134 182 234 276
#
# _framework density 23.658401999999999
#
# number of rings (size 3 to 8) (size 9 to 14) (size 15 to 20)
#    0.000    2.286    1.429    3.857    4.000    4.000 
#    0.000    0.000    0.000   23.143    0.000    0.000 
#    0.000    0.000    0.000    0.000    0.000    0.000 
#
# Total GULP energy -156107.569471 kJ/mol
# GULP energy per Si atom -5575.270338 kJ/mol
# Density = 2.360455 g / cm^3
# Si number density = 23.658402 Si / 1000 Ang^3
#
#
#
# Elastic Constant Matrix: (Units=GPa)
#
#
# Indices 1 2 3 4 5 6 
#
# 1 37.0923 -1.8309 30.7511 0.0000 -7.3386 0.0000
# 2 -1.8309 86.8141 54.6422 0.0000 -10.8735 0.0000
# 3 30.7511 54.6422 310.7061 0.0000 -45.5480 0.0000
# 4 0.0000 0.0000 0.0000 38.6588 0.0000 -7.8872
# 5 -7.3386 -10.8735 -45.5480 0.0000 28.5610 0.0000
# 6 0.0000 0.0000 0.0000 -7.8872 0.0000 12.3019
#
#
#
# Elastic Compliance Matrix: (Units=1/GPa)
#
#
# Indices 1 2 3 4 5 6 
#
# 1 0.030368 0.003008 -0.002901 0.000000 0.004322 0.000000
# 2 0.003008 0.013314 -0.002327 0.000000 0.002131 0.000000
# 3 -0.002901 -0.002327 0.004797 0.000000 0.006019 0.000000
# 4 0.000000 0.000000 0.000000 0.029760 0.000000 0.019080
# 5 0.004322 0.002131 0.006019 0.000000 0.046534 0.000000
# 6 0.000000 0.000000 0.000000 0.019080 0.000000 0.093521
#
#
# Mechanical properties :
#
#
# Convention : Reuss Voigt Hill
#
# Bulk Modulus (GPa) = 22.70712 66.85971 44.78341
# Shear Modulus (GPa) = 21.06026 39.30767 30.18396
#
# Velocity S-wave (km/s) = 2.98683 4.08053 3.57574
# Velocity P-wave (km/s) = 4.63827 7.10794 6.00152
#
# Compressibility (1/GPa) = 0.04403906
#
# Stress axis : x y z
#
# Youngs Moduli (GPa) = 32.92904 75.11088 208.45702
#
# Poissons Ratio (x) = -0.22591 0.60474
# Poissons Ratio (y) = -0.09904 0.48502
# Poissons Ratio (z) = 0.09553 0.17476
#
# Static dielectric constant tensor:
#      x y z
#    x 1.932900 0.000000 -0.027260 
#    y 0.000000 1.840270 0.000000 
#    z -0.027260 0.000000 2.036340 
# 
# From -- ./inp_files/4154.got.cif
#   From: 2010.05.17/outbox.cif.g08.bks.cpg/sg13_3_cif.got.tgz:4154.got - 2010.06.03 16:44:36.
