data_PCOD9226630
_publ_section_title
;
Structure prediction by ZEFSAII (Michael W. Deem and Ramdas Pophale) SiO2 
 PCOD9226630
Probable space group: P 2/C
;
_chemical_formula_sum "Si O2"
_cell_formula_units_Z 28
_cell_length_a 14.200354
_cell_length_b 10.699124
_cell_length_c 13.557003
_cell_angle_alpha 90.000000
_cell_angle_beta 44.308773
_cell_angle_gamma 90.000000
_cell_volume 1438.775231
_symmetry_space_group_name_H-M "P 2/C"
_symmetry_group_IT_number 13
_symmetry_cell_setting 'monoclinic'
loop_
_space_group_symop_operation_xyz
x,y,z
-x,y,1/2-z
-x,-y,-z
x,-y,1/2+z
loop_
_atom_site_type_symbol
_atom_site_label
_atom_site_fract_x
_atom_site_fract_y
_atom_site_fract_z
Si Si1 0.268774 0.689713 0.314705
Si Si2 0.499237 0.132872 0.631862
Si Si3 0.828067 0.269391 0.085696
Si Si4 0.196878 0.506134 0.018443
Si Si5 0.697798 0.062788 0.323430
Si Si6 0.077823 0.110403 0.887932
Si Si7 0.879821 0.485388 0.204341
O O1 0.413124 0.741973 0.174777
O O2 0.275050 0.606063 0.407124
O O3 0.170809 0.810015 0.393573
O O4 0.192750 0.599794 0.295542
O O5 0.500000 0.121515 0.750000
O O6 0.638016 0.126371 0.466627
O O7 0.414287 0.018935 0.648960
O O8 0.746786 0.162843 0.205154
O O9 0.866271 0.364832 0.145338
O O10 0.757807 0.357876 0.056343
O O11 0.960807 0.203616 0.939299
O O12 0.192880 0.480550 0.136428
O O13 0.039095 0.502348 0.103078
O O14 0.816945 0.963371 0.260241
O O15 0.000000 0.000000 0.000000
#
# Coordination Sequence:
#
# PCOD9226630 Si02
#       7
#     4   4   4   4   4   4   4
#     4  10  18  36  58  77 113 148 184 238 277 335
#     4  10  22  41  60  79 107 154 199 234 278 328
#     4  10  17  35  58  82 119 143 179 237 283 339
#     4  10  19  32  55  89 114 152 179 224 290 351
#     4   9  21  38  58  81 109 150 187 238 284 326
#     4   9  16  31  58  80 110 142 178 228 288 335
#     4  10  19  32  56  87 118 146 183 221 296 342
#
# _framework density 19.460996999999999
#
# number of rings (size 3 to 8) (size 9 to 14) (size 15 to 20)
#    0.000    2.286    2.857    0.857    2.000    0.000 
#    7.714    2.857    0.000    0.000    0.000    0.000 
#    0.000    0.000    0.000    0.000    0.000    0.000 
#
# Total GULP energy -155895.942028 kJ/mol
# GULP energy per Si atom -5567.712215 kJ/mol
# Density = 1.941670 g / cm^3
# Si number density = 19.460997 Si / 1000 Ang^3
#
#
#
# Elastic Constant Matrix: (Units=GPa)
#
#
# Indices 1 2 3 4 5 6 
#
# 1 19.8634 2.7120 10.9951 0.0000 2.1639 0.0000
# 2 2.7120 100.9731 41.6660 0.0000 -8.3663 0.0000
# 3 10.9951 41.6660 113.5755 0.0000 0.1729 0.0000
# 4 0.0000 0.0000 0.0000 29.5406 0.0000 -3.1190
# 5 2.1639 -8.3663 0.1729 0.0000 17.5172 0.0000
# 6 0.0000 0.0000 0.0000 -3.1190 0.0000 4.8942
#
#
#
# Elastic Compliance Matrix: (Units=1/GPa)
#
#
# Indices 1 2 3 4 5 6 
#
# 1 0.053953 0.000191 -0.005283 0.000000 -0.006522 0.000000
# 2 0.000191 0.012251 -0.004522 0.000000 0.005872 0.000000
# 3 -0.005283 -0.004522 0.010977 0.000000 -0.001615 0.000000
# 4 0.000000 0.000000 0.000000 0.036294 0.000000 0.023130
# 5 -0.006522 0.005872 -0.001615 0.000000 0.060713 0.000000
# 6 0.000000 0.000000 0.000000 0.023130 0.000000 0.219063
#
#
# Mechanical properties :
#
#
# Convention : Reuss Voigt Hill
#
# Bulk Modulus (GPa) = 17.25546 38.35091 27.80318
# Shear Modulus (GPa) = 11.57953 22.32632 16.95293
#
# Velocity S-wave (km/s) = 2.44193 3.39076 2.95468
# Velocity P-wave (km/s) = 4.10325 5.92275 5.09488
#
# Compressibility (1/GPa) = 0.05795268
#
# Stress axis : x y z
#
# Youngs Moduli (GPa) = 18.53472 81.62646 91.09574
#
# Poissons Ratio (x) = -0.01556 0.48127
# Poissons Ratio (y) = -0.00353 0.41191
# Poissons Ratio (z) = 0.09792 0.36909
#
# Static dielectric constant tensor:
#      x y z
#    x 1.684230 0.000000 -0.017010 
#    y 0.000000 1.707380 0.000000 
#    z -0.017010 0.000000 1.731950 
# 
# From -- ./inp_files/53512.got.cif
#   From: 2010.05.17/outbox.cif.g08.bks.cpg/sg13_27_cif.got.tgz:53512.got - 2010.06.03 16:44:36.
