data_PCOD9226435
_publ_section_title
;
Structure prediction by ZEFSAII (Michael W. Deem and Ramdas Pophale) SiO2 
 PCOD9226435
Probable space group: P 2/C
;
_chemical_formula_sum "Si O2"
_cell_formula_units_Z 28
_cell_length_a 19.998461
_cell_length_b 11.153230
_cell_length_c 13.450843
_cell_angle_alpha 90.000000
_cell_angle_beta 24.674978
_cell_angle_gamma 90.000000
_cell_volume 1252.484309
_symmetry_space_group_name_H-M "P 2/C"
_symmetry_group_IT_number 13
_symmetry_cell_setting 'monoclinic'
loop_
_space_group_symop_operation_xyz
x,y,z
-x,y,1/2-z
-x,-y,-z
x,-y,1/2+z
loop_
_atom_site_type_symbol
_atom_site_label
_atom_site_fract_x
_atom_site_fract_y
_atom_site_fract_z
Si Si1 0.111010 0.324912 0.311550
Si Si2 0.768912 0.682829 0.263574
Si Si3 0.412689 0.556801 0.471768
Si Si4 0.284379 0.662585 0.388219
Si Si5 0.621781 0.930805 0.206189
Si Si6 0.295704 0.046181 0.671776
Si Si7 0.046972 0.935392 0.803835
O O1 0.078822 0.187864 0.320273
O O2 0.935793 0.357299 0.587616
O O3 0.255787 0.358018 0.190034
O O4 0.168612 0.386682 0.130267
O O5 0.642797 0.579794 0.455407
O O6 0.801433 0.682741 0.100364
O O7 0.710770 0.817960 0.361727
O O8 0.500000 0.584330 0.250000
O O9 0.558484 0.585705 0.347417
O O10 0.353189 0.788399 0.337609
O O11 0.652642 0.948515 0.282043
O O12 0.440363 0.970117 0.429293
O O13 0.775319 0.993060 0.944307
O O14 0.109614 0.004876 0.934229
O O15 0.000000 0.913086 0.750000
#
# Coordination Sequence:
#
# PCOD9226435 Si02
#       7
#     4   4   4   4   4   4   4
#     4   9  16  28  46  68  89 115 150 190 227 260
#     4  10  17  29  48  67  90 119 152 184 224 274
#     4  10  20  30  43  65  93 121 149 186 229 271
#     4   9  17  29  47  69  90 114 151 193 225 263
#     4   8  13  24  42  65  90 114 146 187 227 261
#     4   8  14  23  42  68  88 113 148 186 224 270
#     4   8  13  23  42  67  92 117 151 191 226 268
#
# _framework density 22.355568000000002
#
# number of rings (size 3 to 8) (size 9 to 14) (size 15 to 20)
#    0.000    3.143    0.000    3.857    0.000    0.000 
#    0.000    0.000    0.000   12.857    0.000   12.000 
#    0.000    0.000    0.000    0.000    0.000    0.000 
#
# Total GULP energy -155908.469505 kJ/mol
# GULP energy per Si atom -5568.159625 kJ/mol
# Density = 2.230469 g / cm^3
# Si number density = 22.355568 Si / 1000 Ang^3
#
#
#
# Elastic Constant Matrix: (Units=GPa)
#
#
# Indices 1 2 3 4 5 6 
#
# 1 33.8806 14.1791 12.1639 0.0000 -9.7024 0.0000
# 2 14.1791 52.1645 59.6926 0.0000 -4.6264 0.0000
# 3 12.1639 59.6926 180.9599 0.0000 -15.7634 0.0000
# 4 0.0000 0.0000 0.0000 39.7385 0.0000 -0.3124
# 5 -9.7024 -4.6264 -15.7634 0.0000 31.7317 0.0000
# 6 0.0000 0.0000 0.0000 -0.3124 0.0000 16.7862
#
#
#
# Elastic Compliance Matrix: (Units=1/GPa)
#
#
# Indices 1 2 3 4 5 6 
#
# 1 0.036609 -0.011649 0.002309 0.000000 0.010642 0.000000
# 2 -0.011649 0.034511 -0.010947 0.000000 -0.003968 0.000000
# 3 0.002309 -0.010947 0.009307 0.000000 0.003733 0.000000
# 4 0.000000 0.000000 0.000000 0.025168 0.000000 0.000468
# 5 0.010642 -0.003968 0.003733 0.000000 0.036044 0.000000
# 6 0.000000 0.000000 0.000000 0.000468 0.000000 0.059581
#
#
# Mechanical properties :
#
#
# Convention : Reuss Voigt Hill
#
# Bulk Modulus (GPa) = 25.09191 48.78624 36.93907
# Shear Modulus (GPa) = 19.60171 29.71591 24.65881
#
# Velocity S-wave (km/s) = 2.96432 3.64983 3.32479
# Velocity P-wave (km/s) = 4.79214 6.29539 5.59449
#
# Compressibility (1/GPa) = 0.03985348
#
# Stress axis : x y z
#
# Youngs Moduli (GPa) = 27.31544 28.97623 107.44548
#
# Poissons Ratio (x) = 0.33755 -0.24808
# Poissons Ratio (y) = 0.31820 1.17617
# Poissons Ratio (z) = -0.06307 0.31719
#
# Static dielectric constant tensor:
#      x y z
#    x 1.909060 0.000000 -0.049850 
#    y 0.000000 1.835750 0.000000 
#    z -0.049850 0.000000 1.912150 
# 
# From -- ./inp_files/71402.got.cif
#   From: 2010.05.17/outbox.cif.g08.bks.cpg/sg13_36_cif.got.tgz:71402.got - 2010.06.03 16:44:36.
