data_PCOD9226220
_publ_section_title
;
Structure prediction by ZEFSAII (Michael W. Deem and Ramdas Pophale) SiO2 
 PCOD9226220
Probable space group: P 2/C
;
_chemical_formula_sum "Si O2"
_cell_formula_units_Z 24
_cell_length_a 5.371039
_cell_length_b 14.230583
_cell_length_c 15.538998
_cell_angle_alpha 90.000000
_cell_angle_beta 55.419413
_cell_angle_gamma 90.000000
_cell_volume 977.861334
_symmetry_space_group_name_H-M "P 2/C"
_symmetry_group_IT_number 13
_symmetry_cell_setting 'monoclinic'
loop_
_space_group_symop_operation_xyz
x,y,z
-x,y,1/2-z
-x,-y,-z
x,-y,1/2+z
loop_
_atom_site_type_symbol
_atom_site_label
_atom_site_fract_x
_atom_site_fract_y
_atom_site_fract_z
Si Si1 0.577262 0.762927 0.854645
Si Si2 0.032706 0.315171 0.379348
Si Si3 0.477341 0.974569 0.861866
Si Si4 0.866763 0.483238 0.678849
Si Si5 0.135716 0.277008 0.819507
Si Si6 0.072617 0.928313 0.108402
O O1 0.760025 0.703136 0.746994
O O2 0.231701 0.733179 0.912863
O O3 0.617930 0.871235 0.821532
O O4 0.723094 0.737604 0.917452
O O5 0.000636 0.426243 0.395583
O O6 0.721682 0.048688 0.849156
O O7 0.270305 0.955442 0.987149
O O8 0.233706 0.010073 0.839636
O O9 0.500000 0.492036 0.750000
O O10 0.942574 0.380103 0.627539
O O11 0.000000 0.488350 0.750000
O O12 0.500000 0.271814 0.750000
O O13 0.000000 0.279913 0.750000
O O14 0.015047 0.179903 0.880110
#
# Coordination Sequence:
#
# PCOD9226220 Si02
#       6
#     4   4   4   4   4   4
#     4  10  18  30  48  77  98 136 169 207 252 308
#     4  10  17  30  48  76 108 126 162 216 257 306
#     4  10  21  37  58  71 104 149 175 209 262 312
#     4  10  16  30  51  73 101 140 164 201 265 314
#     4  10  21  35  55  82 103 135 175 221 261 299
#     4  10  21  40  54  75 104 142 181 212 257 319
#
# _framework density 24.543358999999999
#
# number of rings (size 3 to 8) (size 9 to 14) (size 15 to 20)
#    0.000    2.000    3.333    2.000    0.000    0.000 
#   18.000    0.000    0.000    2.000    0.000    0.000 
#    0.000    0.000    0.000    0.000    0.000    0.000 
#
# Total GULP energy -134231.429138 kJ/mol
# GULP energy per Si atom -5592.976214 kJ/mol
# Density = 2.448750 g / cm^3
# Si number density = 24.543359 Si / 1000 Ang^3
#
#
#
# Elastic Constant Matrix: (Units=GPa)
#
#
# Indices 1 2 3 4 5 6 
#
# 1 223.9651 65.6389 17.6068 0.0000 -23.0922 0.0000
# 2 65.6389 218.5545 15.2232 0.0000 -17.0758 0.0000
# 3 17.6068 15.2232 31.2691 0.0000 -5.0416 0.0000
# 4 0.0000 0.0000 0.0000 10.6314 0.0000 -9.9655
# 5 -23.0922 -17.0758 -5.0416 0.0000 15.6073 0.0000
# 6 0.0000 0.0000 0.0000 -9.9655 0.0000 46.3994
#
#
#
# Elastic Compliance Matrix: (Units=1/GPa)
#
#
# Indices 1 2 3 4 5 6 
#
# 1 0.005576 -0.001050 -0.001565 0.000000 0.006595 0.000000
# 2 -0.001050 0.005282 -0.001370 0.000000 0.003782 0.000000
# 3 -0.001565 -0.001370 0.034722 0.000000 0.007402 0.000000
# 4 0.000000 0.000000 0.000000 0.117771 0.000000 0.025294
# 5 0.006595 0.003782 0.007402 0.000000 0.080360 0.000000
# 6 0.000000 0.000000 0.000000 0.025294 0.000000 0.026985
#
#
# Mechanical properties :
#
#
# Convention : Reuss Voigt Hill
#
# Bulk Modulus (GPa) = 26.58948 74.52518 50.55733
# Shear Modulus (GPa) = 17.17020 39.54894 28.35957
#
# Velocity S-wave (km/s) = 2.64784 4.01857 3.40294
# Velocity P-wave (km/s) = 4.49503 7.20850 6.00698
#
# Compressibility (1/GPa) = 0.03760886
#
# Stress axis : x y z
#
# Youngs Moduli (GPa) = 179.34530 189.32532 28.80016
#
# Poissons Ratio (x) = 0.19885 0.04507
# Poissons Ratio (y) = 0.18837 0.03946
# Poissons Ratio (z) = 0.28066 0.25942
#
# Static dielectric constant tensor:
#      x y z
#    x 1.472510 0.000000 0.217090 
#    y 0.000000 1.914540 0.000000 
#    z 0.217090 0.000000 1.943090 
# 
# From -- ./inp_files/83643.got.cif
#   From: 2010.05.17/outbox.cif.g08.bks.cpg/sg13_42_cif.got.tgz:83643.got - 2010.06.03 16:44:36.
