data_PCOD9226145
_publ_section_title
;
Structure prediction by ZEFSAII (Michael W. Deem and Ramdas Pophale) SiO2 
 PCOD9226145
Probable space group: P 2/C
;
_chemical_formula_sum "Si O2"
_cell_formula_units_Z 26
_cell_length_a 15.782565
_cell_length_b 19.099731
_cell_length_c 5.421018
_cell_angle_alpha 90.000000
_cell_angle_beta 98.732432
_cell_angle_gamma 90.000000
_cell_volume 1615.183933
_symmetry_space_group_name_H-M "P 2/C"
_symmetry_group_IT_number 13
_symmetry_cell_setting 'monoclinic'
loop_
_space_group_symop_operation_xyz
x,y,z
-x,y,1/2-z
-x,-y,-z
x,-y,1/2+z
loop_
_atom_site_type_symbol
_atom_site_label
_atom_site_fract_x
_atom_site_fract_y
_atom_site_fract_z
Si Si1 0.688708 0.085595 0.799859
Si Si2 0.101499 0.311230 0.517143
Si Si3 0.758033 0.927962 0.830625
Si Si4 0.948562 0.091843 0.484696
Si Si5 0.500000 0.047055 0.750000
Si Si6 0.898629 0.470103 0.161317
Si Si7 0.906702 0.745259 0.983595
O O1 0.724215 0.112585 0.555691
O O2 0.587204 0.091579 0.785055
O O3 0.707709 0.001597 0.794048
O O4 0.739566 0.109815 0.064280
O O5 0.109562 0.391987 0.448295
O O6 0.135944 0.267750 0.299555
O O7 0.000168 0.291970 0.499195
O O8 0.137535 0.288481 0.797874
O O9 0.857555 0.945318 0.911026
O O10 0.924316 0.172937 0.524996
O O11 0.000000 0.089917 0.250000
O O12 0.000000 0.067078 0.750000
O O13 0.500000 0.000000 0.500000
O O14 0.863692 0.481168 0.423595
O O15 0.000000 0.485045 0.250000
#
# Coordination Sequence:
#
# PCOD9226145 Si02
#       7
#     4   4   4   4   2   4   4
#     4  10  19  35  47  73  86 108 120 149 205 251
#     4  10  16  27  38  48  67  86 116 172 192 242
#     4  10  20  32  48  61  91 102 129 170 200 237
#     4  12  21  34  44  59  73 108 148 178 204 234
#     4  12  16  30  58  72  92 104 128 140 174 274
#     4  10  18  22  31  49  68  86 104 134 206 272
#     4  10  17  27  39  50  63  86 132 169 196 222
#
# _framework density 16.097238999999998
#
# number of rings (size 3 to 8) (size 9 to 14) (size 15 to 20)
#    0.000    1.538    7.692    1.846    4.308    0.000 
#    0.000    9.231    0.000    0.000    0.000    0.000 
#    0.000    0.000    0.000    0.000    0.000    0.000 
#
# Total GULP energy -144871.966222 kJ/mol
# GULP energy per Si atom -5571.998701 kJ/mol
# Density = 1.606060 g / cm^3
# Si number density = 16.097239 Si / 1000 Ang^3
#
#
#
# Elastic Constant Matrix: (Units=GPa)
#
#
# Indices 1 2 3 4 5 6 
#
# 1 40.0339 -4.9289 -1.6830 0.0000 7.1186 0.0000
# 2 -4.9289 52.6330 10.2599 0.0000 -0.0755 0.0000
# 3 -1.6830 10.2599 145.0080 0.0000 -13.9483 0.0000
# 4 0.0000 0.0000 0.0000 -11.0421 0.0000 3.7942
# 5 7.1186 -0.0755 -13.9483 0.0000 18.6410 0.0000
# 6 0.0000 0.0000 0.0000 3.7942 0.0000 0.2274
#
#
#
# Elastic Compliance Matrix: (Units=1/GPa)
#
#
# Indices 1 2 3 4 5 6 
#
# 1 0.027248 0.002720 -0.000944 0.000000 -0.011101 0.000000
# 2 0.002720 0.019555 -0.001556 0.000000 -0.002124 0.000000
# 3 -0.000944 -0.001556 0.007575 0.000000 0.006022 0.000000
# 4 0.000000 0.000000 0.000000 -0.013449 0.000000 0.224422
# 5 -0.011101 -0.002124 0.006022 0.000000 0.062382 0.000000
# 6 0.000000 0.000000 0.000000 0.224422 0.000000 0.653130
#
#
# Mechanical properties :
#
#
# Convention : Reuss Voigt Hill
#
# Bulk Modulus (GPa) = 18.24287 27.21900 22.73094
# Shear Modulus (GPa) = 6.45767 17.16704 11.81235
#
# Velocity S-wave (km/s) = 2.00509 3.26921 2.71184
# Velocity P-wave (km/s) = 4.08877 5.58535 4.89460
#
# Compressibility (1/GPa) = 0.05481593
#
# Stress axis : x y z
#
# Youngs Moduli (GPa) = 36.70018 51.13906 132.02053
#
# Poissons Ratio (x) = -0.13909 0.12462
# Poissons Ratio (y) = -0.09982 0.20546
# Poissons Ratio (z) = 0.03464 0.07959
#
# Static dielectric constant tensor:
#      x y z
#    x 1.525000 0.000000 -0.032840 
#    y 0.000000 1.562900 0.000000 
#    z -0.032840 0.000000 1.655640 
# 
# From -- ./inp_files/5160.got.cif
#   From: 2010.05.17/outbox.cif.g08.bks.cpg/sg13_3_cif.got.tgz:5160.got - 2010.06.03 16:44:36.
