data_PCOD9226028
_publ_section_title
;
Structure prediction by ZEFSAII (Michael W. Deem and Ramdas Pophale) SiO2 
 PCOD9226028
Probable space group: P 2/C
;
_chemical_formula_sum "Si O2"
_cell_formula_units_Z 22
_cell_length_a 7.114543
_cell_length_b 8.089952
_cell_length_c 23.143302
_cell_angle_alpha 90.000000
_cell_angle_beta 129.656949
_cell_angle_gamma 90.000000
_cell_volume 1025.512401
_symmetry_space_group_name_H-M "P 2/C"
_symmetry_group_IT_number 13
_symmetry_cell_setting 'monoclinic'
loop_
_space_group_symop_operation_xyz
x,y,z
-x,y,1/2-z
-x,-y,-z
x,-y,1/2+z
loop_
_atom_site_type_symbol
_atom_site_label
_atom_site_fract_x
_atom_site_fract_y
_atom_site_fract_z
Si Si1 0.000000 0.370033 0.750000
Si Si2 0.722542 0.877160 0.124446
Si Si3 0.338146 0.609543 0.012437
Si Si4 0.105127 0.205261 0.376017
Si Si5 0.620151 0.909818 0.718717
Si Si6 0.454379 0.601200 0.855332
O O1 0.064777 0.252349 0.816874
O O2 0.245411 0.478219 0.788977
O O3 0.498051 0.770532 0.058684
O O4 0.800912 0.018367 0.095155
O O5 0.659850 0.970830 0.172373
O O6 0.337683 0.502696 0.071051
O O7 0.500000 0.500000 0.000000
O O8 0.105235 0.679594 0.932520
O O9 0.299797 0.297242 0.373081
O O10 0.870381 0.170610 0.290758
O O11 0.500000 0.997467 0.750000
O O12 0.463321 0.748080 0.670364
#
# Coordination Sequence:
#
# PCOD9226028 Si02
#       6
#     2   4   4   4   4   4
#     4  10  14  28  54  78  96 128 170 220 266 292
#     4  10  18  32  56  80 105 135 176 224 266 310
#     4   9  19  31  56  84 107 128 177 231 275 307
#     4  10  17  34  53  81 103 138 179 225 263 310
#     4  11  21  35  53  77 111 149 180 208 261 323
#     4   9  17  32  55  78 105 134 176 227 265 304
#
# _framework density 21.45269
#
# number of rings (size 3 to 8) (size 9 to 14) (size 15 to 20)
#    0.000    2.182    3.636    1.636    0.000    0.000 
#    0.000    5.455    0.000    0.000    0.000    0.000 
#    0.000    0.000    0.000    0.000    0.000    0.000 
#
# Total GULP energy -122528.253172 kJ/mol
# GULP energy per Si atom -5569.466053 kJ/mol
# Density = 2.140386 g / cm^3
# Si number density = 21.452690 Si / 1000 Ang^3
#
#
#
# Elastic Constant Matrix: (Units=GPa)
#
#
# Indices 1 2 3 4 5 6 
#
# 1 26.7335 7.6815 8.1107 0.0000 -7.0221 0.0000
# 2 7.6815 106.2988 35.6371 0.0000 -8.0467 0.0000
# 3 8.1107 35.6371 91.1595 0.0000 -5.0651 0.0000
# 4 0.0000 0.0000 0.0000 30.0630 0.0000 -8.3084
# 5 -7.0221 -8.0467 -5.0651 0.0000 15.6774 0.0000
# 6 0.0000 0.0000 0.0000 -8.3084 0.0000 10.3915
#
#
#
# Elastic Compliance Matrix: (Units=1/GPa)
#
#
# Indices 1 2 3 4 5 6 
#
# 1 0.043167 -0.000922 -0.002477 0.000000 0.018062 0.000000
# 2 -0.000922 0.011134 -0.004049 0.000000 0.003994 0.000000
# 3 -0.002477 -0.004049 0.012826 0.000000 0.000957 0.000000
# 4 0.000000 0.000000 0.000000 0.042698 0.000000 0.034138
# 5 0.018062 0.003994 0.000957 0.000000 0.074235 0.000000
# 6 0.000000 0.000000 0.000000 0.034138 0.000000 0.123527
#
#
# Mechanical properties :
#
#
# Convention : Reuss Voigt Hill
#
# Bulk Modulus (GPa) = 19.14527 36.33894 27.74210
# Shear Modulus (GPa) = 14.71057 22.74388 18.72723
#
# Velocity S-wave (km/s) = 2.62147 3.25959 2.95779
# Velocity P-wave (km/s) = 4.25518 5.58054 4.96231
#
# Compressibility (1/GPa) = 0.05223223
#
# Stress axis : x y z
#
# Youngs Moduli (GPa) = 23.16595 89.81758 77.96652
#
# Poissons Ratio (x) = 0.08279 0.19310
# Poissons Ratio (y) = 0.02135 0.31565
# Poissons Ratio (z) = 0.05738 0.36363
#
# Static dielectric constant tensor:
#      x y z
#    x 1.767400 0.000000 -0.006600 
#    y 0.000000 1.818480 0.000000 
#    z -0.006600 0.000000 1.862040 
# 
# From -- ./inp_files/62915.got.cif
#   From: 2010.05.17/outbox.cif.g08.bks.cpg/sg13_32_cif.got.tgz:62915.got - 2010.06.03 16:44:36.
