data_PCOD9226845
_publ_section_title
;
Structure prediction by ZEFSAII (Michael W. Deem and Ramdas Pophale) SiO2 
 PCOD9226845
Probable space group: P 2/C
;
_chemical_formula_sum "Si O2"
_cell_formula_units_Z 24
_cell_length_a 10.888297
_cell_length_b 12.024745
_cell_length_c 12.405721
_cell_angle_alpha 90.000000
_cell_angle_beta 47.676183
_cell_angle_gamma 90.000000
_cell_volume 1200.905038
_symmetry_space_group_name_H-M "P 2/C"
_symmetry_group_IT_number 13
_symmetry_cell_setting 'monoclinic'
loop_
_space_group_symop_operation_xyz
x,y,z
-x,y,1/2-z
-x,-y,-z
x,-y,1/2+z
loop_
_atom_site_type_symbol
_atom_site_label
_atom_site_fract_x
_atom_site_fract_y
_atom_site_fract_z
Si Si1 0.119235 0.078822 0.998494
Si Si2 0.149550 0.421656 0.034762
Si Si3 0.500000 0.356777 0.750000
Si Si4 0.972257 0.342055 0.927858
Si Si5 0.179102 0.871789 0.083435
Si Si6 0.000000 0.243167 0.250000
Si Si7 0.696679 0.224452 0.789657
O O1 0.016452 0.158935 0.139295
O O2 0.223137 0.988459 0.003717
O O3 0.227465 0.150636 0.852201
O O4 0.000000 0.000000 0.000000
O O5 0.101936 0.548535 0.082564
O O6 0.143330 0.334455 0.137211
O O7 0.330726 0.420829 0.873881
O O8 0.015137 0.374428 0.026511
O O9 0.538745 0.282651 0.832222
O O10 0.860013 0.232423 0.973064
O O11 0.154052 0.311501 0.774557
O O12 0.314272 0.841304 0.093323
O O13 0.000000 0.889253 0.250000
#
# Coordination Sequence:
#
# PCOD9226845 Si02
#       7
#     4   4   2   4   4   2   4
#     4  12  18  34  57  92 117 145 197 258 288 334
#     4  10  21  35  62  83 119 151 197 249 290 353
#     4  10  20  42  54  80 126 166 182 238 320 360
#     4   9  18  36  56  86 107 154 199 248 284 344
#     4  10  18  30  57  83 114 148 198 242 295 341
#     4  12  20  32  56  96 106 148 204 242 278 342
#     4  10  20  35  58  84 117 159 194 243 301 363
#
# _framework density 19.984928
#
# number of rings (size 3 to 8) (size 9 to 14) (size 15 to 20)
#    0.000    1.667    7.500    0.000    3.500    0.000 
#    0.000    1.667    0.000    1.000    0.000    0.000 
#    0.000    0.000    0.000    0.000    0.000    0.000 
#
# Total GULP energy -133629.523896 kJ/mol
# GULP energy per Si atom -5567.896829 kJ/mol
# Density = 1.993944 g / cm^3
# Si number density = 19.984928 Si / 1000 Ang^3
#
#
#
# Elastic Constant Matrix: (Units=GPa)
#
#
# Indices 1 2 3 4 5 6 
#
# 1 80.7708 41.0274 21.0060 0.0000 9.6040 0.0000
# 2 41.0274 151.8077 43.7357 0.0000 9.6577 0.0000
# 3 21.0060 43.7357 58.3091 0.0000 7.5490 0.0000
# 4 0.0000 0.0000 0.0000 18.8649 0.0000 7.7832
# 5 9.6040 9.6577 7.5490 0.0000 19.8171 0.0000
# 6 0.0000 0.0000 0.0000 7.7832 0.0000 16.1129
#
#
#
# Elastic Compliance Matrix: (Units=1/GPa)
#
#
# Indices 1 2 3 4 5 6 
#
# 1 0.015177 -0.003059 -0.002539 0.000000 -0.004897 0.000000
# 2 -0.003059 0.009080 -0.005604 0.000000 -0.000808 0.000000
# 3 -0.002539 -0.005604 0.022884 0.000000 -0.004755 0.000000
# 4 0.000000 0.000000 0.000000 0.066202 0.000000 -0.031978
# 5 -0.004897 -0.000808 -0.004755 0.000000 0.055040 0.000000
# 6 0.000000 0.000000 0.000000 -0.031978 0.000000 0.077509
#
#
# Mechanical properties :
#
#
# Convention : Reuss Voigt Hill
#
# Bulk Modulus (GPa) = 40.42568 55.82508 48.12538
# Shear Modulus (GPa) = 18.08047 23.30020 20.69034
#
# Velocity S-wave (km/s) = 3.01110 3.41822 3.22109
# Velocity P-wave (km/s) = 5.68867 6.60100 6.16174
#
# Compressibility (1/GPa) = 0.02473675
#
# Stress axis : x y z
#
# Youngs Moduli (GPa) = 65.88895 110.13465 43.69898
#
# Poissons Ratio (x) = 0.33685 0.11097
# Poissons Ratio (y) = 0.20153 0.24489
# Poissons Ratio (z) = 0.16732 0.61719
#
# Static dielectric constant tensor:
#      x y z
#    x 1.785620 0.000000 0.084170 
#    y 0.000000 1.758540 0.000000 
#    z 0.084170 0.000000 1.734750 
# 
# From -- ./inp_files/50573.got.cif
#   From: 2010.05.17/outbox.cif.g08.bks.cpg/sg13_26_cif.got.tgz:50573.got - 2010.06.03 16:44:36.
