data_PCOD9226062
_publ_section_title
;
Structure prediction by ZEFSAII (Michael W. Deem and Ramdas Pophale) SiO2 
 PCOD9226062
Probable space group: P 2/C
;
_chemical_formula_sum "Si O2"
_cell_formula_units_Z 28
_cell_length_a 13.201386
_cell_length_b 7.989147
_cell_length_c 14.857487
_cell_angle_alpha 90.000000
_cell_angle_beta 132.693429
_cell_angle_gamma 90.000000
_cell_volume 1151.723236
_symmetry_space_group_name_H-M "P 2/C"
_symmetry_group_IT_number 13
_symmetry_cell_setting 'monoclinic'
loop_
_space_group_symop_operation_xyz
x,y,z
-x,y,1/2-z
-x,-y,-z
x,-y,1/2+z
loop_
_atom_site_type_symbol
_atom_site_label
_atom_site_fract_x
_atom_site_fract_y
_atom_site_fract_z
Si Si1 0.356083 0.643896 0.337858
Si Si2 0.175762 0.824972 0.095058
Si Si3 0.849201 0.375468 0.627558
Si Si4 0.902597 0.665117 0.958154
Si Si5 0.848347 0.780354 0.628720
Si Si6 0.659036 0.265806 0.171311
Si Si7 0.562448 0.038130 0.689711
O O1 0.259542 0.667086 0.189777
O O2 0.261591 0.684440 0.366917
O O3 0.402425 0.453043 0.375357
O O4 0.462305 0.794681 0.383290
O O5 0.270568 0.966671 0.195140
O O6 0.018465 0.809521 0.027896
O O7 0.183016 0.830323 0.992108
O O8 0.831227 0.335360 0.512261
O O9 0.851107 0.577604 0.633528
O O10 0.000000 0.315905 0.750000
O O11 0.791688 0.691437 0.814084
O O12 0.000000 0.500000 0.000000
O O13 0.730593 0.822637 0.628827
O O14 0.000000 0.840267 0.750000
O O15 0.540506 0.143607 0.136615
O O16 0.500000 0.060737 0.750000
#
# Coordination Sequence:
#
# PCOD9226062 Si02
#       7
#     4   4   4   4   4   4   4
#     4   9  20  37  59  87 118 156 193 241 295 346
#     4  10  19  36  57  88 122 157 184 238 300 342
#     4  10  15  27  55  89 124 158 184 221 288 364
#     4  12  16  31  59  94 127 151 186 230 293 369
#     4  10  17  30  56  88 127 154 179 231 295 364
#     4  11  21  36  62  89 118 155 195 234 297 366
#     4  10  24  45  60  78 114 156 213 258 288 331
#
# _framework density 24.311396999999999
#
# number of rings (size 3 to 8) (size 9 to 14) (size 15 to 20)
#    0.857    0.857    5.714    0.857    0.000    1.143 
#    2.571    1.429    0.000    1.714    0.000    0.000 
#    0.000    0.000    0.000    0.000    0.000    0.000 
#
# Total GULP energy -156359.429829 kJ/mol
# GULP energy per Si atom -5584.265351 kJ/mol
# Density = 2.425606 g / cm^3
# Si number density = 24.311397 Si / 1000 Ang^3
#
#
#
# Elastic Constant Matrix: (Units=GPa)
#
#
# Indices 1 2 3 4 5 6 
#
# 1 76.0089 46.2392 7.3789 0.0000 -37.2270 0.0000
# 2 46.2392 109.4219 -13.5604 0.0000 -6.7617 0.0000
# 3 7.3789 -13.5604 66.9463 0.0000 -8.1984 0.0000
# 4 0.0000 0.0000 0.0000 -48.2355 0.0000 -16.2755
# 5 -37.2270 -6.7617 -8.1984 0.0000 57.2684 0.0000
# 6 0.0000 0.0000 0.0000 -16.2755 0.0000 26.1712
#
#
#
# Elastic Compliance Matrix: (Units=1/GPa)
#
#
# Indices 1 2 3 4 5 6 
#
# 1 0.028757 -0.011538 -0.003445 0.000000 0.016838 0.000000
# 2 -0.011538 0.014116 0.003478 0.000000 -0.005336 0.000000
# 3 -0.003445 0.003478 0.016079 0.000000 0.000473 0.000000
# 4 0.000000 0.000000 0.000000 -0.017136 0.000000 -0.010657
# 5 0.016838 -0.005336 0.000473 0.000000 0.027845 0.000000
# 6 0.000000 0.000000 0.000000 -0.010657 0.000000 0.031583
#
#
# Mechanical properties :
#
#
# Convention : Reuss Voigt Hill
#
# Bulk Modulus (GPa) = 27.82335 36.94362 32.38348
# Shear Modulus (GPa) = 36.70142 21.19544 28.94843
#
# Velocity S-wave (km/s) = 3.88962 2.95588 3.45445
# Velocity P-wave (km/s) = 5.62509 5.18446 5.40926
#
# Compressibility (1/GPa) = 0.03594104
#
# Stress axis : x y z
#
# Youngs Moduli (GPa) = 34.77473 70.84163 62.19144
#
# Poissons Ratio (x) = 0.81739 0.21423
# Poissons Ratio (y) = 0.40124 -0.21628
# Poissons Ratio (z) = 0.11979 -0.24636
#
# Static dielectric constant tensor:
#      x y z
#    x 1.903270 0.000000 0.012030 
#    y 0.000000 2.028420 0.000000 
#    z 0.012030 0.000000 1.998760 
# 
# From -- ./inp_files/52804.got.cif
#   From: 2010.05.17/outbox.cif.g08.bks.cpg/sg13_27_cif.got.tgz:52804.got - 2010.06.03 16:44:36.
