data_PCOD9226419
_publ_section_title
;
Structure prediction by ZEFSAII (Michael W. Deem and Ramdas Pophale) SiO2 
 PCOD9226419
Probable space group: P 2/C
;
_chemical_formula_sum "Si O2"
_cell_formula_units_Z 32
_cell_length_a 14.360973
_cell_length_b 8.700795
_cell_length_c 22.858992
_cell_angle_alpha 90.000000
_cell_angle_beta 140.715923
_cell_angle_gamma 90.000000
_cell_volume 1808.495033
_symmetry_space_group_name_H-M "P 2/C"
_symmetry_group_IT_number 13
_symmetry_cell_setting 'monoclinic'
loop_
_space_group_symop_operation_xyz
x,y,z
-x,y,1/2-z
-x,-y,-z
x,-y,1/2+z
loop_
_atom_site_type_symbol
_atom_site_label
_atom_site_fract_x
_atom_site_fract_y
_atom_site_fract_z
Si Si1 0.348020 0.947324 0.712583
Si Si2 0.511333 0.062979 0.413075
Si Si3 0.597894 0.592440 0.131790
Si Si4 0.348466 0.712331 0.214894
Si Si5 0.828601 0.466180 0.155850
Si Si6 0.671116 0.371572 0.472953
Si Si7 0.320182 0.615777 0.657105
Si Si8 0.621240 0.197736 0.036777
O O1 0.500000 0.948777 0.750000
O O2 0.403708 0.943636 0.806134
O O3 0.273192 0.782793 0.660463
O O4 0.278608 0.118176 0.669161
O O5 0.629426 0.195844 0.461149
O O6 0.412815 0.103376 0.421603
O O7 0.604472 0.911870 0.473039
O O8 0.624292 0.694927 0.202123
O O9 0.741382 0.524819 0.170895
O O10 0.484309 0.461368 0.096570
O O11 0.511543 0.682545 0.038658
O O12 0.500000 0.712826 0.250000
O O13 0.273579 0.547786 0.162676
O O14 0.767956 0.295385 0.113397
O O15 0.000000 0.472431 0.250000
O O16 0.777884 0.565183 0.074889
O O17 0.722541 0.393073 0.431633
O O18 0.500000 0.618274 0.750000
#
# Coordination Sequence:
#
# PCOD9226419 Si02
#       8
#     4   4   4   4   4   4   4   4
#     4  10  18  25  45  82 122 135 164 218 300 339
#     4  11  17  31  51  85 109 134 172 239 287 333
#     4  11  17  34  55  80 105 142 181 234 281 328
#     4  10  18  28  47  83 116 136 169 224 283 337
#     4  11  24  38  53  77 111 154 194 229 277 338
#     4  11  18  34  56  81 108 139 185 231 279 330
#     4  10  17  28  48  82 115 140 167 226 288 332
#     4  10  21  31  55  80 108 136 186 238 288 328
#
# _framework density 17.694269999999999
#
# number of rings (size 3 to 8) (size 9 to 14) (size 15 to 20)
#    0.000    1.500    8.750    0.750    0.000    0.000 
#    0.000    0.625    0.000    0.750    0.000    0.875 
#    0.000    1.375    0.000    0.000    0.000    0.000 
#
# Total GULP energy -178147.044983 kJ/mol
# GULP energy per Si atom -5567.095156 kJ/mol
# Density = 1.765400 g / cm^3
# Si number density = 17.694270 Si / 1000 Ang^3
#
#
#
# Elastic Constant Matrix: (Units=GPa)
#
#
# Indices 1 2 3 4 5 6 
#
# 1 45.8917 25.3092 45.2410 0.0000 -13.7039 0.0000
# 2 25.3092 144.7667 35.0194 0.0000 -3.0359 0.0000
# 3 45.2410 35.0194 70.6578 0.0000 -11.1692 0.0000
# 4 0.0000 0.0000 0.0000 19.0562 0.0000 -15.5410
# 5 -13.7039 -3.0359 -11.1692 0.0000 32.4934 0.0000
# 6 0.0000 0.0000 0.0000 -15.5410 0.0000 16.7738
#
#
#
# Elastic Compliance Matrix: (Units=1/GPa)
#
#
# Indices 1 2 3 4 5 6 
#
# 1 0.064786 -0.001742 -0.038412 0.000000 0.013957 0.000000
# 2 -0.001742 0.007908 -0.002965 0.000000 -0.001015 0.000000
# 3 -0.038412 -0.002965 0.039773 0.000000 -0.002806 0.000000
# 4 0.000000 0.000000 0.000000 0.214714 0.000000 0.198934
# 5 0.013957 -0.001015 -0.002806 0.000000 0.035602 0.000000
# 6 0.000000 0.000000 0.000000 0.198934 0.000000 0.243931
#
#
# Mechanical properties :
#
#
# Convention : Reuss Voigt Hill
#
# Bulk Modulus (GPa) = 38.12349 52.49505 45.30927
# Shear Modulus (GPa) = 7.12561 24.04778 15.58670
#
# Velocity S-wave (km/s) = 2.00893 3.69056 2.97120
# Velocity P-wave (km/s) = 5.19360 6.92044 6.11825
#
# Compressibility (1/GPa) = 0.02623054
#
# Stress axis : x y z
#
# Youngs Moduli (GPa) = 15.43546 126.45381 25.14264
#
# Poissons Ratio (x) = 0.22025 0.96578
# Poissons Ratio (y) = 0.02688 0.07454
# Poissons Ratio (z) = 0.59291 0.37488
#
# Static dielectric constant tensor:
#      x y z
#    x 1.667430 0.000000 -0.083800 
#    y 0.000000 1.703790 0.000000 
#    z -0.083800 0.000000 1.602920 
# 
# From -- ./inp_files/79835.got.cif
#   From: 2010.05.17/outbox.cif.g08.bks.cpg/sg13_40_cif.got.tgz:79835.got - 2010.06.03 16:44:36.
