data_PCOD9226405
_publ_section_title
;
Structure prediction by ZEFSAII (Michael W. Deem and Ramdas Pophale) SiO2 
 PCOD9226405
Probable space group: P 2/C
;
_chemical_formula_sum "Si O2"
_cell_formula_units_Z 30
_cell_length_a 11.663983
_cell_length_b 17.818923
_cell_length_c 8.919727
_cell_angle_alpha 90.000000
_cell_angle_beta 105.313170
_cell_angle_gamma 90.000000
_cell_volume 1788.054102
_symmetry_space_group_name_H-M "P 2/C"
_symmetry_group_IT_number 13
_symmetry_cell_setting 'monoclinic'
loop_
_space_group_symop_operation_xyz
x,y,z
-x,y,1/2-z
-x,-y,-z
x,-y,1/2+z
loop_
_atom_site_type_symbol
_atom_site_label
_atom_site_fract_x
_atom_site_fract_y
_atom_site_fract_z
Si Si1 0.124274 0.968161 0.977710
Si Si2 0.362882 0.399587 0.733363
Si Si3 0.974798 0.719408 0.987656
Si Si4 0.908516 0.558389 0.892454
Si Si5 0.746326 0.505470 0.569124
Si Si6 0.000000 0.844436 0.750000
Si Si7 0.852070 0.895726 0.210321
Si Si8 0.807777 0.269200 0.715426
O O1 0.097236 0.902317 0.849254
O O2 0.179390 0.041253 0.921520
O O3 0.180169 0.930726 0.141024
O O4 0.000000 0.000000 0.000000
O O5 0.500000 0.384282 0.750000
O O6 0.346686 0.465806 0.851484
O O7 0.302884 0.429670 0.557572
O O8 0.294105 0.327671 0.776789
O O9 0.965150 0.639950 0.902843
O O10 0.957622 0.789624 0.869768
O O11 0.881166 0.711724 0.090806
O O12 0.100790 0.728927 0.113062
O O13 0.852402 0.531924 0.716457
O O14 0.799523 0.555513 0.972786
O O15 0.000000 0.500000 0.000000
O O16 0.782870 0.818119 0.176664
O O17 0.000000 0.882669 0.250000
#
# Coordination Sequence:
#
# PCOD9226405 Si02
#       8
#     4   4   4   4   4   2   4   4
#     4  10  17  28  44  70 106 147 176 206 254 326
#     4  11  23  41  60  78 104 142 196 243 275 314
#     4  11  22  32  49  78 118 144 172 222 271 341
#     4  11  22  33  52  79 114 149 180 216 272 341
#     4  10  22  38  56  78 103 143 191 229 275 325
#     4  12  20  28  48  76 116 150 176 212 262 328
#     4  10  17  29  47  70 108 142 175 207 263 335
#     4  11  21  35  51  77 108 147 175 222 280 322
#
# _framework density 16.778016000000001
#
# number of rings (size 3 to 8) (size 9 to 14) (size 15 to 20)
#    0.000    1.333    6.000    3.200    5.600    0.000 
#    0.000    0.000    0.000    0.000    0.000    0.933 
#    0.000    0.000    0.000    0.000    0.000    0.000 
#
# Total GULP energy -167129.816691 kJ/mol
# GULP energy per Si atom -5570.993890 kJ/mol
# Density = 1.673983 g / cm^3
# Si number density = 16.778016 Si / 1000 Ang^3
#
#
#
# Elastic Constant Matrix: (Units=GPa)
#
#
# Indices 1 2 3 4 5 6 
#
# 1 64.8513 33.4166 27.8369 0.0000 -9.9546 0.0000
# 2 33.4166 130.0268 35.7903 0.0000 -6.0546 0.0000
# 3 27.8369 35.7903 89.3176 0.0000 -16.3222 0.0000
# 4 0.0000 0.0000 0.0000 32.1891 0.0000 -12.2475
# 5 -9.9546 -6.0546 -16.3222 0.0000 17.5285 0.0000
# 6 0.0000 0.0000 0.0000 -12.2475 0.0000 15.4814
#
#
#
# Elastic Compliance Matrix: (Units=1/GPa)
#
#
# Indices 1 2 3 4 5 6 
#
# 1 0.019921 -0.003862 -0.003419 0.000000 0.006795 0.000000
# 2 -0.003862 0.009394 -0.002854 0.000000 -0.001606 0.000000
# 3 -0.003419 -0.002854 0.015509 0.000000 0.011514 0.000000
# 4 0.000000 0.000000 0.000000 0.044445 0.000000 0.035161
# 5 0.006795 -0.001606 0.011514 0.000000 0.071076 0.000000
# 6 0.000000 0.000000 0.000000 0.035161 0.000000 0.092410
#
#
# Mechanical properties :
#
#
# Convention : Reuss Voigt Hill
#
# Bulk Modulus (GPa) = 40.72731 53.14259 46.93495
# Shear Modulus (GPa) = 17.78030 25.51659 21.64844
#
# Velocity S-wave (km/s) = 3.25889 3.90402 3.59595
# Velocity P-wave (km/s) = 6.20382 7.21557 6.72874
#
# Compressibility (1/GPa) = 0.02455355
#
# Stress axis : x y z
#
# Youngs Moduli (GPa) = 50.19916 106.45004 64.47662
#
# Poissons Ratio (x) = 0.41111 0.22046
# Poissons Ratio (y) = 0.19387 0.18403
# Poissons Ratio (z) = 0.17164 0.30382
#
# Static dielectric constant tensor:
#      x y z
#    x 1.836470 0.000000 -0.005560 
#    y 0.000000 1.610280 0.000000 
#    z -0.005560 0.000000 1.622220 
# 
# From -- ./inp_files/17091.got.cif
#   From: 2010.05.17/outbox.cif.g08.bks.cpg/sg13_9_cif.got.tgz:17091.got - 2010.06.03 16:44:36.
