data_PCOD9226886
_publ_section_title
;
Structure prediction by ZEFSAII (Michael W. Deem and Ramdas Pophale) SiO2 
 PCOD9226886
Probable space group: P 2/C
;
_chemical_formula_sum "Si O2"
_cell_formula_units_Z 28
_cell_length_a 13.865946
_cell_length_b 8.888428
_cell_length_c 15.425085
_cell_angle_alpha 90.000000
_cell_angle_beta 39.658019
_cell_angle_gamma 90.000000
_cell_volume 1213.281245
_symmetry_space_group_name_H-M "P 2/C"
_symmetry_group_IT_number 13
_symmetry_cell_setting 'monoclinic'
loop_
_space_group_symop_operation_xyz
x,y,z
-x,y,1/2-z
-x,-y,-z
x,-y,1/2+z
loop_
_atom_site_type_symbol
_atom_site_label
_atom_site_fract_x
_atom_site_fract_y
_atom_site_fract_z
Si Si1 0.369436 0.976665 0.683944
Si Si2 0.837277 0.847505 0.065934
Si Si3 0.186340 0.399187 0.788988
Si Si4 0.679527 0.447305 0.628277
Si Si5 0.491233 0.743009 0.016545
Si Si6 0.903307 0.081485 0.247109
Si Si7 0.211122 0.405621 0.126696
O O1 0.262023 0.008491 0.839146
O O2 0.478452 0.118564 0.594101
O O3 0.459975 0.823070 0.606767
O O4 0.248955 0.982928 0.687717
O O5 0.888959 0.745845 0.113650
O O6 0.718262 0.731947 0.104792
O O7 0.982134 0.884226 0.910091
O O8 0.245784 0.494942 0.831522
O O9 0.329702 0.332083 0.638289
O O10 0.115307 0.505832 0.766046
O O11 0.500000 0.473763 0.750000
O O12 0.763287 0.490494 0.481568
O O13 0.620144 0.628475 0.954851
O O14 0.854578 0.236705 0.328258
O O15 0.000000 0.988865 0.250000
#
# Coordination Sequence:
#
# PCOD9226886 Si02
#       7
#     4   4   4   4   4   4   4
#     4   9  18  32  54  76 106 136 173 227 263 321
#     4   9  19  35  50  81 107 139 186 216 268 318
#     4   9  19  31  53  80 109 144 176 217 276 309
#     4  10  18  31  53  82 107 134 180 226 258 321
#     4   9  17  31  53  81 102 140 177 209 281 318
#     4  11  20  33  55  79 103 142 189 222 265 316
#     4  11  19  33  55  81 111 141 183 224 260 327
#
# _framework density 23.077912999999999
#
# number of rings (size 3 to 8) (size 9 to 14) (size 15 to 20)
#    0.857    1.429    2.857    0.857    0.000    0.571 
#    0.000    0.000    0.000   15.429    0.000    0.000 
#    0.000    0.000    0.000    0.000    0.000    0.000 
#
# Total GULP energy -155885.244317 kJ/mol
# GULP energy per Si atom -5567.330154 kJ/mol
# Density = 2.302539 g / cm^3
# Si number density = 23.077913 Si / 1000 Ang^3
#
#
#
# Elastic Constant Matrix: (Units=GPa)
#
#
# Indices 1 2 3 4 5 6 
#
# 1 35.7747 5.2603 24.5501 0.0000 9.4974 0.0000
# 2 5.2603 25.5524 18.4105 0.0000 9.9854 0.0000
# 3 24.5501 18.4105 130.5497 0.0000 13.5667 0.0000
# 4 0.0000 0.0000 0.0000 20.4892 0.0000 11.0842
# 5 9.4974 9.9854 13.5667 0.0000 36.4542 0.0000
# 6 0.0000 0.0000 0.0000 11.0842 0.0000 9.4651
#
#
#
# Elastic Compliance Matrix: (Units=1/GPa)
#
#
# Indices 1 2 3 4 5 6 
#
# 1 0.033580 -0.000315 -0.005586 0.000000 -0.006583 0.000000
# 2 -0.000315 0.047404 -0.005497 0.000000 -0.010857 0.000000
# 3 -0.005586 -0.005497 0.009547 0.000000 -0.000592 0.000000
# 4 0.000000 0.000000 0.000000 0.133176 0.000000 -0.155957
# 5 -0.006583 -0.010857 -0.000592 0.000000 0.032341 0.000000
# 6 0.000000 0.000000 0.000000 -0.155957 0.000000 0.288286
#
#
# Mechanical properties :
#
#
# Convention : Reuss Voigt Hill
#
# Bulk Modulus (GPa) = 14.76388 32.03541 23.39964
# Shear Modulus (GPa) = 8.47874 22.85877 15.66875
#
# Velocity S-wave (km/s) = 1.91884 3.15064 2.60849
# Velocity P-wave (km/s) = 3.36460 5.21027 4.38563
#
# Compressibility (1/GPa) = 0.06773288
#
# Stress axis : x y z
#
# Youngs Moduli (GPa) = 29.77934 21.09539 104.74294
#
# Poissons Ratio (x) = 0.00666 0.58512
# Poissons Ratio (y) = 0.00940 0.57582
# Poissons Ratio (z) = 0.16635 0.11597
#
# Static dielectric constant tensor:
#      x y z
#    x 1.971600 0.000000 0.028110 
#    y 0.000000 1.898330 0.000000 
#    z 0.028110 0.000000 1.896960 
# 
# From -- ./inp_files/53505.got.cif
#   From: 2010.05.17/outbox.cif.g08.bks.cpg/sg13_27_cif.got.tgz:53505.got - 2010.06.03 16:44:36.
