data_PCOD9226422
_publ_section_title
;
Structure prediction by ZEFSAII (Michael W. Deem and Ramdas Pophale) SiO2 
 PCOD9226422
Probable space group: P 2/C
;
_chemical_formula_sum "Si O2"
_cell_formula_units_Z 30
_cell_length_a 11.781392
_cell_length_b 11.948360
_cell_length_c 14.037896
_cell_angle_alpha 90.000000
_cell_angle_beta 49.872921
_cell_angle_gamma 90.000000
_cell_volume 1510.952509
_symmetry_space_group_name_H-M "P 2/C"
_symmetry_group_IT_number 13
_symmetry_cell_setting 'monoclinic'
loop_
_space_group_symop_operation_xyz
x,y,z
-x,y,1/2-z
-x,-y,-z
x,-y,1/2+z
loop_
_atom_site_type_symbol
_atom_site_label
_atom_site_fract_x
_atom_site_fract_y
_atom_site_fract_z
Si Si1 0.661970 0.860739 0.418144
Si Si2 0.046772 0.405986 0.899989
Si Si3 0.653210 0.120556 0.480101
Si Si4 0.131399 0.282592 0.031290
Si Si5 0.183138 0.157171 0.304367
Si Si6 0.000000 0.454989 0.250000
Si Si7 0.051137 0.063799 0.823072
Si Si8 0.208731 0.768372 0.982902
O O1 0.520351 0.850429 0.428098
O O2 0.816868 0.853175 0.278133
O O3 0.672800 0.773735 0.497927
O O4 0.659164 0.984834 0.469601
O O5 0.088266 0.467391 0.778913
O O6 0.896922 0.338046 0.957328
O O7 0.150448 0.329942 0.913114
O O8 0.000000 0.500000 0.000000
O O9 0.749440 0.187216 0.505618
O O10 0.722844 0.159141 0.341927
O O11 0.110217 0.377858 0.125152
O O12 0.967955 0.227167 0.120767
O O13 0.271843 0.206096 0.345129
O O14 0.126365 0.029669 0.346531
O O15 0.000000 0.007540 0.750000
O O16 0.911515 0.130907 0.936149
#
# Coordination Sequence:
#
# PCOD9226422 Si02
#       8
#     4   4   4   4   4   2   4   4
#     4   9  20  32  49  80 111 148 178 200 263 328
#     4   9  21  33  52  84 102 130 179 237 274 312
#     4  10  18  33  53  76 115 148 172 212 252 331
#     4  10  17  32  55  83 104 141 179 221 277 316
#     4  10  17  28  51  79 104 136 178 218 259 319
#     4  10  18  32  54  80 108 132 178 238 282 306
#     4   9  17  29  47  75 106 136 175 215 260 322
#     4  10  19  31  51  76 104 135 178 224 270 312
#
# _framework density 19.855025999999999
#
# number of rings (size 3 to 8) (size 9 to 14) (size 15 to 20)
#    0.000    2.400    1.333    2.800    2.800    1.600 
#    0.000    0.000    0.000    9.600    3.467    0.000 
#    0.000    0.000    0.000    0.000    0.000    0.000 
#
# Total GULP energy -167101.504842 kJ/mol
# GULP energy per Si atom -5570.050161 kJ/mol
# Density = 1.980983 g / cm^3
# Si number density = 19.855026 Si / 1000 Ang^3
#
#
#
# Elastic Constant Matrix: (Units=GPa)
#
#
# Indices 1 2 3 4 5 6 
#
# 1 68.1773 13.2249 22.4936 0.0000 8.9834 0.0000
# 2 13.2249 46.9418 0.8128 0.0000 22.5294 0.0000
# 3 22.4936 0.8128 28.2945 0.0000 10.1860 0.0000
# 4 0.0000 0.0000 0.0000 14.7088 0.0000 11.2959
# 5 8.9834 22.5294 10.1860 0.0000 27.6173 0.0000
# 6 0.0000 0.0000 0.0000 11.2959 0.0000 31.5361
#
#
#
# Elastic Compliance Matrix: (Units=1/GPa)
#
#
# Indices 1 2 3 4 5 6 
#
# 1 0.022221 -0.009944 -0.020408 0.000000 0.008410 0.000000
# 2 -0.009944 0.042512 0.020761 0.000000 -0.039103 0.000000
# 3 -0.020408 0.020761 0.063049 0.000000 -0.033552 0.000000
# 4 0.000000 0.000000 0.000000 0.093784 0.000000 -0.033593
# 5 0.008410 -0.039103 -0.033552 0.000000 0.077747 0.000000
# 6 0.000000 0.000000 0.000000 -0.033593 0.000000 0.043742
#
#
# Mechanical properties :
#
#
# Convention : Reuss Voigt Hill
#
# Bulk Modulus (GPa) = 9.20802 24.05290 16.63046
# Shear Modulus (GPa) = 12.54904 21.89793 17.22348
#
# Velocity S-wave (km/s) = 2.51675 3.32458 2.94847
# Velocity P-wave (km/s) = 3.61844 5.18437 4.47050
#
# Compressibility (1/GPa) = 0.10860102
#
# Stress axis : x y z
#
# Youngs Moduli (GPa) = 45.00177 23.52272 15.86080
#
# Poissons Ratio (x) = 0.23390 0.32368
# Poissons Ratio (y) = 0.44748 -0.32928
# Poissons Ratio (z) = 0.91838 -0.48835
#
# Static dielectric constant tensor:
#      x y z
#    x 1.736410 0.000000 0.053820 
#    y 0.000000 1.776990 0.000000 
#    z 0.053820 0.000000 1.734620 
# 
# From -- ./inp_files/51157.got.cif
#   From: 2010.05.17/outbox.cif.g08.bks.cpg/sg13_26_cif.got.tgz:51157.got - 2010.06.03 16:44:36.
