data_PCOD9226778
_publ_section_title
;
Structure prediction by ZEFSAII (Michael W. Deem and Ramdas Pophale) SiO2 
 PCOD9226778
Probable space group: P 2/C
;
_chemical_formula_sum "Si O2"
_cell_formula_units_Z 32
_cell_length_a 22.178746
_cell_length_b 8.415689
_cell_length_c 24.205843
_cell_angle_alpha 90.000000
_cell_angle_beta 163.078669
_cell_angle_gamma 90.000000
_cell_volume 1315.003783
_symmetry_space_group_name_H-M "P 2/C"
_symmetry_group_IT_number 13
_symmetry_cell_setting 'monoclinic'
loop_
_space_group_symop_operation_xyz
x,y,z
-x,y,1/2-z
-x,-y,-z
x,-y,1/2+z
loop_
_atom_site_type_symbol
_atom_site_label
_atom_site_fract_x
_atom_site_fract_y
_atom_site_fract_z
Si Si1 0.392722 0.833639 0.409041
Si Si2 0.057218 0.940892 0.488619
Si Si3 0.381474 0.721961 0.996583
Si Si4 0.868605 0.377598 0.502130
Si Si5 0.237323 0.865766 0.979094
Si Si6 0.344459 0.362368 0.964457
Si Si7 0.098837 0.266930 0.465303
Si Si8 0.763851 0.775660 0.019614
O O1 0.167387 0.890322 0.230455
O O2 0.439660 0.761252 0.390455
O O3 0.467992 0.712774 0.521703
O O4 0.500000 0.000000 0.500000
O O5 0.166816 0.770454 0.571505
O O6 0.140323 0.100352 0.532749
O O7 0.000000 0.000000 0.500000
O O8 0.374410 0.822624 0.046459
O O9 0.404049 0.539401 0.031617
O O10 0.150947 0.739843 0.766611
O O11 0.107125 0.375781 0.734166
O O12 0.850651 0.559542 0.465217
O O13 0.744035 0.336671 0.449170
O O14 0.000000 0.863961 0.750000
O O15 0.229379 0.745030 0.022906
O O16 0.275195 0.044003 0.032398
O O17 0.360715 0.262449 0.034339
O O18 0.000000 0.764851 0.250000
#
# Coordination Sequence:
#
# PCOD9226778 Si02
#       8
#     4   4   4   4   4   4   4   4
#     4  11  20  34  53  75 108 143 174 215 264 315
#     4  11  23  38  54  76 107 141 182 220 264 315
#     4  10  18  30  49  80 110 138 174 212 268 319
#     4   9  18  31  51  75 106 139 176 220 263 312
#     4   9  16  25  49  78 108 137 168 215 266 313
#     4   9  18  27  46  78 111 139 168 216 266 318
#     4  10  18  33  53  79 106 138 176 220 266 312
#     4   9  14  25  44  74 108 136 168 212 265 311
#
# _framework density 24.334531999999999
#
# number of rings (size 3 to 8) (size 9 to 14) (size 15 to 20)
#    0.000    2.250    2.500    1.875    3.500    3.500 
#    0.000    0.000    0.000    0.750    0.000    0.000 
#    0.000    0.000    0.000    0.000    0.000    0.000 
#
# Total GULP energy -178549.043063 kJ/mol
# GULP energy per Si atom -5579.657596 kJ/mol
# Density = 2.427915 g / cm^3
# Si number density = 24.334532 Si / 1000 Ang^3
#
#
#
# Elastic Constant Matrix: (Units=GPa)
#
#
# Indices 1 2 3 4 5 6 
#
# 1 109.1677 57.4550 5.4500 0.0000 19.7659 0.0000
# 2 57.4550 167.4774 5.1633 0.0000 10.9581 0.0000
# 3 5.4500 5.1633 81.6437 0.0000 -4.4936 0.0000
# 4 0.0000 0.0000 0.0000 -8.7615 0.0000 18.4647
# 5 19.7659 10.9581 -4.4936 0.0000 28.9406 0.0000
# 6 0.0000 0.0000 0.0000 18.4647 0.0000 32.9943
#
#
#
# Elastic Compliance Matrix: (Units=1/GPa)
#
#
# Indices 1 2 3 4 5 6 
#
# 1 0.012521 -0.003789 -0.000996 0.000000 -0.007271 0.000000
# 2 -0.003789 0.007291 -0.000220 0.000000 -0.000207 0.000000
# 3 -0.000996 -0.000220 0.012477 0.000000 0.002701 0.000000
# 4 0.000000 0.000000 0.000000 -0.052370 0.000000 0.029308
# 5 -0.007271 -0.000207 0.002701 0.000000 0.040018 0.000000
# 6 0.000000 0.000000 0.000000 0.029308 0.000000 0.013907
#
#
# Mechanical properties :
#
#
# Convention : Reuss Voigt Hill
#
# Bulk Modulus (GPa) = 44.88443 54.93615 49.91029
# Shear Modulus (GPa) = 97.50444 29.98270 63.74357
#
# Velocity S-wave (km/s) = 6.33682 3.51394 5.12363
# Velocity P-wave (km/s) = 8.48677 6.25205 7.45364
#
# Compressibility (1/GPa) = 0.02227944
#
# Stress axis : x y z
#
# Youngs Moduli (GPa) = 79.86845 137.15393 80.14489
#
# Poissons Ratio (x) = 0.51965 0.07986
# Poissons Ratio (y) = 0.30261 0.01760
# Poissons Ratio (z) = 0.07958 0.03012
#
# Static dielectric constant tensor:
#      x y z
#    x 1.885690 0.000000 -0.039760 
#    y 0.000000 1.771630 0.000000 
#    z -0.039760 0.000000 1.911770 
# 
# From -- ./inp_files/82769.got.cif
#   From: 2010.05.17/outbox.cif.g08.bks.cpg/sg13_42_cif.got.tgz:82769.got - 2010.06.03 16:44:36.
