data_PCOD9226166
_publ_section_title
;
Structure prediction by ZEFSAII (Michael W. Deem and Ramdas Pophale) SiO2 
 PCOD9226166
Probable space group: P 2/C
;
_chemical_formula_sum "Si O2"
_cell_formula_units_Z 28
_cell_length_a 20.740170
_cell_length_b 9.035444
_cell_length_c 17.112767
_cell_angle_alpha 90.000000
_cell_angle_beta 29.255679
_cell_angle_gamma 90.000000
_cell_volume 1567.224621
_symmetry_space_group_name_H-M "P 2/C"
_symmetry_group_IT_number 13
_symmetry_cell_setting 'monoclinic'
loop_
_space_group_symop_operation_xyz
x,y,z
-x,y,1/2-z
-x,-y,-z
x,-y,1/2+z
loop_
_atom_site_type_symbol
_atom_site_label
_atom_site_fract_x
_atom_site_fract_y
_atom_site_fract_z
Si Si1 0.128787 0.679946 0.759766
Si Si2 0.638862 0.683870 0.573109
Si Si3 0.046358 0.851812 0.993198
Si Si4 0.794460 0.645198 0.264354
Si Si5 0.348743 0.330206 0.905843
Si Si6 0.831840 0.393044 0.544502
Si Si7 0.871023 0.729147 0.440487
O O1 0.131259 0.766750 0.838379
O O2 0.156574 0.509116 0.750891
O O3 0.243240 0.731252 0.580167
O O4 0.977983 0.681712 0.886968
O O5 0.500000 0.741041 0.750000
O O6 0.672676 0.699021 0.445831
O O7 0.641923 0.506823 0.586322
O O8 0.751784 0.753912 0.507119
O O9 0.117151 0.848002 0.002198
O O10 0.914250 0.757857 0.147484
O O11 0.000000 0.000000 0.000000
O O12 0.778488 0.620677 0.189105
O O13 0.500000 0.273868 0.750000
O O14 0.273790 0.321681 0.902418
O O15 0.852007 0.565599 0.499309
O O16 0.000000 0.725185 0.250000
#
# Coordination Sequence:
#
# PCOD9226166 Si02
#       7
#     4   4   4   4   4   4   4
#     4  10  17  33  54  76 104 139 175 210 268 317
#     4   9  18  31  51  81 111 140 181 217 252 321
#     4  11  21  33  52  83 106 130 178 233 265 307
#     4  10  17  33  55  80 107 135 177 219 269 310
#     4   9  18  30  46  80 115 137 169 220 265 313
#     4  10  16  28  54  80 104 137 179 214 265 316
#     4  11  17  32  54  78 105 144 175 217 269 312
#
# _framework density 17.865977000000001
#
# number of rings (size 3 to 8) (size 9 to 14) (size 15 to 20)
#    0.000    2.000    4.286    3.000    0.000    0.000 
#    2.571    5.714    0.000    1.714    0.000    0.000 
#    0.000    0.000    0.000    0.000    0.000    0.000 
#
# Total GULP energy -155996.426791 kJ/mol
# GULP energy per Si atom -5571.300957 kJ/mol
# Density = 1.782531 g / cm^3
# Si number density = 17.865977 Si / 1000 Ang^3
#
#
#
# Elastic Constant Matrix: (Units=GPa)
#
#
# Indices 1 2 3 4 5 6 
#
# 1 116.7335 6.2594 97.5915 0.0000 9.9077 0.0000
# 2 6.2594 26.3204 14.0382 0.0000 4.7386 0.0000
# 3 97.5915 14.0382 170.3869 0.0000 7.9008 0.0000
# 4 0.0000 0.0000 0.0000 -7.5452 0.0000 -3.7483
# 5 9.9077 4.7386 7.9008 0.0000 24.1823 0.0000
# 6 0.0000 0.0000 0.0000 -3.7483 0.0000 12.5735
#
#
#
# Elastic Compliance Matrix: (Units=1/GPa)
#
#
# Indices 1 2 3 4 5 6 
#
# 1 0.016857 0.001864 -0.009617 0.000000 -0.004130 0.000000
# 2 0.001864 0.041086 -0.004106 0.000000 -0.007473 0.000000
# 3 -0.009617 -0.004106 0.011673 0.000000 0.000931 0.000000
# 4 0.000000 0.000000 0.000000 -0.115438 0.000000 -0.034413
# 5 -0.004130 -0.007473 0.000931 0.000000 0.044205 0.000000
# 6 0.000000 0.000000 0.000000 -0.034413 0.000000 0.069273
#
#
# Mechanical properties :
#
#
# Convention : Reuss Voigt Hill
#
# Bulk Modulus (GPa) = 21.78815 61.02434 41.40624
# Shear Modulus (GPa) = 46.87217 18.87889 32.87553
#
# Velocity S-wave (km/s) = 5.12761 3.25421 4.29432
# Velocity P-wave (km/s) = 6.87592 6.95347 6.91481
#
# Compressibility (1/GPa) = 0.04589651
#
# Stress axis : x y z
#
# Youngs Moduli (GPa) = 59.32109 24.33946 85.67048
#
# Poissons Ratio (x) = -0.04537 0.82393
# Poissons Ratio (y) = -0.11058 0.35178
# Poissons Ratio (z) = 0.57052 0.09994
#
# Static dielectric constant tensor:
#      x y z
#    x 1.635460 0.000000 0.007680 
#    y 0.000000 1.618420 0.000000 
#    z 0.007680 0.000000 1.630610 
# 
# From -- ./inp_files/70460.got.cif
#   From: 2010.05.17/outbox.cif.g08.bks.cpg/sg13_36_cif.got.tgz:70460.got - 2010.06.03 16:44:36.
