data_PCOD9226587
_publ_section_title
;
Structure prediction by ZEFSAII (Michael W. Deem and Ramdas Pophale) SiO2 
 PCOD9226587
Probable space group: P 2/C
;
_chemical_formula_sum "Si O2"
_cell_formula_units_Z 32
_cell_length_a 12.146397
_cell_length_b 7.651909
_cell_length_c 18.199313
_cell_angle_alpha 90.000000
_cell_angle_beta 90.620503
_cell_angle_gamma 90.000000
_cell_volume 1691.401821
_symmetry_space_group_name_H-M "P 2/C"
_symmetry_group_IT_number 13
_symmetry_cell_setting 'monoclinic'
loop_
_space_group_symop_operation_xyz
x,y,z
-x,y,1/2-z
-x,-y,-z
x,-y,1/2+z
loop_
_atom_site_type_symbol
_atom_site_label
_atom_site_fract_x
_atom_site_fract_y
_atom_site_fract_z
Si Si1 0.317105 0.069975 0.010781
Si Si2 0.094838 0.951999 0.060800
Si Si3 0.283357 0.028464 0.348343
Si Si4 0.527721 0.272192 0.981679
Si Si5 0.092253 0.624507 0.966756
Si Si6 0.569568 0.284353 0.679389
Si Si7 0.680516 0.422499 0.098953
Si Si8 0.042125 0.873595 0.827511
O O1 0.206750 0.065776 0.057910
O O2 0.387785 0.892450 0.016817
O O3 0.271730 0.065423 0.927391
O O4 0.410866 0.216393 0.017679
O O5 0.125760 0.760676 0.031335
O O6 0.038385 0.980033 0.138627
O O7 0.000000 0.000000 0.000000
O O8 0.318685 0.228531 0.364931
O O9 0.162294 0.044797 0.314816
O O10 0.371908 0.904404 0.310161
O O11 0.504366 0.288415 0.894882
O O12 0.588789 0.411752 0.033924
O O13 0.204082 0.536808 0.939480
O O14 0.051743 0.731377 0.893729
O O15 0.000000 0.500000 0.000000
O O16 0.500000 0.327154 0.750000
O O17 0.656921 0.434380 0.660266
O O18 0.000000 0.801784 0.750000
#
# Coordination Sequence:
#
# PCOD9226587 Si02
#       8
#     4   4   4   4   4   4   4   4
#     4   9  15  32  60  87 106 147 200 246 288 351
#     4  10  17  33  59  86 111 146 207 243 290 372
#     4   9  19  39  59  79 116 159 190 245 309 358
#     4   9  18  34  58  82 113 148 195 250 292 338
#     4  10  21  37  62  88 118 161 206 256 315 375
#     4  11  24  36  56  87 118 157 202 238 305 380
#     4  10  20  41  61  84 120 155 202 257 302 356
#     4  10  21  37  58  88 120 154 201 251 313 372
#
# _framework density 18.919217
#
# number of rings (size 3 to 8) (size 9 to 14) (size 15 to 20)
#    0.000    2.250    5.000    1.125    1.750    2.500 
#    0.000    5.625    0.000    0.000    0.000    0.000 
#    0.000    0.000    0.000    0.000    0.000    0.000 
#
# Total GULP energy -178161.806794 kJ/mol
# GULP energy per Si atom -5567.556462 kJ/mol
# Density = 1.887616 g / cm^3
# Si number density = 18.919217 Si / 1000 Ang^3
#
#
#
# Elastic Constant Matrix: (Units=GPa)
#
#
# Indices 1 2 3 4 5 6 
#
# 1 130.0924 38.1928 46.8597 0.0000 -9.5429 0.0000
# 2 38.1928 64.9575 25.7372 0.0000 -16.2430 0.0000
# 3 46.8597 25.7372 77.6828 0.0000 -8.3737 0.0000
# 4 0.0000 0.0000 0.0000 17.9201 0.0000 -10.5545
# 5 -9.5429 -16.2430 -8.3737 0.0000 26.3777 0.0000
# 6 0.0000 0.0000 0.0000 -10.5545 0.0000 24.4061
#
#
#
# Elastic Compliance Matrix: (Units=1/GPa)
#
#
# Indices 1 2 3 4 5 6 
#
# 1 0.010790 -0.004440 -0.005085 0.000000 -0.000445 0.000000
# 2 -0.004440 0.022107 -0.003470 0.000000 0.010905 0.000000
# 3 -0.005085 -0.003470 0.017252 0.000000 0.001500 0.000000
# 4 0.000000 0.000000 0.000000 0.074874 0.000000 0.032380
# 5 -0.000445 0.010905 0.001500 0.000000 0.044941 0.000000
# 6 0.000000 0.000000 0.000000 0.032380 0.000000 0.054976
#
#
# Mechanical properties :
#
#
# Convention : Reuss Voigt Hill
#
# Bulk Modulus (GPa) = 41.39639 54.92356 48.15997
# Shear Modulus (GPa) = 19.30618 24.53698 21.92158
#
# Velocity S-wave (km/s) = 3.19792 3.60520 3.40765
# Velocity P-wave (km/s) = 5.96353 6.81349 6.40263
#
# Compressibility (1/GPa) = 0.02415670
#
# Stress axis : x y z
#
# Youngs Moduli (GPa) = 92.68256 45.23372 57.96467
#
# Poissons Ratio (x) = 0.20085 0.29477
# Poissons Ratio (y) = 0.41154 0.20116
# Poissons Ratio (z) = 0.47132 0.15698
#
# Static dielectric constant tensor:
#      x y z
#    x 1.716090 0.000000 0.007360 
#    y 0.000000 1.755630 0.000000 
#    z 0.007360 0.000000 1.631380 
# 
# From -- ./inp_files/66050.got.cif
#   From: 2010.05.17/outbox.cif.g08.bks.cpg/sg13_34_cif.got.tgz:66050.got - 2010.06.03 16:44:36.
