data_PCOD9226771
_publ_section_title
;
Structure prediction by ZEFSAII (Michael W. Deem and Ramdas Pophale) SiO2 
 PCOD9226771
Probable space group: P 2/C
;
_chemical_formula_sum "Si O2"
_cell_formula_units_Z 28
_cell_length_a 5.114282
_cell_length_b 18.384312
_cell_length_c 18.771593
_cell_angle_alpha 90.000000
_cell_angle_beta 121.909502
_cell_angle_gamma 90.000000
_cell_volume 1498.240561
_symmetry_space_group_name_H-M "P 2/C"
_symmetry_group_IT_number 13
_symmetry_cell_setting 'monoclinic'
loop_
_space_group_symop_operation_xyz
x,y,z
-x,y,1/2-z
-x,-y,-z
x,-y,1/2+z
loop_
_atom_site_type_symbol
_atom_site_label
_atom_site_fract_x
_atom_site_fract_y
_atom_site_fract_z
Si Si1 0.131724 0.389503 0.689276
Si Si2 0.133144 0.707685 0.689962
Si Si3 0.774697 0.937080 0.441053
Si Si4 0.133048 0.548077 0.689604
Si Si5 0.745222 0.258128 0.571028
Si Si6 0.089467 0.099466 0.845124
Si Si7 0.936479 0.221304 0.022645
O O1 0.500000 0.378890 0.750000
O O2 0.061435 0.469478 0.645650
O O3 0.000000 0.390452 0.750000
O O4 0.955972 0.324950 0.624834
O O5 0.500000 0.709494 0.750000
O O6 0.039645 0.626998 0.646675
O O7 0.000000 0.717070 0.750000
O O8 0.027825 0.765851 0.617002
O O9 0.410768 0.943758 0.402700
O O10 0.871669 0.862300 0.494031
O O11 0.838172 0.927104 0.365835
O O12 0.000000 0.000000 0.500000
O O13 0.500000 0.549102 0.750000
O O14 0.000000 0.547167 0.750000
O O15 0.852714 0.184249 0.626386
O O16 0.384249 0.264344 0.536219
O O17 0.803134 0.247015 0.495156
O O18 0.000000 0.093654 0.750000
#
# Coordination Sequence:
#
# PCOD9226771 Si02
#       7
#     4   4   4   4   4   4   4
#     4  10  18  30  49  74 104 139 177 212 251 305
#     4  10  19  35  56  74  97 134 180 224 259 305
#     4  10  21  38  57  77 110 143 167 208 268 315
#     4   8  16  29  47  70  97 133 174 214 258 302
#     4  10  20  33  51  77 109 136 164 210 261 308
#     4  10  20  35  57  82 106 139 178 208 245 309
#     4  10  21  36  53  76 103 134 170 210 266 320
#
# _framework density 18.688586999999998
#
# number of rings (size 3 to 8) (size 9 to 14) (size 15 to 20)
#    0.000    2.286    0.000    3.000    0.000    2.286 
#    0.000    3.571    0.000    0.000    0.000    0.000 
#    0.000    0.000    0.000    0.000    0.000    0.000 
#
# Total GULP energy -156048.486813 kJ/mol
# GULP energy per Si atom -5573.160243 kJ/mol
# Density = 1.864605 g / cm^3
# Si number density = 18.688587 Si / 1000 Ang^3
#
#
#
# Elastic Constant Matrix: (Units=GPa)
#
#
# Indices 1 2 3 4 5 6 
#
# 1 113.0928 25.4112 12.6534 0.0000 -5.6756 0.0000
# 2 25.4112 55.7365 37.6286 0.0000 -3.4918 0.0000
# 3 12.6534 37.6286 70.2519 0.0000 -10.5532 0.0000
# 4 0.0000 0.0000 0.0000 -14.2420 0.0000 -16.3543
# 5 -5.6756 -3.4918 -10.5532 0.0000 18.7054 0.0000
# 6 0.0000 0.0000 0.0000 -16.3543 0.0000 11.1033
#
#
#
# Elastic Compliance Matrix: (Units=1/GPa)
#
#
# Indices 1 2 3 4 5 6 
#
# 1 0.010036 -0.005432 0.001537 0.000000 0.002898 0.000000
# 2 -0.005432 0.031261 -0.016539 0.000000 -0.005143 0.000000
# 3 0.001537 -0.016539 0.024499 0.000000 0.011201 0.000000
# 4 0.000000 0.000000 0.000000 -0.026089 0.000000 -0.038427
# 5 0.002898 -0.005143 0.011201 0.000000 0.059699 0.000000
# 6 0.000000 0.000000 0.000000 -0.038427 0.000000 0.033464
#
#
# Mechanical properties :
#
#
# Convention : Reuss Voigt Hill
#
# Bulk Modulus (GPa) = 40.11285 43.38528 41.74907
# Shear Modulus (GPa) = 27.46547 14.00587 20.73567
#
# Velocity S-wave (km/s) = 3.83775 2.74055 3.33458
# Velocity P-wave (km/s) = 6.41468 5.76883 6.10031
#
# Compressibility (1/GPa) = 0.02492967
#
# Stress axis : x y z
#
# Youngs Moduli (GPa) = 99.63858 31.98841 40.81855
#
# Poissons Ratio (x) = 0.17376 -0.06275
# Poissons Ratio (y) = 0.54123 0.67508
# Poissons Ratio (z) = -0.15316 0.52904
#
# Static dielectric constant tensor:
#      x y z
#    x 1.360160 0.000000 -0.097470 
#    y 0.000000 1.679830 0.000000 
#    z -0.097470 0.000000 1.570660 
# 
# From -- ./inp_files/61679.got.cif
#   From: 2010.05.17/outbox.cif.g08.bks.cpg/sg13_31_cif.got.tgz:61679.got - 2010.06.03 16:44:36.
