data_PCOD9226810
_publ_section_title
;
Structure prediction by ZEFSAII (Michael W. Deem and Ramdas Pophale) SiO2 
 PCOD9226810
Probable space group: P 2/C
;
_chemical_formula_sum "Si O2"
_cell_formula_units_Z 24
_cell_length_a 27.143143
_cell_length_b 9.363371
_cell_length_c 22.099197
_cell_angle_alpha 90.000000
_cell_angle_beta 168.851256
_cell_angle_gamma 90.000000
_cell_volume 1085.995788
_symmetry_space_group_name_H-M "P 2/C"
_symmetry_group_IT_number 13
_symmetry_cell_setting 'monoclinic'
loop_
_space_group_symop_operation_xyz
x,y,z
-x,y,1/2-z
-x,-y,-z
x,-y,1/2+z
loop_
_atom_site_type_symbol
_atom_site_label
_atom_site_fract_x
_atom_site_fract_y
_atom_site_fract_z
Si Si1 0.897597 0.346508 0.194713
Si Si2 0.500000 0.100411 0.750000
Si Si3 0.337518 0.367065 0.929295
Si Si4 0.084360 0.061026 0.166150
Si Si5 0.245307 0.682438 0.785325
Si Si6 0.500000 0.413720 0.250000
Si Si7 0.655240 0.223953 0.690033
O O1 0.000000 0.363287 0.250000
O O2 0.143155 0.327459 0.533439
O O3 0.709268 0.207056 0.970813
O O4 0.738804 0.480394 0.027626
O O5 0.322435 0.005591 0.491422
O O6 0.378288 0.534387 0.963242
O O7 0.398821 0.276803 0.943230
O O8 0.035524 0.351624 0.577111
O O9 0.473997 0.330579 0.155932
O O10 0.193530 0.218721 0.280629
O O11 0.822557 0.079935 0.887613
O O12 0.000000 0.000000 0.000000
O O13 0.408490 0.769431 0.933762
#
# Coordination Sequence:
#
# PCOD9226810 Si02
#       7
#     4   2   4   4   4   2   4
#     4  10  18  30  52  79 101 130 173 224 269 302
#     4   9  18  34  53  74 102 130 171 227 270 308
#     4  10  20  33  52  77 108 144 174 213 262 313
#     4  10  21  36  55  79 105 138 177 220 270 318
#     4  10  19  35  55  78 106 135 175 220 267 317
#     4  11  20  30  45  74 112 142 175 209 250 314
#     4  10  20  35  56  78 104 138 176 219 267 314
#
# _framework density 22.099533000000001
#
# number of rings (size 3 to 8) (size 9 to 14) (size 15 to 20)
#    0.000    2.000    0.000    7.500    0.000    2.000 
#    0.000    3.333    0.000    0.000    0.000    0.000 
#    0.000    0.000    0.000    0.000    0.000    0.000 
#
# Total GULP energy -133953.593791 kJ/mol
# GULP energy per Si atom -5581.399741 kJ/mol
# Density = 2.204923 g / cm^3
# Si number density = 22.099533 Si / 1000 Ang^3
#
#
#
# Elastic Constant Matrix: (Units=GPa)
#
#
# Indices 1 2 3 4 5 6 
#
# 1 134.9472 0.2778 50.2672 0.0000 -0.6774 0.0000
# 2 0.2778 35.4044 11.1896 0.0000 0.8616 0.0000
# 3 50.2672 11.1896 80.2439 0.0000 -8.2308 0.0000
# 4 0.0000 0.0000 0.0000 13.4422 0.0000 -5.9045
# 5 -0.6774 0.8616 -8.2308 0.0000 62.8563 0.0000
# 6 0.0000 0.0000 0.0000 -5.9045 0.0000 27.6657
#
#
#
# Elastic Compliance Matrix: (Units=1/GPa)
#
#
# Indices 1 2 3 4 5 6 
#
# 1 0.009829 0.002001 -0.006516 0.000000 -0.000775 0.000000
# 2 0.002001 0.030012 -0.005553 0.000000 -0.001117 0.000000
# 3 -0.006516 -0.005553 0.017555 0.000000 0.002305 0.000000
# 4 0.000000 0.000000 0.000000 0.082088 0.000000 0.017519
# 5 -0.000775 -0.001117 0.002305 0.000000 0.016218 0.000000
# 6 0.000000 0.000000 0.000000 0.017519 0.000000 0.039885
#
#
# Mechanical properties :
#
#
# Convention : Reuss Voigt Hill
#
# Bulk Modulus (GPa) = 26.83864 41.56274 34.20069
# Shear Modulus (GPa) = 21.91614 33.38357 27.64985
#
# Velocity S-wave (km/s) = 3.15255 3.89086 3.54100
# Velocity P-wave (km/s) = 5.04204 6.24764 5.67693
#
# Compressibility (1/GPa) = 0.03725971
#
# Stress axis : x y z
#
# Youngs Moduli (GPa) = 101.73490 33.32044 56.96529
#
# Poissons Ratio (x) = -0.06668 0.37119
# Poissons Ratio (y) = -0.20358 0.31633
# Poissons Ratio (z) = 0.66290 0.18503
#
# Static dielectric constant tensor:
#      x y z
#    x 1.835400 0.000000 -0.050730 
#    y 0.000000 1.895280 0.000000 
#    z -0.050730 0.000000 1.876010 
# 
# From -- ./inp_files/89685.got.cif
#   From: 2010.05.17/outbox.cif.g08.bks.cpg/sg13_45_cif.got.tgz:89685.got - 2010.06.03 16:44:36.
