data_PCOD9226348
_publ_section_title
;
Structure prediction by ZEFSAII (Michael W. Deem and Ramdas Pophale) SiO2 
 PCOD9226348
Probable space group: P 2/C
;
_chemical_formula_sum "Si O2"
_cell_formula_units_Z 28
_cell_length_a 10.807264
_cell_length_b 9.948636
_cell_length_c 15.003245
_cell_angle_alpha 90.000000
_cell_angle_beta 133.237030
_cell_angle_gamma 90.000000
_cell_volume 1175.194071
_symmetry_space_group_name_H-M "P 2/C"
_symmetry_group_IT_number 13
_symmetry_cell_setting 'monoclinic'
loop_
_space_group_symop_operation_xyz
x,y,z
-x,y,1/2-z
-x,-y,-z
x,-y,1/2+z
loop_
_atom_site_type_symbol
_atom_site_label
_atom_site_fract_x
_atom_site_fract_y
_atom_site_fract_z
Si Si1 0.138374 0.848229 0.086125
Si Si2 0.500000 0.854073 0.250000
Si Si3 0.519179 0.647157 0.420960
Si Si4 0.000000 0.643395 0.250000
Si Si5 0.667687 0.577176 0.892333
Si Si6 0.827614 0.552003 0.322199
Si Si7 0.091148 0.014632 0.389518
Si Si8 0.668252 0.798301 0.027358
O O1 0.321560 0.924604 0.183658
O O2 0.168770 0.695511 0.127235
O O3 0.009229 0.908030 0.095538
O O4 0.090212 0.862832 0.958750
O O5 0.534081 0.756307 0.350218
O O6 0.658664 0.533667 0.467371
O O7 0.345560 0.560252 0.321881
O O8 0.489184 0.738191 0.493890
O O9 0.022830 0.553391 0.174404
O O10 0.162908 0.739246 0.340630
O O11 0.500000 0.551672 0.750000
O O12 0.815467 0.557073 0.893205
O O13 0.662097 0.723521 0.930459
O O14 0.278584 0.952868 0.460413
O O15 0.000000 0.037939 0.250000
#
# Coordination Sequence:
#
# PCOD9226348 Si02
#       8
#     4   2   4   2   4   4   4   4
#     4  10  20  35  64  82 108 147 193 235 291 341
#     4  10  16  36  62  84 108 134 192 240 278 342
#     4   9  16  31  56  80 104 143 182 226 275 335
#     4  10  18  32  54  82 104 138 196 226 262 338
#     4  10  19  34  55  79 114 148 178 228 290 332
#     4   9  16  33  56  82 106 140 186 227 279 337
#     4  11  21  39  58  80 111 155 191 234 285 347
#     4  11  20  32  56  79 109 147 191 226 271 346
#
# _framework density 23.825852999999999
#
# number of rings (size 3 to 8) (size 9 to 14) (size 15 to 20)
#    0.000    2.000    5.714    2.143    0.000    0.571 
#    1.286    2.857    4.714    0.000    0.000    0.000 
#    0.000    0.000    0.000    0.000    0.000    0.000 
#
# Total GULP energy -156143.996921 kJ/mol
# GULP energy per Si atom -5576.571319 kJ/mol
# Density = 2.377162 g / cm^3
# Si number density = 23.825853 Si / 1000 Ang^3
#
#
#
# Elastic Constant Matrix: (Units=GPa)
#
#
# Indices 1 2 3 4 5 6 
#
# 1 88.1212 17.7629 30.8249 0.0000 -24.2794 0.0000
# 2 17.7629 21.9263 17.0618 0.0000 -17.6814 0.0000
# 3 30.8249 17.0618 68.2669 0.0000 -37.9272 0.0000
# 4 0.0000 0.0000 0.0000 28.2570 0.0000 -6.1441
# 5 -24.2794 -17.6814 -37.9272 0.0000 46.4971 0.0000
# 6 0.0000 0.0000 0.0000 -6.1441 0.0000 19.9041
#
#
#
# Elastic Compliance Matrix: (Units=1/GPa)
#
#
# Indices 1 2 3 4 5 6 
#
# 1 0.014665 -0.007570 -0.003794 0.000000 0.001684 0.000000
# 2 -0.007570 0.070503 -0.002750 0.000000 0.020614 0.000000
# 3 -0.003794 -0.002750 0.028103 0.000000 0.019896 0.000000
# 4 0.000000 0.000000 0.000000 0.037936 0.000000 0.011710
# 5 0.001684 0.020614 0.019896 0.000000 0.046454 0.000000
# 6 0.000000 0.000000 0.000000 0.011710 0.000000 0.053856
#
#
# Mechanical properties :
#
#
# Convention : Reuss Voigt Hill
#
# Bulk Modulus (GPa) = 11.75875 34.40151 23.08013
# Shear Modulus (GPa) = 16.22891 26.44262 21.33576
#
# Velocity S-wave (km/s) = 2.61271 3.33502 2.99572
# Velocity P-wave (km/s) = 3.74802 5.41294 4.65551
#
# Compressibility (1/GPa) = 0.08504304
#
# Stress axis : x y z
#
# Youngs Moduli (GPa) = 68.18887 14.18376 35.58385
#
# Poissons Ratio (x) = 0.10737 0.13501
# Poissons Ratio (y) = 0.51618 0.09785
# Poissons Ratio (z) = 0.25872 0.03900
#
# Static dielectric constant tensor:
#      x y z
#    x 2.025200 0.000000 0.049640 
#    y 0.000000 1.890910 0.000000 
#    z 0.049640 0.000000 1.973660 
# 
# From -- ./inp_files/50478.got.cif
#   From: 2010.05.17/outbox.cif.g08.bks.cpg/sg13_26_cif.got.tgz:50478.got - 2010.06.03 16:44:36.
