data_PCOD9226982
_publ_section_title
;
Structure prediction by ZEFSAII (Michael W. Deem and Ramdas Pophale) SiO2 
 PCOD9226982
Probable space group: P 2/C
;
_chemical_formula_sum "Si O2"
_cell_formula_units_Z 32
_cell_length_a 9.377541
_cell_length_b 10.987396
_cell_length_c 20.233684
_cell_angle_alpha 90.000000
_cell_angle_beta 58.370434
_cell_angle_gamma 90.000000
_cell_volume 1775.093126
_symmetry_space_group_name_H-M "P 2/C"
_symmetry_group_IT_number 13
_symmetry_cell_setting 'monoclinic'
loop_
_space_group_symop_operation_xyz
x,y,z
-x,y,1/2-z
-x,-y,-z
x,-y,1/2+z
loop_
_atom_site_type_symbol
_atom_site_label
_atom_site_fract_x
_atom_site_fract_y
_atom_site_fract_z
Si Si1 0.786024 0.476582 0.485493
Si Si2 0.835311 0.575524 0.623110
Si Si3 0.556773 0.280243 0.580010
Si Si4 0.288238 0.728006 0.045793
Si Si5 0.063438 0.789591 0.304130
Si Si6 0.161443 0.830722 0.944054
Si Si7 0.643281 0.403803 0.765175
Si Si8 0.196081 0.108088 0.902935
O O1 0.797064 0.512003 0.561096
O O2 0.697579 0.347550 0.503485
O O3 0.688094 0.585068 0.473933
O O4 0.973098 0.464442 0.411578
O O5 0.827111 0.719951 0.610865
O O6 0.714858 0.523243 0.709935
O O7 0.424090 0.220413 0.563031
O O8 0.456107 0.389058 0.642124
O O9 0.648665 0.187006 0.607159
O O10 0.104760 0.741304 0.121314
O O11 0.275732 0.793138 0.978453
O O12 0.195636 0.680945 0.262965
O O13 0.155082 0.872692 0.335821
O O14 0.000000 0.842853 0.250000
O O15 0.213606 0.964701 0.909384
O O16 0.969264 0.843295 0.017264
O O17 0.500000 0.355907 0.750000
#
# Coordination Sequence:
#
# PCOD9226982 Si02
#       8
#     4   4   4   4   4   4   4   4
#     4  10  18  32  53  83 114 147 183 235 290 345
#     4  10  18  33  58  80 112 151 186 229 292 354
#     4  12  21  33  56  88 115 149 195 242 286 343
#     4  10  21  33  55  85 118 146 188 244 295 338
#     4  11  20  35  55  82 114 147 188 237 293 345
#     4   9  20  38  58  83 111 153 197 236 288 345
#     4  12  21  33  56  84 114 147 187 234 291 349
#     4  10  20  36  60  83 109 151 203 242 278 339
#
# _framework density 18.027224
#
# number of rings (size 3 to 8) (size 9 to 14) (size 15 to 20)
#    0.000    1.500    6.250    0.375    0.000    0.500 
#    0.000    0.000    2.750    2.250    0.000    0.000 
#    0.000    0.000    0.000    0.000    0.000    0.000 
#
# Total GULP energy -178189.890434 kJ/mol
# GULP energy per Si atom -5568.434076 kJ/mol
# Density = 1.798619 g / cm^3
# Si number density = 18.027224 Si / 1000 Ang^3
#
#
#
# Elastic Constant Matrix: (Units=GPa)
#
#
# Indices 1 2 3 4 5 6 
#
# 1 126.6666 52.9857 25.6620 0.0000 7.5958 0.0000
# 2 52.9857 97.7874 38.1795 0.0000 4.7548 0.0000
# 3 25.6620 38.1795 54.1136 0.0000 4.1733 0.0000
# 4 0.0000 0.0000 0.0000 4.3466 0.0000 -4.8894
# 5 7.5958 4.7548 4.1733 0.0000 25.8987 0.0000
# 6 0.0000 0.0000 0.0000 -4.8894 0.0000 11.5575
#
#
#
# Elastic Compliance Matrix: (Units=1/GPa)
#
#
# Indices 1 2 3 4 5 6 
#
# 1 0.010368 -0.005055 -0.001202 0.000000 -0.001919 0.000000
# 2 -0.005055 0.016605 -0.009313 0.000000 -0.000065 0.000000
# 3 -0.001202 -0.009313 0.025782 0.000000 -0.002092 0.000000
# 4 0.000000 0.000000 0.000000 0.438953 0.000000 0.185698
# 5 -0.001919 -0.000065 -0.002092 0.000000 0.039524 0.000000
# 6 0.000000 0.000000 0.000000 0.185698 0.000000 0.165083
#
#
# Mechanical properties :
#
#
# Convention : Reuss Voigt Hill
#
# Bulk Modulus (GPa) = 46.26661 56.91354 51.59008
# Shear Modulus (GPa) = 6.80587 19.14325 12.97456
#
# Velocity S-wave (km/s) = 1.94513 3.26223 2.68567
# Velocity P-wave (km/s) = 5.54665 6.76971 6.18847
#
# Compressibility (1/GPa) = 0.02161386
#
# Stress axis : x y z
#
# Youngs Moduli (GPa) = 96.45066 60.22397 38.78710
#
# Poissons Ratio (x) = 0.30444 0.04663
# Poissons Ratio (y) = 0.48758 0.36122
# Poissons Ratio (z) = 0.11594 0.56087
#
# Static dielectric constant tensor:
#      x y z
#    x 1.637600 0.000000 0.012050 
#    y 0.000000 1.602870 0.000000 
#    z 0.012050 0.000000 1.647170 
# 
# From -- ./inp_files/76443.got.cif
#   From: 2010.05.17/outbox.cif.g08.bks.cpg/sg13_39_cif.got.tgz:76443.got - 2010.06.03 16:44:36.
