data_PCOD9226203
_publ_section_title
;
Structure prediction by ZEFSAII (Michael W. Deem and Ramdas Pophale) SiO2 
 PCOD9226203
Probable space group: P 2/C
;
_chemical_formula_sum "Si O2"
_cell_formula_units_Z 24
_cell_length_a 9.749691
_cell_length_b 21.997734
_cell_length_c 5.554957
_cell_angle_alpha 90.000000
_cell_angle_beta 113.088373
_cell_angle_gamma 90.000000
_cell_volume 1095.949733
_symmetry_space_group_name_H-M "P 2/C"
_symmetry_group_IT_number 13
_symmetry_cell_setting 'monoclinic'
loop_
_space_group_symop_operation_xyz
x,y,z
-x,y,1/2-z
-x,-y,-z
x,-y,1/2+z
loop_
_atom_site_type_symbol
_atom_site_label
_atom_site_fract_x
_atom_site_fract_y
_atom_site_fract_z
Si Si1 0.701446 0.710449 0.252677
Si Si2 0.672522 0.975603 0.109994
Si Si3 0.593676 0.162939 0.563155
Si Si4 0.001448 0.630541 0.001971
Si Si5 0.330147 0.523848 0.880584
Si Si6 0.671799 0.665512 0.733258
O O1 0.703694 0.779959 0.170378
O O2 0.635379 0.707017 0.477680
O O3 0.855829 0.674212 0.390722
O O4 0.618913 0.676246 0.972160
O O5 0.667752 0.903024 0.090835
O O6 0.739158 0.997102 0.410361
O O7 0.500000 0.000000 0.000000
O O8 0.500000 0.160586 0.750000
O O9 0.500000 0.172392 0.250000
O O10 0.852282 0.671169 0.893588
O O11 0.000000 0.595313 0.750000
O O12 0.000000 0.594602 0.250000
O O13 0.262720 0.495021 0.591276
O O14 0.343106 0.595812 0.856917
O O15 0.500000 0.500000 0.000000
#
# Coordination Sequence:
#
# PCOD9226203 Si02
#       6
#     4   4   4   4   4   4
#     4  10  21  35  52  82 107 132 177 217 270 315
#     4  10  16  30  49  64  96 152 184 210 249 297
#     4  12  21  33  47  77 115 143 177 219 256 319
#     4   8  16  32  57  74  97 129 168 216 258 312
#     4  10  21  38  55  77 107 139 175 209 251 322
#     4  10  19  38  59  76 103 140 172 212 276 318
#
# _framework density 21.898816
#
# number of rings (size 3 to 8) (size 9 to 14) (size 15 to 20)
#    0.000    2.000    3.333    2.000    0.000    0.000 
#   18.000    0.000    0.000   27.000    0.000    0.000 
#    0.000   36.000    0.000    0.000    0.000    0.000 
#
# Total GULP energy -133837.222897 kJ/mol
# GULP energy per Si atom -5576.550954 kJ/mol
# Density = 2.184897 g / cm^3
# Si number density = 21.898816 Si / 1000 Ang^3
#
#
#
# Elastic Constant Matrix: (Units=GPa)
#
#
# Indices 1 2 3 4 5 6 
#
# 1 38.7212 3.9609 40.3600 0.0000 -16.3842 0.0000
# 2 3.9609 153.6160 51.3886 0.0000 -0.1800 0.0000
# 3 40.3600 51.3886 218.4421 0.0000 -55.6708 0.0000
# 4 0.0000 0.0000 0.0000 35.2530 0.0000 -7.0796
# 5 -16.3842 -0.1800 -55.6708 0.0000 45.9081 0.0000
# 6 0.0000 0.0000 0.0000 -7.0796 0.0000 12.6038
#
#
#
# Elastic Compliance Matrix: (Units=1/GPa)
#
#
# Indices 1 2 3 4 5 6 
#
# 1 0.033307 0.000746 -0.004775 0.000000 0.006100 0.000000
# 2 0.000746 0.007355 -0.002595 0.000000 -0.002852 0.000000
# 3 -0.004775 -0.002595 0.008153 0.000000 0.008173 0.000000
# 4 0.000000 0.000000 0.000000 0.031973 0.000000 0.017959
# 5 0.006100 -0.002852 0.008173 0.000000 0.033860 0.000000
# 6 0.000000 0.000000 0.000000 0.017959 0.000000 0.089429
#
#
# Mechanical properties :
#
#
# Convention : Reuss Voigt Hill
#
# Bulk Modulus (GPa) = 28.11521 66.91091 47.51306
# Shear Modulus (GPa) = 21.81673 39.75763 30.78718
#
# Velocity S-wave (km/s) = 3.15977 4.26551 3.75358
# Velocity P-wave (km/s) = 5.11652 7.40813 6.36628
#
# Compressibility (1/GPa) = 0.03556793
#
# Stress axis : x y z
#
# Youngs Moduli (GPa) = 30.02344 135.95791 122.64723
#
# Poissons Ratio (x) = -0.10138 0.58562
# Poissons Ratio (y) = -0.02239 0.31825
# Poissons Ratio (z) = 0.14336 0.35279
#
# Static dielectric constant tensor:
#      x y z
#    x 1.949550 0.000000 -0.044960 
#    y 0.000000 1.726040 0.000000 
#    z -0.044960 0.000000 1.946560 
# 
# From -- ./inp_files/4009.got.cif
#   From: 2010.05.17/outbox.cif.g08.bks.cpg/sg13_3_cif.got.tgz:4009.got - 2010.06.03 16:44:36.
