data_PCOD9226345
_publ_section_title
;
Structure prediction by ZEFSAII (Michael W. Deem and Ramdas Pophale) SiO2 
 PCOD9226345
Probable space group: P 2/C
;
_chemical_formula_sum "Si O2"
_cell_formula_units_Z 24
_cell_length_a 13.408486
_cell_length_b 12.984480
_cell_length_c 9.607066
_cell_angle_alpha 90.000000
_cell_angle_beta 35.048809
_cell_angle_gamma 90.000000
_cell_volume 960.537374
_symmetry_space_group_name_H-M "P 2/C"
_symmetry_group_IT_number 13
_symmetry_cell_setting 'monoclinic'
loop_
_space_group_symop_operation_xyz
x,y,z
-x,y,1/2-z
-x,-y,-z
x,-y,1/2+z
loop_
_atom_site_type_symbol
_atom_site_label
_atom_site_fract_x
_atom_site_fract_y
_atom_site_fract_z
Si Si1 0.000000 0.924611 0.750000
Si Si2 0.696957 0.799616 0.238849
Si Si3 0.500000 0.361795 0.250000
Si Si4 0.249821 0.572196 0.266582
Si Si5 0.091623 0.634849 0.000241
Si Si6 0.665798 0.796660 0.789420
Si Si7 0.706311 0.065625 0.002951
O O1 0.144547 0.853780 0.514145
O O2 0.130121 0.990082 0.702802
O O3 0.698768 0.676611 0.213586
O O4 0.497507 0.828931 0.432862
O O5 0.712379 0.843712 0.380395
O O6 0.379988 0.430684 0.486823
O O7 0.402175 0.284020 0.253956
O O8 0.220648 0.462894 0.372554
O O9 0.063165 0.600161 0.419681
O O10 0.000000 0.665852 0.250000
O O11 0.185720 0.728404 0.815072
O O12 0.739842 0.891294 0.619822
O O13 0.500000 0.033948 0.250000
#
# Coordination Sequence:
#
# PCOD9226345 Si02
#       7
#     2   4   2   4   4   4   4
#     4  12  26  38  66  92 124 170 196 256 342 348
#     4  10  22  43  58  91 123 158 201 257 303 370
#     4  10  16  36  56  80 114 158 196 244 288 360
#     4  10  22  37  59  88 125 153 202 255 293 369
#     4  11  21  36  61  95 115 163 202 244 302 375
#     4  10  19  38  64  85 118 156 208 246 298 364
#     4  10  21  41  65  92 120 161 216 260 289 378
#
# _framework density 24.986014000000001
#
# number of rings (size 3 to 8) (size 9 to 14) (size 15 to 20)
#    0.000    1.667    5.833    0.500    4.667    5.333 
#    3.000    0.000    0.000    0.000    0.000    0.000 
#    0.000    0.000    0.000    0.000    0.000    0.000 
#
# Total GULP energy -133928.436379 kJ/mol
# GULP energy per Si atom -5580.351516 kJ/mol
# Density = 2.492914 g / cm^3
# Si number density = 24.986014 Si / 1000 Ang^3
#
#
#
# Elastic Constant Matrix: (Units=GPa)
#
#
# Indices 1 2 3 4 5 6 
#
# 1 27.2970 2.1885 12.0260 0.0000 -9.4548 0.0000
# 2 2.1885 80.6987 61.3479 0.0000 -7.7479 0.0000
# 3 12.0260 61.3479 181.6644 0.0000 -25.9030 0.0000
# 4 0.0000 0.0000 0.0000 108.6531 0.0000 -61.5090
# 5 -9.4548 -7.7479 -25.9030 0.0000 20.2129 0.0000
# 6 0.0000 0.0000 0.0000 -61.5090 0.0000 56.1826
#
#
#
# Elastic Compliance Matrix: (Units=1/GPa)
#
#
# Indices 1 2 3 4 5 6 
#
# 1 0.043780 0.001026 -0.000329 0.000000 0.020451 0.000000
# 2 0.001026 0.016713 -0.005787 0.000000 -0.000531 0.000000
# 3 -0.000329 -0.005787 0.008740 0.000000 0.008828 0.000000
# 4 0.000000 0.000000 0.000000 0.024206 0.000000 0.026500
# 5 0.020451 -0.000531 0.008828 0.000000 0.070149 0.000000
# 6 0.000000 0.000000 0.000000 0.026500 0.000000 0.046812
#
#
# Mechanical properties :
#
#
# Convention : Reuss Voigt Hill
#
# Bulk Modulus (GPa) = 16.93421 48.97609 32.95515
# Shear Modulus (GPa) = 20.81055 51.28291 36.04673
#
# Velocity S-wave (km/s) = 2.88911 4.53533 3.80238
# Velocity P-wave (km/s) = 4.23338 6.86073 5.70048
#
# Compressibility (1/GPa) = 0.05905205
#
# Stress axis : x y z
#
# Youngs Moduli (GPa) = 22.84149 59.83483 114.42258
#
# Poissons Ratio (x) = -0.06139 0.03761
# Poissons Ratio (y) = -0.02344 0.66221
# Poissons Ratio (z) = 0.00751 0.34629
#
# Static dielectric constant tensor:
#      x y z
#    x 2.059560 0.000000 -0.027970 
#    y 0.000000 2.064220 0.000000 
#    z -0.027970 0.000000 1.980860 
# 
# From -- ./inp_files/39140.got.cif
#   From: 2010.05.17/outbox.cif.g08.bks.cpg/sg13_20_cif.got.tgz:39140.got - 2010.06.03 16:44:36.
