data_PCOD9226482
_publ_section_title
;
Structure prediction by ZEFSAII (Michael W. Deem and Ramdas Pophale) SiO2 
 PCOD9226482
Probable space group: P 2/C
;
_chemical_formula_sum "Si O2"
_cell_formula_units_Z 14
_cell_length_a 9.345619
_cell_length_b 11.252170
_cell_length_c 5.617396
_cell_angle_alpha 90.000000
_cell_angle_beta 86.054203
_cell_angle_gamma 90.000000
_cell_volume 589.316664
_symmetry_space_group_name_H-M "P 2/C"
_symmetry_group_IT_number 13
_symmetry_cell_setting 'monoclinic'
loop_
_space_group_symop_operation_xyz
x,y,z
-x,y,1/2-z
-x,-y,-z
x,-y,1/2+z
loop_
_atom_site_type_symbol
_atom_site_label
_atom_site_fract_x
_atom_site_fract_y
_atom_site_fract_z
Si Si1 0.143693 0.780696 0.622607
Si Si2 0.443172 0.134543 0.005335
Si Si3 0.000000 0.615174 0.250000
Si Si4 0.722552 0.461563 0.306459
O O1 0.270687 0.866036 0.527905
O O2 0.074137 0.703168 0.424076
O O3 0.231497 0.675191 0.749894
O O4 0.000000 0.837155 0.750000
O O5 0.500000 0.187428 0.250000
O O6 0.500000 0.190044 0.750000
O O7 0.500000 0.000000 0.000000
O O8 0.128045 0.530347 0.155135
O O9 0.653093 0.479317 0.578508
#
# Coordination Sequence:
#
# PCOD9226482 Si02
#       4
#     4   4   2   4
#     4  11  20  35  68  99 119 166 219 258 308 376
#     4  10  25  48  66  84 128 175 205 263 332 374
#     4  10  18  32  56 102 138 144 206 266 322 340
#     4  10  17  30  51  94 133 155 185 260 314 353
#
# _framework density 23.756329999999998
#
# number of rings (size 3 to 8) (size 9 to 14) (size 15 to 20)
#    0.000    1.714    4.286    1.714    4.000    0.000 
#    0.000    5.714    0.000   20.571    0.000    0.000 
#    0.000    0.000    0.000    0.000    0.000    0.000 
#
# Total GULP energy -77980.781691 kJ/mol
# GULP energy per Si atom -5570.055835 kJ/mol
# Density = 2.370226 g / cm^3
# Si number density = 23.756330 Si / 1000 Ang^3
#
#
#
# Elastic Constant Matrix: (Units=GPa)
#
#
# Indices 1 2 3 4 5 6 
#
# 1 171.6275 48.3975 57.9544 0.0000 -21.0139 0.0000
# 2 48.3975 37.2368 0.0028 0.0000 -22.2311 0.0000
# 3 57.9544 0.0028 164.9144 0.0000 -5.8088 0.0000
# 4 0.0000 0.0000 0.0000 -12.8800 0.0000 48.0442
# 5 -21.0139 -22.2311 -5.8088 0.0000 30.7266 0.0000
# 6 0.0000 0.0000 0.0000 48.0442 0.0000 -218.7700
#
#
#
# Elastic Compliance Matrix: (Units=1/GPa)
#
#
# Indices 1 2 3 4 5 6 
#
# 1 0.012099 -0.019879 -0.004496 0.000000 -0.006958 0.000000
# 2 -0.019879 0.080180 0.008606 0.000000 0.046043 0.000000
# 3 -0.004496 0.008606 0.007807 0.000000 0.004627 0.000000
# 4 0.000000 0.000000 0.000000 -0.429361 0.000000 -0.094292
# 5 -0.006958 0.046043 0.004627 0.000000 0.061974 0.000000
# 6 0.000000 0.000000 0.000000 -0.094292 0.000000 -0.025279
#
#
# Mechanical properties :
#
#
# Convention : Reuss Voigt Hill
#
# Bulk Modulus (GPa) = 14.58841 65.16534 39.87687
# Shear Modulus (GPa) = -20.99140 -22.35642 -21.67391
#
# Velocity S-wave (km/s) = -2.97579 -3.07102 -3.02378
# Velocity P-wave (km/s) = 2.37758 3.86205 2.15203
#
# Compressibility (1/GPa) = 0.06854757
#
# Stress axis : x y z
#
# Youngs Moduli (GPa) = 82.65437 12.47192 128.09425
#
# Poissons Ratio (x) = 0.24793 0.57597
# Poissons Ratio (y) = 1.64306 -1.10241
# Poissons Ratio (z) = 0.37165 -0.10734
#
# Static dielectric constant tensor:
#      x y z
#    x 1.951800 0.000000 -0.162480 
#    y 0.000000 1.854310 0.000000 
#    z -0.162480 0.000000 2.343360 
# 
# From -- ./inp_files/858.got.cif
#   From: 2010.05.17/outbox.cif.g08.bks.cpg/sg13_1_cif.got.tgz:858.got - 2010.06.03 16:44:36.
