data_PCOD9226075
_publ_section_title
;
Structure prediction by ZEFSAII (Michael W. Deem and Ramdas Pophale) SiO2 
 PCOD9226075
Probable space group: P 2/C
;
_chemical_formula_sum "Si O2"
_cell_formula_units_Z 32
_cell_length_a 8.708526
_cell_length_b 12.008615
_cell_length_c 18.752744
_cell_angle_alpha 90.000000
_cell_angle_beta 115.360648
_cell_angle_gamma 90.000000
_cell_volume 1772.119021
_symmetry_space_group_name_H-M "P 2/C"
_symmetry_group_IT_number 13
_symmetry_cell_setting 'monoclinic'
loop_
_space_group_symop_operation_xyz
x,y,z
-x,y,1/2-z
-x,-y,-z
x,-y,1/2+z
loop_
_atom_site_type_symbol
_atom_site_label
_atom_site_fract_x
_atom_site_fract_y
_atom_site_fract_z
Si Si1 0.960095 0.773845 0.416181
Si Si2 0.826252 0.190183 0.673137
Si Si3 0.392147 0.001145 0.333640
Si Si4 0.835996 0.403920 0.266995
Si Si5 0.839390 0.249872 0.404694
Si Si6 0.461206 0.753622 0.827349
Si Si7 0.235234 0.994469 0.144441
Si Si8 0.697138 0.351245 0.770287
O O1 0.108802 0.757954 0.387406
O O2 0.025721 0.738736 0.505931
O O3 0.798635 0.707528 0.354541
O O4 0.904456 0.903272 0.402427
O O5 0.731034 0.276087 0.706647
O O6 0.000000 0.158164 0.750000
O O7 0.709033 0.082822 0.636469
O O8 0.387226 0.133208 0.345787
O O9 0.301024 0.981994 0.238762
O O10 0.592345 0.975580 0.366658
O O11 0.872350 0.329853 0.344449
O O12 0.676885 0.342433 0.197810
O O13 0.776226 0.527359 0.274626
O O14 0.000000 0.406856 0.250000
O O15 0.646986 0.275088 0.393493
O O16 0.830153 0.119964 0.379566
O O17 0.500000 0.777344 0.750000
O O18 0.500000 0.357405 0.750000
#
# Coordination Sequence:
#
# PCOD9226075 Si02
#       8
#     4   4   4   4   4   4   4   4
#     4  11  22  35  55  84 118 146 179 232 276 326
#     4  10  20  31  52  83 111 140 186 231 267 316
#     4  10  15  30  55  81 105 145 191 224 260 321
#     4  11  22  38  61  85 106 135 191 240 268 322
#     4  10  21  38  56  81 117 152 180 217 285 332
#     4   9  17  34  56  78 108 149 184 223 267 327
#     4  10  17  32  55  80 113 148 183 223 268 327
#     4  11  22  39  61  81 105 146 189 228 276 329
#
# _framework density 18.057476999999999
#
# number of rings (size 3 to 8) (size 9 to 14) (size 15 to 20)
#    0.000    1.750    6.250    3.375    0.000    2.000 
#    0.000    5.000    0.000    3.000    0.000    0.000 
#    0.000    0.000    0.000    0.000    0.000    0.000 
#
# Total GULP energy -178526.783819 kJ/mol
# GULP energy per Si atom -5578.961994 kJ/mol
# Density = 1.801638 g / cm^3
# Si number density = 18.057477 Si / 1000 Ang^3
#
#
#
# Elastic Constant Matrix: (Units=GPa)
#
#
# Indices 1 2 3 4 5 6 
#
# 1 101.4319 64.6828 35.6570 0.0000 9.3708 0.0000
# 2 64.6828 113.4235 30.9967 0.0000 9.6782 0.0000
# 3 35.6570 30.9967 67.3899 0.0000 6.5706 0.0000
# 4 0.0000 0.0000 0.0000 8.5164 0.0000 -8.5169
# 5 9.3708 9.6782 6.5706 0.0000 7.9755 0.0000
# 6 0.0000 0.0000 0.0000 -8.5169 0.0000 274.0719
#
#
#
# Elastic Compliance Matrix: (Units=1/GPa)
#
#
# Indices 1 2 3 4 5 6 
#
# 1 0.017231 -0.007944 -0.004816 0.000000 -0.006638 0.000000
# 2 -0.007944 0.014400 -0.001769 0.000000 -0.006684 0.000000
# 3 -0.004816 -0.001769 0.018963 0.000000 -0.007818 0.000000
# 4 0.000000 0.000000 0.000000 0.121187 0.000000 0.003766
# 5 -0.006638 -0.006684 -0.007818 0.000000 0.147735 0.000000
# 6 0.000000 0.000000 0.000000 0.003766 0.000000 0.003766
#
#
# Mechanical properties :
#
#
# Convention : Reuss Voigt Hill
#
# Bulk Modulus (GPa) = 46.43151 60.54648 53.48899
# Shear Modulus (GPa) = 13.90750 68.17335 41.04042
#
# Velocity S-wave (km/s) = 2.77822 6.15106 4.77253
# Velocity P-wave (km/s) = 6.00503 9.16788 7.74953
#
# Compressibility (1/GPa) = 0.02153710
#
# Stress axis : x y z
#
# Youngs Moduli (GPa) = 58.03543 69.44265 52.73418
#
# Poissons Ratio (x) = 0.55164 0.25397
# Poissons Ratio (y) = 0.46102 0.09327
# Poissons Ratio (z) = 0.27950 0.12283
#
# Static dielectric constant tensor:
#      x y z
#    x 1.631280 0.000000 0.000180 
#    y 0.000000 1.625840 0.000000 
#    z 0.000180 0.000000 1.617890 
# 
# From -- ./inp_files/76466.got.cif
#   From: 2010.05.17/outbox.cif.g08.bks.cpg/sg13_39_cif.got.tgz:76466.got - 2010.06.03 16:44:36.
