data_PCOD9226563
_publ_section_title
;
Structure prediction by ZEFSAII (Michael W. Deem and Ramdas Pophale) SiO2 
 PCOD9226563
Probable space group: P 2/C
;
_chemical_formula_sum "Si O2"
_cell_formula_units_Z 20
_cell_length_a 9.646784
_cell_length_b 7.405562
_cell_length_c 10.910868
_cell_angle_alpha 90.000000
_cell_angle_beta 82.409119
_cell_angle_gamma 90.000000
_cell_volume 772.640017
_symmetry_space_group_name_H-M "P 2/C"
_symmetry_group_IT_number 13
_symmetry_cell_setting 'monoclinic'
loop_
_space_group_symop_operation_xyz
x,y,z
-x,y,1/2-z
-x,-y,-z
x,-y,1/2+z
loop_
_atom_site_type_symbol
_atom_site_label
_atom_site_fract_x
_atom_site_fract_y
_atom_site_fract_z
Si Si1 0.705891 0.228708 0.011988
Si Si2 0.340814 0.783691 0.242787
Si Si3 0.816506 0.174689 0.494630
Si Si4 0.054340 0.618888 0.878875
Si Si5 0.413470 0.196045 0.153190
O O1 0.783363 0.339829 0.109821
O O2 0.541319 0.186879 0.042918
O O3 0.775506 0.033107 0.002345
O O4 0.720183 0.303482 0.873222
O O5 0.500000 0.722236 0.250000
O O6 0.232390 0.756985 0.366287
O O7 0.361977 0.001995 0.214573
O O8 0.715861 0.270251 0.406470
O O9 0.969337 0.198657 0.422509
O O10 0.000000 0.564480 0.750000
O O11 0.000000 0.500000 0.000000
O O12 0.500000 0.293324 0.250000
#
# Coordination Sequence:
#
# PCOD9226563 Si02
#       5
#     4   4   4   4   4
#     4  11  21  39  70 103 136 173 220 280 340 401
#     4  10  17  32  66 108 141 156 204 275 350 401
#     4  11  21  40  70 103 134 172 220 283 341 404
#     4  12  31  51  65  90 138 190 237 279 330 397
#     4  10  17  32  63 104 138 162 206 279 346 394
#
# _framework density 25.885273000000002
#
# number of rings (size 3 to 8) (size 9 to 14) (size 15 to 20)
#    0.000    1.200    6.000    3.000    5.600    0.000 
#    0.000    1.000    0.000    0.000    0.000    0.000 
#    0.000    0.000    0.000    0.000    0.000    0.000 
#
# Total GULP energy -111631.216247 kJ/mol
# GULP energy per Si atom -5581.560812 kJ/mol
# Density = 2.582636 g / cm^3
# Si number density = 25.885273 Si / 1000 Ang^3
#
#
#
# Elastic Constant Matrix: (Units=GPa)
#
#
# Indices 1 2 3 4 5 6 
#
# 1 125.4171 -12.7198 43.4407 0.0000 7.5376 0.0000
# 2 -12.7198 64.9923 4.0611 0.0000 4.4846 0.0000
# 3 43.4407 4.0611 182.6171 0.0000 46.9728 0.0000
# 4 0.0000 0.0000 0.0000 4.9582 0.0000 -17.5983
# 5 7.5376 4.4846 46.9728 0.0000 50.5650 0.0000
# 6 0.0000 0.0000 0.0000 -17.5983 0.0000 -8.2778
#
#
#
# Elastic Compliance Matrix: (Units=1/GPa)
#
#
# Indices 1 2 3 4 5 6 
#
# 1 0.008930 0.001847 -0.002340 0.000000 0.000679 0.000000
# 2 0.001847 0.015863 -0.000472 0.000000 -0.001243 0.000000
# 3 -0.002340 -0.000472 0.007808 0.000000 -0.006863 0.000000
# 4 0.000000 0.000000 0.000000 0.023601 0.000000 -0.050174
# 5 0.000679 -0.001243 -0.006863 0.000000 0.026161 0.000000
# 6 0.000000 0.000000 0.000000 -0.050174 0.000000 -0.014136
#
#
# Mechanical properties :
#
#
# Convention : Reuss Voigt Hill
#
# Bulk Modulus (GPa) = 32.60325 49.17672 40.88999
# Shear Modulus (GPa) = 62.20313 31.99872 47.10092
#
# Velocity S-wave (km/s) = 4.90739 3.51974 4.27031
# Velocity P-wave (km/s) = 6.68824 5.96299 6.33600
#
# Compressibility (1/GPa) = 0.03067179
#
# Stress axis : x y z
#
# Youngs Moduli (GPa) = 111.97633 63.03866 128.06762
#
# Poissons Ratio (x) = -0.11644 0.29968
# Poissons Ratio (y) = -0.20684 0.06049
# Poissons Ratio (z) = 0.26203 0.02978
#
# Static dielectric constant tensor:
#      x y z
#    x 1.487010 0.000000 0.167100 
#    y 0.000000 2.509380 0.000000 
#    z 0.167100 0.000000 2.097700 
# 
# From -- ./inp_files/28118.got.cif
#   From: 2010.05.17/outbox.cif.g08.bks.cpg/sg13_15_cif.got.tgz:28118.got - 2010.06.03 16:44:36.
