data_PCOD9226102
_publ_section_title
;
Structure prediction by ZEFSAII (Michael W. Deem and Ramdas Pophale) SiO2 
 PCOD9226102
Probable space group: P 2/C
;
_chemical_formula_sum "Si O2"
_cell_formula_units_Z 28
_cell_length_a 7.964920
_cell_length_b 17.251354
_cell_length_c 13.438459
_cell_angle_alpha 90.000000
_cell_angle_beta 34.776475
_cell_angle_gamma 90.000000
_cell_volume 1053.211511
_symmetry_space_group_name_H-M "P 2/C"
_symmetry_group_IT_number 13
_symmetry_cell_setting 'monoclinic'
loop_
_space_group_symop_operation_xyz
x,y,z
-x,y,1/2-z
-x,-y,-z
x,-y,1/2+z
loop_
_atom_site_type_symbol
_atom_site_label
_atom_site_fract_x
_atom_site_fract_y
_atom_site_fract_z
Si Si1 0.727027 0.034279 0.810014
Si Si2 0.711571 0.312637 0.785626
Si Si3 0.291291 0.135319 0.225617
Si Si4 0.657944 0.273822 0.048354
Si Si5 0.339777 0.828694 0.462839
Si Si6 0.826633 0.607820 0.738304
Si Si7 0.573339 0.523044 0.103689
O O1 0.586585 0.106063 0.820863
O O2 0.000000 0.055414 0.750000
O O3 0.751812 0.956322 0.733006
O O4 0.500000 0.000000 0.000000
O O5 0.464001 0.253468 0.872331
O O6 0.619153 0.400366 0.817024
O O7 0.017607 0.300055 0.579405
O O8 0.702018 0.289864 0.907854
O O9 0.580611 0.184803 0.111305
O O10 0.987874 0.166219 0.417040
O O11 0.298360 0.154557 0.102481
O O12 0.363317 0.323111 0.217996
O O13 0.562627 0.547846 0.893552
O O14 0.000000 0.641625 0.750000
O O15 0.088719 0.552906 0.567284
O O16 0.500000 0.493090 0.250000
#
# Coordination Sequence:
#
# PCOD9226102 Si02
#       7
#     4   4   4   4   4   4   4
#     4  10  16  23  36  62 104 153 186 225 288 351
#     4  10  21  35  54  81 111 148 194 237 286 344
#     4   9  16  27  40  67 106 149 186 230 289 346
#     4  10  21  33  56  82 112 149 192 240 287 344
#     4   9  17  26  42  65 102 147 191 228 281 339
#     4  12  24  41  64  88 116 151 194 240 292 351
#     4  12  26  43  63  88 119 152 192 240 293 350
#
# _framework density 26.585353999999999
#
# number of rings (size 3 to 8) (size 9 to 14) (size 15 to 20)
#    0.000    1.714    4.286    2.571   10.000    0.000 
#    0.000    0.000    0.000    0.000    0.000    0.000 
#    0.000   11.429    0.000    0.000    0.000    0.143 
#
# Total GULP energy -156211.892742 kJ/mol
# GULP energy per Si atom -5578.996169 kJ/mol
# Density = 2.652484 g / cm^3
# Si number density = 26.585354 Si / 1000 Ang^3
#
#
#
# Elastic Constant Matrix: (Units=GPa)
#
#
# Indices 1 2 3 4 5 6 
#
# 1 72.3438 4.0376 30.5543 0.0000 -11.7837 0.0000
# 2 4.0376 131.9080 23.6701 0.0000 -30.0925 0.0000
# 3 30.5543 23.6701 147.8747 0.0000 -30.6941 0.0000
# 4 0.0000 0.0000 0.0000 40.0330 0.0000 -11.2279
# 5 -11.7837 -30.0925 -30.6941 0.0000 43.6960 0.0000
# 6 0.0000 0.0000 0.0000 -11.2279 0.0000 -11.8195
#
#
#
# Elastic Compliance Matrix: (Units=1/GPa)
#
#
# Indices 1 2 3 4 5 6 
#
# 1 0.015372 0.000626 -0.002724 0.000000 0.002663 0.000000
# 2 0.000626 0.009024 -0.000291 0.000000 0.006179 0.000000
# 3 -0.002724 -0.000291 0.008403 0.000000 0.004968 0.000000
# 4 0.000000 0.000000 0.000000 0.019724 0.000000 -0.018737
# 5 0.002663 0.006179 0.004968 0.000000 0.031348 0.000000
# 6 0.000000 0.000000 0.000000 -0.018737 0.000000 -0.066807
#
#
# Mechanical properties :
#
#
# Convention : Reuss Voigt Hill
#
# Bulk Modulus (GPa) = 35.68798 52.07226 43.88012
# Shear Modulus (GPa) = 160.34461 33.97286 97.15874
#
# Velocity S-wave (km/s) = 7.77458 3.57862 6.05188
# Velocity P-wave (km/s) = 9.69769 6.05844 8.08548
#
# Compressibility (1/GPa) = 0.02802064
#
# Stress axis : x y z
#
# Youngs Moduli (GPa) = 65.05313 110.81952 119.00558
#
# Poissons Ratio (x) = -0.06935 0.32412
# Poissons Ratio (y) = -0.04071 0.03466
# Poissons Ratio (z) = 0.17718 0.03227
#
# Static dielectric constant tensor:
#      x y z
#    x 2.329400 0.000000 0.128360 
#    y 0.000000 2.150170 0.000000 
#    z 0.128360 0.000000 2.171480 
# 
# From -- ./inp_files/78764.got.cif
#   From: 2010.05.17/outbox.cif.g08.bks.cpg/sg13_40_cif.got.tgz:78764.got - 2010.06.03 16:44:36.
