data_PCOD9226665
_publ_section_title
;
Structure prediction by ZEFSAII (Michael W. Deem and Ramdas Pophale) SiO2 
 PCOD9226665
Probable space group: P 2/C
;
_chemical_formula_sum "Si O2"
_cell_formula_units_Z 26
_cell_length_a 15.897674
_cell_length_b 8.843846
_cell_length_c 14.838367
_cell_angle_alpha 90.000000
_cell_angle_beta 36.671244
_cell_angle_gamma 90.000000
_cell_volume 1245.940068
_symmetry_space_group_name_H-M "P 2/C"
_symmetry_group_IT_number 13
_symmetry_cell_setting 'monoclinic'
loop_
_space_group_symop_operation_xyz
x,y,z
-x,y,1/2-z
-x,-y,-z
x,-y,1/2+z
loop_
_atom_site_type_symbol
_atom_site_label
_atom_site_fract_x
_atom_site_fract_y
_atom_site_fract_z
Si Si1 0.500000 0.381785 0.250000
Si Si2 0.978983 0.343158 0.467956
Si Si3 0.296095 0.654674 0.417337
Si Si4 0.250963 0.796137 0.651118
Si Si5 0.797370 0.106119 0.717890
Si Si6 0.520570 0.199213 0.044854
Si Si7 0.421284 0.927967 0.228097
O O1 0.364833 0.492083 0.371573
O O2 0.501636 0.287898 0.155248
O O3 0.852700 0.355460 0.504497
O O4 0.930049 0.208158 0.578058
O O5 0.000000 0.500000 0.500000
O O6 0.123661 0.305994 0.294690
O O7 0.280820 0.753960 0.521593
O O8 0.400502 0.750026 0.262248
O O9 0.390052 0.762241 0.591668
O O10 0.193465 0.965962 0.721662
O O11 0.734974 0.036047 0.676985
O O12 0.671817 0.212275 0.866355
O O13 0.511120 0.021236 0.079502
O O14 0.500000 0.980693 0.250000
#
# Coordination Sequence:
#
# PCOD9226665 Si02
#       7
#     2   4   4   4   4   4   4
#     4  12  26  36  62 100 132 162 216 268 336 386
#     4  11  25  45  66  91 136 174 215 264 326 391
#     4  11  24  40  66  95 129 173 214 262 327 392
#     4  11  23  43  69  93 128 169 221 263 322 391
#     4  10  23  39  69  97 123 173 216 265 326 377
#     4  11  23  39  65 100 128 162 210 278 325 378
#     4  10  17  37  62  93 129 158 204 264 317 376
#
# _framework density 20.867777
#
# number of rings (size 3 to 8) (size 9 to 14) (size 15 to 20)
#    0.000    1.231    1.538    5.538    4.308    0.615 
#    0.000    0.000    3.385    0.000    0.000    0.000 
#    0.000    0.000    0.000    0.000    0.000    0.000 
#
# Total GULP energy -144845.082576 kJ/mol
# GULP energy per Si atom -5570.964714 kJ/mol
# Density = 2.082028 g / cm^3
# Si number density = 20.867777 Si / 1000 Ang^3
#
#
#
# Elastic Constant Matrix: (Units=GPa)
#
#
# Indices 1 2 3 4 5 6 
#
# 1 139.5320 53.0574 44.4719 0.0000 25.0970 0.0000
# 2 53.0574 92.6647 41.2830 0.0000 19.1114 0.0000
# 3 44.4719 41.2830 114.7349 0.0000 9.5412 0.0000
# 4 0.0000 0.0000 0.0000 36.8818 0.0000 5.0505
# 5 25.0970 19.1114 9.5412 0.0000 34.8133 0.0000
# 6 0.0000 0.0000 0.0000 5.0505 0.0000 31.7954
#
#
#
# Elastic Compliance Matrix: (Units=1/GPa)
#
#
# Indices 1 2 3 4 5 6 
#
# 1 0.010167 -0.003917 -0.002150 0.000000 -0.004590 0.000000
# 2 -0.003917 0.015676 -0.003726 0.000000 -0.004761 0.000000
# 3 -0.002150 -0.003726 0.010838 0.000000 0.000625 0.000000
# 4 0.000000 0.000000 0.000000 0.027717 0.000000 -0.004403
# 5 -0.004590 -0.004761 0.000625 0.000000 0.034476 0.000000
# 6 0.000000 0.000000 0.000000 -0.004403 0.000000 0.032150
#
#
# Mechanical properties :
#
#
# Convention : Reuss Voigt Hill
#
# Bulk Modulus (GPa) = 58.49674 69.39512 63.94593
# Shear Modulus (GPa) = 31.98802 34.57270 33.28036
#
# Velocity S-wave (km/s) = 3.91946 4.07474 3.99785
# Velocity P-wave (km/s) = 6.96964 7.44747 7.21251
#
# Compressibility (1/GPa) = 0.01709497
#
# Stress axis : x y z
#
# Youngs Moduli (GPa) = 98.35758 63.79016 92.26960
#
# Poissons Ratio (x) = 0.24987 0.19835
# Poissons Ratio (y) = 0.38527 0.34383
# Poissons Ratio (z) = 0.21144 0.23771
#
# Static dielectric constant tensor:
#      x y z
#    x 1.818290 0.000000 0.014440 
#    y 0.000000 1.756260 0.000000 
#    z 0.014440 0.000000 1.779630 
# 
# From -- ./inp_files/53293.got.cif
#   From: 2010.05.17/outbox.cif.g08.bks.cpg/sg13_27_cif.got.tgz:53293.got - 2010.06.03 16:44:36.
