data_PCOD9226859
_publ_section_title
;
Structure prediction by ZEFSAII (Michael W. Deem and Ramdas Pophale) SiO2 
 PCOD9226859
Probable space group: P 2/C
;
_chemical_formula_sum "Si O2"
_cell_formula_units_Z 30
_cell_length_a 27.497907
_cell_length_b 11.931205
_cell_length_c 25.435347
_cell_angle_alpha 90.000000
_cell_angle_beta 10.715727
_cell_angle_gamma 90.000000
_cell_volume 1551.621731
_symmetry_space_group_name_H-M "P 2/C"
_symmetry_group_IT_number 13
_symmetry_cell_setting 'monoclinic'
loop_
_space_group_symop_operation_xyz
x,y,z
-x,y,1/2-z
-x,-y,-z
x,-y,1/2+z
loop_
_atom_site_type_symbol
_atom_site_label
_atom_site_fract_x
_atom_site_fract_y
_atom_site_fract_z
Si Si1 0.078664 0.703319 0.779595
Si Si2 0.986083 0.615988 0.984132
Si Si3 0.565709 0.742685 0.927418
Si Si4 0.824474 0.150855 0.056312
Si Si5 0.275543 0.094120 0.805430
Si Si6 0.403414 0.878172 0.909682
Si Si7 0.497949 0.128240 0.821510
Si Si8 0.000000 0.762724 0.750000
O O1 0.363862 0.750701 0.465962
O O2 0.977957 0.691379 0.827006
O O3 0.043450 0.608705 0.860417
O O4 0.944686 0.812042 0.949733
O O5 0.692637 0.665316 0.301663
O O6 0.000000 0.500000 0.000000
O O7 0.214619 0.694622 0.766172
O O8 0.702188 0.761010 0.726671
O O9 0.449071 0.860345 0.073380
O O10 0.630382 0.140701 0.212262
O O11 0.827380 0.031922 0.085063
O O12 0.123637 0.173242 0.722510
O O13 0.439435 0.103129 0.684525
O O14 0.500000 0.839102 0.750000
O O15 0.359243 0.013063 0.952442
O O16 0.754814 0.152988 0.514377
#
# Coordination Sequence:
#
# PCOD9226859 Si02
#       8
#     4   4   4   4   4   4   4   2
#     4  10  18  34  52  83 119 153 189 233 292 355
#     4  11  24  42  64  87 113 151 193 256 306 353
#     4  11  22  40  61  86 117 149 197 236 292 350
#     4  11  22  35  56  85 117 160 195 230 281 346
#     4   9  19  32  51  83 123 155 184 225 281 346
#     4  11  22  34  51  81 119 159 202 236 276 336
#     4  10  18  31  49  79 117 161 189 229 284 347
#     4  10  20  28  52  82 116 158 192 230 288 358
#
# _framework density 19.334610000000001
#
# number of rings (size 3 to 8) (size 9 to 14) (size 15 to 20)
#    0.000    1.600    2.667    3.200    3.733    0.000 
#    0.000    4.000    0.000    0.000    6.933    0.000 
#    0.000    0.000    0.000    0.000    0.000    0.000 
#
# Total GULP energy -167119.828035 kJ/mol
# GULP energy per Si atom -5570.660934 kJ/mol
# Density = 1.929060 g / cm^3
# Si number density = 19.334610 Si / 1000 Ang^3
#
#
#
# Elastic Constant Matrix: (Units=GPa)
#
#
# Indices 1 2 3 4 5 6 
#
# 1 104.9789 22.4093 46.2108 0.0000 16.9072 0.0000
# 2 22.4093 18.2508 13.4109 0.0000 5.9228 0.0000
# 3 46.2108 13.4109 143.5001 0.0000 12.8429 0.0000
# 4 0.0000 0.0000 0.0000 16.1801 0.0000 6.5754
# 5 16.9072 5.9228 12.8429 0.0000 35.6436 0.0000
# 6 0.0000 0.0000 0.0000 6.5754 0.0000 18.4537
#
#
#
# Elastic Compliance Matrix: (Units=1/GPa)
#
#
# Indices 1 2 3 4 5 6 
#
# 1 0.014485 -0.014477 -0.003009 0.000000 -0.003381 0.000000
# 2 -0.014477 0.075628 -0.001959 0.000000 -0.004994 0.000000
# 3 -0.003009 -0.001959 0.008229 0.000000 -0.001212 0.000000
# 4 0.000000 0.000000 0.000000 0.072269 0.000000 -0.025751
# 5 -0.003381 -0.004994 -0.001212 0.000000 0.030926 0.000000
# 6 0.000000 0.000000 0.000000 -0.025751 0.000000 0.063365
#
#
# Mechanical properties :
#
#
# Convention : Reuss Voigt Hill
#
# Bulk Modulus (GPa) = 16.82026 47.86576 32.34301
# Shear Modulus (GPa) = 15.45066 26.36873 20.90970
#
# Velocity S-wave (km/s) = 2.82994 3.69699 3.29213
# Velocity P-wave (km/s) = 4.40415 6.56002 5.58706
#
# Compressibility (1/GPa) = 0.05945211
#
# Stress axis : x y z
#
# Youngs Moduli (GPa) = 69.03581 13.22257 121.51878
#
# Poissons Ratio (x) = 0.19143 0.36565
# Poissons Ratio (y) = 0.99946 0.23803
# Poissons Ratio (z) = 0.20773 0.02590
#
# Static dielectric constant tensor:
#      x y z
#    x 1.741680 0.000000 -0.018380 
#    y 0.000000 1.665520 0.000000 
#    z -0.018380 0.000000 1.736850 
# 
# From -- ./inp_files/94435.got.cif
#   From: 2010.05.17/outbox.cif.g08.bks.cpg/sg13_48_cif.got.tgz:94435.got - 2010.06.03 16:44:36.
