data_PCOD9226943
_publ_section_title
;
Structure prediction by ZEFSAII (Michael W. Deem and Ramdas Pophale) SiO2 
 PCOD9226943
Probable space group: P 2/C
;
_chemical_formula_sum "Si O2"
_cell_formula_units_Z 26
_cell_length_a 13.734326
_cell_length_b 22.469529
_cell_length_c 5.551253
_cell_angle_alpha 90.000000
_cell_angle_beta 124.401529
_cell_angle_gamma 90.000000
_cell_volume 1413.507436
_symmetry_space_group_name_H-M "P 2/C"
_symmetry_group_IT_number 13
_symmetry_cell_setting 'monoclinic'
loop_
_space_group_symop_operation_xyz
x,y,z
-x,y,1/2-z
-x,-y,-z
x,-y,1/2+z
loop_
_atom_site_type_symbol
_atom_site_label
_atom_site_fract_x
_atom_site_fract_y
_atom_site_fract_z
Si Si1 0.764070 0.144093 0.687351
Si Si2 0.882898 0.944560 0.974733
Si Si3 0.000000 0.859686 0.750000
Si Si4 0.642189 0.732925 0.943721
Si Si5 0.643695 0.468476 0.949452
Si Si6 0.659982 0.976238 0.121618
Si Si7 0.356408 0.669871 0.053191
O O1 0.814731 0.102974 0.545719
O O2 0.685426 0.199270 0.502254
O O3 0.683967 0.093593 0.710837
O O4 0.883822 0.170596 0.975596
O O5 0.937639 0.902556 0.851304
O O6 0.789101 0.993018 0.764210
O O7 0.000000 0.973195 0.250000
O O8 0.500000 0.731194 0.750000
O O9 0.681743 0.700885 0.750874
O O10 0.681116 0.701805 0.249842
O O11 0.500000 0.470458 0.750000
O O12 0.681495 0.500642 0.753616
O O13 0.678669 0.399312 0.994115
O O14 0.608178 0.010424 0.282392
O O15 0.500000 0.671481 0.250000
#
# Coordination Sequence:
#
# PCOD9226943 Si02
#       7
#     4   4   2   4   4   4   4
#     4  10  21  31  49  69  97 124 162 204 251 295
#     4   9  19  30  46  70  96 119 149 196 261 323
#     4  10  18  32  48  74  94 120 152 198 264 320
#     4  10  21  35  51  67  94 138 182 206 221 272
#     4   9  15  24  43  71 101 126 154 197 244 282
#     4  10  19  30  45  67  92 115 146 194 252 311
#     4   9  18  32  49  70  96 134 175 202 230 274
#
# _framework density 18.393958999999999
#
# number of rings (size 3 to 8) (size 9 to 14) (size 15 to 20)
#    0.000    2.462    1.538    0.923    3.231    5.538 
#    0.000    0.000    0.000    3.692    0.000    0.000 
#    0.000    0.000    0.000   13.846    0.000    6.154 
#
# Total GULP energy -144771.911861 kJ/mol
# GULP energy per Si atom -5568.150456 kJ/mol
# Density = 1.835209 g / cm^3
# Si number density = 18.393959 Si / 1000 Ang^3
#
#
#
# Elastic Constant Matrix: (Units=GPa)
#
#
# Indices 1 2 3 4 5 6 
#
# 1 53.8548 25.5701 26.0759 0.0000 -24.7743 0.0000
# 2 25.5701 126.0930 43.1487 0.0000 -22.3078 0.0000
# 3 26.0759 43.1487 90.0423 0.0000 -28.8713 0.0000
# 4 0.0000 0.0000 0.0000 60.7357 0.0000 4.4310
# 5 -24.7743 -22.3078 -28.8713 0.0000 26.9421 0.0000
# 6 0.0000 0.0000 0.0000 4.4310 0.0000 13.1069
#
#
#
# Elastic Compliance Matrix: (Units=1/GPa)
#
#
# Indices 1 2 3 4 5 6 
#
# 1 0.032465 -0.001669 0.000803 0.000000 0.029332 0.000000
# 2 -0.001669 0.009952 -0.003254 0.000000 0.003219 0.000000
# 3 0.000803 -0.003254 0.017985 0.000000 0.017317 0.000000
# 4 0.000000 0.000000 0.000000 0.016881 0.000000 -0.005707
# 5 0.029332 0.003219 0.017317 0.000000 0.085311 0.000000
# 6 0.000000 0.000000 0.000000 -0.005707 0.000000 0.078225
#
#
# Mechanical properties :
#
#
# Convention : Reuss Voigt Hill
#
# Bulk Modulus (GPa) = 19.17074 51.06438 35.11756
# Shear Modulus (GPa) = 18.76551 31.83663 25.30107
#
# Velocity S-wave (km/s) = 3.19752 4.16483 3.71281
# Velocity P-wave (km/s) = 4.90684 7.13789 6.12481
#
# Compressibility (1/GPa) = 0.05216283
#
# Stress axis : x y z
#
# Youngs Moduli (GPa) = 30.80212 100.48285 55.60140
#
# Poissons Ratio (x) = 0.16772 -0.04464
# Poissons Ratio (y) = 0.05141 0.18090
# Poissons Ratio (z) = -0.02473 0.32693
#
# Static dielectric constant tensor:
#      x y z
#    x 1.671350 0.000000 -0.044730 
#    y 0.000000 1.597870 0.000000 
#    z -0.044730 0.000000 1.788930 
# 
# From -- ./inp_files/5284.got.cif
#   From: 2010.05.17/outbox.cif.g08.bks.cpg/sg13_3_cif.got.tgz:5284.got - 2010.06.03 16:44:36.
