data_PCOD9226903
_publ_section_title
;
Structure prediction by ZEFSAII (Michael W. Deem and Ramdas Pophale) SiO2 
 PCOD9226903
Probable space group: P 2/C
;
_chemical_formula_sum "Si O2"
_cell_formula_units_Z 30
_cell_length_a 8.825565
_cell_length_b 19.260017
_cell_length_c 8.893030
_cell_angle_alpha 90.000000
_cell_angle_beta 79.419493
_cell_angle_gamma 90.000000
_cell_volume 1485.940845
_symmetry_space_group_name_H-M "P 2/C"
_symmetry_group_IT_number 13
_symmetry_cell_setting 'monoclinic'
loop_
_space_group_symop_operation_xyz
x,y,z
-x,y,1/2-z
-x,-y,-z
x,-y,1/2+z
loop_
_atom_site_type_symbol
_atom_site_label
_atom_site_fract_x
_atom_site_fract_y
_atom_site_fract_z
Si Si1 0.190283 0.542174 0.972003
Si Si2 0.378157 0.154509 0.046384
Si Si3 0.851142 0.105395 0.172312
Si Si4 0.263506 0.154009 0.589957
Si Si5 0.315404 0.734673 0.319891
Si Si6 0.326000 0.965345 0.314687
Si Si7 0.000000 0.548358 0.750000
Si Si8 0.321004 0.415396 0.749707
O O1 0.107858 0.586687 0.853606
O O2 0.262665 0.481019 0.856980
O O3 0.297855 0.581316 0.072604
O O4 0.085575 0.502590 0.115986
O O5 0.288503 0.142489 0.214907
O O6 0.563351 0.160900 0.011423
O O7 0.309143 0.221521 0.973641
O O8 0.340583 0.085813 0.953901
O O9 0.865632 0.144598 0.011873
O O10 0.000000 0.104792 0.250000
O O11 0.791183 0.028023 0.146704
O O12 0.240694 0.218720 0.703536
O O13 0.275116 0.084709 0.688540
O O14 0.500000 0.732875 0.250000
O O15 0.253120 0.656633 0.325931
O O16 0.500000 0.991987 0.250000
O O17 0.500000 0.414089 0.750000
#
# Coordination Sequence:
#
# PCOD9226903 Si02
#       8
#     4   4   4   4   4   4   2   4
#     4   9  17  30  54  78 111 139 168 220 250 307
#     4   9  18  35  56  73  96 132 178 220 252 299
#     4  12  23  31  47  74 110 137 162 211 271 314
#     4   9  18  35  56  73  96 132 178 220 252 299
#     4   8  17  35  58  75  93 132 178 210 246 310
#     4   9  18  33  54  78  95 125 178 222 256 306
#     4   8  16  32  50  70 100 144 186 200 230 298
#     4  10  18  31  54  86 113 133 165 215 284 324
#
# _framework density 20.189229000000001
#
# number of rings (size 3 to 8) (size 9 to 14) (size 15 to 20)
#    0.000    2.667    0.000    4.000    0.000    4.267 
#    0.000    4.667   20.533    6.400    0.000    0.000 
#    0.000    0.000    0.000    0.000    0.000    0.000 
#
# Total GULP energy -167080.954036 kJ/mol
# GULP energy per Si atom -5569.365135 kJ/mol
# Density = 2.014328 g / cm^3
# Si number density = 20.189229 Si / 1000 Ang^3
#
#
#
# Elastic Constant Matrix: (Units=GPa)
#
#
# Indices 1 2 3 4 5 6 
#
# 1 43.9678 11.4848 30.7088 0.0000 38.0806 0.0000
# 2 11.4848 75.1096 18.1251 0.0000 16.4513 0.0000
# 3 30.7088 18.1251 97.4381 0.0000 40.1701 0.0000
# 4 0.0000 0.0000 0.0000 15.1962 0.0000 -16.6179
# 5 38.0806 16.4513 40.1701 0.0000 43.1585 0.0000
# 6 0.0000 0.0000 0.0000 -16.6179 0.0000 -5.6704
#
#
#
# Elastic Compliance Matrix: (Units=1/GPa)
#
#
# Indices 1 2 3 4 5 6 
#
# 1 0.101220 0.004138 0.007788 0.000000 -0.098137 0.000000
# 2 0.004138 0.014724 -0.000363 0.000000 -0.008926 0.000000
# 3 0.007788 -0.000363 0.017284 0.000000 -0.022820 0.000000
# 4 0.000000 0.000000 0.000000 0.015650 0.000000 -0.045865
# 5 -0.098137 -0.008926 -0.022820 0.000000 0.134403 0.000000
# 6 0.000000 0.000000 0.000000 -0.045865 0.000000 -0.041941
#
#
# Mechanical properties :
#
#
# Convention : Reuss Voigt Hill
#
# Bulk Modulus (GPa) = 6.39579 37.46145 21.92862
# Shear Modulus (GPa) = 18.49573 20.94998 19.72286
#
# Velocity S-wave (km/s) = 3.03003 3.22480 3.12893
# Velocity P-wave (km/s) = 3.92635 5.69748 4.89272
#
# Compressibility (1/GPa) = 0.15635281
#
# Stress axis : x y z
#
# Youngs Moduli (GPa) = 9.87945 67.91744 57.85688
#
# Poissons Ratio (x) = -0.28106 -0.45056
# Poissons Ratio (y) = -0.04088 0.02103
# Poissons Ratio (z) = -0.07694 0.02468
#
# Static dielectric constant tensor:
#      x y z
#    x 1.817210 0.000000 0.029160 
#    y 0.000000 1.743140 0.000000 
#    z 0.029160 0.000000 1.767970 
# 
# From -- ./inp_files/13482.got.cif
#   From: 2010.05.17/outbox.cif.g08.bks.cpg/sg13_7_cif.got.tgz:13482.got - 2010.06.03 16:44:36.
