data_PCOD9226696
_publ_section_title
;
Structure prediction by ZEFSAII (Michael W. Deem and Ramdas Pophale) SiO2 
 PCOD9226696
Probable space group: P 2/C
;
_chemical_formula_sum "Si O2"
_cell_formula_units_Z 24
_cell_length_a 11.888802
_cell_length_b 5.047579
_cell_length_c 24.089470
_cell_angle_alpha 90.000000
_cell_angle_beta 120.213425
_cell_angle_gamma 90.000000
_cell_volume 1249.226171
_symmetry_space_group_name_H-M "P 2/C"
_symmetry_group_IT_number 13
_symmetry_cell_setting 'monoclinic'
loop_
_space_group_symop_operation_xyz
x,y,z
-x,y,1/2-z
-x,-y,-z
x,-y,1/2+z
loop_
_atom_site_type_symbol
_atom_site_label
_atom_site_fract_x
_atom_site_fract_y
_atom_site_fract_z
Si Si1 0.725572 0.046315 0.866075
Si Si2 0.637054 0.686847 0.751772
Si Si3 0.432781 0.686207 0.029322
Si Si4 0.009071 0.750100 0.042885
Si Si5 0.269622 0.814842 0.508045
Si Si6 0.559115 0.809912 0.174793
O O1 0.584430 0.189293 0.831150
O O2 0.850974 0.233511 0.893242
O O3 0.730947 0.822552 0.819950
O O4 0.726979 0.916257 0.927550
O O5 0.500000 0.682019 0.750000
O O6 0.651622 0.401158 0.728073
O O7 0.615903 0.899001 0.697380
O O8 0.324255 0.481379 0.023864
O O9 0.531551 0.743038 0.104186
O O10 0.359411 0.966502 0.998376
O O11 0.500000 0.500000 0.000000
O O12 0.879895 0.784917 0.048032
O O13 0.000000 0.500000 0.000000
O O14 0.000000 0.000000 0.000000
#
# Coordination Sequence:
#
# PCOD9226696 Si02
#       6
#     4   4   4   4   4   4
#     4   9  19  31  50  74 106 136 156 191 252 312
#     4  10  18  28  44  68  99 130 154 188 237 297
#     4  11  21  35  52  70  94 130 169 215 258 284
#     4  10  19  31  49  74 105 137 162 194 245 308
#     4  10  20  33  49  75 102 126 166 206 241 303
#     4  10  19  30  44  69  98 123 161 200 234 292
#
# _framework density 19.211894000000001
#
# number of rings (size 3 to 8) (size 9 to 14) (size 15 to 20)
#    0.000    2.000    0.000    8.000    0.000    6.667 
#    0.000    0.000    0.000    0.000    0.000    7.000 
#    0.000    0.000    0.000    0.000    0.000    0.000 
#
# Total GULP energy -133747.949317 kJ/mol
# GULP energy per Si atom -5572.831222 kJ/mol
# Density = 1.916817 g / cm^3
# Si number density = 19.211894 Si / 1000 Ang^3
#
#
#
# Elastic Constant Matrix: (Units=GPa)
#
#
# Indices 1 2 3 4 5 6 
#
# 1 30.7566 -0.4308 13.7289 0.0000 7.8171 0.0000
# 2 -0.4308 107.3590 6.5502 0.0000 4.8086 0.0000
# 3 13.7289 6.5502 45.5157 0.0000 6.5509 0.0000
# 4 0.0000 0.0000 0.0000 24.9200 0.0000 1.5913
# 5 7.8171 4.8086 6.5509 0.0000 24.0376 0.0000
# 6 0.0000 0.0000 0.0000 1.5913 0.0000 21.0852
#
#
#
# Elastic Compliance Matrix: (Units=1/GPa)
#
#
# Indices 1 2 3 4 5 6 
#
# 1 0.039952 0.001278 -0.010750 0.000000 -0.010319 0.000000
# 2 0.001278 0.009495 -0.001477 0.000000 -0.001913 0.000000
# 3 -0.010750 -0.001477 0.025895 0.000000 -0.003266 0.000000
# 4 0.000000 0.000000 0.000000 0.040323 0.000000 -0.003043
# 5 -0.010319 -0.001913 -0.003266 0.000000 0.046230 0.000000
# 6 0.000000 0.000000 0.000000 -0.003043 0.000000 0.047656
#
#
# Mechanical properties :
#
#
# Convention : Reuss Voigt Hill
#
# Bulk Modulus (GPa) = 18.71012 24.81420 21.76216
# Shear Modulus (GPa) = 20.05907 24.92744 22.49325
#
# Velocity S-wave (km/s) = 3.23475 3.60599 3.42541
# Velocity P-wave (km/s) = 4.86944 5.50288 5.19582
#
# Compressibility (1/GPa) = 0.05344700
#
# Stress axis : x y z
#
# Youngs Moduli (GPa) = 25.02987 105.31367 38.61681
#
# Poissons Ratio (x) = -0.13463 0.41512
# Poissons Ratio (y) = -0.03200 0.05703
# Poissons Ratio (z) = 0.26906 0.15553
#
# Static dielectric constant tensor:
#      x y z
#    x 1.751790 0.000000 0.028370 
#    y 0.000000 1.708230 0.000000 
#    z 0.028370 0.000000 1.723030 
# 
# From -- ./inp_files/85632.got.cif
#   From: 2010.05.17/outbox.cif.g08.bks.cpg/sg13_43_cif.got.tgz:85632.got - 2010.06.03 16:44:36.
