data_PCOD9226807
_publ_section_title
;
Structure prediction by ZEFSAII (Michael W. Deem and Ramdas Pophale) SiO2 
 PCOD9226807
Probable space group: P 2/C
;
_chemical_formula_sum "Si O2"
_cell_formula_units_Z 28
_cell_length_a 29.390752
_cell_length_b 7.677780
_cell_length_c 8.855814
_cell_angle_alpha 90.000000
_cell_angle_beta 138.750862
_cell_angle_gamma 90.000000
_cell_volume 1317.591097
_symmetry_space_group_name_H-M "P 2/C"
_symmetry_group_IT_number 13
_symmetry_cell_setting 'monoclinic'
loop_
_space_group_symop_operation_xyz
x,y,z
-x,y,1/2-z
-x,-y,-z
x,-y,1/2+z
loop_
_atom_site_type_symbol
_atom_site_label
_atom_site_fract_x
_atom_site_fract_y
_atom_site_fract_z
Si Si1 0.683400 0.400836 0.190761
Si Si2 0.756660 0.760313 0.417292
Si Si3 0.168481 0.760991 0.466525
Si Si4 0.905208 0.596481 0.763109
Si Si5 0.500000 0.610539 0.750000
Si Si6 0.793703 0.955929 0.225009
Si Si7 0.000000 0.436069 0.250000
Si Si8 0.406313 0.593469 0.771485
O O1 0.710286 0.590555 0.314180
O O2 0.751922 0.299958 0.312999
O O3 0.646959 0.315797 0.245836
O O4 0.633130 0.445254 0.925937
O O5 0.836701 0.701133 0.633412
O O6 0.752434 0.838375 0.239570
O O7 0.746103 0.916232 0.507022
O O8 0.122092 0.591667 0.363582
O O9 0.165765 0.835437 0.290758
O O10 0.157638 0.918497 0.554066
O O11 0.950810 0.670721 0.740328
O O12 0.953525 0.554914 0.024614
O O13 0.447069 0.697308 0.739608
O O14 0.456370 0.494835 0.521739
#
# Coordination Sequence:
#
# PCOD9226807 Si02
#       8
#     4   4   4   4   2   4   2   4
#     4  10  18  30  52  78 100 128 168 206 244 296
#     4  10  20  34  52  75 103 131 160 204 256 298
#     4  10  20  34  52  75 103 131 160 204 256 298
#     4  10  20  36  56  74  96 130 170 206 244 296
#     4   8  16  28  40  68 112 138 152 200 260 282
#     4  10  20  32  50  73 106 135 156 192 260 312
#     4  10  20  32  56  78  92 122 176 214 236 286
#     4   9  16  27  46  71 106 133 162 202 248 289
#
# _framework density 21.250902
#
# number of rings (size 3 to 8) (size 9 to 14) (size 15 to 20)
#    0.000    2.286    0.000    3.429    0.000    4.571 
#    0.000    0.000    0.000   60.000    0.000    0.000 
#    0.000 1056.000    0.000    0.000    0.000    0.000 
#
# Total GULP energy -156071.312223 kJ/mol
# GULP energy per Si atom -5573.975437 kJ/mol
# Density = 2.120253 g / cm^3
# Si number density = 21.250902 Si / 1000 Ang^3
#
#
#
# Elastic Constant Matrix: (Units=GPa)
#
#
# Indices 1 2 3 4 5 6 
#
# 1 105.4018 0.0980 28.0750 0.0000 -16.8108 0.0000
# 2 0.0980 32.3888 -6.8193 0.0000 4.6791 0.0000
# 3 28.0750 -6.8193 115.6429 0.0000 -3.8282 0.0000
# 4 0.0000 0.0000 0.0000 18.0316 0.0000 -19.2373
# 5 -16.8108 4.6791 -3.8282 0.0000 31.1730 0.0000
# 6 0.0000 0.0000 0.0000 -19.2373 0.0000 3.3855
#
#
#
# Elastic Compliance Matrix: (Units=1/GPa)
#
#
# Indices 1 2 3 4 5 6 
#
# 1 0.011118 -0.001430 -0.002588 0.000000 0.005892 0.000000
# 2 -0.001430 0.032084 0.002063 0.000000 -0.005334 0.000000
# 3 -0.002588 0.002063 0.009379 0.000000 -0.000554 0.000000
# 4 0.000000 0.000000 0.000000 -0.010955 0.000000 -0.062251
# 5 0.005892 -0.005334 -0.000554 0.000000 0.035989 0.000000
# 6 0.000000 0.000000 0.000000 -0.062251 0.000000 -0.058349
#
#
# Mechanical properties :
#
#
# Convention : Reuss Voigt Hill
#
# Bulk Modulus (GPa) = 20.54675 32.90455 26.72565
# Shear Modulus (GPa) = 126.89977 25.98999 76.44488
#
# Velocity S-wave (km/s) = 7.73593 3.50094 6.00422
# Velocity P-wave (km/s) = 9.45952 5.64443 7.78916
#
# Compressibility (1/GPa) = 0.04866949
#
# Stress axis : x y z
#
# Youngs Moduli (GPa) = 89.94351 31.16819 106.62113
#
# Poissons Ratio (x) = 0.04457 0.27598
# Poissons Ratio (y) = 0.12861 -0.21991
# Poissons Ratio (z) = 0.23281 -0.06429
#
# Static dielectric constant tensor:
#      x y z
#    x 1.857950 0.000000 0.021440 
#    y 0.000000 1.706300 0.000000 
#    z 0.021440 0.000000 1.803660 
# 
# From -- ./inp_files/23812.got.cif
#   From: 2010.05.17/outbox.cif.g08.bks.cpg/sg13_12_cif.got.tgz:23812.got - 2010.06.03 16:44:36.
