data_PCOD9226879
_publ_section_title
;
Structure prediction by ZEFSAII (Michael W. Deem and Ramdas Pophale) SiO2 
 PCOD9226879
Probable space group: P 2/C
;
_chemical_formula_sum "Si O2"
_cell_formula_units_Z 20
_cell_length_a 9.029858
_cell_length_b 6.846208
_cell_length_c 28.159334
_cell_angle_alpha 90.000000
_cell_angle_beta 26.645793
_cell_angle_gamma 90.000000
_cell_volume 780.710931
_symmetry_space_group_name_H-M "P 2/C"
_symmetry_group_IT_number 13
_symmetry_cell_setting 'monoclinic'
loop_
_space_group_symop_operation_xyz
x,y,z
-x,y,1/2-z
-x,-y,-z
x,-y,1/2+z
loop_
_atom_site_type_symbol
_atom_site_label
_atom_site_fract_x
_atom_site_fract_y
_atom_site_fract_z
Si Si1 0.805096 0.681389 0.609410
Si Si2 0.408253 0.687633 0.489889
Si Si3 0.513049 0.645706 0.134092
Si Si4 0.325338 0.936234 0.710847
Si Si5 0.562889 0.141968 0.427051
O O1 0.553617 0.519180 0.661798
O O2 0.024530 0.630465 0.592068
O O3 0.103116 0.705978 0.485813
O O4 0.592247 0.875281 0.672817
O O5 0.596251 0.602248 0.389305
O O6 0.414166 0.926171 0.479082
O O7 0.551996 0.692086 0.502229
O O8 0.315531 0.832219 0.207624
O O9 0.461767 0.839853 0.622510
O O10 0.954879 0.867961 0.823843
#
# Coordination Sequence:
#
# PCOD9226879 Si02
#       5
#     4   4   4   4   4
#     4   9  17  32  57  73  97 137 183 211 254 309
#     4   8  16  33  51  73 104 137 169 214 253 315
#     4   8  17  32  54  75  97 133 181 214 252 305
#     4  10  18  31  53  77 103 137 172 217 256 318
#     4   9  18  30  49  78 108 135 169 209 273 311
#
# _framework density 25.617677
#
# number of rings (size 3 to 8) (size 9 to 14) (size 15 to 20)
#    1.200    2.000    0.000    0.600    0.000    0.800 
#    0.000    9.000    0.000    9.600    0.000    0.000 
#    0.000    0.000    0.000    0.000    0.000    0.000 
#
# Total GULP energy -111444.501869 kJ/mol
# GULP energy per Si atom -5572.225093 kJ/mol
# Density = 2.555937 g / cm^3
# Si number density = 25.617677 Si / 1000 Ang^3
#
#
#
# Elastic Constant Matrix: (Units=GPa)
#
#
# Indices 1 2 3 4 5 6 
#
# 1 118.6357 48.8135 26.7097 0.0000 8.4542 0.0000
# 2 48.8135 40.8954 -0.7291 0.0000 1.7962 0.0000
# 3 26.7097 -0.7291 49.1614 0.0000 3.3790 0.0000
# 4 0.0000 0.0000 0.0000 22.9211 0.0000 -14.7474
# 5 8.4542 1.7962 3.3790 0.0000 33.8993 0.0000
# 6 0.0000 0.0000 0.0000 -14.7474 0.0000 41.2491
#
#
#
# Elastic Compliance Matrix: (Units=1/GPa)
#
#
# Indices 1 2 3 4 5 6 
#
# 1 0.022564 -0.027025 -0.012457 0.000000 -0.002954 0.000000
# 2 -0.027025 0.056888 0.015376 0.000000 0.002193 0.000000
# 3 -0.012457 0.015376 0.027367 0.000000 -0.000436 0.000000
# 4 0.000000 0.000000 0.000000 0.056662 0.000000 0.020258
# 5 -0.002954 0.002193 -0.000436 0.000000 0.030163 0.000000
# 6 0.000000 0.000000 0.000000 0.020258 0.000000 0.031485
#
#
# Mechanical properties :
#
#
# Convention : Reuss Voigt Hill
#
# Bulk Modulus (GPa) = 17.06295 39.80898 28.43596
# Shear Modulus (GPa) = 17.07209 28.54047 22.80628
#
# Velocity S-wave (km/s) = 2.58431 3.34142 2.98695
# Velocity P-wave (km/s) = 3.94714 5.51908 4.79792
#
# Compressibility (1/GPa) = 0.05860652
#
# Stress axis : x y z
#
# Youngs Moduli (GPa) = 44.31899 17.57851 36.54038
#
# Poissons Ratio (x) = 0.47506 0.45517
# Poissons Ratio (y) = 1.19771 -0.56183
# Poissons Ratio (z) = 0.55207 -0.27028
#
# Static dielectric constant tensor:
#      x y z
#    x 2.128230 0.000000 0.136080 
#    y 0.000000 2.083050 0.000000 
#    z 0.136080 0.000000 1.962380 
# 
# From -- ./inp_files/95850.got.cif
#   From: 2010.05.17/outbox.cif.g08.bks.cpg/sg13_48_cif.got.tgz:95850.got - 2010.06.03 16:44:36.
