data_PCOD9226293
_publ_section_title
;
Structure prediction by ZEFSAII (Michael W. Deem and Ramdas Pophale) SiO2 
 PCOD9226293
Probable space group: P 2/C
;
_chemical_formula_sum "Si O2"
_cell_formula_units_Z 24
_cell_length_a 7.770797
_cell_length_b 9.000803
_cell_length_c 17.122665
_cell_angle_alpha 90.000000
_cell_angle_beta 105.173322
_cell_angle_gamma 90.000000
_cell_volume 1155.866846
_symmetry_space_group_name_H-M "P 2/C"
_symmetry_group_IT_number 13
_symmetry_cell_setting 'monoclinic'
loop_
_space_group_symop_operation_xyz
x,y,z
-x,y,1/2-z
-x,-y,-z
x,-y,1/2+z
loop_
_atom_site_type_symbol
_atom_site_label
_atom_site_fract_x
_atom_site_fract_y
_atom_site_fract_z
Si Si1 0.949985 0.618731 0.870823
Si Si2 0.000000 0.132852 0.250000
Si Si3 0.446905 0.398579 0.156984
Si Si4 0.252543 0.137619 0.771567
Si Si5 0.000000 0.380369 0.750000
Si Si6 0.342863 0.622720 0.964650
Si Si7 0.610714 0.749939 0.368172
O O1 0.991603 0.764452 0.825115
O O2 0.916349 0.488525 0.803880
O O3 0.134536 0.575255 0.935740
O O4 0.758833 0.638901 0.889590
O O5 0.834586 0.020830 0.230339
O O6 0.500000 0.348481 0.250000
O O7 0.590830 0.333210 0.113745
O O8 0.449427 0.579640 0.157314
O O9 0.143598 0.267772 0.802398
O O10 0.250846 0.193708 0.680825
O O11 0.446529 0.143827 0.830304
O O12 0.500000 0.500000 0.000000
O O13 0.344569 0.740805 0.035328
#
# Coordination Sequence:
#
# PCOD9226293 Si02
#       7
#     4   2   4   4   2   4   4
#     4  11  21  39  61  93 132 157 209 268 329 383
#     4  10  24  40  60  98 120 174 214 270 318 380
#     4  11  19  37  66  97 123 163 209 269 328 378
#     4  10  19  38  64  84 120 166 222 258 307 379
#     4  10  16  32  62  86 108 156 208 266 302 370
#     4  10  23  37  60 101 132 161 207 270 331 381
#     4  10  19  38  60  89 120 162 214 260 311 376
#
# _framework density 20.763638
#
# number of rings (size 3 to 8) (size 9 to 14) (size 15 to 20)
#    0.000    1.667    3.333    4.000    0.000    2.667 
#   15.000    1.667    0.000    0.000    0.000    0.000 
#    0.000    0.000    0.000    0.000    0.000    0.000 
#
# Total GULP energy -133719.142711 kJ/mol
# GULP energy per Si atom -5571.630946 kJ/mol
# Density = 2.071638 g / cm^3
# Si number density = 20.763638 Si / 1000 Ang^3
#
#
#
# Elastic Constant Matrix: (Units=GPa)
#
#
# Indices 1 2 3 4 5 6 
#
# 1 118.6096 17.1226 15.3175 0.0000 18.4035 0.0000
# 2 17.1226 89.6492 4.5741 0.0000 4.8117 0.0000
# 3 15.3175 4.5741 75.9521 0.0000 0.7343 0.0000
# 4 0.0000 0.0000 0.0000 4.6715 0.0000 1.3455
# 5 18.4035 4.8117 0.7343 0.0000 30.8556 0.0000
# 6 0.0000 0.0000 0.0000 1.3455 0.0000 18.9997
#
#
#
# Elastic Compliance Matrix: (Units=1/GPa)
#
#
# Indices 1 2 3 4 5 6 
#
# 1 0.009737 -0.001470 -0.001822 0.000000 -0.005535 0.000000
# 2 -0.001470 0.011504 -0.000388 0.000000 -0.000908 0.000000
# 3 -0.001822 -0.000388 0.013549 0.000000 0.000825 0.000000
# 4 0.000000 0.000000 0.000000 0.218522 0.000000 -0.015476
# 5 -0.005535 -0.000908 0.000825 0.000000 0.035832 0.000000
# 6 0.000000 0.000000 0.000000 -0.015476 0.000000 0.053728
#
#
# Mechanical properties :
#
#
# Convention : Reuss Voigt Hill
#
# Bulk Modulus (GPa) = 36.45388 39.80437 38.12912
# Shear Modulus (GPa) = 13.91303 27.38514 20.64909
#
# Velocity S-wave (km/s) = 2.59137 3.63560 3.15696
# Velocity P-wave (km/s) = 5.15251 6.06921 5.62955
#
# Compressibility (1/GPa) = 0.02743192
#
# Stress axis : x y z
#
# Youngs Moduli (GPa) = 102.69796 86.92758 73.80639
#
# Poissons Ratio (x) = 0.12776 0.13445
# Poissons Ratio (y) = 0.15094 0.02861
# Poissons Ratio (z) = 0.18709 0.03369
#
# Static dielectric constant tensor:
#      x y z
#    x 1.904290 0.000000 -0.016550 
#    y 0.000000 1.705720 0.000000 
#    z -0.016550 0.000000 1.842190 
# 
# From -- ./inp_files/63476.got.cif
#   From: 2010.05.17/outbox.cif.g08.bks.cpg/sg13_32_cif.got.tgz:63476.got - 2010.06.03 16:44:36.
