data_PCOD9226853
_publ_section_title
;
Structure prediction by ZEFSAII (Michael W. Deem and Ramdas Pophale) SiO2 
 PCOD9226853
Probable space group: P 2/C
;
_chemical_formula_sum "Si O2"
_cell_formula_units_Z 32
_cell_length_a 11.579634
_cell_length_b 11.183259
_cell_length_c 15.970924
_cell_angle_alpha 90.000000
_cell_angle_beta 39.198759
_cell_angle_gamma 90.000000
_cell_volume 1307.130471
_symmetry_space_group_name_H-M "P 2/C"
_symmetry_group_IT_number 13
_symmetry_cell_setting 'monoclinic'
loop_
_space_group_symop_operation_xyz
x,y,z
-x,y,1/2-z
-x,-y,-z
x,-y,1/2+z
loop_
_atom_site_type_symbol
_atom_site_label
_atom_site_fract_x
_atom_site_fract_y
_atom_site_fract_z
Si Si1 0.352938 0.912876 0.193575
Si Si2 0.358273 0.779161 0.031168
Si Si3 0.635428 0.557705 0.355770
Si Si4 0.969223 0.816467 0.939749
Si Si5 0.381299 0.709418 0.412646
Si Si6 0.638965 0.818817 0.745849
Si Si7 0.949068 0.929719 0.375868
Si Si8 0.832063 0.346128 0.297358
O O1 0.398611 0.888600 0.071012
O O2 0.134985 0.886737 0.317365
O O3 0.376761 0.044650 0.214476
O O4 0.488134 0.823807 0.164418
O O5 0.295244 0.673579 0.130036
O O6 0.204759 0.829868 0.054555
O O7 0.542524 0.747128 0.877020
O O8 0.500000 0.500000 0.500000
O O9 0.523222 0.599326 0.337198
O O10 0.774007 0.449851 0.265065
O O11 0.147357 0.806973 0.898759
O O12 0.078823 0.768284 0.796520
O O13 0.794042 0.730800 0.047140
O O14 0.899242 0.949624 0.955458
O O15 0.297328 0.696942 0.553935
O O16 0.500000 0.796093 0.750000
O O17 0.000000 0.964139 0.250000
O O18 0.000000 0.409952 0.250000
#
# Coordination Sequence:
#
# PCOD9226853 Si02
#       8
#     4   4   4   4   4   4   4   4
#     4   9  18  32  50  74 103 138 176 218 269 328
#     4  10  19  33  53  76 109 146 179 229 279 323
#     4   9  17  28  45  76 105 134 175 222 271 315
#     4  10  18  31  47  70 105 140 175 218 269 330
#     4   9  16  28  47  70 101 138 171 211 266 321
#     4  11  22  34  50  76 105 140 187 234 277 332
#     4   9  17  28  48  76 104 139 180 214 266 327
#     4   9  17  28  48  80 110 137 173 222 273 330
#
# _framework density 24.481106
#
# number of rings (size 3 to 8) (size 9 to 14) (size 15 to 20)
#    0.000    2.500    0.000    4.500    0.000    6.500 
#    0.000    5.625    0.000    0.000    0.000   35.875 
#    0.000    0.000    0.000    0.000    0.000    0.000 
#
# Total GULP energy -178322.981476 kJ/mol
# GULP energy per Si atom -5572.593171 kJ/mol
# Density = 2.442539 g / cm^3
# Si number density = 24.481106 Si / 1000 Ang^3
#
#
#
# Elastic Constant Matrix: (Units=GPa)
#
#
# Indices 1 2 3 4 5 6 
#
# 1 116.9727 19.4850 28.4012 0.0000 -22.5663 0.0000
# 2 19.4850 93.9507 15.9933 0.0000 -17.8179 0.0000
# 3 28.4012 15.9933 81.8925 0.0000 -9.3304 0.0000
# 4 0.0000 0.0000 0.0000 10.9428 0.0000 -14.9008
# 5 -22.5663 -17.8179 -9.3304 0.0000 40.7660 0.0000
# 6 0.0000 0.0000 0.0000 -14.9008 0.0000 4.7915
#
#
#
# Elastic Compliance Matrix: (Units=1/GPa)
#
#
# Indices 1 2 3 4 5 6 
#
# 1 0.010281 -0.000749 -0.002883 0.000000 0.004704 0.000000
# 2 -0.000749 0.011905 -0.001560 0.000000 0.004432 0.000000
# 3 -0.002883 -0.001560 0.013611 0.000000 0.000837 0.000000
# 4 0.000000 0.000000 0.000000 -0.028251 0.000000 -0.087858
# 5 0.004704 0.004432 0.000837 0.000000 0.029263 0.000000
# 6 0.000000 0.000000 0.000000 -0.087858 0.000000 -0.064521
#
#
# Mechanical properties :
#
#
# Convention : Reuss Voigt Hill
#
# Bulk Modulus (GPa) = 39.35165 46.73053 43.04109
# Shear Modulus (GPa) = -564.68403 26.56248 -269.06078
#
# Velocity S-wave (km/s) = -15.20401 3.29754 -10.49495
# Velocity P-wave (km/s) = 17.09113 5.79898 11.36834
#
# Compressibility (1/GPa) = 0.02541190
#
# Stress axis : x y z
#
# Youngs Moduli (GPa) = 97.26314 83.99571 73.46873
#
# Poissons Ratio (x) = 0.06294 0.21184
# Poissons Ratio (y) = 0.07289 0.11463
# Poissons Ratio (z) = 0.28045 0.13105
#
# Static dielectric constant tensor:
#      x y z
#    x 2.381230 0.000000 -0.061000 
#    y 0.000000 1.957340 0.000000 
#    z -0.061000 0.000000 2.066410 
# 
# From -- ./inp_files/78487.got.cif
#   From: 2010.05.17/outbox.cif.g08.bks.cpg/sg13_40_cif.got.tgz:78487.got - 2010.06.03 16:44:36.
