data_PCOD9226056
_publ_section_title
;
Structure prediction by ZEFSAII (Michael W. Deem and Ramdas Pophale) SiO2 
 PCOD9226056
Probable space group: P 2/C
;
_chemical_formula_sum "Si O2"
_cell_formula_units_Z 24
_cell_length_a 14.723321
_cell_length_b 8.345630
_cell_length_c 9.073885
_cell_angle_alpha 90.000000
_cell_angle_beta 88.970455
_cell_angle_gamma 90.000000
_cell_volume 1114.777157
_symmetry_space_group_name_H-M "P 2/C"
_symmetry_group_IT_number 13
_symmetry_cell_setting 'monoclinic'
loop_
_space_group_symop_operation_xyz
x,y,z
-x,y,1/2-z
-x,-y,-z
x,-y,1/2+z
loop_
_atom_site_type_symbol
_atom_site_label
_atom_site_fract_x
_atom_site_fract_y
_atom_site_fract_z
Si Si1 0.500000 0.738990 0.250000
Si Si2 0.615329 0.902163 0.499150
Si Si3 0.011115 0.331194 0.575573
Si Si4 0.500000 0.732548 0.750000
Si Si5 0.805481 0.145515 0.890838
Si Si6 0.371120 0.707131 0.500922
Si Si7 0.182800 0.193879 0.961249
O O1 0.556162 0.847152 0.362229
O O2 0.425311 0.650765 0.354098
O O3 0.565593 0.838471 0.644929
O O4 0.711104 0.812556 0.473123
O O5 0.624368 0.095338 0.501652
O O6 0.107261 0.242108 0.552943
O O7 0.000000 0.351267 0.750000
O O8 0.000000 0.500000 0.500000
O O9 0.922069 0.239327 0.524987
O O10 0.430434 0.648964 0.637756
O O11 0.798692 0.160154 0.713656
O O12 0.812693 0.960436 0.935107
O O13 0.262635 0.681295 0.504760
#
# Coordination Sequence:
#
# PCOD9226056 Si02
#       7
#     2   4   4   2   4   4   4
#     4  10  15  26  42  68 109 150 179 214 267 326
#     4  10  17  26  43  72 112 148 184 213 277 315
#     4  10  23  44  62  84 108 146 189 234 284 342
#     4  10  19  26  42  72 113 154 181 228 251 338
#     4  10  21  35  57  86 119 146 184 231 283 333
#     4  10  17  26  43  72 112 148 184 213 277 315
#     4  10  21  35  57  86 119 146 184 231 283 333
#
# _framework density 21.528964999999999
#
# number of rings (size 3 to 8) (size 9 to 14) (size 15 to 20)
#    0.000    2.000    1.667    4.500    7.000    1.333 
#    0.000    0.000    0.000    0.000    0.000    7.000 
#    0.000    0.000    0.000    0.000    0.000    0.000 
#
# Total GULP energy -133922.138346 kJ/mol
# GULP energy per Si atom -5580.089098 kJ/mol
# Density = 2.147996 g / cm^3
# Si number density = 21.528965 Si / 1000 Ang^3
#
#
#
# Elastic Constant Matrix: (Units=GPa)
#
#
# Indices 1 2 3 4 5 6 
#
# 1 194.0308 24.7315 46.4549 0.0000 -4.7368 0.0000
# 2 24.7315 18.1134 12.8410 0.0000 -3.4650 0.0000
# 3 46.4549 12.8410 79.6862 0.0000 -0.5384 0.0000
# 4 0.0000 0.0000 0.0000 21.7241 0.0000 1.1376
# 5 -4.7368 -3.4650 -0.5384 0.0000 33.6744 0.0000
# 6 0.0000 0.0000 0.0000 1.1376 0.0000 4.9746
#
#
#
# Elastic Compliance Matrix: (Units=1/GPa)
#
#
# Indices 1 2 3 4 5 6 
#
# 1 0.006739 -0.007209 -0.002766 0.000000 0.000162 0.000000
# 2 -0.007209 0.071386 -0.007259 0.000000 0.006215 0.000000
# 3 -0.002766 -0.007259 0.015325 0.000000 -0.000891 0.000000
# 4 0.000000 0.000000 0.000000 0.046590 0.000000 -0.010654
# 5 0.000162 0.006215 -0.000891 0.000000 0.030344 0.000000
# 6 0.000000 0.000000 0.000000 -0.010654 0.000000 0.203459
#
#
# Mechanical properties :
#
#
# Convention : Reuss Voigt Hill
#
# Bulk Modulus (GPa) = 16.95411 51.09836 34.02623
# Shear Modulus (GPa) = 11.68303 25.92815 18.80559
#
# Velocity S-wave (km/s) = 2.33205 3.47412 2.95871
# Velocity P-wave (km/s) = 3.89145 6.31498 5.24511
#
# Compressibility (1/GPa) = 0.05898274
#
# Stress axis : x y z
#
# Youngs Moduli (GPa) = 148.39299 14.00832 65.25182
#
# Poissons Ratio (x) = 0.10099 0.18047
# Poissons Ratio (y) = 1.06982 0.47364
# Poissons Ratio (z) = 0.41041 0.10168
#
# Static dielectric constant tensor:
#      x y z
#    x 1.947700 0.000000 -0.003230 
#    y 0.000000 1.833260 0.000000 
#    z -0.003230 0.000000 1.771120 
# 
# From -- ./inp_files/18143.got.cif
#   From: 2010.05.17/outbox.cif.g08.bks.cpg/sg13_10_cif.got.tgz:18143.got - 2010.06.03 16:44:36.
