data_PCOD9226678
_publ_section_title
;
Structure prediction by ZEFSAII (Michael W. Deem and Ramdas Pophale) SiO2 
 PCOD9226678
Probable space group: P 2/C
;
_chemical_formula_sum "Si O2"
_cell_formula_units_Z 26
_cell_length_a 8.043572
_cell_length_b 9.102178
_cell_length_c 18.014961
_cell_angle_alpha 90.000000
_cell_angle_beta 59.134141
_cell_angle_gamma 90.000000
_cell_volume 1132.146214
_symmetry_space_group_name_H-M "P 2/C"
_symmetry_group_IT_number 13
_symmetry_cell_setting 'monoclinic'
loop_
_space_group_symop_operation_xyz
x,y,z
-x,y,1/2-z
-x,-y,-z
x,-y,1/2+z
loop_
_atom_site_type_symbol
_atom_site_label
_atom_site_fract_x
_atom_site_fract_y
_atom_site_fract_z
Si Si1 0.611597 0.510198 0.395952
Si Si2 0.000000 0.392158 0.750000
Si Si3 0.000000 0.500000 0.500000
Si Si4 0.657855 0.273780 0.095345
Si Si5 0.319522 0.250684 0.932664
Si Si6 0.819616 0.139015 0.695978
Si Si7 0.846151 0.976229 0.466971
Si Si8 0.500000 0.060040 0.250000
O O1 0.500000 0.500000 0.500000
O O2 0.842869 0.521832 0.336016
O O3 0.538547 0.364906 0.370875
O O4 0.519349 0.661073 0.385813
O O5 0.118496 0.284989 0.776641
O O6 0.179969 0.395995 0.430505
O O7 0.154775 0.629797 0.487155
O O8 0.630638 0.160542 0.167901
O O9 0.730370 0.174215 0.009734
O O10 0.266966 0.189607 0.863462
O O11 0.294645 0.115734 0.995431
O O12 0.016921 0.048197 0.635090
O O13 0.648324 0.036804 0.765220
O O14 0.000000 0.000000 0.500000
#
# Coordination Sequence:
#
# PCOD9226678 Si02
#       8
#     4   2   2   4   4   4   4   2
#     4  11  27  49  66 100 144 186 233 292 355 424
#     4  12  28  46  66 104 148 192 228 290 370 424
#     4  10  18  34  66 102 122 170 228 274 338 406
#     4  11  22  40  68 101 135 173 232 284 345 410
#     4  10  20  39  76  97 128 186 237 282 345 421
#     4  11  22  42  69 101 138 178 232 289 348 422
#     4  10  17  39  68  98 126 175 230 283 334 408
#     4  12  22  40  70 104 138 164 240 296 336 418
#
# _framework density 22.965230999999999
#
# number of rings (size 3 to 8) (size 9 to 14) (size 15 to 20)
#    0.000    1.231    6.154    1.846    2.154    2.462 
#    5.538    1.538    0.000    0.000    0.000    0.000 
#    0.000    0.000    0.000    0.000    0.000    0.000 
#
# Total GULP energy -144742.662611 kJ/mol
# GULP energy per Si atom -5567.025485 kJ/mol
# Density = 2.291296 g / cm^3
# Si number density = 22.965231 Si / 1000 Ang^3
#
#
#
# Elastic Constant Matrix: (Units=GPa)
#
#
# Indices 1 2 3 4 5 6 
#
# 1 42.4245 31.7337 32.2614 0.0000 -23.5340 0.0000
# 2 31.7337 90.5007 34.3441 0.0000 -26.3867 0.0000
# 3 32.2614 34.3441 95.4615 0.0000 -35.6197 0.0000
# 4 0.0000 0.0000 0.0000 27.1954 0.0000 -2.4103
# 5 -23.5340 -26.3867 -35.6197 0.0000 30.2041 0.0000
# 6 0.0000 0.0000 0.0000 -2.4103 0.0000 12.6160
#
#
#
# Elastic Compliance Matrix: (Units=1/GPa)
#
#
# Indices 1 2 3 4 5 6 
#
# 1 0.045578 -0.007388 -0.003398 0.000000 0.025052 0.000000
# 2 -0.007388 0.016067 -0.000347 0.000000 0.007870 0.000000
# 3 -0.003398 -0.000347 0.019015 0.000000 0.019474 0.000000
# 4 0.000000 0.000000 0.000000 0.037404 0.000000 0.007146
# 5 0.025052 0.007870 0.019474 0.000000 0.082469 0.000000
# 6 0.000000 0.000000 0.000000 0.007146 0.000000 0.080630
#
#
# Mechanical properties :
#
#
# Convention : Reuss Voigt Hill
#
# Bulk Modulus (GPa) = 17.12487 47.22945 32.17716
# Shear Modulus (GPa) = 15.48503 22.67293 19.07898
#
# Velocity S-wave (km/s) = 2.59951 3.14550 2.88545
# Velocity P-wave (km/s) = 4.05993 5.81399 5.01425
#
# Compressibility (1/GPa) = 0.05839460
#
# Stress axis : x y z
#
# Youngs Moduli (GPa) = 21.94022 62.24089 52.59092
#
# Poissons Ratio (x) = 0.45986 0.17868
# Poissons Ratio (y) = 0.16210 0.01823
# Poissons Ratio (z) = 0.07454 0.02158
#
# Static dielectric constant tensor:
#      x y z
#    x 1.960050 0.000000 0.018740 
#    y 0.000000 1.874050 0.000000 
#    z 0.018740 0.000000 1.932580 
# 
# From -- ./inp_files/75664.got.cif
#   From: 2010.05.17/outbox.cif.g08.bks.cpg/sg13_38_cif.got.tgz:75664.got - 2010.06.03 16:44:36.
