data_PCOD9226478
_publ_section_title
;
Structure prediction by ZEFSAII (Michael W. Deem and Ramdas Pophale) SiO2 
 PCOD9226478
Probable space group: P 2/C
;
_chemical_formula_sum "Si O2"
_cell_formula_units_Z 24
_cell_length_a 10.185633
_cell_length_b 17.413281
_cell_length_c 10.292395
_cell_angle_alpha 90.000000
_cell_angle_beta 145.934921
_cell_angle_gamma 90.000000
_cell_volume 1022.532609
_symmetry_space_group_name_H-M "P 2/C"
_symmetry_group_IT_number 13
_symmetry_cell_setting 'monoclinic'
loop_
_space_group_symop_operation_xyz
x,y,z
-x,y,1/2-z
-x,-y,-z
x,-y,1/2+z
loop_
_atom_site_type_symbol
_atom_site_label
_atom_site_fract_x
_atom_site_fract_y
_atom_site_fract_z
Si Si1 0.000000 0.579296 0.250000
Si Si2 0.261383 0.056886 0.204473
Si Si3 0.563118 0.370748 0.531911
Si Si4 0.000000 0.912438 0.750000
Si Si5 0.500000 0.077341 0.750000
Si Si6 0.547777 0.789676 0.941462
Si Si7 0.000000 0.864568 0.250000
Si Si8 0.288514 0.496715 0.679221
O O1 0.767495 0.627450 0.088722
O O2 0.056861 0.523213 0.415904
O O3 0.090678 0.048442 0.188679
O O4 0.415399 0.131936 0.363257
O O5 0.414785 0.982502 0.293151
O O6 0.141091 0.085623 0.970586
O O7 0.477223 0.284354 0.466264
O O8 0.696871 0.409495 0.761075
O O9 0.365137 0.434281 0.339219
O O10 0.743627 0.880007 0.489494
O O11 0.500000 0.772265 0.750000
O O12 0.819657 0.810704 0.178786
O O13 0.500000 0.500855 0.750000
#
# Coordination Sequence:
#
# PCOD9226478 Si02
#       8
#     2   4   4   2   2   4   2   4
#     4  10  17  30  51  79 114 145 202 264 320 367
#     4  11  24  44  66 101 135 174 219 277 329 401
#     4  10  19  33  54  84 109 156 204 261 317 374
#     4  12  29  42  75 109 139 178 226 280 344 401
#     4  12  24  46  74 104 140 178 230 272 340 404
#     4  10  20  36  63  86 122 165 215 265 326 396
#     4  10  20  40  66  86 135 173 218 270 330 398
#     4   9  19  33  51  76 118 149 202 264 313 381
#
# _framework density 23.471135
#
# number of rings (size 3 to 8) (size 9 to 14) (size 15 to 20)
#    0.000    1.667    2.500    4.000    2.333    1.333 
#    0.000    1.667    0.000    4.000    0.000    0.000 
#    0.000    0.000    0.000    0.000    0.000    0.000 
#
# Total GULP energy -133784.610002 kJ/mol
# GULP energy per Si atom -5574.358750 kJ/mol
# Density = 2.341771 g / cm^3
# Si number density = 23.471135 Si / 1000 Ang^3
#
#
#
# Elastic Constant Matrix: (Units=GPa)
#
#
# Indices 1 2 3 4 5 6 
#
# 1 69.9687 -2.8799 1.8482 0.0000 2.5287 0.0000
# 2 -2.8799 120.5547 31.5351 0.0000 4.7362 0.0000
# 3 1.8482 31.5351 109.5418 0.0000 12.7285 0.0000
# 4 0.0000 0.0000 0.0000 22.0662 0.0000 -5.4711
# 5 2.5287 4.7362 12.7285 0.0000 40.8056 0.0000
# 6 0.0000 0.0000 0.0000 -5.4711 0.0000 26.4318
#
#
#
# Elastic Compliance Matrix: (Units=1/GPa)
#
#
# Indices 1 2 3 4 5 6 
#
# 1 0.014349 0.000447 -0.000271 0.000000 -0.000856 0.000000
# 2 0.000447 0.008987 -0.002563 0.000000 -0.000271 0.000000
# 3 -0.000271 -0.002563 0.010205 0.000000 -0.002869 0.000000
# 4 0.000000 0.000000 0.000000 0.047770 0.000000 0.009888
# 5 -0.000856 -0.000271 -0.002869 0.000000 0.025486 0.000000
# 6 0.000000 0.000000 0.000000 0.009888 0.000000 0.039880
#
#
# Mechanical properties :
#
#
# Convention : Reuss Voigt Hill
#
# Bulk Modulus (GPa) = 34.76334 40.11912 37.44123
# Shear Modulus (GPa) = 31.04845 35.83150 33.43998
#
# Velocity S-wave (km/s) = 3.64103 3.91144 3.77865
# Velocity P-wave (km/s) = 5.70257 6.12611 5.91813
#
# Compressibility (1/GPa) = 0.02876594
#
# Stress axis : x y z
#
# Youngs Moduli (GPa) = 69.69304 111.27408 97.99346
#
# Poissons Ratio (x) = -0.04978 0.02659
# Poissons Ratio (y) = -0.03118 0.25117
# Poissons Ratio (z) = 0.01891 0.28521
#
# Static dielectric constant tensor:
#      x y z
#    x 2.054700 0.000000 0.004490 
#    y 0.000000 1.860330 0.000000 
#    z 0.004490 0.000000 2.028980 
# 
# From -- ./inp_files/34807.got.cif
#   From: 2010.05.17/outbox.cif.g08.bks.cpg/sg13_18_cif.got.tgz:34807.got - 2010.06.03 16:44:36.
