data_PCOD9226335
_publ_section_title
;
Structure prediction by ZEFSAII (Michael W. Deem and Ramdas Pophale) SiO2 
 PCOD9226335
Probable space group: P 2/C
;
_chemical_formula_sum "Si O2"
_cell_formula_units_Z 30
_cell_length_a 11.236441
_cell_length_b 24.262240
_cell_length_c 8.695749
_cell_angle_alpha 90.000000
_cell_angle_beta 139.830107
_cell_angle_gamma 90.000000
_cell_volume 1529.199872
_symmetry_space_group_name_H-M "P 2/C"
_symmetry_group_IT_number 13
_symmetry_cell_setting 'monoclinic'
loop_
_space_group_symop_operation_xyz
x,y,z
-x,y,1/2-z
-x,-y,-z
x,-y,1/2+z
loop_
_atom_site_type_symbol
_atom_site_label
_atom_site_fract_x
_atom_site_fract_y
_atom_site_fract_z
Si Si1 0.239073 0.449407 0.330895
Si Si2 0.045988 0.940624 0.616628
Si Si3 0.000000 0.762138 0.250000
Si Si4 0.186311 0.434061 0.639857
Si Si5 0.483751 0.363749 0.049665
Si Si6 0.358573 0.868568 0.818974
Si Si7 0.224868 0.137996 0.838730
Si Si8 0.358601 0.747350 0.753604
O O1 0.240837 0.442566 0.515971
O O2 0.261192 0.513377 0.308457
O O3 0.386055 0.409656 0.397654
O O4 0.034261 0.433858 0.069981
O O5 0.251845 0.915119 0.806877
O O6 0.000000 0.941454 0.750000
O O7 0.919012 0.899523 0.392022
O O8 0.000000 0.000000 0.500000
O O9 0.121291 0.803304 0.260695
O O10 0.160086 0.728595 0.492398
O O11 0.279153 0.379373 0.796265
O O12 0.500000 0.365594 0.250000
O O13 0.546791 0.302599 0.064981
O O14 0.283855 0.878699 0.570664
O O15 0.314870 0.803650 0.800496
O O16 0.579023 0.867541 0.051755
O O17 0.500000 0.761502 0.750000
#
# Coordination Sequence:
#
# PCOD9226335 Si02
#       8
#     4   4   2   4   4   4   4   4
#     4  10  21  39  62  85 116 163 203 252 320 368
#     4  12  25  40  63  94 131 163 203 253 309 368
#     4  10  16  34  66  90 114 156 208 252 304 360
#     4  10  21  39  62  84 119 159 205 256 310 378
#     4  11  23  34  56  90 126 152 204 251 303 359
#     4  10  19  39  66  91 121 158 210 248 308 360
#     4  10  18  36  68  90 118 158 201 254 299 362
#     4  10  19  34  60  94 115 159 204 254 299 363
#
# _framework density 19.618102
#
# number of rings (size 3 to 8) (size 9 to 14) (size 15 to 20)
#    0.000    1.600    5.333    2.400    0.000    4.800 
#    0.000    0.000    8.800    0.000    0.000    0.000 
#    0.000    0.000    0.000    0.000    0.000    0.000 
#
# Total GULP energy -167288.536767 kJ/mol
# GULP energy per Si atom -5576.284559 kJ/mol
# Density = 1.957345 g / cm^3
# Si number density = 19.618102 Si / 1000 Ang^3
#
#
#
# Elastic Constant Matrix: (Units=GPa)
#
#
# Indices 1 2 3 4 5 6 
#
# 1 60.8838 11.8120 14.5564 0.0000 24.9072 0.0000
# 2 11.8120 82.1276 30.1154 0.0000 9.6442 0.0000
# 3 14.5564 30.1154 66.2946 0.0000 17.8913 0.0000
# 4 0.0000 0.0000 0.0000 24.1234 0.0000 9.7132
# 5 24.9072 9.6442 17.8913 0.0000 27.7048 0.0000
# 6 0.0000 0.0000 0.0000 9.7132 0.0000 17.5445
#
#
#
# Elastic Compliance Matrix: (Units=1/GPa)
#
#
# Indices 1 2 3 4 5 6 
#
# 1 0.026153 -0.001457 0.001366 0.000000 -0.023887 0.000000
# 2 -0.001457 0.014713 -0.006461 0.000000 0.000361 0.000000
# 3 0.001366 -0.006461 0.021125 0.000000 -0.012622 0.000000
# 4 0.000000 0.000000 0.000000 0.053345 0.000000 -0.029534
# 5 -0.023887 0.000361 -0.012622 0.000000 0.065594 0.000000
# 6 0.000000 0.000000 0.000000 -0.029534 0.000000 0.073349
#
#
# Mechanical properties :
#
#
# Convention : Reuss Voigt Hill
#
# Bulk Modulus (GPa) = 20.45557 35.80818 28.13188
# Shear Modulus (GPa) = 17.62555 24.06268 20.84412
#
# Velocity S-wave (km/s) = 3.00064 3.50602 3.26313
# Velocity P-wave (km/s) = 4.73863 5.88913 5.34493
#
# Compressibility (1/GPa) = 0.04888644
#
# Stress axis : x y z
#
# Youngs Moduli (GPa) = 38.23697 67.96939 47.33634
#
# Poissons Ratio (x) = 0.09905 -0.06466
# Poissons Ratio (y) = 0.05572 0.30583
# Poissons Ratio (z) = -0.05223 0.43914
#
# Static dielectric constant tensor:
#      x y z
#    x 1.720340 0.000000 0.026760 
#    y 0.000000 1.704860 0.000000 
#    z 0.026760 0.000000 1.694530 
# 
# From -- ./inp_files/17348.got.cif
#   From: 2010.05.17/outbox.cif.g08.bks.cpg/sg13_9_cif.got.tgz:17348.got - 2010.06.03 16:44:36.
