data_PCOD9226788
_publ_section_title
;
Structure prediction by ZEFSAII (Michael W. Deem and Ramdas Pophale) SiO2 
 PCOD9226788
Probable space group: P 2/C
;
_chemical_formula_sum "Si O2"
_cell_formula_units_Z 28
_cell_length_a 11.607957
_cell_length_b 16.091785
_cell_length_c 10.405076
_cell_angle_alpha 90.000000
_cell_angle_beta 38.276146
_cell_angle_gamma 90.000000
_cell_volume 1203.962900
_symmetry_space_group_name_H-M "P 2/C"
_symmetry_group_IT_number 13
_symmetry_cell_setting 'monoclinic'
loop_
_space_group_symop_operation_xyz
x,y,z
-x,y,1/2-z
-x,-y,-z
x,-y,1/2+z
loop_
_atom_site_type_symbol
_atom_site_label
_atom_site_fract_x
_atom_site_fract_y
_atom_site_fract_z
Si Si1 0.120323 0.712687 0.276729
Si Si2 0.217772 0.746590 0.752356
Si Si3 0.301063 0.823465 0.932480
Si Si4 0.212533 0.537537 0.301647
Si Si5 0.771956 0.065232 0.328010
Si Si6 0.774044 0.412007 0.425813
Si Si7 0.189214 0.005988 0.454200
O O1 0.210618 0.625732 0.231900
O O2 0.000000 0.701839 0.250000
O O3 0.994525 0.733829 0.511040
O O4 0.254383 0.785745 0.111461
O O5 0.311850 0.751547 0.812558
O O6 0.251610 0.837539 0.667654
O O7 0.266150 0.678085 0.603211
O O8 0.500000 0.864979 0.750000
O O9 0.158627 0.895724 0.015022
O O10 0.294720 0.472857 0.127507
O O11 0.290153 0.556488 0.376714
O O12 0.000000 0.500000 0.500000
O O13 0.701514 0.009378 0.273227
O O14 0.706475 0.034820 0.520619
O O15 0.994099 0.043299 0.120219
O O16 0.000000 0.413678 0.250000
#
# Coordination Sequence:
#
# PCOD9226788 Si02
#       7
#     4   4   4   4   4   4   4
#     4  10  19  31  58  84 108 148 197 236 287 341
#     4  10  20  34  56  88 113 148 191 241 290 339
#     4  10  23  39  56  79 115 156 199 239 288 347
#     4  10  18  30  50  89 128 143 177 233 296 336
#     4   9  19  31  54  85 111 140 184 245 285 336
#     4  10  19  30  51  89 129 146 174 235 293 342
#     4   9  19  33  53  78 112 144 183 239 290 334
#
# _framework density 23.256530000000001
#
# number of rings (size 3 to 8) (size 9 to 14) (size 15 to 20)
#    0.000    2.286    2.857    1.286   16.000    0.000 
#    0.000    2.857    0.000    1.714    0.000    0.000 
#    0.000    0.000    0.000    0.000    0.000    0.000 
#
# Total GULP energy -155950.028581 kJ/mol
# GULP energy per Si atom -5569.643878 kJ/mol
# Density = 2.320360 g / cm^3
# Si number density = 23.256530 Si / 1000 Ang^3
#
#
#
# Elastic Constant Matrix: (Units=GPa)
#
#
# Indices 1 2 3 4 5 6 
#
# 1 62.2150 16.1350 45.8694 0.0000 33.3120 0.0000
# 2 16.1350 71.9354 27.0776 0.0000 25.6564 0.0000
# 3 45.8694 27.0776 74.3189 0.0000 29.9311 0.0000
# 4 0.0000 0.0000 0.0000 19.0421 0.0000 22.0600
# 5 33.3120 25.6564 29.9311 0.0000 47.9926 0.0000
# 6 0.0000 0.0000 0.0000 22.0600 0.0000 33.7357
#
#
#
# Elastic Compliance Matrix: (Units=1/GPa)
#
#
# Indices 1 2 3 4 5 6 
#
# 1 0.037059 0.004411 -0.017588 0.000000 -0.017112 0.000000
# 2 0.004411 0.018377 -0.005647 0.000000 -0.009365 0.000000
# 3 -0.017588 -0.005647 0.027023 0.000000 -0.001626 0.000000
# 4 0.000000 0.000000 0.000000 0.216593 0.000000 -0.141632
# 5 -0.017112 -0.009365 -0.001626 0.000000 0.038735 0.000000
# 6 0.000000 0.000000 0.000000 -0.141632 0.000000 0.122256
#
#
# Mechanical properties :
#
#
# Convention : Reuss Voigt Hill
#
# Bulk Modulus (GPa) = 22.31530 42.95927 32.63728
# Shear Modulus (GPa) = 9.75364 28.11323 18.93343
#
# Velocity S-wave (km/s) = 2.05013 3.48060 2.85636
# Velocity P-wave (km/s) = 3.90130 5.88768 4.99424
#
# Compressibility (1/GPa) = 0.04481231
#
# Stress axis : x y z
#
# Youngs Moduli (GPa) = 26.98400 54.41449 37.00497
#
# Poissons Ratio (x) = -0.24004 0.65085
# Poissons Ratio (y) = -0.11904 0.20896
# Poissons Ratio (z) = 0.47460 0.30727
#
# Static dielectric constant tensor:
#      x y z
#    x 2.024990 0.000000 -0.005910 
#    y 0.000000 1.892100 0.000000 
#    z -0.005910 0.000000 1.909740 
# 
# From -- ./inp_files/37375.got.cif
#   From: 2010.05.17/outbox.cif.g08.bks.cpg/sg13_19_cif.got.tgz:37375.got - 2010.06.03 16:44:36.
