data_PCOD9226412
_publ_section_title
;
Structure prediction by ZEFSAII (Michael W. Deem and Ramdas Pophale) SiO2 
 PCOD9226412
Probable space group: P 2/C
;
_chemical_formula_sum "Si O2"
_cell_formula_units_Z 32
_cell_length_a 11.784877
_cell_length_b 18.174886
_cell_length_c 23.034089
_cell_angle_alpha 90.000000
_cell_angle_beta 21.701157
_cell_angle_gamma 90.000000
_cell_volume 1824.291359
_symmetry_space_group_name_H-M "P 2/C"
_symmetry_group_IT_number 13
_symmetry_cell_setting 'monoclinic'
loop_
_space_group_symop_operation_xyz
x,y,z
-x,y,1/2-z
-x,-y,-z
x,-y,1/2+z
loop_
_atom_site_type_symbol
_atom_site_label
_atom_site_fract_x
_atom_site_fract_y
_atom_site_fract_z
Si Si1 0.677161 0.590168 0.727591
Si Si2 0.637512 0.082571 0.435417
Si Si3 0.549752 0.857157 0.351045
Si Si4 0.723758 0.882091 0.505075
Si Si5 0.674991 0.292371 0.728396
Si Si6 0.285083 0.015079 0.904964
Si Si7 0.600782 0.557900 0.134027
Si Si8 0.607653 0.262661 0.132862
O O1 0.500000 0.596934 0.750000
O O2 0.515095 0.520292 0.835185
O O3 0.607765 0.670351 0.787486
O O4 0.035386 0.571784 0.546420
O O5 0.573538 0.123383 0.526598
O O6 0.451956 0.121141 0.471936
O O7 0.000000 0.079715 0.250000
O O8 0.500000 0.000000 0.500000
O O9 0.565140 0.773227 0.322348
O O10 0.346056 0.904777 0.402918
O O11 0.907845 0.880974 0.177748
O O12 0.607857 0.813360 0.597939
O O13 0.662426 0.957885 0.568093
O O14 0.500000 0.284599 0.750000
O O15 0.580571 0.370353 0.800911
O O16 0.037017 0.288856 0.541581
O O17 0.500000 0.001010 0.750000
O O18 0.000000 0.000000 0.000000
O O19 0.500000 0.554608 0.250000
O O20 0.500000 0.247623 0.250000
#
# Coordination Sequence:
#
# PCOD9226412 Si02
#       8
#     4   4   4   4   4   4   4   4
#     4  10  17  28  46  71 107 145 184 219 263 326
#     4  12  26  42  62  80 103 142 191 240 280 328
#     4  11  24  41  59  80 111 145 188 232 279 330
#     4  11  24  41  59  81 110 146 187 233 279 330
#     4  10  20  33  53  79 112 146 179 225 277 330
#     4  12  24  38  57  84 113 147 181 223 278 338
#     4  10  17  28  46  72 106 147 183 219 264 324
#     4  10  20  34  52  80 112 145 180 225 277 330
#
# _framework density 17.541056999999999
#
# number of rings (size 3 to 8) (size 9 to 14) (size 15 to 20)
#    0.000    1.250    2.500    7.125    3.500    2.000 
#    0.000    0.000    0.000    0.000    0.000    0.875 
#    0.000    0.000    0.000    0.000    0.000    0.000 
#
# Total GULP energy -178273.528803 kJ/mol
# GULP energy per Si atom -5571.047775 kJ/mol
# Density = 1.750113 g / cm^3
# Si number density = 17.541057 Si / 1000 Ang^3
#
#
#
# Elastic Constant Matrix: (Units=GPa)
#
#
# Indices 1 2 3 4 5 6 
#
# 1 72.2592 18.0166 19.8634 0.0000 7.5799 0.0000
# 2 18.0166 105.1425 36.5652 0.0000 11.6202 0.0000
# 3 19.8634 36.5652 111.8142 0.0000 2.2818 0.0000
# 4 0.0000 0.0000 0.0000 56.6500 0.0000 21.9319
# 5 7.5799 11.6202 2.2818 0.0000 27.3259 0.0000
# 6 0.0000 0.0000 0.0000 21.9319 0.0000 22.1754
#
#
#
# Elastic Compliance Matrix: (Units=1/GPa)
#
#
# Indices 1 2 3 4 5 6 
#
# 1 0.015152 -0.001477 -0.002139 0.000000 -0.003396 0.000000
# 2 -0.001477 0.011399 -0.003380 0.000000 -0.004155 0.000000
# 3 -0.002139 -0.003380 0.010405 0.000000 0.001162 0.000000
# 4 0.000000 0.000000 0.000000 0.028605 0.000000 -0.028291
# 5 -0.003396 -0.004155 0.001162 0.000000 0.039207 0.000000
# 6 0.000000 0.000000 0.000000 -0.028291 0.000000 0.073075
#
#
# Mechanical properties :
#
#
# Convention : Reuss Voigt Hill
#
# Bulk Modulus (GPa) = 43.54982 48.67847 46.11415
# Shear Modulus (GPa) = 25.06381 35.54832 30.30606
#
# Velocity S-wave (km/s) = 3.78413 4.50664 4.16110
# Velocity P-wave (km/s) = 6.63130 7.40885 7.03083
#
# Compressibility (1/GPa) = 0.02296221
#
# Stress axis : x y z
#
# Youngs Moduli (GPa) = 65.99938 87.72829 96.10574
#
# Poissons Ratio (x) = 0.12957 0.20560
# Poissons Ratio (y) = 0.09748 0.32488
# Poissons Ratio (z) = 0.14119 0.29656
#
# Static dielectric constant tensor:
#      x y z
#    x 1.558110 0.000000 -0.003170 
#    y 0.000000 1.660140 0.000000 
#    z -0.003170 0.000000 1.596510 
# 
# From -- ./inp_files/86664.got.cif
#   From: 2010.05.17/outbox.cif.g08.bks.cpg/sg13_44_cif.got.tgz:86664.got - 2010.06.03 16:44:36.
