data_PCOD9226271
_publ_section_title
;
Structure prediction by ZEFSAII (Michael W. Deem and Ramdas Pophale) SiO2 
 PCOD9226271
Probable space group: P 2/C
;
_chemical_formula_sum "Si O2"
_cell_formula_units_Z 26
_cell_length_a 10.961330
_cell_length_b 22.147992
_cell_length_c 5.272447
_cell_angle_alpha 90.000000
_cell_angle_beta 75.574557
_cell_angle_gamma 90.000000
_cell_volume 1239.644580
_symmetry_space_group_name_H-M "P 2/C"
_symmetry_group_IT_number 13
_symmetry_cell_setting 'monoclinic'
loop_
_space_group_symop_operation_xyz
x,y,z
-x,y,1/2-z
-x,-y,-z
x,-y,1/2+z
loop_
_atom_site_type_symbol
_atom_site_label
_atom_site_fract_x
_atom_site_fract_y
_atom_site_fract_z
Si Si1 0.584118 0.334440 0.963370
Si Si2 0.748001 0.765475 0.154850
Si Si3 0.500000 0.913324 0.750000
Si Si4 0.500000 0.166548 0.750000
Si Si5 0.643601 0.473610 0.942359
Si Si6 0.000000 0.238564 0.250000
Si Si7 0.115049 0.142708 0.563600
Si Si8 0.239314 0.034762 0.236191
O O1 0.500000 0.336543 0.750000
O O2 0.694786 0.286398 0.866005
O O3 0.634809 0.402224 0.977899
O O4 0.500000 0.318461 0.250000
O O5 0.618778 0.792042 0.099710
O O6 0.798500 0.824519 0.276152
O O7 0.865168 0.737519 0.932750
O O8 0.533716 0.872976 0.482992
O O9 0.612980 0.954405 0.793353
O O10 0.704749 0.493725 0.648964
O O11 0.500000 0.500000 0.000000
O O12 0.051196 0.197225 0.448088
O O13 0.182253 0.099479 0.332625
O O14 0.000000 0.107100 0.750000
O O15 0.203930 0.987942 0.477213
#
# Coordination Sequence:
#
# PCOD9226271 Si02
#       8
#     4   4   2   2   4   2   4   4
#     4  12  23  34  59  98 136 167 217 267 315 376
#     4  11  25  41  66  99 128 172 215 276 320 391
#     4  12  24  43  62  90 128 167 196 250 324 406
#     4  12  24  39  74  94 126 163 214 256 328 380
#     4  10  16  32  52  81 132 179 207 249 319 370
#     4  10  24  48  68  86 128 178 214 260 344 394
#     4  10  24  45  67  85 121 164 213 263 331 382
#     4  12  26  41  64  93 122 156 206 259 320 393
#
# _framework density 20.973755000000001
#
# number of rings (size 3 to 8) (size 9 to 14) (size 15 to 20)
#    0.000    0.923    5.385    2.308    7.538    0.615 
#    0.000    0.000    0.000    0.000    0.000    1.077 
#    0.000    0.000    0.000    0.000    0.000    0.000 
#
# Total GULP energy -145054.019765 kJ/mol
# GULP energy per Si atom -5579.000760 kJ/mol
# Density = 2.092602 g / cm^3
# Si number density = 20.973755 Si / 1000 Ang^3
#
#
#
# Elastic Constant Matrix: (Units=GPa)
#
#
# Indices 1 2 3 4 5 6 
#
# 1 57.3016 9.0403 30.6561 0.0000 -13.1312 0.0000
# 2 9.0403 75.0966 27.4563 0.0000 -21.2232 0.0000
# 3 30.6561 27.4563 135.0932 0.0000 -13.6188 0.0000
# 4 0.0000 0.0000 0.0000 32.2434 0.0000 -2.0089
# 5 -13.1312 -21.2232 -13.6188 0.0000 30.5868 0.0000
# 6 0.0000 0.0000 0.0000 -2.0089 0.0000 -0.8601
#
#
#
# Elastic Compliance Matrix: (Units=1/GPa)
#
#
# Indices 1 2 3 4 5 6 
#
# 1 0.021423 0.001308 -0.004302 0.000000 0.008190 0.000000
# 2 0.001308 0.017364 -0.002675 0.000000 0.011419 0.000000
# 3 -0.004302 -0.002675 0.008951 0.000000 0.000283 0.000000
# 4 0.000000 0.000000 0.000000 0.027074 0.000000 -0.063236
# 5 0.008190 0.011419 0.000283 0.000000 0.044259 0.000000
# 6 0.000000 0.000000 0.000000 -0.063236 0.000000 -1.014968
#
#
# Mechanical properties :
#
#
# Convention : Reuss Voigt Hill
#
# Bulk Modulus (GPa) = 27.47168 44.64411 36.05790
# Shear Modulus (GPa) = -5.73114 25.74994 10.00940
#
# Velocity S-wave (km/s) = -1.65483 3.50769 2.18694
# Velocity P-wave (km/s) = 3.07819 6.14305 4.85862
#
# Compressibility (1/GPa) = 0.03640113
#
# Stress axis : x y z
#
# Youngs Moduli (GPa) = 46.67819 57.59133 111.72462
#
# Poissons Ratio (x) = -0.07535 0.48062
# Poissons Ratio (y) = -0.06107 0.29884
# Poissons Ratio (z) = 0.20080 0.15404
#
# Static dielectric constant tensor:
#      x y z
#    x 1.830630 0.000000 -0.008200 
#    y 0.000000 1.747190 0.000000 
#    z -0.008200 0.000000 1.923050 
# 
# From -- ./inp_files/4078.got.cif
#   From: 2010.05.17/outbox.cif.g08.bks.cpg/sg13_3_cif.got.tgz:4078.got - 2010.06.03 16:44:36.
