data_PCOD9226434
_publ_section_title
;
Structure prediction by ZEFSAII (Michael W. Deem and Ramdas Pophale) SiO2 
 PCOD9226434
Probable space group: P 2/C
;
_chemical_formula_sum "Si O2"
_cell_formula_units_Z 30
_cell_length_a 12.460200
_cell_length_b 16.176223
_cell_length_c 27.744186
_cell_angle_alpha 90.000000
_cell_angle_beta 19.730953
_cell_angle_gamma 90.000000
_cell_volume 1887.910839
_symmetry_space_group_name_H-M "P 2/C"
_symmetry_group_IT_number 13
_symmetry_cell_setting 'monoclinic'
loop_
_space_group_symop_operation_xyz
x,y,z
-x,y,1/2-z
-x,-y,-z
x,-y,1/2+z
loop_
_atom_site_type_symbol
_atom_site_label
_atom_site_fract_x
_atom_site_fract_y
_atom_site_fract_z
Si Si1 0.500000 0.320827 0.250000
Si Si2 0.937841 0.041719 0.404715
Si Si3 0.877756 0.092396 0.597390
Si Si4 0.300929 0.395120 0.782942
Si Si5 0.971726 0.172146 0.062518
Si Si6 0.733408 0.542190 0.578832
Si Si7 0.284809 0.785453 0.252884
Si Si8 0.797059 0.078907 0.787469
O O1 0.427137 0.381945 0.325028
O O2 0.790110 0.258050 0.135239
O O3 0.108930 0.122021 0.354957
O O4 0.577491 0.066428 0.544553
O O5 0.949336 0.977057 0.444359
O O6 0.100915 0.994992 0.291676
O O7 0.500000 0.070099 0.750000
O O8 0.061339 0.114313 0.470781
O O9 0.865139 0.174581 0.635662
O O10 0.500000 0.380505 0.750000
O O11 0.480294 0.469211 0.679701
O O12 0.279238 0.312233 0.761212
O O13 0.945238 0.423960 0.946076
O O14 0.346014 0.189470 0.903918
O O15 0.000000 0.500000 0.500000
O O16 0.147001 0.835263 0.265480
O O17 0.000000 0.076585 0.750000
#
# Coordination Sequence:
#
# PCOD9226434 Si02
#       8
#     2   4   4   4   4   4   4   4
#     4  12  20  26  42  68 104 140 168 188 232 272
#     4  10  21  33  52  74  97 134 171 200 254 296
#     4   9  17  31  47  68 104 138 163 196 239 295
#     4  10  17  29  48  66 101 128 162 189 234 290
#     4  10  20  27  43  72 106 133 164 199 233 287
#     4  10  18  29  43  66  96 139 164 190 225 285
#     4   9  18  32  49  69  94 131 169 201 251 293
#     4  10  21  38  55  71  94 126 174 223 257 289
#
# _framework density 15.890580999999999
#
# number of rings (size 3 to 8) (size 9 to 14) (size 15 to 20)
#    0.000    2.133    2.000    5.200    2.800    0.000 
#    0.000    0.000    0.000    0.000    0.000    0.933 
#    0.000    0.000    0.000    0.000    0.000    0.000 
#
# Total GULP energy -167162.688517 kJ/mol
# GULP energy per Si atom -5572.089617 kJ/mol
# Density = 1.585441 g / cm^3
# Si number density = 15.890581 Si / 1000 Ang^3
#
#
#
# Elastic Constant Matrix: (Units=GPa)
#
#
# Indices 1 2 3 4 5 6 
#
# 1 54.8232 22.0419 4.6155 0.0000 -1.0536 0.0000
# 2 22.0419 86.8347 4.8514 0.0000 0.9017 0.0000
# 3 4.6155 4.8514 28.8651 0.0000 2.1719 0.0000
# 4 0.0000 0.0000 0.0000 24.4854 0.0000 -4.4983
# 5 -1.0536 0.9017 2.1719 0.0000 16.1192 0.0000
# 6 0.0000 0.0000 0.0000 -4.4983 0.0000 9.0400
#
#
#
# Elastic Compliance Matrix: (Units=1/GPa)
#
#
# Indices 1 2 3 4 5 6 
#
# 1 0.020542 -0.005091 -0.002578 0.000000 0.001975 0.000000
# 2 -0.005091 0.012889 -0.001286 0.000000 -0.000881 0.000000
# 3 -0.002578 -0.001286 0.035641 0.000000 -0.004899 0.000000
# 4 0.000000 0.000000 0.000000 0.044950 0.000000 0.022367
# 5 0.001975 -0.000881 -0.004899 0.000000 0.062876 0.000000
# 6 0.000000 0.000000 0.000000 0.022367 0.000000 0.121749
#
#
# Mechanical properties :
#
#
# Convention : Reuss Voigt Hill
#
# Bulk Modulus (GPa) = 19.54528 25.94896 22.74712
# Shear Modulus (GPa) = 14.98753 19.19656 17.09204
#
# Velocity S-wave (km/s) = 3.07444 3.47947 3.28321
# Velocity P-wave (km/s) = 4.99295 5.70153 5.35896
#
# Compressibility (1/GPa) = 0.05116324
#
# Stress axis : x y z
#
# Youngs Moduli (GPa) = 48.68027 77.58323 28.05776
#
# Poissons Ratio (x) = 0.39497 0.07232
# Poissons Ratio (y) = 0.24783 0.03608
# Poissons Ratio (z) = 0.12548 0.09978
#
# Static dielectric constant tensor:
#      x y z
#    x 1.520030 0.000000 0.018700 
#    y 0.000000 1.545710 0.000000 
#    z 0.018700 0.000000 1.574030 
# 
# From -- ./inp_files/21900.got.cif
#   From: 2010.05.17/outbox.cif.g08.bks.cpg/sg13_11_cif.got.tgz:21900.got - 2010.06.03 16:44:36.
