data_PCOD9226839
_publ_section_title
;
Structure prediction by ZEFSAII (Michael W. Deem and Ramdas Pophale) SiO2 
 PCOD9226839
Probable space group: P 2/C
;
_chemical_formula_sum "Si O2"
_cell_formula_units_Z 30
_cell_length_a 10.688988
_cell_length_b 8.404476
_cell_length_c 17.265557
_cell_angle_alpha 90.000000
_cell_angle_beta 50.017965
_cell_angle_gamma 90.000000
_cell_volume 1188.491327
_symmetry_space_group_name_H-M "P 2/C"
_symmetry_group_IT_number 13
_symmetry_cell_setting 'monoclinic'
loop_
_space_group_symop_operation_xyz
x,y,z
-x,y,1/2-z
-x,-y,-z
x,-y,1/2+z
loop_
_atom_site_type_symbol
_atom_site_label
_atom_site_fract_x
_atom_site_fract_y
_atom_site_fract_z
Si Si1 0.450975 0.281006 0.945521
Si Si2 0.047099 0.964928 0.353623
Si Si3 0.657703 0.720695 0.633771
Si Si4 0.105956 0.324092 0.342119
Si Si5 0.417896 0.605188 0.623243
Si Si6 0.000000 0.546681 0.250000
Si Si7 0.322013 0.100641 0.858745
Si Si8 0.224501 0.159023 0.635483
O O1 0.553494 0.422518 0.864122
O O2 0.329917 0.198046 0.934918
O O3 0.583345 0.158084 0.927112
O O4 0.378212 0.368017 0.049317
O O5 0.160685 0.873220 0.370643
O O6 0.150284 0.950553 0.233270
O O7 0.870328 0.893320 0.404261
O O8 0.030184 0.150032 0.379472
O O9 0.500000 0.675045 0.750000
O O10 0.817979 0.634194 0.603866
O O11 0.594058 0.678827 0.574290
O O12 0.677254 0.909712 0.632533
O O13 0.274088 0.308265 0.225687
O O14 0.010221 0.444298 0.324779
O O15 0.847752 0.666055 0.317216
O O16 0.500000 0.138584 0.750000
#
# Coordination Sequence:
#
# PCOD9226839 Si02
#       8
#     4   4   4   4   4   2   4   4
#     4  11  22  36  55  80 121 144 183 220 276 334
#     4   9  19  34  57  81 109 134 186 230 279 309
#     4   8  18  34  54  80 106 131 188 230 272 309
#     4  10  18  36  58  82 107 141 183 235 269 324
#     4  10  22  36  53  81 115 149 177 224 276 330
#     4  10  18  30  56  80 106 144 186 226 270 322
#     4  10  18  33  57  82 104 143 186 237 264 323
#     4  10  20  34  51  86 111 144 179 230 273 328
#
# _framework density 25.242086
#
# number of rings (size 3 to 8) (size 9 to 14) (size 15 to 20)
#    0.000    2.400    2.667    1.600    0.000    4.267 
#    0.000    0.000    2.933    4.000    0.000    0.000 
#    0.000    0.000    0.000    0.000    0.000    0.000 
#
# Total GULP energy -167559.711617 kJ/mol
# GULP energy per Si atom -5585.323721 kJ/mol
# Density = 2.518463 g / cm^3
# Si number density = 25.242086 Si / 1000 Ang^3
#
#
#
# Elastic Constant Matrix: (Units=GPa)
#
#
# Indices 1 2 3 4 5 6 
#
# 1 168.6357 53.5169 35.6342 0.0000 32.7229 0.0000
# 2 53.5169 59.7691 7.6806 0.0000 7.6715 0.0000
# 3 35.6342 7.6806 50.7305 0.0000 9.4803 0.0000
# 4 0.0000 0.0000 0.0000 21.4538 0.0000 8.1410
# 5 32.7229 7.6715 9.4803 0.0000 41.9810 0.0000
# 6 0.0000 0.0000 0.0000 8.1410 0.0000 34.6355
#
#
#
# Elastic Compliance Matrix: (Units=1/GPa)
#
#
# Indices 1 2 3 4 5 6 
#
# 1 0.010753 -0.008223 -0.005244 0.000000 -0.005694 0.000000
# 2 -0.008223 0.023638 0.001886 0.000000 0.001664 0.000000
# 3 -0.005244 0.001886 0.023398 0.000000 -0.001541 0.000000
# 4 0.000000 0.000000 0.000000 0.051176 0.000000 -0.012029
# 5 -0.005694 0.001664 -0.001541 0.000000 0.028303 0.000000
# 6 0.000000 0.000000 0.000000 -0.012029 0.000000 0.031699
#
#
# Mechanical properties :
#
#
# Convention : Reuss Voigt Hill
#
# Bulk Modulus (GPa) = 28.87896 52.53320 40.70608
# Shear Modulus (GPa) = 24.54946 31.76762 28.15854
#
# Velocity S-wave (km/s) = 3.12197 3.55141 3.34359
# Velocity P-wave (km/s) = 4.94583 6.13788 5.57382
#
# Compressibility (1/GPa) = 0.03462729
#
# Stress axis : x y z
#
# Youngs Moduli (GPa) = 93.00089 42.30482 42.73920
#
# Poissons Ratio (x) = 0.34788 0.22411
# Poissons Ratio (y) = 0.76475 -0.08062
# Poissons Ratio (z) = 0.48767 -0.07980
#
# Static dielectric constant tensor:
#      x y z
#    x 2.067770 0.000000 0.032440 
#    y 0.000000 1.964730 0.000000 
#    z 0.032440 0.000000 2.070390 
# 
# From -- ./inp_files/66006.got.cif
#   From: 2010.05.17/outbox.cif.g08.bks.cpg/sg13_34_cif.got.tgz:66006.got - 2010.06.03 16:44:36.
