data_PCOD9226449
_publ_section_title
;
Structure prediction by ZEFSAII (Michael W. Deem and Ramdas Pophale) SiO2 
 PCOD9226449
Probable space group: P 2/C
;
_chemical_formula_sum "Si O2"
_cell_formula_units_Z 32
_cell_length_a 11.744525
_cell_length_b 8.345258
_cell_length_c 19.760584
_cell_angle_alpha 90.000000
_cell_angle_beta 121.035722
_cell_angle_gamma 90.000000
_cell_volume 1659.502024
_symmetry_space_group_name_H-M "P 2/C"
_symmetry_group_IT_number 13
_symmetry_cell_setting 'monoclinic'
loop_
_space_group_symop_operation_xyz
x,y,z
-x,y,1/2-z
-x,-y,-z
x,-y,1/2+z
loop_
_atom_site_type_symbol
_atom_site_label
_atom_site_fract_x
_atom_site_fract_y
_atom_site_fract_z
Si Si1 0.542394 0.966486 0.687194
Si Si2 0.139232 0.535198 0.330626
Si Si3 0.567247 0.524149 0.404631
Si Si4 0.699043 0.358429 0.222515
Si Si5 0.075815 0.339313 0.954952
Si Si6 0.329959 0.177801 0.022135
Si Si7 0.808183 0.537901 0.386056
Si Si8 0.617199 0.222595 0.604609
O O1 0.500000 0.002804 0.750000
O O2 0.648581 0.821081 0.718943
O O3 0.411873 0.909027 0.605386
O O4 0.601501 0.115704 0.665537
O O5 0.211906 0.383631 0.317627
O O6 0.109969 0.542954 0.401818
O O7 0.247410 0.674818 0.350949
O O8 0.000000 0.561924 0.250000
O O9 0.436761 0.459265 0.326960
O O10 0.627791 0.366885 0.459160
O O11 0.674510 0.588527 0.383994
O O12 0.510196 0.659160 0.436475
O O13 0.774252 0.438260 0.308596
O O14 0.916805 0.324994 0.905373
O O15 0.170344 0.184558 0.977143
O O16 0.121076 0.418002 0.039206
O O17 0.374026 0.122603 0.961673
#
# Coordination Sequence:
#
# PCOD9226449 Si02
#       8
#     4   4   4   4   4   4   4   4
#     4  11  22  36  52  82 116 150 184 224 276 335
#     4  10  19  36  55  80 106 138 185 237 279 327
#     4   9  18  31  54  86 106 136 184 241 275 320
#     4  10  19  33  56  77 107 143 185 228 279 323
#     4   9  18  30  51  82 105 139 174 228 280 322
#     4   9  18  36  57  78 110 146 185 230 278 327
#     4  10  17  29  51  81 110 135 178 225 280 324
#     4  10  21  34  56  82 109 146 184 226 285 328
#
# _framework density 19.282892
#
# number of rings (size 3 to 8) (size 9 to 14) (size 15 to 20)
#    0.000    2.250    1.250    3.375    0.000    5.000 
#    0.000    0.625    0.000    0.750    6.500    0.000 
#    0.000    0.000    0.000    0.000    0.000    0.000 
#
# Total GULP energy -178331.763342 kJ/mol
# GULP energy per Si atom -5572.867604 kJ/mol
# Density = 1.923900 g / cm^3
# Si number density = 19.282892 Si / 1000 Ang^3
#
#
#
# Elastic Constant Matrix: (Units=GPa)
#
#
# Indices 1 2 3 4 5 6 
#
# 1 107.7024 18.6605 10.1849 0.0000 0.7184 0.0000
# 2 18.6605 16.1717 3.6355 0.0000 -1.1188 0.0000
# 3 10.1849 3.6355 72.7300 0.0000 -8.9846 0.0000
# 4 0.0000 0.0000 0.0000 9.4581 0.0000 -3.6552
# 5 0.7184 -1.1188 -8.9846 0.0000 36.1923 0.0000
# 6 0.0000 0.0000 0.0000 -3.6552 0.0000 16.7596
#
#
#
# Elastic Compliance Matrix: (Units=1/GPa)
#
#
# Indices 1 2 3 4 5 6 
#
# 1 0.011702 -0.013322 -0.001086 0.000000 -0.000914 0.000000
# 2 -0.013322 0.077756 -0.001745 0.000000 0.002235 0.000000
# 3 -0.001086 -0.001745 0.014427 0.000000 0.003549 0.000000
# 4 0.000000 0.000000 0.000000 0.115462 0.000000 0.025182
# 5 -0.000914 0.002235 0.003549 0.000000 0.028598 0.000000
# 6 0.000000 0.000000 0.000000 0.025182 0.000000 0.065160
#
#
# Mechanical properties :
#
#
# Convention : Reuss Voigt Hill
#
# Bulk Modulus (GPa) = 13.97052 29.06289 21.51670
# Shear Modulus (GPa) = 13.54025 23.42352 18.48189
#
# Velocity S-wave (km/s) = 2.65276 3.48908 3.09926
# Velocity P-wave (km/s) = 4.07966 5.59787 4.89795
#
# Compressibility (1/GPa) = 0.07157932
#
# Stress axis : x y z
#
# Youngs Moduli (GPa) = 85.45743 12.86082 69.31360
#
# Poissons Ratio (x) = 0.17133 0.07525
# Poissons Ratio (y) = 1.13845 0.12096
# Poissons Ratio (z) = 0.09277 0.02244
#
# Static dielectric constant tensor:
#      x y z
#    x 1.728820 0.000000 0.006210 
#    y 0.000000 1.681380 0.000000 
#    z 0.006210 0.000000 1.691310 
# 
# From -- ./inp_files/78075.got.cif
#   From: 2010.05.17/outbox.cif.g08.bks.cpg/sg13_40_cif.got.tgz:78075.got - 2010.06.03 16:44:36.
