data_PCOD9226574
_publ_section_title
;
Structure prediction by ZEFSAII (Michael W. Deem and Ramdas Pophale) SiO2 
 PCOD9226574
Probable space group: P 2/C
;
_chemical_formula_sum "Si O2"
_cell_formula_units_Z 28
_cell_length_a 11.950017
_cell_length_b 6.169568
_cell_length_c 16.969716
_cell_angle_alpha 90.000000
_cell_angle_beta 94.390206
_cell_angle_gamma 90.000000
_cell_volume 1247.445829
_symmetry_space_group_name_H-M "P 2/C"
_symmetry_group_IT_number 13
_symmetry_cell_setting 'monoclinic'
loop_
_space_group_symop_operation_xyz
x,y,z
-x,y,1/2-z
-x,-y,-z
x,-y,1/2+z
loop_
_atom_site_type_symbol
_atom_site_label
_atom_site_fract_x
_atom_site_fract_y
_atom_site_fract_z
Si Si1 0.481535 0.180898 0.066295
Si Si2 0.035706 0.122136 0.858693
Si Si3 0.668281 0.881560 0.350980
Si Si4 0.827368 0.656963 0.266889
Si Si5 0.138631 0.777213 0.671644
Si Si6 0.328686 0.420605 0.494344
Si Si7 0.887588 0.368173 0.501839
O O1 0.392822 0.364924 0.032131
O O2 0.437008 0.040675 0.138137
O O3 0.597432 0.314470 0.071071
O O4 0.500000 0.000000 0.000000
O O5 0.132179 0.202721 0.805038
O O6 0.082843 0.152740 0.948288
O O7 0.927502 0.278044 0.835516
O O8 0.982899 0.889893 0.838090
O O9 0.699035 0.696191 0.288557
O O10 0.684053 0.754750 0.435149
O O11 0.766310 0.041133 0.326605
O O12 0.844779 0.400454 0.260924
O O13 0.156329 0.670505 0.587429
O O14 0.207797 0.496534 0.459492
O O15 0.000000 0.500000 0.500000
#
# Coordination Sequence:
#
# PCOD9226574 Si02
#       7
#     4   4   4   4   4   4   4
#     4   9  18  32  55  83 114 145 190 243 287 339
#     4  10  23  34  52  81 114 159 196 232 290 350
#     4  10  17  33  56  83 108 149 196 238 287 339
#     4  10  20  36  51  77 115 154 204 230 277 353
#     4  11  20  37  58  79 119 157 192 236 289 348
#     4  10  19  33  54  88 117 144 191 244 289 337
#     4  12  20  37  56  86 124 153 188 244 297 353
#
# _framework density 22.445865000000001
#
# number of rings (size 3 to 8) (size 9 to 14) (size 15 to 20)
#    0.000    1.714    4.286    1.286    0.000    4.571 
#    0.000    0.000    0.000    0.000    0.000   24.000 
#    0.000    0.000    0.000    0.000    0.000    0.000 
#
# Total GULP energy -155896.567895 kJ/mol
# GULP energy per Si atom -5567.734568 kJ/mol
# Density = 2.239478 g / cm^3
# Si number density = 22.445865 Si / 1000 Ang^3
#
#
#
# Elastic Constant Matrix: (Units=GPa)
#
#
# Indices 1 2 3 4 5 6 
#
# 1 114.1594 42.5789 20.6779 0.0000 -40.1447 0.0000
# 2 42.5789 98.0956 8.2000 0.0000 -24.8744 0.0000
# 3 20.6779 8.2000 36.0206 0.0000 -28.8984 0.0000
# 4 0.0000 0.0000 0.0000 9.5958 0.0000 -17.2435
# 5 -40.1447 -24.8744 -28.8984 0.0000 32.7974 0.0000
# 6 0.0000 0.0000 0.0000 -17.2435 0.0000 38.0000
#
#
#
# Elastic Compliance Matrix: (Units=1/GPa)
#
#
# Indices 1 2 3 4 5 6 
#
# 1 0.022841 0.002589 0.035154 0.000000 0.060896 0.000000
# 2 0.002589 0.016578 0.025142 0.000000 0.037895 0.000000
# 3 0.035154 0.025142 0.176311 0.000000 0.217449 0.000000
# 4 0.000000 0.000000 0.000000 0.564644 0.000000 0.256223
# 5 0.060896 0.037895 0.217449 0.000000 0.325367 0.000000
# 6 0.000000 0.000000 0.000000 0.256223 0.000000 0.142584
#
#
# Mechanical properties :
#
#
# Convention : Reuss Voigt Hill
#
# Bulk Modulus (GPa) = 2.92826 43.46546 23.19686
# Shear Modulus (GPa) = 4.04403 27.86655 15.95529
#
# Velocity S-wave (km/s) = 1.34372 3.52732 2.66904
# Velocity P-wave (km/s) = 1.92740 5.99966 4.45594
#
# Compressibility (1/GPa) = 0.34150018
#
# Stress axis : x y z
#
# Youngs Moduli (GPa) = 43.78099 60.32082 5.67178
#
# Poissons Ratio (x) = -0.15616 -0.19938
# Poissons Ratio (y) = -0.11334 -0.14260
# Poissons Ratio (z) = -1.53907 -1.51661
#
# Static dielectric constant tensor:
#      x y z
#    x 1.860840 0.000000 -0.056460 
#    y 0.000000 2.103080 0.000000 
#    z -0.056460 0.000000 1.806570 
# 
# From -- ./inp_files/77234.got.cif
#   From: 2010.05.17/outbox.cif.g08.bks.cpg/sg13_39_cif.got.tgz:77234.got - 2010.06.03 16:44:36.
