data_PCOD9226151
_publ_section_title
;
Structure prediction by ZEFSAII (Michael W. Deem and Ramdas Pophale) SiO2 
 PCOD9226151
Probable space group: P 2/C
;
_chemical_formula_sum "Si O2"
_cell_formula_units_Z 28
_cell_length_a 32.267087
_cell_length_b 8.476295
_cell_length_c 32.043232
_cell_angle_alpha 90.000000
_cell_angle_beta 8.970797
_cell_angle_gamma 90.000000
_cell_volume 1366.578830
_symmetry_space_group_name_H-M "P 2/C"
_symmetry_group_IT_number 13
_symmetry_cell_setting 'monoclinic'
loop_
_space_group_symop_operation_xyz
x,y,z
-x,y,1/2-z
-x,-y,-z
x,-y,1/2+z
loop_
_atom_site_type_symbol
_atom_site_label
_atom_site_fract_x
_atom_site_fract_y
_atom_site_fract_z
Si Si1 0.856334 0.849878 0.729507
Si Si2 0.951753 0.654820 0.345150
Si Si3 0.772433 0.694467 0.004664
Si Si4 0.400526 0.134435 0.739466
Si Si5 0.624734 0.195253 0.934876
Si Si6 0.913303 0.183862 0.081769
Si Si7 0.539530 0.773344 0.612468
O O1 0.894310 0.757844 0.648285
O O2 0.140900 0.877531 0.468078
O O3 0.640716 0.779010 0.976050
O O4 0.724869 0.019055 0.847961
O O5 0.909953 0.468170 0.381916
O O6 0.696757 0.714478 0.623495
O O7 0.000000 0.716558 0.250000
O O8 0.196719 0.708008 0.129177
O O9 0.500000 0.664720 0.250000
O O10 0.690994 0.786088 0.126990
O O11 0.000000 0.777245 0.750000
O O12 0.512986 0.962402 0.639036
O O13 0.368993 0.187003 0.159964
O O14 0.544384 0.273776 0.058709
O O15 0.867181 0.263542 0.666377
O O16 0.000000 0.000000 0.000000
#
# Coordination Sequence:
#
# PCOD9226151 Si02
#       7
#     4   4   4   4   4   4   4
#     4  10  18  31  50  80 116 150 183 229 283 341
#     4  11  23  40  59  80 109 149 194 235 280 347
#     4  11  24  43  62  84 113 154 201 242 286 356
#     4  11  22  36  56  86 118 145 184 241 295 340
#     4  10  18  29  47  78 114 147 182 228 280 337
#     4  10  16  27  47  74 112 153 182 219 277 339
#     4  11  21  36  57  86 116 144 184 240 292 336
#
# _framework density 20.489121999999998
#
# number of rings (size 3 to 8) (size 9 to 14) (size 15 to 20)
#    0.000    1.429    0.000   11.571    0.000    1.714 
#    0.000    0.000    0.000    0.000    0.000   20.000 
#    0.000    0.000    0.000    0.000    0.000    0.000 
#
# Total GULP energy -156309.131873 kJ/mol
# GULP energy per Si atom -5582.468995 kJ/mol
# Density = 2.044249 g / cm^3
# Si number density = 20.489122 Si / 1000 Ang^3
#
#
#
# Elastic Constant Matrix: (Units=GPa)
#
#
# Indices 1 2 3 4 5 6 
#
# 1 149.6547 41.0055 68.5206 0.0000 14.7232 0.0000
# 2 41.0055 23.8799 25.0938 0.0000 2.1595 0.0000
# 3 68.5206 25.0938 167.9211 0.0000 6.4370 0.0000
# 4 0.0000 0.0000 0.0000 -163.3004 0.0000 -237.1960
# 5 14.7232 2.1595 6.4370 0.0000 76.5080 0.0000
# 6 0.0000 0.0000 0.0000 -237.1960 0.0000 -317.4131
#
#
#
# Elastic Compliance Matrix: (Units=1/GPa)
#
#
# Indices 1 2 3 4 5 6 
#
# 1 0.013644 -0.020744 -0.002397 0.000000 -0.001839 0.000000
# 2 -0.020744 0.081262 -0.003756 0.000000 0.002014 0.000000
# 3 -0.002397 -0.003756 0.007497 0.000000 -0.000063 0.000000
# 4 0.000000 0.000000 0.000000 0.071679 0.000000 -0.053564
# 5 -0.001839 0.002014 -0.000063 0.000000 0.013373 0.000000
# 6 0.000000 0.000000 0.000000 -0.053564 0.000000 0.036877
#
#
# Mechanical properties :
#
#
# Convention : Reuss Voigt Hill
#
# Bulk Modulus (GPa) = 20.57247 67.85506 44.21376
# Shear Modulus (GPa) = 16.98768 -67.05205 -25.03218
#
# Velocity S-wave (km/s) = 2.88255 -5.72684 -3.49912
# Velocity P-wave (km/s) = 4.59796 3.24645 2.30236
#
# Compressibility (1/GPa) = 0.04860866
#
# Stress axis : x y z
#
# Youngs Moduli (GPa) = 73.28974 12.30580 133.38503
#
# Poissons Ratio (x) = 0.25528 0.31975
# Poissons Ratio (y) = 1.52035 0.50101
# Poissons Ratio (z) = 0.17569 0.04622
#
# Static dielectric constant tensor:
#      x y z
#    x 1.559780 0.000000 -0.046970 
#    y 0.000000 1.747510 0.000000 
#    z -0.046970 0.000000 1.678910 
# 
# From -- ./inp_files/98038.got.cif
#   From: 2010.05.17/outbox.cif.g08.bks.cpg/sg13_50_cif.got.tgz:98038.got - 2010.06.03 16:44:36.
