data_PCOD9226691
_publ_section_title
;
Structure prediction by ZEFSAII (Michael W. Deem and Ramdas Pophale) SiO2 
 PCOD9226691
Probable space group: P 2/C
;
_chemical_formula_sum "Si O2"
_cell_formula_units_Z 24
_cell_length_a 15.208668
_cell_length_b 7.297758
_cell_length_c 10.285474
_cell_angle_alpha 90.000000
_cell_angle_beta 111.054759
_cell_angle_gamma 90.000000
_cell_volume 1065.361821
_symmetry_space_group_name_H-M "P 2/C"
_symmetry_group_IT_number 13
_symmetry_cell_setting 'monoclinic'
loop_
_space_group_symop_operation_xyz
x,y,z
-x,y,1/2-z
-x,-y,-z
x,-y,1/2+z
loop_
_atom_site_type_symbol
_atom_site_label
_atom_site_fract_x
_atom_site_fract_y
_atom_site_fract_z
Si Si1 0.515391 0.169214 0.412171
Si Si2 0.994543 0.672772 0.595540
Si Si3 0.788722 0.725052 0.425402
Si Si4 0.810614 0.278520 0.403619
Si Si5 0.676410 0.312224 0.112388
Si Si6 0.724052 0.264900 0.612239
O O1 0.500000 0.136116 0.250000
O O2 0.434277 0.309758 0.417429
O O3 0.621831 0.223353 0.499603
O O4 0.500000 0.000000 0.500000
O O5 0.895813 0.774923 0.519641
O O6 0.000000 0.615489 0.750000
O O7 0.000000 0.500000 0.500000
O O8 0.091237 0.773056 0.610321
O O9 0.798019 0.501265 0.414747
O O10 0.712960 0.772753 0.496799
O O11 0.752591 0.801938 0.269563
O O12 0.727253 0.222068 0.262657
O O13 0.798452 0.207103 0.542608
O O14 0.717987 0.515725 0.125410
#
# Coordination Sequence:
#
# PCOD9226691 Si02
#       6
#     4   4   4   4   4   4
#     4  12  27  43  59  83 114 150 193 240 293 346
#     4  10  18  27  45  79 122 155 183 225 281 338
#     4   9  19  29  53  84 116 146 187 229 280 338
#     4   9  17  31  52  80 117 152 186 227 282 331
#     4  10  19  38  60  83 113 152 191 234 283 335
#     4  10  21  38  59  85 113 151 193 238 282 338
#
# _framework density 22.527557999999999
#
# number of rings (size 3 to 8) (size 9 to 14) (size 15 to 20)
#    0.000    2.000    3.333    0.500    9.333    0.000 
#    0.000    0.000    0.000    0.000    0.000    7.000 
#    0.000    0.000    0.000    0.000    0.000    0.000 
#
# Total GULP energy -133891.324159 kJ/mol
# GULP energy per Si atom -5578.805173 kJ/mol
# Density = 2.247628 g / cm^3
# Si number density = 22.527558 Si / 1000 Ang^3
#
#
#
# Elastic Constant Matrix: (Units=GPa)
#
#
# Indices 1 2 3 4 5 6 
#
# 1 135.9406 -8.6171 78.0890 0.0000 -15.7936 0.0000
# 2 -8.6171 39.1819 15.2219 0.0000 -8.9811 0.0000
# 3 78.0890 15.2219 201.4422 0.0000 -18.7089 0.0000
# 4 0.0000 0.0000 0.0000 -0.3323 0.0000 -9.0389
# 5 -15.7936 -8.9811 -18.7089 0.0000 47.7029 0.0000
# 6 0.0000 0.0000 0.0000 -9.0389 0.0000 -3.9768
#
#
#
# Elastic Compliance Matrix: (Units=1/GPa)
#
#
# Indices 1 2 3 4 5 6 
#
# 1 0.010289 0.004454 -0.004080 0.000000 0.002645 0.000000
# 2 0.004454 0.029112 -0.003404 0.000000 0.005621 0.000000
# 3 -0.004080 -0.003404 0.006868 0.000000 0.000702 0.000000
# 4 0.000000 0.000000 0.000000 0.049476 0.000000 -0.112452
# 5 0.002645 0.005621 0.000702 0.000000 0.023172 0.000000
# 6 0.000000 0.000000 0.000000 -0.112452 0.000000 0.004134
#
#
# Mechanical properties :
#
#
# Convention : Reuss Voigt Hill
#
# Bulk Modulus (GPa) = 24.86949 60.66137 42.76543
# Shear Modulus (GPa) = 35.08398 28.13681 31.61040
#
# Velocity S-wave (km/s) = 3.95065 3.53795 3.74998
# Velocity P-wave (km/s) = 5.64568 6.60874 6.14610
#
# Compressibility (1/GPa) = 0.04020991
#
# Stress axis : x y z
#
# Youngs Moduli (GPa) = 97.18900 34.34951 145.60094
#
# Poissons Ratio (x) = -0.15299 0.59398
# Poissons Ratio (y) = -0.43289 0.49570
# Poissons Ratio (z) = 0.39648 0.11694
#
# Static dielectric constant tensor:
#      x y z
#    x 1.721630 0.000000 -0.039590 
#    y 0.000000 1.853470 0.000000 
#    z -0.039590 0.000000 1.781480 
# 
# From -- ./inp_files/18177.got.cif
#   From: 2010.05.17/outbox.cif.g08.bks.cpg/sg13_10_cif.got.tgz:18177.got - 2010.06.03 16:44:36.
