data_PCOD9226681
_publ_section_title
;
Structure prediction by ZEFSAII (Michael W. Deem and Ramdas Pophale) SiO2 
 PCOD9226681
Probable space group: P 2/C
;
_chemical_formula_sum "Si O2"
_cell_formula_units_Z 24
_cell_length_a 24.316577
_cell_length_b 9.553271
_cell_length_c 5.573715
_cell_angle_alpha 90.000000
_cell_angle_beta 117.285835
_cell_angle_gamma 90.000000
_cell_volume 1150.719380
_symmetry_space_group_name_H-M "P 2/C"
_symmetry_group_IT_number 13
_symmetry_cell_setting 'monoclinic'
loop_
_space_group_symop_operation_xyz
x,y,z
-x,y,1/2-z
-x,-y,-z
x,-y,1/2+z
loop_
_atom_site_type_symbol
_atom_site_label
_atom_site_fract_x
_atom_site_fract_y
_atom_site_fract_z
Si Si1 0.299263 0.219614 0.848529
Si Si2 0.260645 0.758148 0.771293
Si Si3 0.073969 0.659231 0.897939
Si Si4 0.876828 0.339052 0.503655
Si Si5 0.432159 0.912618 0.614317
Si Si6 0.643494 0.511537 0.536985
O O1 0.267125 0.167946 0.541106
O O2 0.303072 0.390350 0.856147
O O3 0.267126 0.167945 0.027403
O O4 0.371214 0.180000 0.992429
O O5 0.196851 0.673744 0.643703
O O6 0.320721 0.657725 0.891444
O O7 0.097439 0.723753 0.694236
O O8 0.000000 0.651621 0.750000
O O9 0.100902 0.500582 0.951806
O O10 0.097439 0.723753 0.195524
O O11 0.500000 0.842313 0.750000
O O12 0.429353 0.999999 0.358703
O O13 0.608273 0.500000 0.216543
#
# Coordination Sequence:
#
# PCOD9226681 Si02
#       6
#     4   4   4   4   4   4
#     4  10  19  31  48  71  99 117 154 204 244 277
#     4  10  19  28  45  71  98 130 161 199 232 280
#     4  10  19  27  37  55  86 129 182 216 229 252
#     4  10  18  25  41  55  85 124 173 210 223 274
#     4  10  21  38  59  77  93 121 161 198 240 300
#     4   8  16  25  41  61  96 119 151 181 228 263
#
# _framework density 20.856518000000001
#
# number of rings (size 3 to 8) (size 9 to 14) (size 15 to 20)
#    0.000    2.333    0.000    4.500   14.000    0.000 
#    0.000    0.000    0.000    9.000    0.000    0.000 
#    0.000    0.000    0.000    0.000    0.000  343.333 
#
# Total GULP energy -133640.093697 kJ/mol
# GULP energy per Si atom -5568.337237 kJ/mol
# Density = 2.080905 g / cm^3
# Si number density = 20.856518 Si / 1000 Ang^3
#
#
#
# Elastic Constant Matrix: (Units=GPa)
#
#
# Indices 1 2 3 4 5 6 
#
# 1 111.5131 0.9027 69.2769 0.0000 -21.0040 0.0000
# 2 0.9027 21.8535 4.2772 0.0000 -3.4816 0.0000
# 3 69.2769 4.2772 184.1956 0.0000 -53.9893 0.0000
# 4 0.0000 0.0000 0.0000 7.8731 0.0000 10.9888
# 5 -21.0040 -3.4816 -53.9893 0.0000 65.3297 0.0000
# 6 0.0000 0.0000 0.0000 10.9888 0.0000 18.5237
#
#
#
# Elastic Compliance Matrix: (Units=1/GPa)
#
#
# Indices 1 2 3 4 5 6 
#
# 1 0.011706 0.000399 -0.004358 0.000000 0.000183 0.000000
# 2 0.000399 0.046195 -0.000612 0.000000 0.002085 0.000000
# 3 -0.004358 -0.000612 0.008792 0.000000 0.005832 0.000000
# 4 0.000000 0.000000 0.000000 0.738420 0.000000 -0.438051
# 5 0.000183 0.002085 0.005832 0.000000 0.020296 0.000000
# 6 0.000000 0.000000 0.000000 -0.438051 0.000000 0.313848
#
#
# Mechanical properties :
#
#
# Convention : Reuss Voigt Hill
#
# Bulk Modulus (GPa) = 17.37622 51.83064 34.60343
# Shear Modulus (GPa) = 4.28235 34.55232 19.41734
#
# Velocity S-wave (km/s) = 1.43447 4.07463 3.05453
# Velocity P-wave (km/s) = 3.33062 6.85871 5.39142
#
# Compressibility (1/GPa) = 0.05754993
#
# Stress axis : x y z
#
# Youngs Moduli (GPa) = 85.42272 21.64760 113.74232
#
# Poissons Ratio (x) = -0.00863 0.49574
# Poissons Ratio (y) = -0.03406 0.06957
# Poissons Ratio (z) = 0.37231 0.01324
#
# Static dielectric constant tensor:
#      x y z
#    x 1.761740 0.000000 -0.134850 
#    y 0.000000 1.755490 0.000000 
#    z -0.134850 0.000000 1.892440 
# 
# From -- ./inp_files/6021.got.cif
#   From: 2010.05.17/outbox.cif.g08.bks.cpg/sg13_4_cif.got.tgz:6021.got - 2010.06.03 16:44:36.
