data_PCOD9226850
_publ_section_title
;
Structure prediction by ZEFSAII (Michael W. Deem and Ramdas Pophale) SiO2 
 PCOD9226850
Probable space group: P 2/C
;
_chemical_formula_sum "Si O2"
_cell_formula_units_Z 26
_cell_length_a 22.464137
_cell_length_b 5.444405
_cell_length_c 22.084750
_cell_angle_alpha 90.000000
_cell_angle_beta 29.686240
_cell_angle_gamma 90.000000
_cell_volume 1337.695220
_symmetry_space_group_name_H-M "P 2/C"
_symmetry_group_IT_number 13
_symmetry_cell_setting 'monoclinic'
loop_
_space_group_symop_operation_xyz
x,y,z
-x,y,1/2-z
-x,-y,-z
x,-y,1/2+z
loop_
_atom_site_type_symbol
_atom_site_label
_atom_site_fract_x
_atom_site_fract_y
_atom_site_fract_z
Si Si1 0.366276 0.407703 0.050235
Si Si2 0.929118 0.419188 0.191601
Si Si3 0.060127 0.922259 0.384493
Si Si4 0.675928 0.091727 0.886287
Si Si5 0.612596 0.410140 0.606523
Si Si6 0.744241 0.089253 0.970685
Si Si7 0.000000 0.316163 0.750000
O O1 0.217776 0.412160 0.175525
O O2 0.395376 0.156802 0.057023
O O3 0.391650 0.655832 0.062417
O O4 0.421737 0.409436 0.934351
O O5 0.968800 0.147534 0.136057
O O6 0.978384 0.507430 0.212080
O O7 0.967886 0.645080 0.113084
O O8 0.205050 0.920713 0.259287
O O9 0.000000 0.000000 0.500000
O O10 0.717230 0.092229 0.921734
O O11 0.500000 0.384811 0.750000
O O12 0.676057 0.674334 0.558966
O O13 0.698907 0.171661 0.535896
O O14 0.883457 0.144458 0.857623
#
# Coordination Sequence:
#
# PCOD9226850 Si02
#       7
#     4   4   4   4   4   4   2
#     4   8  14  27  39  59  84 110 159 179 233 270
#     4  10  20  30  46  70  91 135 163 198 240 284
#     4  10  18  31  44  63  93 128 169 201 244 283
#     4   8  14  27  39  59  84 112 158 178 235 268
#     4  10  18  31  44  63  92 128 169 200 244 284
#     4  10  20  30  46  69  92 134 162 200 239 283
#     4  12  20  34  52  70 112 126 188 188 224 330
#
# _framework density 19.436415
#
# number of rings (size 3 to 8) (size 9 to 14) (size 15 to 20)
#    0.000    2.462    4.615    0.923    0.000    2.462 
#    0.000    0.000    0.000    0.000    0.000    0.000 
#    0.000    0.000    0.000  249.231    0.000    0.000 
#
# Total GULP energy -144910.451025 kJ/mol
# GULP energy per Si atom -5573.478886 kJ/mol
# Density = 1.939218 g / cm^3
# Si number density = 19.436415 Si / 1000 Ang^3
#
#
#
# Elastic Constant Matrix: (Units=GPa)
#
#
# Indices 1 2 3 4 5 6 
#
# 1 39.4289 17.6078 19.3738 0.0000 -11.3567 0.0000
# 2 17.6078 187.9107 45.5194 0.0000 -3.6305 0.0000
# 3 19.3738 45.5194 117.5603 0.0000 10.4513 0.0000
# 4 0.0000 0.0000 0.0000 28.8282 0.0000 3.3561
# 5 -11.3567 -3.6305 10.4513 0.0000 18.9708 0.0000
# 6 0.0000 0.0000 0.0000 3.3561 0.0000 19.5336
#
#
#
# Elastic Compliance Matrix: (Units=1/GPa)
#
#
# Indices 1 2 3 4 5 6 
#
# 1 0.037550 -0.001021 -0.008174 0.000000 0.026787 0.000000
# 2 -0.001021 0.006015 -0.002323 0.000000 0.001820 0.000000
# 3 -0.008174 -0.002323 0.011805 0.000000 -0.011842 0.000000
# 4 0.000000 0.000000 0.000000 0.035396 0.000000 -0.006082
# 5 0.026787 0.001820 -0.011842 0.000000 0.075620 0.000000
# 6 0.000000 0.000000 0.000000 -0.006082 0.000000 0.052239
#
#
# Mechanical properties :
#
#
# Convention : Reuss Voigt Hill
#
# Bulk Modulus (GPa) = 30.92623 56.65576 43.79099
# Shear Modulus (GPa) = 19.80670 30.95977 25.38324
#
# Velocity S-wave (km/s) = 3.19572 3.99541 3.61773
# Velocity P-wave (km/s) = 5.43718 7.10612 6.32692
#
# Compressibility (1/GPa) = 0.03233501
#
# Stress axis : x y z
#
# Youngs Moduli (GPa) = 26.63118 166.24807 84.70672
#
# Poissons Ratio (x) = 0.16972 0.69242
# Poissons Ratio (y) = 0.02719 0.19674
# Poissons Ratio (z) = 0.21769 0.38612
#
# Static dielectric constant tensor:
#      x y z
#    x 1.662600 0.000000 0.000900 
#    y 0.000000 1.773820 0.000000 
#    z 0.000900 0.000000 1.654240 
# 
# From -- ./inp_files/81880.got.cif
#   From: 2010.05.17/outbox.cif.g08.bks.cpg/sg13_41_cif.got.tgz:81880.got - 2010.06.03 16:44:36.
