data_PCOD9226726
_publ_section_title
;
Structure prediction by ZEFSAII (Michael W. Deem and Ramdas Pophale) SiO2 
 PCOD9226726
Probable space group: P 2/C
;
_chemical_formula_sum "Si O2"
_cell_formula_units_Z 24
_cell_length_a 22.782848
_cell_length_b 10.834437
_cell_length_c 8.507927
_cell_angle_alpha 90.000000
_cell_angle_beta 35.288928
_cell_angle_gamma 90.000000
_cell_volume 1213.222369
_symmetry_space_group_name_H-M "P 2/C"
_symmetry_group_IT_number 13
_symmetry_cell_setting 'monoclinic'
loop_
_space_group_symop_operation_xyz
x,y,z
-x,y,1/2-z
-x,-y,-z
x,-y,1/2+z
loop_
_atom_site_type_symbol
_atom_site_label
_atom_site_fract_x
_atom_site_fract_y
_atom_site_fract_z
Si Si1 0.500000 0.955397 0.250000
Si Si2 0.414614 0.837079 0.139394
Si Si3 0.993707 0.360295 0.951841
Si Si4 0.500000 0.521976 0.250000
Si Si5 0.215463 0.364185 0.491085
Si Si6 0.596517 0.665393 0.748941
Si Si7 0.769580 0.350235 0.421745
O O1 0.421524 0.038766 0.522719
O O2 0.430914 0.874968 0.284836
O O3 0.321455 0.740923 0.326138
O O4 0.521472 0.772327 0.866071
O O5 0.102633 0.311685 0.770034
O O6 0.000000 0.364631 0.750000
O O7 0.000000 0.500000 0.000000
O O8 0.882473 0.305749 0.229637
O O9 0.455017 0.602168 0.486707
O O10 0.412515 0.436563 0.366848
O O11 0.294768 0.294539 0.429034
O O12 0.233743 0.355532 0.262899
O O13 0.232011 0.508232 0.509529
#
# Coordination Sequence:
#
# PCOD9226726 Si02
#       7
#     2   4   4   2   4   4   4
#     4  10  24  40  52  72  94 126 186 242 270 294
#     4  11  22  37  54  72  97 132 174 222 272 305
#     4   8  16  29  45  72 108 143 168 192 229 290
#     4  10  20  28  42  76 114 136 164 194 238 322
#     4  10  18  29  49  80 114 140 167 197 239 320
#     4  11  19  30  47  73 104 137 162 197 254 313
#     4  10  19  32  52  77 109 144 170 201 252 313
#
# _framework density 19.782029999999999
#
# number of rings (size 3 to 8) (size 9 to 14) (size 15 to 20)
#    0.000    2.000    0.000    6.000    0.000    1.333 
#    0.000    0.000    0.000    0.000    0.000   31.500 
#    0.000    0.000    0.000    0.000    0.000    0.000 
#
# Total GULP energy -133795.392317 kJ/mol
# GULP energy per Si atom -5574.808013 kJ/mol
# Density = 1.973700 g / cm^3
# Si number density = 19.782030 Si / 1000 Ang^3
#
#
#
# Elastic Constant Matrix: (Units=GPa)
#
#
# Indices 1 2 3 4 5 6 
#
# 1 118.8226 25.5244 44.3485 0.0000 -31.9966 0.0000
# 2 25.5244 41.9418 18.2625 0.0000 -10.2162 0.0000
# 3 44.3485 18.2625 71.1245 0.0000 -40.2019 0.0000
# 4 0.0000 0.0000 0.0000 21.5325 0.0000 7.8721
# 5 -31.9966 -10.2162 -40.2019 0.0000 49.5568 0.0000
# 6 0.0000 0.0000 0.0000 7.8721 0.0000 11.9384
#
#
#
# Elastic Compliance Matrix: (Units=1/GPa)
#
#
# Indices 1 2 3 4 5 6 
#
# 1 0.011906 -0.004527 -0.004513 0.000000 0.003092 0.000000
# 2 -0.004527 0.028565 -0.005237 0.000000 -0.001282 0.000000
# 3 -0.004513 -0.005237 0.029478 0.000000 0.019920 0.000000
# 4 0.000000 0.000000 0.000000 0.061193 0.000000 -0.040350
# 5 0.003092 -0.001282 0.019920 0.000000 0.038071 0.000000
# 6 0.000000 0.000000 0.000000 -0.040350 0.000000 0.110369
#
#
# Mechanical properties :
#
#
# Convention : Reuss Voigt Hill
#
# Bulk Modulus (GPa) = 24.15743 45.35110 34.75426
# Shear Modulus (GPa) = 15.53113 26.18911 20.86012
#
# Velocity S-wave (km/s) = 2.80503 3.64247 3.25083
# Velocity P-wave (km/s) = 4.76752 6.37693 5.63003
#
# Compressibility (1/GPa) = 0.04139513
#
# Stress axis : x y z
#
# Youngs Moduli (GPa) = 83.99456 35.00742 33.92355
#
# Poissons Ratio (x) = 0.15848 0.15310
# Poissons Ratio (y) = 0.38024 0.17765
# Poissons Ratio (z) = 0.37909 0.18333
#
# Static dielectric constant tensor:
#      x y z
#    x 1.754020 0.000000 -0.021510 
#    y 0.000000 1.699510 0.000000 
#    z -0.021510 0.000000 1.794110 
# 
# From -- ./inp_files/23185.got.cif
#   From: 2010.05.17/outbox.cif.g08.bks.cpg/sg13_12_cif.got.tgz:23185.got - 2010.06.03 16:44:36.
