data_PCOD9226965
_publ_section_title
;
Structure prediction by ZEFSAII (Michael W. Deem and Ramdas Pophale) SiO2 
 PCOD9226965
Probable space group: P 2/C
;
_chemical_formula_sum "Si O2"
_cell_formula_units_Z 32
_cell_length_a 26.930468
_cell_length_b 8.703968
_cell_length_c 28.625509
_cell_angle_alpha 90.000000
_cell_angle_beta 165.103192
_cell_angle_gamma 90.000000
_cell_volume 1724.967552
_symmetry_space_group_name_H-M "P 2/C"
_symmetry_group_IT_number 13
_symmetry_cell_setting 'monoclinic'
loop_
_space_group_symop_operation_xyz
x,y,z
-x,y,1/2-z
-x,-y,-z
x,-y,1/2+z
loop_
_atom_site_type_symbol
_atom_site_label
_atom_site_fract_x
_atom_site_fract_y
_atom_site_fract_z
Si Si1 0.014050 0.706625 0.207939
Si Si2 0.453073 0.136026 0.002996
Si Si3 0.800912 0.592924 0.934273
Si Si4 0.021416 0.377770 0.477865
Si Si5 0.821500 0.939006 0.369238
Si Si6 0.590104 0.352091 0.055299
Si Si7 0.015026 0.095922 0.624417
Si Si8 0.594473 0.433011 0.474492
O O1 0.160213 0.614880 0.475609
O O2 0.019485 0.868498 0.184031
O O3 0.202301 0.608974 0.364126
O O4 0.000000 0.725067 0.250000
O O5 0.371506 0.966726 0.818249
O O6 0.235874 0.071626 0.809586
O O7 0.487968 0.200180 0.982562
O O8 0.446129 0.290673 0.027661
O O9 0.578764 0.578135 0.719519
O O10 0.901359 0.454064 0.999104
O O11 0.916198 0.742242 0.017938
O O12 0.806843 0.324868 0.270650
O O13 0.000000 0.500000 0.500000
O O14 0.165699 0.243954 0.624540
O O15 0.000000 0.000000 0.500000
O O16 0.882797 0.971439 0.479024
O O17 0.500000 0.500000 0.000000
O O18 0.593498 0.411165 0.004732
#
# Coordination Sequence:
#
# PCOD9226965 Si02
#       8
#     4   4   4   4   4   4   4   4
#     4   9  19  36  62  89 109 139 189 247 300 341
#     4  10  18  37  51  79 114 153 197 233 278 345
#     4  10  19  36  57  80 113 147 188 238 283 348
#     4  12  22  36  53  79 116 160 198 232 284 343
#     4  12  23  35  54  79 116 154 192 239 283 340
#     4  10  18  32  52  76 114 156 192 232 279 344
#     4   9  21  38  57  80 115 146 191 245 288 352
#     4  10  18  33  59  81 116 147 188 240 289 350
#
# _framework density 18.551072999999999
#
# number of rings (size 3 to 8) (size 9 to 14) (size 15 to 20)
#    0.750    1.000    3.750    3.000    0.000    2.000 
#    4.500    0.000    0.000    0.750    0.000    3.500 
#    0.000    0.000    0.000    0.000    0.000    0.000 
#
# Total GULP energy -178257.818571 kJ/mol
# GULP energy per Si atom -5570.556830 kJ/mol
# Density = 1.850885 g / cm^3
# Si number density = 18.551073 Si / 1000 Ang^3
#
#
#
# Elastic Constant Matrix: (Units=GPa)
#
#
# Indices 1 2 3 4 5 6 
#
# 1 98.8887 31.1154 45.6493 0.0000 -26.8887 0.0000
# 2 31.1154 61.3146 27.3777 0.0000 -7.9469 0.0000
# 3 45.6493 27.3777 140.8694 0.0000 -16.3001 0.0000
# 4 0.0000 0.0000 0.0000 30.8918 0.0000 -5.2269
# 5 -26.8887 -7.9469 -16.3001 0.0000 21.5297 0.0000
# 6 0.0000 0.0000 0.0000 -5.2269 0.0000 15.1048
#
#
#
# Elastic Compliance Matrix: (Units=1/GPa)
#
#
# Indices 1 2 3 4 5 6 
#
# 1 0.018160 -0.005626 -0.002638 0.000000 0.018606 0.000000
# 2 -0.005626 0.019981 -0.002214 0.000000 -0.001327 0.000000
# 3 -0.002638 -0.002214 0.008667 0.000000 0.002450 0.000000
# 4 0.000000 0.000000 0.000000 0.034384 0.000000 0.011898
# 5 0.018606 -0.001327 0.002450 0.000000 0.071049 0.000000
# 6 0.000000 0.000000 0.000000 0.011898 0.000000 0.070321
#
#
# Mechanical properties :
#
#
# Convention : Reuss Voigt Hill
#
# Bulk Modulus (GPa) = 38.68211 56.59526 47.63869
# Shear Modulus (GPa) = 19.83056 26.63394 23.23225
#
# Velocity S-wave (km/s) = 3.27306 3.79319 3.54268
# Velocity P-wave (km/s) = 5.93134 7.05396 6.51687
#
# Compressibility (1/GPa) = 0.02585175
#
# Stress axis : x y z
#
# Youngs Moduli (GPa) = 55.06738 50.04815 115.37391
#
# Poissons Ratio (x) = 0.28157 0.30441
# Poissons Ratio (y) = 0.30980 0.25540
# Poissons Ratio (z) = 0.14529 0.11079
#
# Static dielectric constant tensor:
#      x y z
#    x 1.640320 0.000000 -0.003390 
#    y 0.000000 1.691010 0.000000 
#    z -0.003390 0.000000 1.730470 
# 
# From -- ./inp_files/88983.got.cif
#   From: 2010.05.17/outbox.cif.g08.bks.cpg/sg13_45_cif.got.tgz:88983.got - 2010.06.03 16:44:36.
