data_PCOD9226427
_publ_section_title
;
Structure prediction by ZEFSAII (Michael W. Deem and Ramdas Pophale) SiO2 
 PCOD9226427
Probable space group: P 2/C
;
_chemical_formula_sum "Si O2"
_cell_formula_units_Z 26
_cell_length_a 11.238073
_cell_length_b 23.901261
_cell_length_c 5.546155
_cell_angle_alpha 90.000000
_cell_angle_beta 60.428173
_cell_angle_gamma 90.000000
_cell_volume 1295.665701
_symmetry_space_group_name_H-M "P 2/C"
_symmetry_group_IT_number 13
_symmetry_cell_setting 'monoclinic'
loop_
_space_group_symop_operation_xyz
x,y,z
-x,y,1/2-z
-x,-y,-z
x,-y,1/2+z
loop_
_atom_site_type_symbol
_atom_site_label
_atom_site_fract_x
_atom_site_fract_y
_atom_site_fract_z
Si Si1 0.666295 0.028916 0.583705
Si Si2 0.292968 0.659197 0.957031
Si Si3 0.238417 0.625120 0.511583
Si Si4 0.000000 0.281718 0.250000
Si Si5 0.343528 0.789679 0.906472
Si Si6 0.000000 0.290229 0.750000
Si Si7 0.000000 0.465565 0.250000
Si Si8 0.333175 0.840163 0.416825
O O1 0.500000 0.025279 0.750000
O O2 0.700959 0.094436 0.549041
O O3 0.712573 0.000000 0.287427
O O4 0.323243 0.629175 0.674570
O O5 0.345577 0.722623 0.904423
O O6 0.323243 0.629175 0.178944
O O7 0.128628 0.668325 0.121372
O O8 0.136043 0.679246 0.613957
O O9 0.135237 0.573170 0.614763
O O10 0.000000 0.254003 0.509302
O O11 0.500000 0.810755 0.750000
O O12 0.283639 0.811315 0.713577
O O13 0.283639 0.811314 0.219145
O O14 0.000000 0.500000 0.500000
O O15 0.500000 0.834687 0.250000
#
# Coordination Sequence:
#
# PCOD9226427 Si02
#       8
#     4   4   4   2   4   2   2   4
#     4   9  15  23  37  55  75 106 146 181 217 266
#     4  10  17  29  45  61  86 118 150 177 209 258
#     4   9  17  28  42  62  86 115 142 168 203 250
#     4   7  12  22  36  53  76 100 128 155 184 231
#     4  10  19  29  42  61  87 120 152 183 218 254
#     4   8  14  23  38  57  74 102 136 164 202 240
#     4  11  20  31  48  72 102 124 140 171 218 273
#     4   9  17  28  39  56  85 116 147 184 225 264
#
# _framework density 20.066901999999999
#
# number of rings (size 3 to 8) (size 9 to 14) (size 15 to 20)
#    0.000    2.769    0.000    3.692    0.000    4.923 
#    0.000    0.000    0.000    0.000    0.000    0.000 
#    0.000   12.308    0.000   13.846    0.000    6.154 
#
# Total GULP energy -144812.294741 kJ/mol
# GULP energy per Si atom -5569.703644 kJ/mol
# Density = 2.002123 g / cm^3
# Si number density = 20.066902 Si / 1000 Ang^3
#
#
#
# Elastic Constant Matrix: (Units=GPa)
#
#
# Indices 1 2 3 4 5 6 
#
# 1 33.5060 26.3765 67.6754 0.0000 24.0962 0.0000
# 2 26.3765 101.7764 70.1687 0.0000 39.9203 0.0000
# 3 67.6754 70.1687 163.4974 0.0000 94.4024 0.0000
# 4 0.0000 0.0000 0.0000 35.7424 0.0000 7.7024
# 5 24.0962 39.9203 94.4024 0.0000 60.2222 0.0000
# 6 0.0000 0.0000 0.0000 7.7024 0.0000 27.2929
#
#
#
# Elastic Compliance Matrix: (Units=1/GPa)
#
#
# Indices 1 2 3 4 5 6 
#
# 1 -0.029396 -0.001735 0.057505 0.000000 -0.077231 0.000000
# 2 -0.001735 0.013864 -0.003439 0.000000 -0.003106 0.000000
# 3 0.057505 -0.003439 -0.044697 0.000000 0.049336 0.000000
# 4 0.000000 0.000000 0.000000 0.029790 0.000000 -0.008407
# 5 -0.077231 -0.003106 0.049336 0.000000 -0.027771 0.000000
# 6 0.000000 0.000000 0.000000 -0.008407 0.000000 0.039012
#
#
# Mechanical properties :
#
#
# Convention : Reuss Voigt Hill
#
# Bulk Modulus (GPa) = 22.50529 69.69121 46.09825
# Shear Modulus (GPa) = -45.85026 33.62211 -6.11407
#
# Velocity S-wave (km/s) = -4.78522 4.09773 -1.74741
# Velocity P-wave (km/s) = 4.39222 7.56263 4.35326
#
# Compressibility (1/GPa) = 0.04443399
#
# Stress axis : x y z
#
# Youngs Moduli (GPa) = -34.01797 72.12899 -22.37286
#
# Poissons Ratio (x) = 0.12517 1.28656
# Poissons Ratio (y) = -0.05903 -0.07693
# Poissons Ratio (z) = 1.95622 0.24802
#
# Static dielectric constant tensor:
#      x y z
#    x 1.762590 0.000000 0.043140 
#    y 0.000000 1.664050 0.000000 
#    z 0.043140 0.000000 1.809910 
# 
# From -- ./inp_files/5538.got.cif
#   From: 2010.05.17/outbox.cif.g08.bks.cpg/sg13_3_cif.got.tgz:5538.got - 2010.06.03 16:44:36.
