data_PCOD9226684
_publ_section_title
;
Structure prediction by ZEFSAII (Michael W. Deem and Ramdas Pophale) SiO2 
 PCOD9226684
Probable space group: P 2/C
;
_chemical_formula_sum "Si O2"
_cell_formula_units_Z 18
_cell_length_a 7.233780
_cell_length_b 24.103599
_cell_length_c 5.215535
_cell_angle_alpha 90.000000
_cell_angle_beta 99.330667
_cell_angle_gamma 90.000000
_cell_volume 897.349419
_symmetry_space_group_name_H-M "P 2/C"
_symmetry_group_IT_number 13
_symmetry_cell_setting 'monoclinic'
loop_
_space_group_symop_operation_xyz
x,y,z
-x,y,1/2-z
-x,-y,-z
x,-y,1/2+z
loop_
_atom_site_type_symbol
_atom_site_label
_atom_site_fract_x
_atom_site_fract_y
_atom_site_fract_z
Si Si1 0.211958 0.476959 0.995734
Si Si2 0.724140 0.205526 0.304942
Si Si3 0.276035 0.136499 0.697683
Si Si4 0.000000 0.303473 0.250000
Si Si5 0.000000 0.038403 0.750000
Si Si6 0.000000 0.376266 0.750000
O O1 0.298718 0.484380 0.295388
O O2 0.173131 0.416012 0.875842
O O3 0.000000 0.500000 0.000000
O O4 0.500000 0.212747 0.250000
O O5 0.774365 0.180576 0.592427
O O6 0.828776 0.262663 0.276936
O O7 0.775174 0.161809 0.090801
O O8 0.500000 0.128876 0.750000
O O9 0.174619 0.079890 0.750651
O O10 0.044306 0.340378 0.509212
O O11 0.000000 0.000000 0.500000
#
# Coordination Sequence:
#
# PCOD9226684 Si02
#       6
#     4   4   4   2   2   2
#     4   8  13  24  39  58  95 130 163 206 237 292
#     4  10  21  37  56  75  99 137 176 205 241 296
#     4  10  21  39  58  74 100 139 175 201 238 299
#     4  12  20  30  50  76 106 126 160 216 260 298
#     4  12  24  36  56  86 112 130 160 210 258 292
#     4  10  18  26  42  74 104 130 162 208 264 300
#
# _framework density 20.059075
#
# number of rings (size 3 to 8) (size 9 to 14) (size 15 to 20)
#    0.000    2.222    0.000    6.667    0.000    0.889 
#    0.000    0.000    0.000    0.000    0.000    0.000 
#    0.000  160.000    0.000    0.000    0.000    0.000 
#
# Total GULP energy -100446.972348 kJ/mol
# GULP energy per Si atom -5580.387353 kJ/mol
# Density = 2.001342 g / cm^3
# Si number density = 20.059075 Si / 1000 Ang^3
#
#
#
# Elastic Constant Matrix: (Units=GPa)
#
#
# Indices 1 2 3 4 5 6 
#
# 1 70.7741 41.9294 39.5694 0.0000 -20.2045 0.0000
# 2 41.9294 127.8887 61.1493 0.0000 -22.1188 0.0000
# 3 39.5694 61.1493 161.8174 0.0000 -38.0435 0.0000
# 4 0.0000 0.0000 0.0000 60.6986 0.0000 -10.0223
# 5 -20.2045 -22.1188 -38.0435 0.0000 22.9834 0.0000
# 6 0.0000 0.0000 0.0000 -10.0223 0.0000 -9.8994
#
#
#
# Elastic Compliance Matrix: (Units=1/GPa)
#
#
# Indices 1 2 3 4 5 6 
#
# 1 0.020721 -0.004322 -0.000211 0.000000 0.013707 0.000000
# 2 -0.004322 0.010851 -0.002426 0.000000 0.002628 0.000000
# 3 -0.000211 -0.002426 0.010732 0.000000 0.015244 0.000000
# 4 0.000000 0.000000 0.000000 0.014115 0.000000 -0.014290
# 5 0.013707 0.002628 0.015244 0.000000 0.083321 0.000000
# 6 0.000000 0.000000 0.000000 -0.014290 0.000000 -0.086548
#
#
# Mechanical properties :
#
#
# Convention : Reuss Voigt Hill
#
# Bulk Modulus (GPa) = 35.22870 71.75294 53.49082
# Shear Modulus (GPa) = 65.29801 29.27866 47.28833
#
# Velocity S-wave (km/s) = 5.71170 3.82464 4.86063
# Velocity P-wave (km/s) = 7.81656 7.43992 7.63056
#
# Compressibility (1/GPa) = 0.02838595
#
# Stress axis : x y z
#
# Youngs Moduli (GPa) = 48.26019 92.16067 93.17898
#
# Poissons Ratio (x) = 0.39831 0.01969
# Poissons Ratio (y) = 0.20858 0.22602
# Poissons Ratio (z) = 0.01020 0.22355
#
# Static dielectric constant tensor:
#      x y z
#    x 1.837420 0.000000 0.132180 
#    y 0.000000 1.698470 0.000000 
#    z 0.132180 0.000000 1.882390 
# 
# From -- ./inp_files/1864.got.cif
#   From: 2010.05.17/outbox.cif.g08.bks.cpg/sg13_1_cif.got.tgz:1864.got - 2010.06.03 16:44:36.
