data_PCOD9226024
_publ_section_title
;
Structure prediction by ZEFSAII (Michael W. Deem and Ramdas Pophale) SiO2 
 PCOD9226024
Probable space group: P 2/C
;
_chemical_formula_sum "Si O2"
_cell_formula_units_Z 18
_cell_length_a 27.089960
_cell_length_b 6.648992
_cell_length_c 5.229008
_cell_angle_alpha 90.000000
_cell_angle_beta 125.946271
_cell_angle_gamma 90.000000
_cell_volume 762.494516
_symmetry_space_group_name_H-M "P 2/C"
_symmetry_group_IT_number 13
_symmetry_cell_setting 'monoclinic'
loop_
_space_group_symop_operation_xyz
x,y,z
-x,y,1/2-z
-x,-y,-z
x,-y,1/2+z
loop_
_atom_site_type_symbol
_atom_site_label
_atom_site_fract_x
_atom_site_fract_y
_atom_site_fract_z
Si Si1 0.691040 0.794522 0.204755
Si Si2 0.000000 0.857983 0.750000
Si Si3 0.868931 0.138793 0.900090
Si Si4 0.259970 0.752399 0.648071
Si Si5 0.432727 0.362522 0.012797
O O1 0.733010 0.682147 0.540257
O O2 0.720953 0.011960 0.252572
O O3 0.692884 0.695741 0.931148
O O4 0.623133 0.788388 0.109211
O O5 0.934193 0.751538 0.561578
O O6 0.000000 0.000000 0.500000
O O7 0.808120 0.264065 0.664547
O O8 0.866870 0.965829 0.672284
O O9 0.500000 0.269076 0.250000
O O10 0.428757 0.531669 0.224481
#
# Coordination Sequence:
#
# PCOD9226024 Si02
#       5
#     4   2   4   4   4
#     4  10  18  30  47  68  89 117 148 176 222 275
#     4   8  16  20  34  52  82 126 156 174 196 242
#     4  10  14  25  36  58  89 125 153 172 207 257
#     4  10  17  28  45  69  97 122 141 176 225 270
#     4  10  21  37  53  67  86 115 150 188 226 263
#
# _framework density 23.606726999999999
#
# number of rings (size 3 to 8) (size 9 to 14) (size 15 to 20)
#    0.000    2.222    4.444    1.333    0.000    0.000 
#    0.000    4.444    0.000    0.000    0.000    0.000 
#    0.000    0.000    0.000   34.000    0.000    0.000 
#
# Total GULP energy -100353.416690 kJ/mol
# GULP energy per Si atom -5575.189816 kJ/mol
# Density = 2.355300 g / cm^3
# Si number density = 23.606727 Si / 1000 Ang^3
#
#
#
# Elastic Constant Matrix: (Units=GPa)
#
#
# Indices 1 2 3 4 5 6 
#
# 1 112.8989 -17.1496 35.0915 0.0000 20.7043 0.0000
# 2 -17.1496 46.6679 -16.1982 0.0000 8.5914 0.0000
# 3 35.0915 -16.1982 110.7880 0.0000 3.0864 0.0000
# 4 0.0000 0.0000 0.0000 -24.3327 0.0000 32.2069
# 5 20.7043 8.5914 3.0864 0.0000 91.9909 0.0000
# 6 0.0000 0.0000 0.0000 32.2069 0.0000 -8.9999
#
#
#
# Elastic Compliance Matrix: (Units=1/GPa)
#
#
# Indices 1 2 3 4 5 6 
#
# 1 0.010746 0.003456 -0.002825 0.000000 -0.002646 0.000000
# 2 0.003456 0.024147 0.002523 0.000000 -0.003118 0.000000
# 3 -0.002825 0.002523 0.010288 0.000000 0.000055 0.000000
# 4 0.000000 0.000000 0.000000 0.010998 0.000000 0.039359
# 5 -0.002646 -0.003118 0.000055 0.000000 0.011756 0.000000
# 6 0.000000 0.000000 0.000000 0.039359 0.000000 0.029736
#
#
# Mechanical properties :
#
#
# Convention : Reuss Voigt Hill
#
# Bulk Modulus (GPa) = 19.42158 30.42694 24.92426
# Shear Modulus (GPa) = 46.07163 29.63906 37.85535
#
# Velocity S-wave (km/s) = 4.42252 3.54720 4.00882
# Velocity P-wave (km/s) = 5.85860 5.44921 5.65761
#
# Compressibility (1/GPa) = 0.05148911
#
# Stress axis : x y z
#
# Youngs Moduli (GPa) = 93.06037 41.41218 97.19796
#
# Poissons Ratio (x) = -0.14311 0.27455
# Poissons Ratio (y) = -0.32158 -0.24522
# Poissons Ratio (z) = 0.26287 -0.10448
#
# Static dielectric constant tensor:
#      x y z
#    x 1.930440 0.000000 -0.016460 
#    y 0.000000 3.025920 0.000000 
#    z -0.016460 0.000000 1.975030 
# 
# From -- ./inp_files/6628.got.cif
#   From: 2010.05.17/outbox.cif.g08.bks.cpg/sg13_4_cif.got.tgz:6628.got - 2010.06.03 16:44:36.
