data_PCOD9226633
_publ_section_title
;
Structure prediction by ZEFSAII (Michael W. Deem and Ramdas Pophale) SiO2 
 PCOD9226633
Probable space group: P 2/C
;
_chemical_formula_sum "Si O2"
_cell_formula_units_Z 16
_cell_length_a 7.919256
_cell_length_b 6.386543
_cell_length_c 14.333679
_cell_angle_alpha 90.000000
_cell_angle_beta 71.752471
_cell_angle_gamma 90.000000
_cell_volume 688.493923
_symmetry_space_group_name_H-M "P 2/C"
_symmetry_group_IT_number 13
_symmetry_cell_setting 'monoclinic'
loop_
_space_group_symop_operation_xyz
x,y,z
-x,y,1/2-z
-x,-y,-z
x,-y,1/2+z
loop_
_atom_site_type_symbol
_atom_site_label
_atom_site_fract_x
_atom_site_fract_y
_atom_site_fract_z
Si Si1 0.669314 0.591295 0.765024
Si Si2 0.364236 0.172442 0.406044
Si Si3 0.864546 0.190770 0.542536
Si Si4 0.850365 0.577252 0.406878
O O1 0.500000 0.467392 0.750000
O O2 0.741116 0.717599 0.663121
O O3 0.564889 0.763114 0.847507
O O4 0.792322 0.465887 0.812377
O O5 0.293414 0.279604 0.512518
O O6 0.320302 0.928435 0.411576
O O7 0.852470 0.358267 0.462408
O O8 0.959382 0.312980 0.610281
O O9 0.000000 0.000000 0.500000
#
# Coordination Sequence:
#
# PCOD9226633 Si02
#       4
#     4   4   4   4
#     4   8  19  34  57  82 115 150 194 239 289 351
#     4   8  18  36  54  82 113 147 191 243 289 343
#     4   9  19  34  54  80 111 149 191 237 294 348
#     4  10  17  35  59  79 111 153 192 237 291 348
#
# _framework density 23.239132000000001
#
# number of rings (size 3 to 8) (size 9 to 14) (size 15 to 20)
#    1.500    1.500    0.000    0.750    0.000    1.000 
#    0.000   23.750    0.000    0.000    0.000    0.000 
#    0.000    0.000    0.000    0.000    0.000    0.000 
#
# Total GULP energy -89189.035731 kJ/mol
# GULP energy per Si atom -5574.314733 kJ/mol
# Density = 2.318624 g / cm^3
# Si number density = 23.239132 Si / 1000 Ang^3
#
#
#
# Elastic Constant Matrix: (Units=GPa)
#
#
# Indices 1 2 3 4 5 6 
#
# 1 65.2379 35.0504 39.3206 0.0000 22.7573 0.0000
# 2 35.0504 113.5626 46.1830 0.0000 15.2569 0.0000
# 3 39.3206 46.1830 124.7426 0.0000 26.0119 0.0000
# 4 0.0000 0.0000 0.0000 5.0798 0.0000 -3.6587
# 5 22.7573 15.2569 26.0119 0.0000 49.5574 0.0000
# 6 0.0000 0.0000 0.0000 -3.6587 0.0000 26.9575
#
#
#
# Elastic Compliance Matrix: (Units=1/GPa)
#
#
# Indices 1 2 3 4 5 6 
#
# 1 0.022516 -0.004383 -0.004042 0.000000 -0.006868 0.000000
# 2 -0.004383 0.011297 -0.002802 0.000000 0.000005 0.000000
# 3 -0.004042 -0.002802 0.010961 0.000000 -0.003034 0.000000
# 4 0.000000 0.000000 0.000000 0.218186 0.000000 0.029612
# 5 -0.006868 0.000005 -0.003034 0.000000 0.024924 0.000000
# 6 0.000000 0.000000 0.000000 0.029612 0.000000 0.041114
#
#
# Mechanical properties :
#
#
# Convention : Reuss Voigt Hill
#
# Bulk Modulus (GPa) = 44.80442 60.51678 52.66060
# Shear Modulus (GPa) = 13.93177 28.51822 21.22499
#
# Velocity S-wave (km/s) = 2.45112 3.50689 3.02541
# Velocity P-wave (km/s) = 5.22802 6.51883 5.90878
#
# Compressibility (1/GPa) = 0.02231923
#
# Stress axis : x y z
#
# Youngs Moduli (GPa) = 44.41368 88.51726 91.23351
#
# Poissons Ratio (x) = 0.38793 0.36881
# Poissons Ratio (y) = 0.19465 0.25565
# Poissons Ratio (z) = 0.17954 0.24804
#
# Static dielectric constant tensor:
#      x y z
#    x 1.972050 0.000000 -0.055140 
#    y 0.000000 1.881630 0.000000 
#    z -0.055140 0.000000 1.890420 
# 
# From -- ./inp_files/61898.got.cif
#   From: 2010.05.17/outbox.cif.g08.bks.cpg/sg13_31_cif.got.tgz:61898.got - 2010.06.03 16:44:36.
