data_PCOD9226795
_publ_section_title
;
Structure prediction by ZEFSAII (Michael W. Deem and Ramdas Pophale) SiO2 
 PCOD9226795
Probable space group: P 2/C
;
_chemical_formula_sum "Si O2"
_cell_formula_units_Z 28
_cell_length_a 26.681760
_cell_length_b 9.174219
_cell_length_c 19.209088
_cell_angle_alpha 90.000000
_cell_angle_beta 13.871551
_cell_angle_gamma 90.000000
_cell_volume 1127.305787
_symmetry_space_group_name_H-M "P 2/C"
_symmetry_group_IT_number 13
_symmetry_cell_setting 'monoclinic'
loop_
_space_group_symop_operation_xyz
x,y,z
-x,y,1/2-z
-x,-y,-z
x,-y,1/2+z
loop_
_atom_site_type_symbol
_atom_site_label
_atom_site_fract_x
_atom_site_fract_y
_atom_site_fract_z
Si Si1 0.440478 0.166954 0.562554
Si Si2 0.630426 0.263340 0.449150
Si Si3 0.983883 0.493437 0.194302
Si Si4 0.649792 0.422046 0.900871
Si Si5 0.966949 0.840481 0.717371
Si Si6 0.872059 0.700099 0.230103
Si Si7 0.780218 0.013063 0.339822
O O1 0.499017 0.235107 0.557345
O O2 0.499262 0.289079 0.424201
O O3 0.500000 0.000000 0.500000
O O4 0.196371 0.155543 0.875501
O O5 0.569659 0.431072 0.547093
O O6 0.627925 0.124501 0.504567
O O7 0.880756 0.266010 0.096851
O O8 0.902240 0.327736 0.310617
O O9 0.000000 0.555756 0.250000
O O10 0.844093 0.588359 0.330913
O O11 0.217399 0.474690 0.846175
O O12 0.825335 0.367721 0.718226
O O13 0.000000 0.903300 0.750000
O O14 0.824185 0.922064 0.856243
O O15 0.732004 0.844463 0.418570
O O16 0.000000 0.000000 0.000000
#
# Coordination Sequence:
#
# PCOD9226795 Si02
#       7
#     4   4   4   4   4   4   4
#     4  11  20  33  53  82 111 137 177 231 278 322
#     4  10  18  30  51  77 103 135 177 224 267 312
#     4   9  17  30  50  75 105 138 178 221 266 323
#     4  10  19  33  52  78 109 142 182 228 275 327
#     4  10  21  37  55  78 109 146 182 222 278 343
#     4  10  18  31  52  79 106 139 183 231 271 318
#     4  10  18  32  54  79 106 141 186 227 270 327
#
# _framework density 24.837983000000001
#
# number of rings (size 3 to 8) (size 9 to 14) (size 15 to 20)
#    0.000    2.000    0.000    9.000    0.000    0.571 
#    0.000    0.714    0.000    0.000    0.000   30.000 
#    0.000    0.000    0.000    0.000    0.000    0.000 
#
# Total GULP energy -156164.529897 kJ/mol
# GULP energy per Si atom -5577.304639 kJ/mol
# Density = 2.478145 g / cm^3
# Si number density = 24.837983 Si / 1000 Ang^3
#
#
#
# Elastic Constant Matrix: (Units=GPa)
#
#
# Indices 1 2 3 4 5 6 
#
# 1 168.3755 54.0909 14.5787 0.0000 -14.0520 0.0000
# 2 54.0909 159.8772 24.2831 0.0000 -13.7103 0.0000
# 3 14.5787 24.2831 82.4352 0.0000 -2.4242 0.0000
# 4 0.0000 0.0000 0.0000 -3.1671 0.0000 -18.7877
# 5 -14.0520 -13.7103 -2.4242 0.0000 18.5288 0.0000
# 6 0.0000 0.0000 0.0000 -18.7877 0.0000 58.7375
#
#
#
# Elastic Compliance Matrix: (Units=1/GPa)
#
#
# Indices 1 2 3 4 5 6 
#
# 1 0.006921 -0.001938 -0.000543 0.000000 0.003744 0.000000
# 2 -0.001938 0.007508 -0.001755 0.000000 0.003856 0.000000
# 3 -0.000543 -0.001755 0.012743 0.000000 -0.000044 0.000000
# 4 0.000000 0.000000 0.000000 -0.108975 0.000000 -0.034856
# 5 0.003744 0.003856 -0.000044 0.000000 0.059657 0.000000
# 6 0.000000 0.000000 0.000000 -0.034856 0.000000 0.005876
#
#
# Mechanical properties :
#
#
# Convention : Reuss Voigt Hill
#
# Bulk Modulus (GPa) = 53.48028 66.28814 59.88421
# Shear Modulus (GPa) = -3195.45747 36.00219 -1579.72764
#
# Velocity S-wave (km/s) = -35.90701 3.81134 -25.24665
# Velocity P-wave (km/s) = 41.20080 6.79077 28.73492
#
# Compressibility (1/GPa) = 0.01869848
#
# Stress axis : x y z
#
# Youngs Moduli (GPa) = 144.48392 133.19480 78.47692
#
# Poissons Ratio (x) = 0.25815 0.04261
# Poissons Ratio (y) = 0.28003 0.13776
# Poissons Ratio (z) = 0.07846 0.23382
#
# Static dielectric constant tensor:
#      x y z
#    x 1.849270 0.000000 0.130220 
#    y 0.000000 2.132960 0.000000 
#    z 0.130220 0.000000 2.052300 
# 
# From -- ./inp_files/82428.got.cif
#   From: 2010.05.17/outbox.cif.g08.bks.cpg/sg13_42_cif.got.tgz:82428.got - 2010.06.03 16:44:36.
