data_PCOD9226717
_publ_section_title
;
Structure prediction by ZEFSAII (Michael W. Deem and Ramdas Pophale) SiO2 
 PCOD9226717
Probable space group: P 2/C
;
_chemical_formula_sum "Si O2"
_cell_formula_units_Z 20
_cell_length_a 8.022988
_cell_length_b 24.438040
_cell_length_c 5.313024
_cell_angle_alpha 90.000000
_cell_angle_beta 60.845045
_cell_angle_gamma 90.000000
_cell_volume 909.725597
_symmetry_space_group_name_H-M "P 2/C"
_symmetry_group_IT_number 13
_symmetry_cell_setting 'monoclinic'
loop_
_space_group_symop_operation_xyz
x,y,z
-x,y,1/2-z
-x,-y,-z
x,-y,1/2+z
loop_
_atom_site_type_symbol
_atom_site_label
_atom_site_fract_x
_atom_site_fract_y
_atom_site_fract_z
Si Si1 0.769845 0.286864 0.422649
Si Si2 0.283289 0.977892 0.709231
Si Si3 0.500000 0.879151 0.750000
Si Si4 0.229921 0.647737 0.078321
Si Si5 0.713984 0.477986 0.882508
Si Si6 0.500000 0.810848 0.250000
O O1 0.712651 0.322548 0.707273
O O2 0.669754 0.228713 0.531968
O O3 0.000000 0.281337 0.250000
O O4 0.711475 0.318315 0.211010
O O5 0.323337 0.917644 0.788380
O O6 0.500000 0.000000 0.500000
O O7 0.196758 0.985065 0.495471
O O8 0.553624 0.845782 0.458778
O O9 0.291272 0.584927 0.034995
O O10 0.000000 0.646615 0.250000
O O11 0.803530 0.486933 0.542229
O O12 0.500000 0.500000 0.000000
#
# Coordination Sequence:
#
# PCOD9226717 Si02
#       6
#     4   4   2   4   4   2
#     4  10  23  41  58  78 105 141 185 222 259 316
#     4   8  13  24  42  66 108 148 175 218 259 308
#     4  10  18  29  46  82 116 137 182 228 270 322
#     4  10  21  39  58  74 102 142 176 211 258 318
#     4  10  21  34  51  78 105 127 157 206 258 310
#     4  12  22  33  56  82 108 139 174 232 280 308
#
# _framework density 21.984652000000001
#
# number of rings (size 3 to 8) (size 9 to 14) (size 15 to 20)
#    0.000    2.400    0.000    4.800    0.000    5.600 
#    0.000    0.000    0.000    0.000    0.000    0.000 
#    0.000  144.000    0.000    0.000    0.000    0.000 
#
# Total GULP energy -111668.881104 kJ/mol
# GULP energy per Si atom -5583.444055 kJ/mol
# Density = 2.193461 g / cm^3
# Si number density = 21.984652 Si / 1000 Ang^3
#
#
#
# Elastic Constant Matrix: (Units=GPa)
#
#
# Indices 1 2 3 4 5 6 
#
# 1 70.0645 26.7001 55.8043 0.0000 12.4159 0.0000
# 2 26.7001 139.8586 79.5100 0.0000 24.1927 0.0000
# 3 55.8043 79.5100 207.8108 0.0000 47.9551 0.0000
# 4 0.0000 0.0000 0.0000 46.1380 0.0000 18.7889
# 5 12.4159 24.1927 47.9551 0.0000 45.1193 0.0000
# 6 0.0000 0.0000 0.0000 18.7889 0.0000 0.9907
#
#
#
# Elastic Compliance Matrix: (Units=1/GPa)
#
#
# Indices 1 2 3 4 5 6 
#
# 1 0.018248 -0.000913 -0.004644 0.000000 0.000404 0.000000
# 2 -0.000913 0.009268 -0.002931 0.000000 -0.001603 0.000000
# 3 -0.004644 -0.002931 0.008643 0.000000 -0.006337 0.000000
# 4 0.000000 0.000000 0.000000 -0.003224 0.000000 0.061139
# 5 0.000404 -0.001603 -0.006337 0.000000 0.029647 0.000000
# 6 0.000000 0.000000 0.000000 0.061139 0.000000 -0.150133
#
#
# Mechanical properties :
#
#
# Convention : Reuss Voigt Hill
#
# Bulk Modulus (GPa) = 52.13196 82.41807 67.27501
# Shear Modulus (GPa) = -77.90425 35.49757 -21.20334
#
# Velocity S-wave (km/s) = -5.95925 4.02263 -3.10895
# Velocity P-wave (km/s) = 4.85653 7.69063 4.21663
#
# Compressibility (1/GPa) = 0.01918209
#
# Stress axis : x y z
#
# Youngs Moduli (GPa) = 54.80114 107.89932 115.70494
#
# Poissons Ratio (x) = 0.09856 0.53732
# Poissons Ratio (y) = 0.05006 0.33910
# Poissons Ratio (z) = 0.25449 0.31622
#
# Static dielectric constant tensor:
#      x y z
#    x -2.774620 0.000000 -0.384660 
#    y 0.000000 1.791830 0.000000 
#    z -0.384660 0.000000 1.804030 
# 
# From -- ./inp_files/2058.got.cif
#   From: 2010.05.17/outbox.cif.g08.bks.cpg/sg13_2_cif.got.tgz:2058.got - 2010.06.03 16:44:36.
