data_PCOD9226536
_publ_section_title
;
Structure prediction by ZEFSAII (Michael W. Deem and Ramdas Pophale) SiO2 
 PCOD9226536
Probable space group: P 2/C
;
_chemical_formula_sum "Si O2"
_cell_formula_units_Z 24
_cell_length_a 30.402000
_cell_length_b 5.766855
_cell_length_c 17.860418
_cell_angle_alpha 90.000000
_cell_angle_beta 16.808998
_cell_angle_gamma 90.000000
_cell_volume 905.532966
_symmetry_space_group_name_H-M "P 2/C"
_symmetry_group_IT_number 13
_symmetry_cell_setting 'monoclinic'
loop_
_space_group_symop_operation_xyz
x,y,z
-x,y,1/2-z
-x,-y,-z
x,-y,1/2+z
loop_
_atom_site_type_symbol
_atom_site_label
_atom_site_fract_x
_atom_site_fract_y
_atom_site_fract_z
Si Si1 0.000000 0.221088 0.750000
Si Si2 0.704787 0.806291 0.147182
Si Si3 0.303370 0.500365 0.473660
Si Si4 0.019097 0.577763 0.061380
Si Si5 0.513634 0.122049 0.092728
Si Si6 0.500000 0.177081 0.750000
Si Si7 0.939861 0.077167 0.468939
O O1 0.954856 0.378000 0.752735
O O2 0.113074 0.044604 0.522758
O O3 0.656651 0.589866 0.174452
O O4 0.643930 0.764491 0.329913
O O5 0.605308 0.010526 0.271847
O O6 0.879316 0.871232 0.842416
O O7 0.123806 0.472352 0.759688
O O8 0.404013 0.278280 0.321635
O O9 0.363866 0.678727 0.435254
O O10 0.114201 0.335062 0.919220
O O11 0.068687 0.847913 0.963997
O O12 0.573071 0.948927 0.059153
#
# Coordination Sequence:
#
# PCOD9226536 Si02
#       7
#     2   4   4   4   4   2   4
#     4   8  16  26  46  68 102 126 150 204 250 308
#     4   9  18  28  48  70  91 126 163 209 249 292
#     4  10  18  32  45  69  97 132 164 209 239 296
#     4   9  17  27  47  67 100 126 158 198 251 297
#     4  10  17  32  46  65  94 129 168 203 246 290
#     4  10  22  30  46  64 100 132 176 196 242 286
#     4   9  16  28  42  72  97 123 155 200 251 298
#
# _framework density 26.503729
#
# number of rings (size 3 to 8) (size 9 to 14) (size 15 to 20)
#    1.000    1.667    1.667    1.500    0.000    0.000 
#    0.000    0.000    0.000    0.000    0.000    1.167 
#    0.000   30.667    0.000    2.667    0.000    1.000 
#
# Total GULP energy -133615.626681 kJ/mol
# GULP energy per Si atom -5567.317778 kJ/mol
# Density = 2.644340 g / cm^3
# Si number density = 26.503729 Si / 1000 Ang^3
#
#
#
# Elastic Constant Matrix: (Units=GPa)
#
#
# Indices 1 2 3 4 5 6 
#
# 1 95.6294 33.6366 47.0021 0.0000 2.3080 0.0000
# 2 33.6366 147.2551 8.4533 0.0000 4.1758 0.0000
# 3 47.0021 8.4533 79.9585 0.0000 9.8431 0.0000
# 4 0.0000 0.0000 0.0000 11.1181 0.0000 -17.6414
# 5 2.3080 4.1758 9.8431 0.0000 21.6535 0.0000
# 6 0.0000 0.0000 0.0000 -17.6414 0.0000 -58.8388
#
#
#
# Elastic Compliance Matrix: (Units=1/GPa)
#
#
# Indices 1 2 3 4 5 6 
#
# 1 0.016243 -0.003251 -0.009606 0.000000 0.003262 0.000000
# 2 -0.003251 0.007506 0.001328 0.000000 -0.001704 0.000000
# 3 -0.009606 0.001328 0.018981 0.000000 -0.007860 0.000000
# 4 0.000000 0.000000 0.000000 0.060948 0.000000 -0.018274
# 5 0.003262 -0.001704 -0.007860 0.000000 0.049736 0.000000
# 6 0.000000 0.000000 0.000000 -0.018274 0.000000 -0.011517
#
#
# Mechanical properties :
#
#
# Convention : Reuss Voigt Hill
#
# Bulk Modulus (GPa) = 50.83997 55.66968 53.25482
# Shear Modulus (GPa) = 29.15221 10.36997 19.76109
#
# Velocity S-wave (km/s) = 3.32012 1.98019 2.73352
# Velocity P-wave (km/s) = 5.82421 5.12623 5.48633
#
# Compressibility (1/GPa) = 0.01966956
#
# Stress axis : x y z
#
# Youngs Moduli (GPa) = 61.56327 133.23091 52.68546
#
# Poissons Ratio (x) = 0.43319 0.50611
# Poissons Ratio (y) = 0.20017 -0.06994
# Poissons Ratio (z) = 0.59139 -0.17688
#
# Static dielectric constant tensor:
#      x y z
#    x 2.156260 0.000000 0.065410 
#    y 0.000000 2.225650 0.000000 
#    z 0.065410 0.000000 2.173680 
# 
# From -- ./inp_files/51933.got.cif
#   From: 2010.05.17/outbox.cif.g08.bks.cpg/sg13_26_cif.got.tgz:51933.got - 2010.06.03 16:44:36.
