data_PCOD9226698
_publ_section_title
;
Structure prediction by ZEFSAII (Michael W. Deem and Ramdas Pophale) SiO2 
 PCOD9226698
Probable space group: P 2/C
;
_chemical_formula_sum "Si O2"
_cell_formula_units_Z 32
_cell_length_a 19.090303
_cell_length_b 5.352145
_cell_length_c 17.924307
_cell_angle_alpha 90.000000
_cell_angle_beta 135.896003
_cell_angle_gamma 90.000000
_cell_volume 1274.586018
_symmetry_space_group_name_H-M "P 2/C"
_symmetry_group_IT_number 13
_symmetry_cell_setting 'monoclinic'
loop_
_space_group_symop_operation_xyz
x,y,z
-x,y,1/2-z
-x,-y,-z
x,-y,1/2+z
loop_
_atom_site_type_symbol
_atom_site_label
_atom_site_fract_x
_atom_site_fract_y
_atom_site_fract_z
Si Si1 0.058747 0.392330 0.950697
Si Si2 0.893402 0.672403 0.213205
Si Si3 0.630134 0.878654 0.669390
Si Si4 0.788224 0.161498 0.163148
Si Si5 0.648044 0.402026 0.888942
Si Si6 0.255068 0.095490 0.082244
Si Si7 0.957052 0.201514 0.411461
Si Si8 0.527050 0.371436 0.640789
O O1 0.948320 0.313066 0.836788
O O2 0.046323 0.688210 0.928161
O O3 0.145011 0.216045 0.987534
O O4 0.083278 0.395325 0.057372
O O5 0.823445 0.425554 0.153576
O O6 0.000000 0.655238 0.250000
O O7 0.823450 0.912836 0.146449
O O8 0.685346 0.856856 0.631639
O O9 0.707065 0.899898 0.800987
O O10 0.563482 0.629802 0.631737
O O11 0.564188 0.130439 0.624167
O O12 0.865820 0.146600 0.290897
O O13 0.677610 0.691599 0.905882
O O14 0.582920 0.361305 0.763972
O O15 0.587895 0.362534 0.919533
O O16 0.728278 0.179014 0.938960
O O17 0.000000 0.000000 0.500000
#
# Coordination Sequence:
#
# PCOD9226698 Si02
#       8
#     4   4   4   4   4   4   4   4
#     4  10  21  32  49  75 102 135 173 214 252 304
#     4  11  24  39  53  70 103 143 174 211 255 302
#     4  10  18  28  48  72  97 128 165 208 241 296
#     4  11  21  35  54  76 102 131 177 216 250 298
#     4   9  18  29  42  65 101 141 160 190 236 312
#     4  10  19  28  46  70 100 129 170 202 244 295
#     4  10  19  31  50  74 104 133 164 213 267 296
#     4   9  17  29  43  65 102 137 162 186 245 303
#
# _framework density 25.106193000000001
#
# number of rings (size 3 to 8) (size 9 to 14) (size 15 to 20)
#    0.000    2.000    2.500    1.875    1.750    4.000 
#    0.000    0.000    0.000    0.000    0.000    0.000 
#    0.000   20.000    0.000    0.000    0.000    0.000 
#
# Total GULP energy -178335.891161 kJ/mol
# GULP energy per Si atom -5572.996599 kJ/mol
# Density = 2.504905 g / cm^3
# Si number density = 25.106193 Si / 1000 Ang^3
#
#
#
# Elastic Constant Matrix: (Units=GPa)
#
#
# Indices 1 2 3 4 5 6 
#
# 1 165.0399 73.0809 2.2054 0.0000 6.8495 0.0000
# 2 73.0809 77.2427 -6.7785 0.0000 -4.6693 0.0000
# 3 2.2054 -6.7785 55.6463 0.0000 -17.4500 0.0000
# 4 0.0000 0.0000 0.0000 15.4821 0.0000 -0.4698
# 5 6.8495 -4.6693 -17.4500 0.0000 29.5902 0.0000
# 6 0.0000 0.0000 0.0000 -0.4698 0.0000 38.7787
#
#
#
# Elastic Compliance Matrix: (Units=1/GPa)
#
#
# Indices 1 2 3 4 5 6 
#
# 1 0.011610 -0.011761 -0.004070 0.000000 -0.006943 0.000000
# 2 -0.011761 0.025337 0.006944 0.000000 0.010816 0.000000
# 3 -0.004070 0.006944 0.024068 0.000000 0.016231 0.000000
# 4 0.000000 0.000000 0.000000 0.064614 0.000000 0.000783
# 5 -0.006943 0.010816 0.016231 0.000000 0.046681 0.000000
# 6 0.000000 0.000000 0.000000 0.000783 0.000000 0.025797
#
#
# Mechanical properties :
#
#
# Convention : Reuss Voigt Hill
#
# Bulk Modulus (GPa) = 23.12674 48.32714 35.72694
# Shear Modulus (GPa) = 21.71148 32.06497 26.88822
#
# Velocity S-wave (km/s) = 2.94391 3.57763 3.27613
# Velocity P-wave (km/s) = 4.55928 6.02966 5.34527
#
# Compressibility (1/GPa) = 0.04323999
#
# Stress axis : x y z
#
# Youngs Moduli (GPa) = 86.13634 39.46856 41.54941
#
# Poissons Ratio (x) = 0.46419 0.16911
# Poissons Ratio (y) = 1.01304 -0.28852
# Poissons Ratio (z) = 0.35059 -0.27407
#
# Static dielectric constant tensor:
#      x y z
#    x 2.337430 0.000000 -0.073650 
#    y 0.000000 2.287430 0.000000 
#    z -0.073650 0.000000 2.055350 
# 
# From -- ./inp_files/80679.got.cif
#   From: 2010.05.17/outbox.cif.g08.bks.cpg/sg13_41_cif.got.tgz:80679.got - 2010.06.03 16:44:36.
