data_PCOD9226320
_publ_section_title
;
Structure prediction by ZEFSAII (Michael W. Deem and Ramdas Pophale) SiO2 
 PCOD9226320
Probable space group: P 2/C
;
_chemical_formula_sum "Si O2"
_cell_formula_units_Z 28
_cell_length_a 7.240987
_cell_length_b 8.719418
_cell_length_c 17.102152
_cell_angle_alpha 90.000000
_cell_angle_beta 81.938963
_cell_angle_gamma 90.000000
_cell_volume 1069.112802
_symmetry_space_group_name_H-M "P 2/C"
_symmetry_group_IT_number 13
_symmetry_cell_setting 'monoclinic'
loop_
_space_group_symop_operation_xyz
x,y,z
-x,y,1/2-z
-x,-y,-z
x,-y,1/2+z
loop_
_atom_site_type_symbol
_atom_site_label
_atom_site_fract_x
_atom_site_fract_y
_atom_site_fract_z
Si Si1 0.500000 0.037911 0.750000
Si Si2 0.039429 0.052692 0.592610
Si Si3 0.000000 0.752113 0.250000
Si Si4 0.142117 0.508964 0.918623
Si Si5 0.805892 0.181745 0.306343
Si Si6 0.217138 0.490452 0.656872
Si Si7 0.656471 0.714189 0.488877
Si Si8 0.670628 0.178749 0.583715
O O1 0.557896 0.129534 0.668056
O O2 0.329305 0.932436 0.731581
O O3 0.983540 0.138473 0.677140
O O4 0.179857 0.172822 0.546588
O O5 0.841169 0.060039 0.560496
O O6 0.133474 0.895584 0.614711
O O7 0.820010 0.645570 0.279329
O O8 0.242640 0.346586 0.907908
O O9 0.996205 0.528600 0.857675
O O10 0.287746 0.642374 0.931333
O O11 0.000000 0.500000 0.000000
O O12 0.709931 0.347412 0.319301
O O13 0.000000 0.199036 0.250000
O O14 0.330118 0.423597 0.576445
O O15 0.465778 0.801517 0.482354
#
# Coordination Sequence:
#
# PCOD9226320 Si02
#       8
#     2   4   2   4   4   4   4   4
#     4  12  26  38  64  98 124 174 210 252 326 396
#     4  11  20  37  64  86 124 168 209 248 311 390
#     4  10  16  34  58  88 112 158 210 246 306 372
#     4  10  20  41  68  92 125 168 215 270 316 363
#     4  12  23  42  61  87 137 169 202 258 321 388
#     4  10  22  38  62  93 127 162 207 262 327 367
#     4  10  22  40  65  95 123 161 219 265 311 367
#     4  12  21  37  69  96 123 162 218 266 312 374
#
# _framework density 26.18994
#
# number of rings (size 3 to 8) (size 9 to 14) (size 15 to 20)
#    0.000    1.143    8.571    0.429    2.000    0.000 
#    5.143    0.714    0.000    4.286    0.000    0.000 
#    0.000    0.000    0.000    0.000    0.000    0.000 
#
# Total GULP energy -156921.550175 kJ/mol
# GULP energy per Si atom -5604.341078 kJ/mol
# Density = 2.613033 g / cm^3
# Si number density = 26.189940 Si / 1000 Ang^3
#
#
#
# Elastic Constant Matrix: (Units=GPa)
#
#
# Indices 1 2 3 4 5 6 
#
# 1 141.6311 26.0806 24.0418 0.0000 8.1532 0.0000
# 2 26.0806 118.0672 27.1033 0.0000 -12.2471 0.0000
# 3 24.0418 27.1033 53.2504 0.0000 11.1794 0.0000
# 4 0.0000 0.0000 0.0000 36.0857 0.0000 15.1030
# 5 8.1532 -12.2471 11.1794 0.0000 32.3221 0.0000
# 6 0.0000 0.0000 0.0000 15.1030 0.0000 5.1363
#
#
#
# Elastic Compliance Matrix: (Units=1/GPa)
#
#
# Indices 1 2 3 4 5 6 
#
# 1 0.007824 -0.001313 -0.002529 0.000000 -0.001597 0.000000
# 2 -0.001313 0.010911 -0.006360 0.000000 0.006665 0.000000
# 3 -0.002529 -0.006360 0.025372 0.000000 -0.010548 0.000000
# 4 0.000000 0.000000 0.000000 -0.120144 0.000000 0.353273
# 5 -0.001597 0.006665 -0.010548 0.000000 0.037515 0.000000
# 6 0.000000 0.000000 0.000000 0.353273 0.000000 -0.844080
#
#
# Mechanical properties :
#
#
# Convention : Reuss Voigt Hill
#
# Bulk Modulus (GPa) = 42.18822 51.93334 47.06078
# Shear Modulus (GPa) = -5.85277 30.42368 12.28546
#
# Velocity S-wave (km/s) = -1.49653 3.41200 2.16820
# Velocity P-wave (km/s) = 3.62731 5.94936 4.92708
#
# Compressibility (1/GPa) = 0.02370330
#
# Stress axis : x y z
#
# Youngs Moduli (GPa) = 127.81875 91.64858 39.41310
#
# Poissons Ratio (x) = 0.12037 0.09966
# Poissons Ratio (y) = 0.16787 0.25067
# Poissons Ratio (z) = 0.32320 0.58288
#
# Static dielectric constant tensor:
#      x y z
#    x 2.084100 0.000000 0.057210 
#    y 0.000000 2.072060 0.000000 
#    z 0.057210 0.000000 2.115330 
# 
# From -- ./inp_files/75333.got.cif
#   From: 2010.05.17/outbox.cif.g08.bks.cpg/sg13_38_cif.got.tgz:75333.got - 2010.06.03 16:44:36.
