data_PCOD9226685
_publ_section_title
;
Structure prediction by ZEFSAII (Michael W. Deem and Ramdas Pophale) SiO2 
 PCOD9226685
Probable space group: P 2/C
;
_chemical_formula_sum "Si O2"
_cell_formula_units_Z 16
_cell_length_a 7.630226
_cell_length_b 16.310825
_cell_length_c 5.589348
_cell_angle_alpha 90.000000
_cell_angle_beta 57.007507
_cell_angle_gamma 90.000000
_cell_volume 583.448906
_symmetry_space_group_name_H-M "P 2/C"
_symmetry_group_IT_number 13
_symmetry_cell_setting 'monoclinic'
loop_
_space_group_symop_operation_xyz
x,y,z
-x,y,1/2-z
-x,-y,-z
x,-y,1/2+z
loop_
_atom_site_type_symbol
_atom_site_label
_atom_site_fract_x
_atom_site_fract_y
_atom_site_fract_z
Si Si1 0.757283 0.285390 0.202702
Si Si2 0.239351 0.224251 0.802643
Si Si3 0.739271 0.032471 0.815016
Si Si4 0.753356 0.531361 0.907953
O O1 0.677392 0.232073 0.487314
O O2 0.740759 0.377780 0.309191
O O3 0.677796 0.274255 0.990205
O O4 0.000954 0.257869 0.000769
O O5 0.246850 0.129516 0.727821
O O6 0.822630 0.989691 0.514032
O O7 0.500000 0.000000 0.000000
O O8 0.676618 0.474990 0.741818
O O9 0.000000 0.509981 0.750000
#
# Coordination Sequence:
#
# PCOD9226685 Si02
#       4
#     4   4   4   4
#     4  10  19  32  45  73 108 141 168 199 247 305
#     4  10  19  32  49  69  99 134 167 208 252 304
#     4  10  21  38  56  72  91 124 168 221 266 304
#     4  10  18  26  43  66 100 148 178 194 226 285
#
# _framework density 27.423141000000001
#
# number of rings (size 3 to 8) (size 9 to 14) (size 15 to 20)
#    0.000    2.000    2.500    3.000    7.000    0.000 
#    0.000   15.000    0.000    0.000    0.000    0.000 
#    0.000    0.000    0.000  522.000    0.000    0.000 
#
# Total GULP energy -89617.357873 kJ/mol
# GULP energy per Si atom -5601.084867 kJ/mol
# Density = 2.736073 g / cm^3
# Si number density = 27.423141 Si / 1000 Ang^3
#
#
#
# Elastic Constant Matrix: (Units=GPa)
#
#
# Indices 1 2 3 4 5 6 
#
# 1 132.4260 37.5433 65.5640 0.0000 68.0460 0.0000
# 2 37.5433 204.7178 86.3247 0.0000 32.3237 0.0000
# 3 65.5640 86.3247 339.1918 0.0000 44.8093 0.0000
# 4 0.0000 0.0000 0.0000 66.0698 0.0000 8.1811
# 5 68.0460 32.3237 44.8093 0.0000 80.2226 0.0000
# 6 0.0000 0.0000 0.0000 8.1811 0.0000 36.3339
#
#
#
# Elastic Compliance Matrix: (Units=1/GPa)
#
#
# Indices 1 2 3 4 5 6 
#
# 1 0.013851 -0.000324 -0.001145 0.000000 -0.010979 0.000000
# 2 -0.000324 0.005662 -0.001202 0.000000 -0.001335 0.000000
# 3 -0.001145 -0.001202 0.003545 0.000000 -0.000525 0.000000
# 4 0.000000 0.000000 0.000000 0.015570 0.000000 -0.003506
# 5 -0.010979 -0.001335 -0.000525 0.000000 0.022609 0.000000
# 6 0.000000 0.000000 0.000000 -0.003506 0.000000 0.028312
#
#
# Mechanical properties :
#
#
# Convention : Reuss Voigt Hill
#
# Bulk Modulus (GPa) = 56.44334 117.24440 86.84387
# Shear Modulus (GPa) = 49.60555 68.98550 59.29552
#
# Velocity S-wave (km/s) = 4.25772 5.02101 4.65504
# Velocity P-wave (km/s) = 6.69313 8.74418 7.78649
#
# Compressibility (1/GPa) = 0.01771688
#
# Stress axis : x y z
#
# Youngs Moduli (GPa) = 72.19450 176.62144 282.11624
#
# Poissons Ratio (x) = 0.05724 0.32289
# Poissons Ratio (y) = 0.02340 0.33908
# Poissons Ratio (z) = 0.08263 0.21229
#
# Static dielectric constant tensor:
#      x y z
#    x 1.621420 0.000000 -0.114800 
#    y 0.000000 1.963530 0.000000 
#    z -0.114800 0.000000 2.144000 
# 
# From -- ./inp_files/1151.got.cif
#   From: 2010.05.17/outbox.cif.g08.bks.cpg/sg13_1_cif.got.tgz:1151.got - 2010.06.03 16:44:36.
