data_PCOD9226912
_publ_section_title
;
Structure prediction by ZEFSAII (Michael W. Deem and Ramdas Pophale) SiO2 
 PCOD9226912
Probable space group: P 2/C
;
_chemical_formula_sum "Si O2"
_cell_formula_units_Z 30
_cell_length_a 15.841883
_cell_length_b 9.601555
_cell_length_c 9.158687
_cell_angle_alpha 90.000000
_cell_angle_beta 105.616488
_cell_angle_gamma 90.000000
_cell_volume 1341.671747
_symmetry_space_group_name_H-M "P 2/C"
_symmetry_group_IT_number 13
_symmetry_cell_setting 'monoclinic'
loop_
_space_group_symop_operation_xyz
x,y,z
-x,y,1/2-z
-x,-y,-z
x,-y,1/2+z
loop_
_atom_site_type_symbol
_atom_site_label
_atom_site_fract_x
_atom_site_fract_y
_atom_site_fract_z
Si Si1 0.102294 0.970802 0.028114
Si Si2 0.719747 0.332653 0.609372
Si Si3 0.500000 0.095210 0.750000
Si Si4 0.404698 0.676346 0.010256
Si Si5 0.238514 0.834255 0.940983
Si Si6 0.104114 0.206378 0.814016
Si Si7 0.679884 0.963217 0.235529
Si Si8 0.627449 0.550145 0.790590
O O1 0.125049 0.902674 0.193706
O O2 0.135914 0.852329 0.927527
O O3 0.128404 0.119754 0.971163
O O4 0.000000 0.000000 0.000000
O O5 0.825515 0.328863 0.668851
O O6 0.687613 0.178612 0.644046
O O7 0.677563 0.441307 0.704990
O O8 0.689353 0.365461 0.430994
O O9 0.454652 0.195004 0.607387
O O10 0.422220 0.009564 0.786147
O O11 0.298303 0.697667 0.978346
O O12 0.420510 0.649559 0.847861
O O13 0.426271 0.544263 0.120158
O O14 0.270940 0.908318 0.811610
O O15 0.276487 0.928472 0.090089
O O16 0.000000 0.239986 0.750000
#
# Coordination Sequence:
#
# PCOD9226912 Si02
#       8
#     4   4   2   4   4   4   4   4
#     4  10  18  31  55  89 122 152 191 241 295 358
#     4  11  20  41  58  86 117 159 198 255 297 363
#     4  10  22  44  60  92 124 152 200 256 308 354
#     4  10  22  39  61  86 121 159 200 254 298 361
#     4  11  20  37  59  89 120 160 192 236 306 368
#     4  10  20  34  58  89 124 157 196 248 302 355
#     4  11  23  37  63  85 123 154 195 244 309 368
#     4  10  22  39  62  86 113 161 211 245 301 354
#
# _framework density 22.360164999999999
#
# number of rings (size 3 to 8) (size 9 to 14) (size 15 to 20)
#    0.000    1.600    5.333    0.000    1.867    3.733 
#    0.000    0.667    0.000    0.000    0.000    0.000 
#    0.000    0.000    0.000    0.000    0.000    0.000 
#
# Total GULP energy -167294.927348 kJ/mol
# GULP energy per Si atom -5576.497578 kJ/mol
# Density = 2.230927 g / cm^3
# Si number density = 22.360165 Si / 1000 Ang^3
#
#
#
# Elastic Constant Matrix: (Units=GPa)
#
#
# Indices 1 2 3 4 5 6 
#
# 1 104.6910 -0.4028 8.6077 0.0000 0.1921 0.0000
# 2 -0.4028 29.3329 22.7511 0.0000 4.0998 0.0000
# 3 8.6077 22.7511 134.7342 0.0000 -7.1865 0.0000
# 4 0.0000 0.0000 0.0000 37.1830 0.0000 -1.2392
# 5 0.1921 4.0998 -7.1865 0.0000 24.8405 0.0000
# 6 0.0000 0.0000 0.0000 -1.2392 0.0000 35.1011
#
#
#
# Elastic Compliance Matrix: (Units=1/GPa)
#
#
# Indices 1 2 3 4 5 6 
#
# 1 0.009619 0.000790 -0.000771 0.000000 -0.000428 0.000000
# 2 0.000790 0.041155 -0.007478 0.000000 -0.008962 0.000000
# 3 -0.000771 -0.007478 0.008938 0.000000 0.003826 0.000000
# 4 0.000000 0.000000 0.000000 0.026926 0.000000 0.000951
# 5 -0.000428 -0.008962 0.003826 0.000000 0.042846 0.000000
# 6 0.000000 0.000000 0.000000 0.000951 0.000000 0.028523
#
#
# Mechanical properties :
#
#
# Convention : Reuss Voigt Hill
#
# Bulk Modulus (GPa) = 22.32433 36.74112 29.53273
# Shear Modulus (GPa) = 26.61617 35.27839 30.94728
#
# Velocity S-wave (km/s) = 3.45387 3.97638 3.72430
# Velocity P-wave (km/s) = 5.09031 6.12775 5.63296
#
# Compressibility (1/GPa) = 0.04479418
#
# Stress axis : x y z
#
# Youngs Moduli (GPa) = 103.95974 24.29848 111.88152
#
# Poissons Ratio (x) = -0.01919 0.08622
# Poissons Ratio (y) = -0.08209 0.83663
# Poissons Ratio (z) = 0.08012 0.18170
#
# Static dielectric constant tensor:
#      x y z
#    x 2.004790 0.000000 0.033000 
#    y 0.000000 1.847300 0.000000 
#    z 0.033000 0.000000 1.874040 
# 
# From -- ./inp_files/21604.got.cif
#   From: 2010.05.17/outbox.cif.g08.bks.cpg/sg13_11_cif.got.tgz:21604.got - 2010.06.03 16:44:36.
