data_PCOD9226052
_publ_section_title
;
Structure prediction by ZEFSAII (Michael W. Deem and Ramdas Pophale) SiO2 
 PCOD9226052
Probable space group: P 2/C
;
_chemical_formula_sum "Si O2"
_cell_formula_units_Z 28
_cell_length_a 7.204450
_cell_length_b 18.992082
_cell_length_c 8.648486
_cell_angle_alpha 90.000000
_cell_angle_beta 98.929537
_cell_angle_gamma 90.000000
_cell_volume 1169.008526
_symmetry_space_group_name_H-M "P 2/C"
_symmetry_group_IT_number 13
_symmetry_cell_setting 'monoclinic'
loop_
_space_group_symop_operation_xyz
x,y,z
-x,y,1/2-z
-x,-y,-z
x,-y,1/2+z
loop_
_atom_site_type_symbol
_atom_site_label
_atom_site_fract_x
_atom_site_fract_y
_atom_site_fract_z
Si Si1 0.000000 0.300898 0.750000
Si Si2 0.863558 0.545252 0.865717
Si Si3 0.739162 0.214867 0.487309
Si Si4 0.000000 0.829828 0.750000
Si Si5 0.181709 0.050572 0.478732
Si Si6 0.734293 0.602011 0.346680
Si Si7 0.230470 0.081089 0.809740
Si Si8 0.573765 0.353975 0.498333
O O1 0.131874 0.249172 0.862795
O O2 0.072686 0.354990 0.626862
O O3 0.742189 0.478170 0.793986
O O4 0.000000 0.572950 0.750000
O O5 0.715988 0.600813 0.913821
O O6 0.000000 0.500000 0.000000
O O7 0.701617 0.138471 0.557070
O O8 0.573248 0.272355 0.450513
O O9 0.855855 0.210331 0.343522
O O10 0.888269 0.882149 0.622593
O O11 0.293384 0.079379 0.640261
O O12 0.281629 0.995768 0.380264
O O13 0.000000 0.000000 0.500000
O O14 0.628680 0.611876 0.495030
O O15 0.650324 0.640345 0.184239
O O16 0.000000 0.090250 0.750000
#
# Coordination Sequence:
#
# PCOD9226052 Si02
#       8
#     2   4   4   2   4   4   4   4
#     4  10  18  37  59  78 100 146 202 234 292 362
#     4  12  21  39  63  90 114 147 198 247 295 349
#     4  11  20  31  48  78 114 156 191 234 301 348
#     4  12  18  27  45  72 122 158 192 244 286 340
#     4  10  15  25  44  74 110 157 195 253 281 325
#     4  10  20  41  62  82 113 152 198 245 296 361
#     4  10  15  27  44  72 112 151 198 245 289 336
#     4  10  23  37  57  87 120 154 195 245 302 359
#
# _framework density 23.951920000000001
#
# number of rings (size 3 to 8) (size 9 to 14) (size 15 to 20)
#    0.000    1.429    7.857    1.286    1.000    0.000 
#    0.000    0.000    0.000    0.000    0.000    0.000 
#    0.000  123.429    0.000    0.000    0.000    0.571 
#
# Total GULP energy -156059.730492 kJ/mol
# GULP energy per Si atom -5573.561803 kJ/mol
# Density = 2.389740 g / cm^3
# Si number density = 23.951920 Si / 1000 Ang^3
#
#
#
# Elastic Constant Matrix: (Units=GPa)
#
#
# Indices 1 2 3 4 5 6 
#
# 1 52.1912 12.3597 25.5592 0.0000 -32.6473 0.0000
# 2 12.3597 72.1247 12.8902 0.0000 -24.0986 0.0000
# 3 25.5592 12.8902 112.5901 0.0000 -32.1157 0.0000
# 4 0.0000 0.0000 0.0000 -73.5500 0.0000 31.3916
# 5 -32.6473 -24.0986 -32.1157 0.0000 43.0075 0.0000
# 6 0.0000 0.0000 0.0000 31.3916 0.0000 -10.3117
#
#
#
# Elastic Compliance Matrix: (Units=1/GPa)
#
#
# Indices 1 2 3 4 5 6 
#
# 1 0.037310 0.003752 -0.000281 0.000000 0.030215 0.000000
# 2 0.003752 0.017522 0.000960 0.000000 0.013383 0.000000
# 3 -0.000281 0.000960 0.011345 0.000000 0.008796 0.000000
# 4 0.000000 0.000000 0.000000 0.045424 0.000000 0.138283
# 5 0.030215 0.013383 0.008796 0.000000 0.060256 0.000000
# 6 0.000000 0.000000 0.000000 0.138283 0.000000 0.323993
#
#
# Mechanical properties :
#
#
# Convention : Reuss Voigt Hill
#
# Bulk Modulus (GPa) = 13.32651 37.61382 25.47016
# Shear Modulus (GPa) = 9.76563 4.23564 7.00063
#
# Velocity S-wave (km/s) = 2.02139 1.33125 1.71147
# Velocity P-wave (km/s) = 3.32024 4.25452 3.81608
#
# Compressibility (1/GPa) = 0.07503838
#
# Stress axis : x y z
#
# Youngs Moduli (GPa) = 26.80277 57.07116 88.14684
#
# Poissons Ratio (x) = -0.21414 0.02474
# Poissons Ratio (y) = -0.10057 -0.08459
# Poissons Ratio (z) = 0.00752 -0.05477
#
# Static dielectric constant tensor:
#      x y z
#    x 2.718410 0.000000 0.066690 
#    y 0.000000 1.985810 0.000000 
#    z 0.066690 0.000000 1.789410 
# 
# From -- ./inp_files/13107.got.cif
#   From: 2010.05.17/outbox.cif.g08.bks.cpg/sg13_7_cif.got.tgz:13107.got - 2010.06.03 16:44:36.
