data_PCOD9226464
_publ_section_title
;
Structure prediction by ZEFSAII (Michael W. Deem and Ramdas Pophale) SiO2 
 PCOD9226464
Probable space group: P 2/C
;
_chemical_formula_sum "Si O2"
_cell_formula_units_Z 26
_cell_length_a 12.512526
_cell_length_b 16.682281
_cell_length_c 5.476834
_cell_angle_alpha 90.000000
_cell_angle_beta 76.796974
_cell_angle_gamma 90.000000
_cell_volume 1113.001570
_symmetry_space_group_name_H-M "P 2/C"
_symmetry_group_IT_number 13
_symmetry_cell_setting 'monoclinic'
loop_
_space_group_symop_operation_xyz
x,y,z
-x,y,1/2-z
-x,-y,-z
x,-y,1/2+z
loop_
_atom_site_type_symbol
_atom_site_label
_atom_site_fract_x
_atom_site_fract_y
_atom_site_fract_z
Si Si1 0.379738 0.973908 0.245048
Si Si2 0.640716 0.796048 0.417500
Si Si3 0.263177 0.251973 0.128928
Si Si4 0.530213 0.643991 0.986270
Si Si5 0.091233 0.319671 0.553509
Si Si6 0.000000 0.439224 0.250000
Si Si7 0.770677 0.467567 0.887061
O O1 0.500000 0.008839 0.250000
O O2 0.397856 0.882885 0.148825
O O3 0.324855 0.981960 0.541718
O O4 0.685877 0.799568 0.670994
O O5 0.547526 0.726211 0.465859
O O6 0.728492 0.777469 0.154220
O O7 0.344554 0.328342 0.082205
O O8 0.145873 0.274922 0.296622
O O9 0.500000 0.603812 0.750000
O O10 0.500000 0.601257 0.250000
O O11 0.009271 0.384683 0.480884
O O12 0.193330 0.373358 0.611839
O O13 0.000000 0.269652 0.750000
O O14 0.886921 0.485423 0.321146
O O15 0.717489 0.502437 0.162634
#
# Coordination Sequence:
#
# PCOD9226464 Si02
#       7
#     4   4   4   4   4   2   4
#     4  10  19  29  49  77 101 130 162 192 240 301
#     4  10  19  35  48  68 105 134 159 199 239 285
#     4  10  21  29  48  70  95 137 169 190 241 295
#     4   8  15  29  46  61  87 127 160 188 226 272
#     4  11  20  31  47  70 104 130 165 204 240 299
#     4  10  18  32  48  66  98 138 154 196 264 304
#     4  10  17  30  47  66  89 132 155 187 250 308
#
# _framework density 23.360257000000001
#
# number of rings (size 3 to 8) (size 9 to 14) (size 15 to 20)
#    0.000    2.154    2.308    3.231    2.154    4.308 
#    0.000    0.000    0.000    0.000    0.000    0.000 
#    0.000  145.231    0.000    0.000    0.000    0.000 
#
# Total GULP energy -144934.410254 kJ/mol
# GULP energy per Si atom -5574.400394 kJ/mol
# Density = 2.330709 g / cm^3
# Si number density = 23.360257 Si / 1000 Ang^3
#
#
#
# Elastic Constant Matrix: (Units=GPa)
#
#
# Indices 1 2 3 4 5 6 
#
# 1 43.2735 20.0998 36.9312 0.0000 -5.9569 0.0000
# 2 20.0998 61.6684 25.5644 0.0000 1.0695 0.0000
# 3 36.9312 25.5644 210.3522 0.0000 16.8151 0.0000
# 4 0.0000 0.0000 0.0000 18.2526 0.0000 0.4571
# 5 -5.9569 1.0695 16.8151 0.0000 51.6192 0.0000
# 6 0.0000 0.0000 0.0000 0.4571 0.0000 14.2307
#
#
#
# Elastic Compliance Matrix: (Units=1/GPa)
#
#
# Indices 1 2 3 4 5 6 
#
# 1 0.032114 -0.008469 -0.005051 0.000000 0.005527 0.000000
# 2 -0.008469 0.019315 -0.000770 0.000000 -0.001127 0.000000
# 3 -0.005051 -0.000770 0.005934 0.000000 -0.002500 0.000000
# 4 0.000000 0.000000 0.000000 0.054831 0.000000 -0.001761
# 5 0.005527 -0.001127 -0.002500 0.000000 0.020848 0.000000
# 6 0.000000 0.000000 0.000000 -0.001761 0.000000 0.070327
#
#
# Mechanical properties :
#
#
# Convention : Reuss Voigt Hill
#
# Bulk Modulus (GPa) = 34.74323 53.38719 44.06521
# Shear Modulus (GPa) = 20.70017 32.33374 26.51695
#
# Velocity S-wave (km/s) = 2.98002 3.72443 3.37283
# Velocity P-wave (km/s) = 5.17163 6.43418 5.83714
#
# Compressibility (1/GPa) = 0.02878259
#
# Stress axis : x y z
#
# Youngs Moduli (GPa) = 31.13930 51.77314 168.51624
#
# Poissons Ratio (x) = 0.43847 0.85112
# Poissons Ratio (y) = 0.26372 0.12983
# Poissons Ratio (z) = 0.15728 0.03989
#
# Static dielectric constant tensor:
#      x y z
#    x 1.907450 0.000000 0.057170 
#    y 0.000000 1.931560 0.000000 
#    z 0.057170 0.000000 2.176070 
# 
# From -- ./inp_files/5188.got.cif
#   From: 2010.05.17/outbox.cif.g08.bks.cpg/sg13_3_cif.got.tgz:5188.got - 2010.06.03 16:44:36.
