data_PCOD9226245
_publ_section_title
;
Structure prediction by ZEFSAII (Michael W. Deem and Ramdas Pophale) SiO2 
 PCOD9226245
Probable space group: P 2/C
;
_chemical_formula_sum "Si O2"
_cell_formula_units_Z 26
_cell_length_a 23.619329
_cell_length_b 8.914092
_cell_length_c 8.838243
_cell_angle_alpha 90.000000
_cell_angle_beta 46.804046
_cell_angle_gamma 90.000000
_cell_volume 1356.588843
_symmetry_space_group_name_H-M "P 2/C"
_symmetry_group_IT_number 13
_symmetry_cell_setting 'monoclinic'
loop_
_space_group_symop_operation_xyz
x,y,z
-x,y,1/2-z
-x,-y,-z
x,-y,1/2+z
loop_
_atom_site_type_symbol
_atom_site_label
_atom_site_fract_x
_atom_site_fract_y
_atom_site_fract_z
Si Si1 0.738372 0.714402 0.576277
Si Si2 0.500000 0.246545 0.250000
Si Si3 0.500000 0.754517 0.250000
Si Si4 0.000000 0.550052 0.750000
Si Si5 0.399868 0.074675 0.181731
Si Si6 0.891074 0.396325 0.706169
Si Si7 0.741502 0.566018 0.901325
Si Si8 0.391308 0.285267 0.698659
O O1 0.686687 0.860348 0.665390
O O2 0.829660 0.728169 0.372785
O O3 0.731317 0.631941 0.752485
O O4 0.708513 0.599964 0.500171
O O5 0.446708 0.144290 0.237269
O O6 0.438807 0.335969 0.465224
O O7 0.444854 0.856261 0.456006
O O8 0.557015 0.662863 0.253419
O O9 0.052892 0.448795 0.762906
O O10 0.057503 0.639893 0.534061
O O11 0.396924 0.895984 0.187380
O O12 0.832514 0.535041 0.770403
O O13 0.696092 0.667086 0.106265
#
# Coordination Sequence:
#
# PCOD9226245 Si02
#       8
#     4   2   2   2   4   4   4   4
#     4  10  21  37  53  78 113 139 166 227 265 313
#     4  10  23  32  51  78  99 136 197 238 255 296
#     4  10  19  36  51  74 101 138 191 240 251 296
#     4  10  16  30  56  86 102 136 166 204 250 314
#     4  11  20  35  56  74 102 143 187 225 266 303
#     4   9  18  32  54  81 112 128 170 207 256 312
#     4  10  21  37  53  78 113 139 166 227 265 313
#     4  11  20  35  56  74 102 143 187 225 266 303
#
# _framework density 19.165717999999998
#
# number of rings (size 3 to 8) (size 9 to 14) (size 15 to 20)
#    0.923    0.923    3.077    3.692    2.154    0.000 
#    0.000    4.615    0.000    0.000    0.000    6.462 
#    0.000    0.000    0.000    0.000    0.000    0.000 
#
# Total GULP energy -144865.435787 kJ/mol
# GULP energy per Si atom -5571.747530 kJ/mol
# Density = 1.912210 g / cm^3
# Si number density = 19.165718 Si / 1000 Ang^3
#
#
#
# Elastic Constant Matrix: (Units=GPa)
#
#
# Indices 1 2 3 4 5 6 
#
# 1 88.5860 14.8426 39.8049 0.0000 -2.9057 0.0000
# 2 14.8426 21.8594 18.4028 0.0000 -8.2030 0.0000
# 3 39.8049 18.4028 167.3792 0.0000 -8.3553 0.0000
# 4 0.0000 0.0000 0.0000 17.5908 0.0000 -5.5801
# 5 -2.9057 -8.2030 -8.3553 0.0000 36.4806 0.0000
# 6 0.0000 0.0000 0.0000 -5.5801 0.0000 17.4837
#
#
#
# Elastic Compliance Matrix: (Units=1/GPa)
#
#
# Indices 1 2 3 4 5 6 
#
# 1 0.013635 -0.007633 -0.002463 0.000000 -0.001194 0.000000
# 2 -0.007633 0.058725 -0.004059 0.000000 0.011667 0.000000
# 3 -0.002463 -0.004059 0.007031 0.000000 0.000502 0.000000
# 4 0.000000 0.000000 0.000000 0.063252 0.000000 0.020188
# 5 -0.001194 0.011667 0.000502 0.000000 0.030055 0.000000
# 6 0.000000 0.000000 0.000000 0.020188 0.000000 0.063639
#
#
# Mechanical properties :
#
#
# Convention : Reuss Voigt Hill
#
# Bulk Modulus (GPa) = 19.57646 47.10281 33.33964
# Shear Modulus (GPa) = 17.75099 27.96263 22.85681
#
# Velocity S-wave (km/s) = 3.04663 3.82382 3.45713
# Velocity P-wave (km/s) = 4.75525 6.64270 5.77658
#
# Compressibility (1/GPa) = 0.05108176
#
# Stress axis : x y z
#
# Youngs Moduli (GPa) = 73.34145 17.02851 142.21721
#
# Poissons Ratio (x) = 0.12998 0.35027
# Poissons Ratio (y) = 0.55980 0.57727
# Poissons Ratio (z) = 0.18064 0.06912
#
# Static dielectric constant tensor:
#      x y z
#    x 1.697060 0.000000 0.020510 
#    y 0.000000 1.660880 0.000000 
#    z 0.020510 0.000000 1.728020 
# 
# From -- ./inp_files/20931.got.cif
#   From: 2010.05.17/outbox.cif.g08.bks.cpg/sg13_11_cif.got.tgz:20931.got - 2010.06.03 16:44:36.
