data_PCOD9226200
_publ_section_title
;
Structure prediction by ZEFSAII (Michael W. Deem and Ramdas Pophale) SiO2 
 PCOD9226200
Probable space group: P 2/C
;
_chemical_formula_sum "Si O2"
_cell_formula_units_Z 28
_cell_length_a 11.761916
_cell_length_b 23.377780
_cell_length_c 5.507321
_cell_angle_alpha 90.000000
_cell_angle_beta 72.197183
_cell_angle_gamma 90.000000
_cell_volume 1441.819343
_symmetry_space_group_name_H-M "P 2/C"
_symmetry_group_IT_number 13
_symmetry_cell_setting 'monoclinic'
loop_
_space_group_symop_operation_xyz
x,y,z
-x,y,1/2-z
-x,-y,-z
x,-y,1/2+z
loop_
_atom_site_type_symbol
_atom_site_label
_atom_site_fract_x
_atom_site_fract_y
_atom_site_fract_z
Si Si1 0.603772 0.340284 0.523183
Si Si2 0.500000 0.562722 0.750000
Si Si3 0.761662 0.528203 0.524204
Si Si4 0.136798 0.023676 0.410614
Si Si5 0.181972 0.362136 0.766525
Si Si6 0.923051 0.843774 0.550075
Si Si7 0.206668 0.729260 0.881096
Si Si8 0.000000 0.659960 0.750000
O O1 0.500000 0.311767 0.750000
O O2 0.542326 0.393379 0.429776
O O3 0.705996 0.366721 0.627956
O O4 0.668832 0.295852 0.300752
O O5 0.617005 0.526948 0.608440
O O6 0.803819 0.503748 0.752966
O O7 0.797944 0.594126 0.465472
O O8 0.127381 0.091929 0.416749
O O9 0.191588 0.000007 0.624853
O O10 0.000000 0.000000 0.500000
O O11 0.184021 0.298081 0.660429
O O12 0.062314 0.374156 0.992802
O O13 0.819624 0.796017 0.611494
O O14 0.000000 0.836956 0.750000
O O15 0.000000 0.836604 0.250000
O O16 0.103937 0.699813 0.786076
#
# Coordination Sequence:
#
# PCOD9226200 Si02
#       8
#     4   2   4   4   4   4   4   2
#     4  11  21  39  64  86 116 155 186 239 318 366
#     4  12  22  42  64  90 118 146 180 250 310 386
#     4  12  26  41  64  94 116 144 191 246 304 378
#     4  10  16  30  48  76 116 169 192 242 290 336
#     4  11  23  41  61  83 120 152 194 242 306 354
#     4  12  21  33  55  85 122 162 212 239 285 343
#     4  11  23  38  58  87 116 158 204 250 287 355
#     4  10  22  38  62  78 110 160 200 232 292 344
#
# _framework density 19.419908
#
# number of rings (size 3 to 8) (size 9 to 14) (size 15 to 20)
#    0.000    0.857    6.429    2.571    4.000    0.000 
#    0.000    0.714    0.000    0.000    0.000    0.000 
#    0.000    1.143    0.000    0.000    0.000    0.000 
#
# Total GULP energy -156487.061676 kJ/mol
# GULP energy per Si atom -5588.823631 kJ/mol
# Density = 1.937571 g / cm^3
# Si number density = 19.419908 Si / 1000 Ang^3
#
#
#
# Elastic Constant Matrix: (Units=GPa)
#
#
# Indices 1 2 3 4 5 6 
#
# 1 35.1239 4.6180 25.2742 0.0000 0.3256 0.0000
# 2 4.6180 105.0256 34.5064 0.0000 2.9361 0.0000
# 3 25.2742 34.5064 137.8561 0.0000 4.7133 0.0000
# 4 0.0000 0.0000 0.0000 18.6111 0.0000 -0.9909
# 5 0.3256 2.9361 4.7133 0.0000 38.5950 0.0000
# 6 0.0000 0.0000 0.0000 -0.9909 0.0000 13.4427
#
#
#
# Elastic Compliance Matrix: (Units=1/GPa)
#
#
# Indices 1 2 3 4 5 6 
#
# 1 0.032837 0.000574 -0.006179 0.000000 0.000434 0.000000
# 2 0.000574 0.010393 -0.002691 0.000000 -0.000467 0.000000
# 3 -0.006179 -0.002691 0.009089 0.000000 -0.000853 0.000000
# 4 0.000000 0.000000 0.000000 0.053943 0.000000 0.003976
# 5 0.000434 -0.000467 -0.000853 0.000000 0.026046 0.000000
# 6 0.000000 0.000000 0.000000 0.003976 0.000000 0.074683
#
#
# Mechanical properties :
#
#
# Convention : Reuss Voigt Hill
#
# Bulk Modulus (GPa) = 27.98851 45.20032 36.59441
# Shear Modulus (GPa) = 21.23207 28.37024 24.80115
#
# Velocity S-wave (km/s) = 3.31012 3.82630 3.57753
# Velocity P-wave (km/s) = 5.39006 6.54573 5.99580
#
# Compressibility (1/GPa) = 0.03572895
#
# Stress axis : x y z
#
# Youngs Moduli (GPa) = 30.45318 96.21515 110.01753
#
# Poissons Ratio (x) = -0.05524 0.67978
# Poissons Ratio (y) = -0.01748 0.29604
# Poissons Ratio (z) = 0.18817 0.25890
#
# Static dielectric constant tensor:
#      x y z
#    x 1.748150 0.000000 0.029160 
#    y 0.000000 1.662550 0.000000 
#    z 0.029160 0.000000 1.802000 
# 
# From -- ./inp_files/4117.got.cif
#   From: 2010.05.17/outbox.cif.g08.bks.cpg/sg13_3_cif.got.tgz:4117.got - 2010.06.03 16:44:36.
