data_PCOD9226441
_publ_section_title
;
Structure prediction by ZEFSAII (Michael W. Deem and Ramdas Pophale) SiO2 
 PCOD9226441
Probable space group: P 2/C
;
_chemical_formula_sum "Si O2"
_cell_formula_units_Z 24
_cell_length_a 19.811805
_cell_length_b 8.017347
_cell_length_c 8.940573
_cell_angle_alpha 90.000000
_cell_angle_beta 122.807422
_cell_angle_gamma 90.000000
_cell_volume 1193.592137
_symmetry_space_group_name_H-M "P 2/C"
_symmetry_group_IT_number 13
_symmetry_cell_setting 'monoclinic'
loop_
_space_group_symop_operation_xyz
x,y,z
-x,y,1/2-z
-x,-y,-z
x,-y,1/2+z
loop_
_atom_site_type_symbol
_atom_site_label
_atom_site_fract_x
_atom_site_fract_y
_atom_site_fract_z
Si Si1 0.141345 0.465657 0.111113
Si Si2 0.916618 0.727743 0.682714
Si Si3 0.639432 0.949066 0.591990
Si Si4 0.416642 0.235682 0.192908
Si Si5 0.753416 0.075643 0.983108
Si Si6 0.239082 0.313234 0.962315
O O1 0.093529 0.340522 0.161371
O O2 0.191279 0.589212 0.278098
O O3 0.084979 0.573187 0.934725
O O4 0.203092 0.373363 0.076073
O O5 0.835386 0.829346 0.554603
O O6 0.000000 0.820203 0.750000
O O7 0.589110 0.834053 0.644238
O O8 0.699148 0.850434 0.551951
O O9 0.590718 0.074825 0.427205
O O10 0.696712 0.057056 0.770911
O O11 0.500000 0.320424 0.250000
O O12 0.334982 0.338698 0.070048
O O13 0.772313 0.886047 0.055609
#
# Coordination Sequence:
#
# PCOD9226441 Si02
#       6
#     4   4   4   4   4   4
#     4  10  21  38  55  72 106 146 174 200 259 328
#     4  11  21  35  55  81 106 134 172 219 257 297
#     4   8  17  30  49  74 104 138 168 206 263 314
#     4  10  17  29  49  78 106 132 170 218 257 297
#     4  10  18  35  56  78 102 134 180 218 250 305
#     4   9  20  37  56  75 100 142 178 209 256 317
#
# _framework density 20.10737
#
# number of rings (size 3 to 8) (size 9 to 14) (size 15 to 20)
#    0.000    2.667    0.000    5.000    0.000    0.000 
#    0.000   11.667    0.000    0.000    0.000    0.000 
#    0.000    0.000    0.000    0.000    0.000    0.000 
#
# Total GULP energy -133878.111602 kJ/mol
# GULP energy per Si atom -5578.254650 kJ/mol
# Density = 2.006161 g / cm^3
# Si number density = 20.107370 Si / 1000 Ang^3
#
#
#
# Elastic Constant Matrix: (Units=GPa)
#
#
# Indices 1 2 3 4 5 6 
#
# 1 152.5394 11.1069 41.6645 0.0000 0.5144 0.0000
# 2 11.1069 22.0151 -3.3121 0.0000 -7.8728 0.0000
# 3 41.6645 -3.3121 57.0961 0.0000 -27.5455 0.0000
# 4 0.0000 0.0000 0.0000 21.7021 0.0000 -1.9137
# 5 0.5144 -7.8728 -27.5455 0.0000 31.9267 0.0000
# 6 0.0000 0.0000 0.0000 -1.9137 0.0000 21.6440
#
#
#
# Elastic Compliance Matrix: (Units=1/GPa)
#
#
# Indices 1 2 3 4 5 6 
#
# 1 0.015273 -0.021548 -0.025828 0.000000 -0.027844 0.000000
# 2 -0.021548 0.089189 0.054262 0.000000 0.069156 0.000000
# 3 -0.025828 0.054262 0.079083 0.000000 0.082027 0.000000
# 4 0.000000 0.000000 0.000000 0.046441 0.000000 0.004106
# 5 -0.027844 0.069156 0.082027 0.000000 0.119594 0.000000
# 6 0.000000 0.000000 0.000000 0.004106 0.000000 0.046565
#
#
# Mechanical properties :
#
#
# Convention : Reuss Voigt Hill
#
# Bulk Modulus (GPa) = 5.06800 36.72990 20.89895
# Shear Modulus (GPa) = 11.15705 27.20066 19.17886
#
# Velocity S-wave (km/s) = 2.35813 3.68199 3.09175
# Velocity P-wave (km/s) = 3.15283 6.03180 4.81264
#
# Compressibility (1/GPa) = 0.19731644
#
# Stress axis : x y z
#
# Youngs Moduli (GPa) = 65.47374 11.21211 12.64494
#
# Poissons Ratio (x) = 0.24160 0.32660
# Poissons Ratio (y) = 1.41086 -0.68614
# Poissons Ratio (z) = 1.69107 -0.60839
#
# Static dielectric constant tensor:
#      x y z
#    x 1.756490 0.000000 0.001320 
#    y 0.000000 1.718060 0.000000 
#    z 0.001320 0.000000 1.732260 
# 
# From -- ./inp_files/22574.got.cif
#   From: 2010.05.17/outbox.cif.g08.bks.cpg/sg13_12_cif.got.tgz:22574.got - 2010.06.03 16:44:36.
