data_PCOD9226163
_publ_section_title
;
Structure prediction by ZEFSAII (Michael W. Deem and Ramdas Pophale) SiO2 
 PCOD9226163
Probable space group: P 2/C
;
_chemical_formula_sum "Si O2"
_cell_formula_units_Z 28
_cell_length_a 11.805238
_cell_length_b 8.947128
_cell_length_c 15.089060
_cell_angle_alpha 90.000000
_cell_angle_beta 65.307346
_cell_angle_gamma 90.000000
_cell_volume 1448.021567
_symmetry_space_group_name_H-M "P 2/C"
_symmetry_group_IT_number 13
_symmetry_cell_setting 'monoclinic'
loop_
_space_group_symop_operation_xyz
x,y,z
-x,y,1/2-z
-x,-y,-z
x,-y,1/2+z
loop_
_atom_site_type_symbol
_atom_site_label
_atom_site_fract_x
_atom_site_fract_y
_atom_site_fract_z
Si Si1 0.312950 0.237221 0.918616
Si Si2 0.000000 0.047298 0.750000
Si Si3 0.979372 0.500728 0.359716
Si Si4 0.500000 0.964267 0.250000
Si Si5 0.093845 0.935482 0.397700
Si Si6 0.283294 0.810485 0.785253
Si Si7 0.205554 0.448774 0.424396
Si Si8 0.182723 0.215434 0.135970
O O1 0.427643 0.146001 0.840657
O O2 0.189368 0.176453 0.910350
O O3 0.300835 0.414517 0.909339
O O4 0.288905 0.198167 0.028234
O O5 0.890311 0.937928 0.821158
O O6 0.960800 0.133521 0.674524
O O7 0.876727 0.577511 0.459153
O O8 0.918137 0.335082 0.365849
O O9 0.000000 0.551465 0.250000
O O10 0.104121 0.486754 0.379385
O O11 0.600320 0.077692 0.259669
O O12 0.168560 0.081016 0.343184
O O13 0.000000 0.000000 0.500000
O O14 0.283842 0.692315 0.864345
O O15 0.248597 0.732315 0.704493
#
# Coordination Sequence:
#
# PCOD9226163 Si02
#       8
#     4   2   4   2   4   4   4   4
#     4  10  22  38  58  85 117 159 197 254 299 335
#     4  10  16  28  52  84 118 156 186 226 296 372
#     4  10  17  31  55  92 131 151 176 234 304 376
#     4  10  24  44  62  78 114 160 212 262 286 334
#     4  10  19  32  53  83 121 151 191 241 299 366
#     4  10  21  38  61  83 110 159 207 243 294 353
#     4  10  21  33  60  90 120 158 192 238 303 365
#     4  10  17  32  60  86 116 155 195 232 299 365
#
# _framework density 19.336728999999998
#
# number of rings (size 3 to 8) (size 9 to 14) (size 15 to 20)
#    0.000    2.000    3.571    0.857    4.000    1.143 
#    1.286    0.000    6.286    2.571    0.000    0.000 
#    0.000    0.000    0.000    0.000    0.000    0.000 
#
# Total GULP energy -156070.698687 kJ/mol
# GULP energy per Si atom -5573.953525 kJ/mol
# Density = 1.929272 g / cm^3
# Si number density = 19.336729 Si / 1000 Ang^3
#
#
#
# Elastic Constant Matrix: (Units=GPa)
#
#
# Indices 1 2 3 4 5 6 
#
# 1 46.8551 10.9924 48.8203 0.0000 -6.3931 0.0000
# 2 10.9924 61.0020 36.4667 0.0000 -7.1161 0.0000
# 3 48.8203 36.4667 128.1619 0.0000 7.8426 0.0000
# 4 0.0000 0.0000 0.0000 4.2002 0.0000 6.4710
# 5 -6.3931 -7.1161 7.8426 0.0000 32.3856 0.0000
# 6 0.0000 0.0000 0.0000 6.4710 0.0000 21.8947
#
#
#
# Elastic Compliance Matrix: (Units=1/GPa)
#
#
# Indices 1 2 3 4 5 6 
#
# 1 0.040267 0.004748 -0.017499 0.000000 0.013230 0.000000
# 2 0.004748 0.021442 -0.008380 0.000000 0.007678 0.000000
# 3 -0.017499 -0.008380 0.017435 0.000000 -0.009518 0.000000
# 4 0.000000 0.000000 0.000000 0.437119 0.000000 -0.129191
# 5 0.013230 0.007678 -0.009518 0.000000 0.037482 0.000000
# 6 0.000000 0.000000 0.000000 -0.129191 0.000000 0.083855
#
#
# Mechanical properties :
#
#
# Convention : Reuss Voigt Hill
#
# Bulk Modulus (GPa) = 27.11268 47.61978 37.36623
# Shear Modulus (GPa) = 7.22379 21.01207 14.11793
#
# Velocity S-wave (km/s) = 1.93492 3.30000 2.70499
# Velocity P-wave (km/s) = 4.36390 6.26099 5.39647
#
# Compressibility (1/GPa) = 0.03688311
#
# Stress axis : x y z
#
# Youngs Moduli (GPa) = 24.83425 46.63675 57.35449
#
# Poissons Ratio (x) = -0.22145 1.00367
# Poissons Ratio (y) = -0.11792 0.48062
# Poissons Ratio (z) = 0.43459 0.39081
#
# Static dielectric constant tensor:
#      x y z
#    x 1.662560 0.000000 0.031130 
#    y 0.000000 1.721020 0.000000 
#    z 0.031130 0.000000 1.745550 
# 
# From -- ./inp_files/50010.got.cif
#   From: 2010.05.17/outbox.cif.g08.bks.cpg/sg13_26_cif.got.tgz:50010.got - 2010.06.03 16:44:36.
