data_PCOD9226374
_publ_section_title
;
Structure prediction by ZEFSAII (Michael W. Deem and Ramdas Pophale) SiO2 
 PCOD9226374
Probable space group: P 2/C
;
_chemical_formula_sum "Si O2"
_cell_formula_units_Z 16
_cell_length_a 7.028115
_cell_length_b 16.714518
_cell_length_c 5.442445
_cell_angle_alpha 90.000000
_cell_angle_beta 77.817800
_cell_angle_gamma 90.000000
_cell_volume 624.935666
_symmetry_space_group_name_H-M "P 2/C"
_symmetry_group_IT_number 13
_symmetry_cell_setting 'monoclinic'
loop_
_space_group_symop_operation_xyz
x,y,z
-x,y,1/2-z
-x,-y,-z
x,-y,1/2+z
loop_
_atom_site_type_symbol
_atom_site_label
_atom_site_fract_x
_atom_site_fract_y
_atom_site_fract_z
Si Si1 0.273949 0.527150 0.608420
Si Si2 0.267737 0.293081 0.298195
Si Si3 0.265856 0.785850 0.301141
Si Si4 0.779577 0.970477 0.103076
O O1 0.500000 0.500000 0.500000
O O2 0.195843 0.528975 0.350266
O O3 0.248933 0.613404 0.740492
O O4 0.500000 0.279101 0.250000
O O5 0.195732 0.260901 0.578896
O O6 0.191815 0.247364 0.080053
O O7 0.500000 0.775744 0.250000
O O8 0.225338 0.879883 0.302236
O O9 0.693584 0.022296 0.351426
O O10 0.000000 0.000000 0.000000
#
# Coordination Sequence:
#
# PCOD9226374 Si02
#       4
#     4   4   4   4
#     4  10  17  24  41  63  95 147 195 202 239 303
#     4  10  18  29  43  68 107 143 183 211 256 309
#     4  10  21  32  49  75 106 140 175 218 274 314
#     4  10  21  38  58  76  97 133 177 229 269 322
#
# _framework density 25.602633000000001
#
# number of rings (size 3 to 8) (size 9 to 14) (size 15 to 20)
#    0.000    2.000    2.500    3.000    7.000    1.000 
#    0.000    0.000    0.000    0.000    0.000    0.000 
#    0.000    0.000    0.000  315.000    0.000    0.000 
#
# Total GULP energy -89455.558076 kJ/mol
# GULP energy per Si atom -5590.972380 kJ/mol
# Density = 2.554436 g / cm^3
# Si number density = 25.602633 Si / 1000 Ang^3
#
#
#
# Elastic Constant Matrix: (Units=GPa)
#
#
# Indices 1 2 3 4 5 6 
#
# 1 100.2515 -6.5134 58.4635 0.0000 1.2286 0.0000
# 2 -6.5134 133.3633 93.5951 0.0000 16.6395 0.0000
# 3 58.4635 93.5951 289.7844 0.0000 29.4311 0.0000
# 4 0.0000 0.0000 0.0000 56.9372 0.0000 0.6164
# 5 1.2286 16.6395 29.4311 0.0000 51.8741 0.0000
# 6 0.0000 0.0000 0.0000 0.6164 0.0000 41.7596
#
#
#
# Elastic Compliance Matrix: (Units=1/GPa)
#
#
# Indices 1 2 3 4 5 6 
#
# 1 0.012192 0.002951 -0.003488 0.000000 0.000744 0.000000
# 2 0.002951 0.010509 -0.003863 0.000000 -0.001249 0.000000
# 3 -0.003488 -0.003863 0.005590 0.000000 -0.001850 0.000000
# 4 0.000000 0.000000 0.000000 0.017566 0.000000 -0.000259
# 5 0.000744 -0.001249 -0.001850 0.000000 0.020710 0.000000
# 6 0.000000 0.000000 0.000000 -0.000259 0.000000 0.023950
#
#
# Mechanical properties :
#
#
# Convention : Reuss Voigt Hill
#
# Bulk Modulus (GPa) = 51.30709 90.49884 70.90296
# Shear Modulus (GPa) = 47.25240 55.30444 51.27842
#
# Velocity S-wave (km/s) = 4.30071 4.65274 4.48018
# Velocity P-wave (km/s) = 6.68915 8.01799 7.38353
#
# Compressibility (1/GPa) = 0.01949048
#
# Stress axis : x y z
#
# Youngs Moduli (GPa) = 82.02286 95.15523 178.88975
#
# Poissons Ratio (x) = -0.28077 0.62401
# Poissons Ratio (y) = -0.24202 0.69099
# Poissons Ratio (z) = 0.28611 0.36755
#
# Static dielectric constant tensor:
#      x y z
#    x 3.164710 0.000000 0.402170 
#    y 0.000000 1.992160 0.000000 
#    z 0.402170 0.000000 2.162130 
# 
# From -- ./inp_files/1094.got.cif
#   From: 2010.05.17/outbox.cif.g08.bks.cpg/sg13_1_cif.got.tgz:1094.got - 2010.06.03 16:44:36.
