data_PCOD9226054
_publ_section_title
;
Structure prediction by ZEFSAII (Michael W. Deem and Ramdas Pophale) SiO2 
 PCOD9226054
Probable space group: P 2/C
;
_chemical_formula_sum "Si O2"
_cell_formula_units_Z 32
_cell_length_a 14.692477
_cell_length_b 7.309124
_cell_length_c 24.069353
_cell_angle_alpha 90.000000
_cell_angle_beta 148.796117
_cell_angle_gamma 90.000000
_cell_volume 1339.139329
_symmetry_space_group_name_H-M "P 2/C"
_symmetry_group_IT_number 13
_symmetry_cell_setting 'monoclinic'
loop_
_space_group_symop_operation_xyz
x,y,z
-x,y,1/2-z
-x,-y,-z
x,-y,1/2+z
loop_
_atom_site_type_symbol
_atom_site_label
_atom_site_fract_x
_atom_site_fract_y
_atom_site_fract_z
Si Si1 0.917360 0.564109 0.764616
Si Si2 0.259008 0.943058 0.022811
Si Si3 0.295404 0.513687 0.160408
Si Si4 0.952279 0.999891 0.786098
Si Si5 0.196053 0.930704 0.110926
Si Si6 0.404905 0.519070 0.833246
Si Si7 0.373679 0.085138 0.816444
Si Si8 0.789963 0.497153 0.502425
O O1 0.955031 0.779885 0.785069
O O2 0.712272 0.553116 0.673629
O O3 0.000000 0.497400 0.750000
O O4 0.030808 0.464430 0.871414
O O5 0.294008 0.988025 0.105410
O O6 0.430318 0.989050 0.076413
O O7 0.227726 0.721423 0.007932
O O8 0.093099 0.040170 0.908081
O O9 0.500000 0.546818 0.250000
O O10 0.203041 0.710019 0.117811
O O11 0.305763 0.413528 0.225115
O O12 0.210540 0.426660 0.061149
O O13 0.000000 0.069329 0.750000
O O14 0.758578 0.056179 0.702691
O O15 0.283395 0.992299 0.213734
O O16 0.000000 0.000000 0.000000
O O17 0.400683 0.300860 0.823178
O O18 0.610315 0.570741 0.938209
#
# Coordination Sequence:
#
# PCOD9226054 Si02
#       8
#     4   4   4   4   4   4   4   4
#     4  10  21  35  51  72 100 135 171 207 254 302
#     4   9  17  32  51  74 103 135 169 198 249 311
#     4   8  15  29  50  76  98 127 170 203 240 303
#     4  10  21  36  51  72 102 137 173 207 255 308
#     4  10  15  25  50  78 101 128 160 206 245 300
#     4   9  18  33  54  76  97 125 172 213 242 294
#     4  10  19  33  54  77 100 132 170 211 250 296
#     4   8  16  32  53  72  97 134 164 200 249 306
#
# _framework density 23.895945000000001
#
# number of rings (size 3 to 8) (size 9 to 14) (size 15 to 20)
#    0.000    2.750    1.250    2.625    0.000    2.000 
#    0.000    1.250    0.000    3.000    0.000    0.000 
#    0.000    0.000    0.000    0.000    0.000    0.000 
#
# Total GULP energy -178714.222621 kJ/mol
# GULP energy per Si atom -5584.819457 kJ/mol
# Density = 2.384156 g / cm^3
# Si number density = 23.895945 Si / 1000 Ang^3
#
#
#
# Elastic Constant Matrix: (Units=GPa)
#
#
# Indices 1 2 3 4 5 6 
#
# 1 117.3895 -10.7498 -6.4396 0.0000 22.4014 0.0000
# 2 -10.7498 70.0081 -6.3274 0.0000 -1.0815 0.0000
# 3 -6.4396 -6.3274 18.7062 0.0000 17.1549 0.0000
# 4 0.0000 0.0000 0.0000 4.2953 0.0000 16.4918
# 5 22.4014 -1.0815 17.1549 0.0000 26.7330 0.0000
# 6 0.0000 0.0000 0.0000 16.4918 0.0000 -40.8902
#
#
#
# Elastic Compliance Matrix: (Units=1/GPa)
#
#
# Indices 1 2 3 4 5 6 
#
# 1 0.030503 0.011617 0.090982 0.000000 -0.083474 0.000000
# 2 0.011617 0.019612 0.045766 0.000000 -0.038310 0.000000
# 3 0.090982 0.045766 0.409416 0.000000 -0.337115 0.000000
# 4 0.000000 0.000000 0.000000 0.091351 0.000000 0.036844
# 5 -0.083474 -0.038310 -0.337115 0.000000 0.322136 0.000000
# 6 0.000000 0.000000 0.000000 0.036844 0.000000 -0.009596
#
#
# Mechanical properties :
#
#
# Convention : Reuss Voigt Hill
#
# Bulk Modulus (GPa) = 1.32230 17.67449 9.49839
# Shear Modulus (GPa) = 6.10665 13.33566 9.72115
#
# Velocity S-wave (km/s) = 1.60033 2.36492 2.01915
# Velocity P-wave (km/s) = 1.99231 3.85611 3.06911
#
# Compressibility (1/GPa) = 0.75626052
#
# Stress axis : x y z
#
# Youngs Moduli (GPa) = 32.78394 50.98798 2.44250
#
# Poissons Ratio (x) = -0.59234 -0.22222
# Poissons Ratio (y) = -0.38086 -0.11178
# Poissons Ratio (z) = -2.98273 -2.33352
#
# Static dielectric constant tensor:
#      x y z
#    x 1.942130 0.000000 -0.010520 
#    y 0.000000 1.957010 0.000000 
#    z -0.010520 0.000000 1.890200 
# 
# From -- ./inp_files/58840.got.cif
#   From: 2010.05.17/outbox.cif.g08.bks.cpg/sg13_30_cif.got.tgz:58840.got - 2010.06.03 16:44:36.
