data_PCOD9226206
_publ_section_title
;
Structure prediction by ZEFSAII (Michael W. Deem and Ramdas Pophale) SiO2 
 PCOD9226206
Probable space group: P 2/C
;
_chemical_formula_sum "Si O2"
_cell_formula_units_Z 28
_cell_length_a 13.127548
_cell_length_b 5.400966
_cell_length_c 18.431888
_cell_angle_alpha 90.000000
_cell_angle_beta 99.170937
_cell_angle_gamma 90.000000
_cell_volume 1290.142288
_symmetry_space_group_name_H-M "P 2/C"
_symmetry_group_IT_number 13
_symmetry_cell_setting 'monoclinic'
loop_
_space_group_symop_operation_xyz
x,y,z
-x,y,1/2-z
-x,-y,-z
x,-y,1/2+z
loop_
_atom_site_type_symbol
_atom_site_label
_atom_site_fract_x
_atom_site_fract_y
_atom_site_fract_z
Si Si1 0.226499 0.246171 0.748611
Si Si2 0.065562 0.703203 0.552174
Si Si3 0.120445 0.054427 0.925615
Si Si4 0.417913 0.321535 0.672809
Si Si5 0.496094 0.184124 0.159827
Si Si6 0.271181 0.755215 0.841442
Si Si7 0.024185 0.596302 0.177977
O O1 0.305131 0.284868 0.691925
O O2 0.260036 0.988878 0.787008
O O3 0.108320 0.206520 0.712952
O O4 0.240259 0.491804 0.801486
O O5 0.148022 0.818506 0.506022
O O6 0.090004 0.565340 0.629140
O O7 0.000000 0.500000 0.500000
O O8 0.983701 0.907058 0.568100
O O9 0.200782 0.859891 0.900024
O O10 0.076003 0.273325 0.868380
O O11 0.500000 0.338575 0.750000
O O12 0.454886 0.083529 0.632646
O O13 0.423607 0.584566 0.634909
O O14 0.500000 0.168454 0.250000
O O15 0.605398 0.251004 0.136257
O O16 0.000000 0.453149 0.250000
#
# Coordination Sequence:
#
# PCOD9226206 Si02
#       7
#     4   4   4   4   4   4   4
#     4  12  22  32  53  85 121 150 187 234 302 345
#     4   9  21  42  57  73 111 155 196 236 283 336
#     4  10  22  38  57  78 113 154 196 236 282 346
#     4  10  16  31  47  72 116 152 178 228 291 350
#     4  10  16  30  49  73 114 147 184 229 289 338
#     4  12  21  33  55  86 115 151 191 238 289 347
#     4  11  22  35  55  86 117 148 185 240 292 344
#
# _framework density 21.703033000000001
#
# number of rings (size 3 to 8) (size 9 to 14) (size 15 to 20)
#    0.000    1.429    7.143    0.857    4.000    0.571 
#    0.000    0.000    0.000    0.000    0.000    2.000 
#    0.000    0.000    0.000    0.000    0.000    0.000 
#
# Total GULP energy -155901.438200 kJ/mol
# GULP energy per Si atom -5567.908507 kJ/mol
# Density = 2.165364 g / cm^3
# Si number density = 21.703033 Si / 1000 Ang^3
#
#
#
# Elastic Constant Matrix: (Units=GPa)
#
#
# Indices 1 2 3 4 5 6 
#
# 1 47.3936 -20.6755 12.4143 0.0000 -22.5129 0.0000
# 2 -20.6755 92.3334 1.2460 0.0000 9.4345 0.0000
# 3 12.4143 1.2460 68.6717 0.0000 -13.2805 0.0000
# 4 0.0000 0.0000 0.0000 164.8509 0.0000 353.1074
# 5 -22.5129 9.4345 -13.2805 0.0000 14.3873 0.0000
# 6 0.0000 0.0000 0.0000 353.1074 0.0000 936.9980
#
#
#
# Elastic Compliance Matrix: (Units=1/GPa)
#
#
# Indices 1 2 3 4 5 6 
#
# 1 0.093530 0.004917 0.013004 0.000000 0.155133 0.000000
# 2 0.004917 0.012108 -0.001407 0.000000 -0.001546 0.000000
# 3 0.013004 -0.001407 0.019904 0.000000 0.039644 0.000000
# 4 0.000000 0.000000 0.000000 0.031464 0.000000 -0.011857
# 5 0.155133 -0.001546 0.039644 0.000000 0.349862 0.000000
# 6 0.000000 0.000000 0.000000 -0.011857 0.000000 0.005536
#
#
# Mechanical properties :
#
#
# Convention : Reuss Voigt Hill
#
# Bulk Modulus (GPa) = 6.30642 21.59646 13.95144
# Shear Modulus (GPa) = 9.39439 237.60815 123.50127
#
# Velocity S-wave (km/s) = 2.08279 10.47469 7.55173
# Velocity P-wave (km/s) = 2.94891 12.50059 9.08187
#
# Compressibility (1/GPa) = 0.15856847
#
# Stress axis : x y z
#
# Youngs Moduli (GPa) = 10.69177 82.58874 50.24229
#
# Poissons Ratio (x) = -0.40606 -0.65336
# Poissons Ratio (y) = -0.05257 0.07071
# Poissons Ratio (z) = -0.13904 0.11624
#
# Static dielectric constant tensor:
#      x y z
#    x 2.601130 0.000000 0.167620 
#    y 0.000000 1.878320 0.000000 
#    z 0.167620 0.000000 1.879720 
# 
# From -- ./inp_files/67328.got.cif
#   From: 2010.05.17/outbox.cif.g08.bks.cpg/sg13_34_cif.got.tgz:67328.got - 2010.06.03 16:44:36.
