data_PCOD9226538
_publ_section_title
;
Structure prediction by ZEFSAII (Michael W. Deem and Ramdas Pophale) SiO2 
 PCOD9226538
Probable space group: P 2/C
;
_chemical_formula_sum "Si O2"
_cell_formula_units_Z 32
_cell_length_a 16.251501
_cell_length_b 12.591070
_cell_length_c 19.363823
_cell_angle_alpha 90.000000
_cell_angle_beta 158.182620
_cell_angle_gamma 90.000000
_cell_volume 1472.586219
_symmetry_space_group_name_H-M "P 2/C"
_symmetry_group_IT_number 13
_symmetry_cell_setting 'monoclinic'
loop_
_space_group_symop_operation_xyz
x,y,z
-x,y,1/2-z
-x,-y,-z
x,-y,1/2+z
loop_
_atom_site_type_symbol
_atom_site_label
_atom_site_fract_x
_atom_site_fract_y
_atom_site_fract_z
Si Si1 0.759859 0.906523 0.070342
Si Si2 0.405120 0.405831 0.476292
Si Si3 0.290821 0.044853 0.199416
Si Si4 0.863799 0.881348 0.307837
Si Si5 0.858837 0.351510 0.869094
Si Si6 0.310809 0.667614 0.503718
Si Si7 0.982630 0.548337 0.330815
Si Si8 0.725316 0.725332 0.745721
O O1 0.742828 0.893304 0.140527
O O2 0.000000 0.956554 0.250000
O O3 0.544020 0.963992 0.874625
O O4 0.753788 0.789171 0.030611
O O5 0.500000 0.500000 0.500000
O O6 0.604947 0.384414 0.685119
O O7 0.158988 0.445627 0.303946
O O8 0.379587 0.302038 0.409270
O O9 0.269187 0.151884 0.229512
O O10 0.237947 0.946871 0.207674
O O11 0.112557 0.068321 0.000764
O O12 0.867292 0.759340 0.333218
O O13 0.960864 0.436851 0.895268
O O14 0.032487 0.326752 0.064011
O O15 0.168947 0.637236 0.325571
O O16 0.566002 0.671019 0.679643
O O17 0.225032 0.581904 0.492487
#
# Coordination Sequence:
#
# PCOD9226538 Si02
#       8
#     4   4   4   4   4   4   4   4
#     4  11  18  30  52  75 109 134 161 205 256 313
#     4  10  19  32  46  69  99 134 167 206 247 291
#     4   9  21  32  52  81 107 135 171 208 255 307
#     4  10  18  35  52  79 108 137 168 208 259 303
#     4  10  18  31  53  72 100 135 168 208 247 298
#     4  10  17  32  48  71 103 133 156 203 259 299
#     4  10  18  31  48  69 103 136 158 201 260 299
#     4  10  19  32  52  75 100 129 174 206 249 301
#
# _framework density 21.730477
#
# number of rings (size 3 to 8) (size 9 to 14) (size 15 to 20)
#    0.000    2.000    5.000    1.125    0.000    3.000 
#    0.000    3.750    0.000    0.000   13.000    0.000 
#    0.000    0.000    0.000    0.000    0.000    0.000 
#
# Total GULP energy -178295.306682 kJ/mol
# GULP energy per Si atom -5571.728334 kJ/mol
# Density = 2.168102 g / cm^3
# Si number density = 21.730477 Si / 1000 Ang^3
#
#
#
# Elastic Constant Matrix: (Units=GPa)
#
#
# Indices 1 2 3 4 5 6 
#
# 1 35.9857 12.7532 9.0985 0.0000 8.6131 0.0000
# 2 12.7532 40.1614 3.9653 0.0000 6.3032 0.0000
# 3 9.0985 3.9653 117.3765 0.0000 20.6720 0.0000
# 4 0.0000 0.0000 0.0000 20.4033 0.0000 4.9451
# 5 8.6131 6.3032 20.6720 0.0000 30.0735 0.0000
# 6 0.0000 0.0000 0.0000 4.9451 0.0000 24.1137
#
#
#
# Elastic Compliance Matrix: (Units=1/GPa)
#
#
# Indices 1 2 3 4 5 6 
#
# 1 0.032972 -0.009304 -0.001049 0.000000 -0.006772 0.000000
# 2 -0.009304 0.028373 0.000388 0.000000 -0.003549 0.000000
# 3 -0.001049 0.000388 0.009727 0.000000 -0.006467 0.000000
# 4 0.000000 0.000000 0.000000 0.051575 0.000000 -0.010577
# 5 -0.006772 -0.003549 -0.006467 0.000000 0.040380 0.000000
# 6 0.000000 0.000000 0.000000 -0.010577 0.000000 0.043639
#
#
# Mechanical properties :
#
#
# Convention : Reuss Voigt Hill
#
# Bulk Modulus (GPa) = 19.55360 27.23973 23.39667
# Shear Modulus (GPa) = 20.52182 26.09856 23.31019
#
# Velocity S-wave (km/s) = 3.07641 3.46932 3.27876
# Velocity P-wave (km/s) = 4.65154 5.34890 5.01236
#
# Compressibility (1/GPa) = 0.05114147
#
# Stress axis : x y z
#
# Youngs Moduli (GPa) = 30.32864 35.24531 102.80958
#
# Poissons Ratio (x) = 0.32792 0.10783
# Poissons Ratio (y) = 0.28217 -0.03985
# Poissons Ratio (z) = 0.03181 -0.01366
#
# Static dielectric constant tensor:
#      x y z
#    x 1.850780 0.000000 0.061890 
#    y 0.000000 1.795840 0.000000 
#    z 0.061890 0.000000 1.865180 
# 
# From -- ./inp_files/81144.got.cif
#   From: 2010.05.17/outbox.cif.g08.bks.cpg/sg13_41_cif.got.tgz:81144.got - 2010.06.03 16:44:36.
