data_PCOD9226317
_publ_section_title
;
Structure prediction by ZEFSAII (Michael W. Deem and Ramdas Pophale) SiO2 
 PCOD9226317
Probable space group: P 2/C
;
_chemical_formula_sum "Si O2"
_cell_formula_units_Z 20
_cell_length_a 8.466280
_cell_length_b 8.448928
_cell_length_c 19.705222
_cell_angle_alpha 90.000000
_cell_angle_beta 130.554938
_cell_angle_gamma 90.000000
_cell_volume 1070.939852
_symmetry_space_group_name_H-M "P 2/C"
_symmetry_group_IT_number 13
_symmetry_cell_setting 'monoclinic'
loop_
_space_group_symop_operation_xyz
x,y,z
-x,y,1/2-z
-x,-y,-z
x,-y,1/2+z
loop_
_atom_site_type_symbol
_atom_site_label
_atom_site_fract_x
_atom_site_fract_y
_atom_site_fract_z
Si Si1 0.735494 0.672823 0.798494
Si Si2 0.000000 0.136913 0.750000
Si Si3 0.500000 0.834353 0.250000
Si Si4 0.164958 0.143470 0.036626
Si Si5 0.375653 0.931922 0.835857
Si Si6 0.913023 0.662807 0.360948
O O1 0.500000 0.619531 0.750000
O O2 0.797983 0.787974 0.877684
O O3 0.716400 0.772572 0.723791
O O4 0.887115 0.523091 0.840612
O O5 0.954985 0.247114 0.802024
O O6 0.806491 0.022973 0.675944
O O7 0.691535 0.727374 0.325755
O O8 0.576129 0.948851 0.212412
O O9 0.392870 0.096265 0.070983
O O10 0.074804 0.278785 0.962371
O O11 0.000000 0.000000 0.000000
#
# Coordination Sequence:
#
# PCOD9226317 Si02
#       6
#     4   2   2   4   4   4
#     4  10  20  36  61  88 113 149 195 247 287 325
#     4  10  24  38  56  82 120 164 188 220 298 364
#     4  10  16  34  58  78 108 154 194 228 274 336
#     4  11  19  34  62  90 111 145 204 248 274 330
#     4  10  19  38  59  83 113 156 194 231 286 352
#     4  11  21  35  56  87 118 149 189 244 286 337
#
# _framework density 18.675184999999999
#
# number of rings (size 3 to 8) (size 9 to 14) (size 15 to 20)
#    0.000    1.600    6.000    1.800    0.000    1.600 
#    0.000    0.000    0.000    7.200    0.000    0.000 
#    0.000    0.000    0.000    0.000    0.000    0.000 
#
# Total GULP energy -111468.646405 kJ/mol
# GULP energy per Si atom -5573.432320 kJ/mol
# Density = 1.863268 g / cm^3
# Si number density = 18.675185 Si / 1000 Ang^3
#
#
#
# Elastic Constant Matrix: (Units=GPa)
#
#
# Indices 1 2 3 4 5 6 
#
# 1 47.9872 32.7347 17.4633 0.0000 17.3860 0.0000
# 2 32.7347 107.6301 34.2810 0.0000 17.7884 0.0000
# 3 17.4633 34.2810 95.9451 0.0000 23.9228 0.0000
# 4 0.0000 0.0000 0.0000 31.1756 0.0000 11.0613
# 5 17.3860 17.7884 23.9228 0.0000 26.4884 0.0000
# 6 0.0000 0.0000 0.0000 11.0613 0.0000 21.3581
#
#
#
# Elastic Compliance Matrix: (Units=1/GPa)
#
#
# Indices 1 2 3 4 5 6 
#
# 1 0.031378 -0.007095 0.000995 0.000000 -0.016729 0.000000
# 2 -0.007095 0.012567 -0.002911 0.000000 -0.001153 0.000000
# 3 0.000995 -0.002911 0.014142 0.000000 -0.011470 0.000000
# 4 0.000000 0.000000 0.000000 0.039297 0.000000 -0.020352
# 5 -0.016729 -0.001153 -0.011470 0.000000 0.059866 0.000000
# 6 0.000000 0.000000 0.000000 -0.020352 0.000000 0.057361
#
#
# Mechanical properties :
#
#
# Convention : Reuss Voigt Hill
#
# Bulk Modulus (GPa) = 24.96035 46.72447 35.84241
# Shear Modulus (GPa) = 20.32619 26.94330 23.63475
#
# Velocity S-wave (km/s) = 3.30268 3.80245 3.56134
# Velocity P-wave (km/s) = 5.28565 6.65973 6.01208
#
# Compressibility (1/GPa) = 0.04006355
#
# Stress axis : x y z
#
# Youngs Moduli (GPa) = 31.86953 79.57430 70.71361
#
# Poissons Ratio (x) = 0.56461 -0.07037
# Poissons Ratio (y) = 0.22613 0.20586
# Poissons Ratio (z) = -0.03172 0.23165
#
# Static dielectric constant tensor:
#      x y z
#    x 1.668290 0.000000 0.039240 
#    y 0.000000 1.660530 0.000000 
#    z 0.039240 0.000000 1.663610 
# 
# From -- ./inp_files/45560.got.cif
#   From: 2010.05.17/outbox.cif.g08.bks.cpg/sg13_23_cif.got.tgz:45560.got - 2010.06.03 16:44:36.
