data_PCOD9226545
_publ_section_title
;
Structure prediction by ZEFSAII (Michael W. Deem and Ramdas Pophale) SiO2 
 PCOD9226545
Probable space group: P 2/C
;
_chemical_formula_sum "Si O2"
_cell_formula_units_Z 26
_cell_length_a 15.993206
_cell_length_b 5.702121
_cell_length_c 17.214307
_cell_angle_alpha 90.000000
_cell_angle_beta 138.643886
_cell_angle_gamma 90.000000
_cell_volume 1037.266161
_symmetry_space_group_name_H-M "P 2/C"
_symmetry_group_IT_number 13
_symmetry_cell_setting 'monoclinic'
loop_
_space_group_symop_operation_xyz
x,y,z
-x,y,1/2-z
-x,-y,-z
x,-y,1/2+z
loop_
_atom_site_type_symbol
_atom_site_label
_atom_site_fract_x
_atom_site_fract_y
_atom_site_fract_z
Si Si1 0.500000 0.450051 0.250000
Si Si2 0.509489 0.800070 0.940445
Si Si3 0.293325 0.567810 0.336738
Si Si4 0.088790 0.314241 0.104051
Si Si5 0.215308 0.311281 0.024927
Si Si6 0.854692 0.833898 0.524989
Si Si7 0.375885 0.841699 0.254323
O O1 0.366209 0.336162 0.134877
O O2 0.468751 0.628095 0.299138
O O3 0.402100 0.616295 0.889034
O O4 0.461711 0.933430 0.830643
O O5 0.648301 0.683570 0.045189
O O6 0.500000 0.000000 0.000000
O O7 0.166109 0.427823 0.229726
O O8 0.296570 0.776326 0.275679
O O9 0.179117 0.266524 0.092690
O O10 0.000000 0.500000 0.000000
O O11 0.987127 0.138799 0.070738
O O12 0.153971 0.560354 0.953716
O O13 0.163498 0.081373 0.943608
O O14 0.726873 0.839873 0.384397
#
# Coordination Sequence:
#
# PCOD9226545 Si02
#       7
#     2   4   4   4   4   4   4
#     4  10  20  34  50  78 120 160 200 246 308 384
#     4   9  20  32  53  73 114 159 203 240 296 374
#     4  10  17  35  51  79 112 160 198 246 307 368
#     4  10  17  32  53  80 117 155 190 246 313 365
#     4  10  20  32  47  75 113 157 193 226 305 363
#     4  10  20  33  51  78 116 156 187 238 307 370
#     4  10  19  33  51  80 115 163 193 247 313 373
#
# _framework density 25.06589
#
# number of rings (size 3 to 8) (size 9 to 14) (size 15 to 20)
#    0.000    2.154    4.615    1.385    0.000    2.462 
#    2.769    0.000    0.000    0.000    0.000    0.000 
#    0.000  121.846    0.000    0.000    0.000    0.000 
#
# Total GULP energy -144897.707784 kJ/mol
# GULP energy per Si atom -5572.988761 kJ/mol
# Density = 2.500884 g / cm^3
# Si number density = 25.065890 Si / 1000 Ang^3
#
#
#
# Elastic Constant Matrix: (Units=GPa)
#
#
# Indices 1 2 3 4 5 6 
#
# 1 66.8333 20.3904 27.4823 0.0000 31.2104 0.0000
# 2 20.3904 135.6899 26.8624 0.0000 16.1146 0.0000
# 3 27.4823 26.8624 113.7566 0.0000 21.8983 0.0000
# 4 0.0000 0.0000 0.0000 44.8065 0.0000 7.4392
# 5 31.2104 16.1146 21.8983 0.0000 44.5597 0.0000
# 6 0.0000 0.0000 0.0000 7.4392 0.0000 38.3496
#
#
#
# Elastic Compliance Matrix: (Units=1/GPa)
#
#
# Indices 1 2 3 4 5 6 
#
# 1 0.023166 -0.001259 -0.002500 0.000000 -0.014542 0.000000
# 2 -0.001259 0.007981 -0.001319 0.000000 -0.001356 0.000000
# 3 -0.002500 -0.001319 0.010247 0.000000 -0.002807 0.000000
# 4 0.000000 0.000000 0.000000 0.023061 0.000000 -0.004473
# 5 -0.014542 -0.001356 -0.002807 0.000000 0.034497 0.000000
# 6 0.000000 0.000000 0.000000 -0.004473 0.000000 0.026944
#
#
# Mechanical properties :
#
#
# Convention : Reuss Voigt Hill
#
# Bulk Modulus (GPa) = 32.01412 51.74998 41.88205
# Shear Modulus (GPa) = 34.13802 41.64614 37.89208
#
# Velocity S-wave (km/s) = 3.69444 4.08053 3.89228
# Velocity P-wave (km/s) = 5.56760 6.54915 6.07822
#
# Compressibility (1/GPa) = 0.03123621
#
# Stress axis : x y z
#
# Youngs Moduli (GPa) = 43.16762 125.29425 97.59279
#
# Poissons Ratio (x) = 0.15778 0.24397
# Poissons Ratio (y) = 0.05436 0.12877
# Poissons Ratio (z) = 0.10791 0.16532
#
# Static dielectric constant tensor:
#      x y z
#    x 2.105020 0.000000 -0.031000 
#    y 0.000000 2.143490 0.000000 
#    z -0.031000 0.000000 1.952990 
# 
# From -- ./inp_files/88281.got.cif
#   From: 2010.05.17/outbox.cif.g08.bks.cpg/sg13_45_cif.got.tgz:88281.got - 2010.06.03 16:44:36.
