data_PCOD9226508
_publ_section_title
;
Structure prediction by ZEFSAII (Michael W. Deem and Ramdas Pophale) SiO2 
 PCOD9226508
Probable space group: P 2/C
;
_chemical_formula_sum "Si O2"
_cell_formula_units_Z 22
_cell_length_a 20.016097
_cell_length_b 12.560549
_cell_length_c 9.643222
_cell_angle_alpha 90.000000
_cell_angle_beta 152.693225
_cell_angle_gamma 90.000000
_cell_volume 1112.219849
_symmetry_space_group_name_H-M "P 2/C"
_symmetry_group_IT_number 13
_symmetry_cell_setting 'monoclinic'
loop_
_space_group_symop_operation_xyz
x,y,z
-x,y,1/2-z
-x,-y,-z
x,-y,1/2+z
loop_
_atom_site_type_symbol
_atom_site_label
_atom_site_fract_x
_atom_site_fract_y
_atom_site_fract_z
Si Si1 0.319643 0.625119 0.414549
Si Si2 0.442846 0.218661 0.790285
Si Si3 0.190418 0.058408 0.351320
Si Si4 0.364134 0.843899 0.599463
Si Si5 0.347063 0.551609 0.171841
Si Si6 0.000000 0.021488 0.750000
O O1 0.500000 0.627708 0.750000
O O2 0.271723 0.586875 0.175081
O O3 0.273586 0.537272 0.441479
O O4 0.500000 0.500000 0.000000
O O5 0.500000 0.176431 0.750000
O O6 0.311824 0.145802 0.598976
O O7 0.387565 0.339056 0.669554
O O8 0.566884 0.207919 0.134701
O O9 0.268068 0.945288 0.461268
O O10 0.100498 0.085184 0.044963
O O11 0.095654 0.044949 0.315717
O O12 0.500000 0.874815 0.750000
O O13 0.278161 0.746247 0.370386
#
# Coordination Sequence:
#
# PCOD9226508 Si02
#       6
#     4   4   4   4   4   2
#     4   9  17  29  47  73 115 156 172 205 258 348
#     4  12  21  31  54  90 121 144 175 227 292 352
#     4  11  23  39  59  79 108 151 192 242 280 325
#     4  11  19  34  54  86 119 143 175 227 297 350
#     4  10  17  31  47  77 124 153 174 200 267 358
#     4  10  24  44  56  72 106 152 214 238 264 324
#
# _framework density 19.780263999999999
#
# number of rings (size 3 to 8) (size 9 to 14) (size 15 to 20)
#    0.000    1.455    5.455    4.909    0.000    0.000 
#    0.000    0.000    0.000    0.000    0.000    7.636 
#    0.000    0.000    0.000    0.000    0.000    0.000 
#
# Total GULP energy -122750.211911 kJ/mol
# GULP energy per Si atom -5579.555087 kJ/mol
# Density = 1.973524 g / cm^3
# Si number density = 19.780264 Si / 1000 Ang^3
#
#
#
# Elastic Constant Matrix: (Units=GPa)
#
#
# Indices 1 2 3 4 5 6 
#
# 1 124.9884 25.8554 18.6794 0.0000 -15.2904 0.0000
# 2 25.8554 117.4437 10.1296 0.0000 10.3435 0.0000
# 3 18.6794 10.1296 26.4799 0.0000 -11.0086 0.0000
# 4 0.0000 0.0000 0.0000 0.7687 0.0000 -10.6965
# 5 -15.2904 10.3435 -11.0086 0.0000 24.0851 0.0000
# 6 0.0000 0.0000 0.0000 -10.6965 0.0000 10.0790
#
#
#
# Elastic Compliance Matrix: (Units=1/GPa)
#
#
# Indices 1 2 3 4 5 6 
#
# 1 0.009695 -0.002296 -0.003694 0.000000 0.005452 0.000000
# 2 -0.002296 0.010280 -0.005870 0.000000 -0.008555 0.000000
# 3 -0.003694 -0.005870 0.052703 0.000000 0.024265 0.000000
# 4 0.000000 0.000000 0.000000 -0.094489 0.000000 -0.100278
# 5 0.005452 -0.008555 0.024265 0.000000 0.059746 0.000000
# 6 0.000000 0.000000 0.000000 -0.100278 0.000000 -0.007206
#
#
# Mechanical properties :
#
#
# Convention : Reuss Voigt Hill
#
# Bulk Modulus (GPa) = 20.42514 42.02676 31.22595
# Shear Modulus (GPa) = 70.65442 21.26971 45.96207
#
# Velocity S-wave (km/s) = 5.98308 3.28273 4.82564
# Velocity P-wave (km/s) = 7.62089 5.97172 6.84615
#
# Compressibility (1/GPa) = 0.04895928
#
# Stress axis : x y z
#
# Youngs Moduli (GPa) = 103.14887 97.27743 18.97417
#
# Poissons Ratio (x) = 0.22334 0.07009
# Poissons Ratio (y) = 0.23682 0.11137
# Poissons Ratio (z) = 0.38102 0.57097
#
# Static dielectric constant tensor:
#      x y z
#    x 1.745140 0.000000 -0.024850 
#    y 0.000000 1.696830 0.000000 
#    z -0.024850 0.000000 1.737840 
# 
# From -- ./inp_files/21912.got.cif
#   From: 2010.05.17/outbox.cif.g08.bks.cpg/sg13_11_cif.got.tgz:21912.got - 2010.06.03 16:44:36.
