data_PCOD9226991
_publ_section_title
;
Structure prediction by ZEFSAII (Michael W. Deem and Ramdas Pophale) SiO2 
 PCOD9226991
Probable space group: P 2/C
;
_chemical_formula_sum "Si O2"
_cell_formula_units_Z 32
_cell_length_a 21.799893
_cell_length_b 14.881450
_cell_length_c 14.784890
_cell_angle_alpha 90.000000
_cell_angle_beta 160.520148
_cell_angle_gamma 90.000000
_cell_volume 1599.489741
_symmetry_space_group_name_H-M "P 2/C"
_symmetry_group_IT_number 13
_symmetry_cell_setting 'monoclinic'
loop_
_space_group_symop_operation_xyz
x,y,z
-x,y,1/2-z
-x,-y,-z
x,-y,1/2+z
loop_
_atom_site_type_symbol
_atom_site_label
_atom_site_fract_x
_atom_site_fract_y
_atom_site_fract_z
Si Si1 0.921172 0.843657 0.539343
Si Si2 0.835945 0.160208 0.581398
Si Si3 0.981838 0.361150 0.526703
Si Si4 0.754204 0.653588 0.260759
Si Si5 0.703319 0.025413 0.253049
Si Si6 0.648593 0.337250 0.338724
Si Si7 0.110824 0.838726 0.617024
Si Si8 0.188574 0.519696 0.567957
O O1 0.796416 0.755239 0.349234
O O2 0.000000 0.838148 0.750000
O O3 0.074294 0.848534 0.672551
O O4 0.806717 0.934719 0.371449
O O5 0.789759 0.071496 0.462197
O O6 0.672091 0.231100 0.351239
O O7 0.000000 0.205180 0.750000
O O8 0.920373 0.140219 0.796931
O O9 0.060880 0.373486 0.536620
O O10 0.870234 0.267633 0.375257
O O11 0.860948 0.437642 0.403587
O O12 0.173550 0.351897 0.849491
O O13 0.732422 0.579644 0.308669
O O14 0.567360 0.649882 0.941712
O O15 0.738304 0.098393 0.221419
O O16 0.500000 0.000000 0.000000
O O17 0.690120 0.406956 0.315628
O O18 0.000000 0.511873 0.250000
#
# Coordination Sequence:
#
# PCOD9226991 Si02
#       8
#     4   4   4   4   4   4   4   4
#     4  11  23  38  53  74 110 152 182 209 259 332
#     4   9  17  34  58  81 104 134 175 223 272 322
#     4   9  19  34  55  76 101 136 176 219 269 322
#     4  11  21  33  50  77 108 138 176 221 263 314
#     4  11  21  35  57  85 109 135 173 224 273 318
#     4  10  18  32  54  80 101 126 172 232 276 305
#     4   9  19  37  59  79 103 140 181 223 269 319
#     4  10  19  33  52  74 103 141 177 213 267 328
#
# _framework density 20.00638
#
# number of rings (size 3 to 8) (size 9 to 14) (size 15 to 20)
#    0.000    2.000    0.000    6.375    0.000    0.000 
#    0.000    3.750    0.000    0.000    0.000    0.000 
#    0.000    0.000    0.000    0.000    0.000    0.000 
#
# Total GULP energy -178291.794294 kJ/mol
# GULP energy per Si atom -5571.618572 kJ/mol
# Density = 1.996084 g / cm^3
# Si number density = 20.006380 Si / 1000 Ang^3
#
#
#
# Elastic Constant Matrix: (Units=GPa)
#
#
# Indices 1 2 3 4 5 6 
#
# 1 74.2702 26.8677 12.8464 0.0000 -6.4299 0.0000
# 2 26.8677 120.6439 8.9236 0.0000 11.8045 0.0000
# 3 12.8464 8.9236 42.1127 0.0000 12.9477 0.0000
# 4 0.0000 0.0000 0.0000 4.7044 0.0000 -22.9633
# 5 -6.4299 11.8045 12.9477 0.0000 21.3399 0.0000
# 6 0.0000 0.0000 0.0000 -22.9633 0.0000 0.5034
#
#
#
# Elastic Compliance Matrix: (Units=1/GPa)
#
#
# Indices 1 2 3 4 5 6 
#
# 1 0.017705 -0.004591 -0.008420 0.000000 0.012983 0.000000
# 2 -0.004591 0.009960 0.001732 0.000000 -0.007944 0.000000
# 3 -0.008420 0.001732 0.033219 0.000000 -0.023650 0.000000
# 4 0.000000 0.000000 0.000000 -0.000959 0.000000 -0.043744
# 5 0.012983 -0.007944 -0.023650 0.000000 0.069516 0.000000
# 6 0.000000 0.000000 0.000000 -0.043744 0.000000 -0.008962
#
#
# Mechanical properties :
#
#
# Convention : Reuss Voigt Hill
#
# Bulk Modulus (GPa) = 26.09083 37.14470 31.61776
# Shear Modulus (GPa) = 32.08993 17.86881 24.97937
#
# Velocity S-wave (km/s) = 4.00932 2.99181 3.53734
# Velocity P-wave (km/s) = 5.87388 5.52642 5.70280
#
# Compressibility (1/GPa) = 0.03832765
#
# Stress axis : x y z
#
# Youngs Moduli (GPa) = 56.48003 100.39827 30.10363
#
# Poissons Ratio (x) = 0.46088 0.25347
# Poissons Ratio (y) = 0.25927 -0.05214
# Poissons Ratio (z) = 0.47556 -0.17390
#
# Static dielectric constant tensor:
#      x y z
#    x 1.763220 0.000000 0.046790 
#    y 0.000000 1.715020 0.000000 
#    z 0.046790 0.000000 2.196930 
# 
# From -- ./inp_files/51488.got.cif
#   From: 2010.05.17/outbox.cif.g08.bks.cpg/sg13_26_cif.got.tgz:51488.got - 2010.06.03 16:44:36.
