data_PCOD9226639
_publ_section_title
;
Structure prediction by ZEFSAII (Michael W. Deem and Ramdas Pophale) SiO2 
 PCOD9226639
Probable space group: P 2/C
;
_chemical_formula_sum "Si O2"
_cell_formula_units_Z 20
_cell_length_a 7.950015
_cell_length_b 6.554841
_cell_length_c 14.878420
_cell_angle_alpha 90.000000
_cell_angle_beta 86.174105
_cell_angle_gamma 90.000000
_cell_volume 773.602707
_symmetry_space_group_name_H-M "P 2/C"
_symmetry_group_IT_number 13
_symmetry_cell_setting 'monoclinic'
loop_
_space_group_symop_operation_xyz
x,y,z
-x,y,1/2-z
-x,-y,-z
x,-y,1/2+z
loop_
_atom_site_type_symbol
_atom_site_label
_atom_site_fract_x
_atom_site_fract_y
_atom_site_fract_z
Si Si1 0.702316 0.998962 0.678454
Si Si2 0.872181 0.728996 0.433156
Si Si3 0.497078 0.316950 0.589606
Si Si4 0.191670 0.138136 0.009294
Si Si5 0.000000 0.270026 0.750000
Si Si6 0.500000 0.639239 0.750000
O O1 0.657407 0.792768 0.730617
O O2 0.835947 0.144548 0.722727
O O3 0.468229 0.120785 0.846115
O O4 0.785946 0.980048 0.576447
O O5 0.679979 0.672148 0.453771
O O6 0.031155 0.723123 0.493648
O O7 0.847501 0.975503 0.412767
O O8 0.935100 0.616426 0.340535
O O9 0.639858 0.268665 0.509313
O O10 0.505183 0.500379 0.660650
#
# Coordination Sequence:
#
# PCOD9226639 Si02
#       6
#     4   4   4   4   2   2
#     4   9  21  37  54  84 114 149 190 231 282 337
#     4  10  17  35  63  85 111 152 187 234 285 337
#     4  10  21  36  61  84 112 153 187 236 281 337
#     4   8  20  36  59  85 115 150 189 228 288 338
#     4  10  18  34  60  84 110 150 192 234 286 334
#     4  12  20  36  56  86 118 146 194 234 278 336
#
# _framework density 25.853064
#
# number of rings (size 3 to 8) (size 9 to 14) (size 15 to 20)
#    1.200    1.200    0.000    3.600    0.000    0.000 
#    3.600    1.000    0.000    3.600    0.000    0.000 
#    0.000    0.000    0.000    0.000    0.000    0.000 
#
# Total GULP energy -111347.956487 kJ/mol
# GULP energy per Si atom -5567.397824 kJ/mol
# Density = 2.579422 g / cm^3
# Si number density = 25.853064 Si / 1000 Ang^3
#
#
#
# Elastic Constant Matrix: (Units=GPa)
#
#
# Indices 1 2 3 4 5 6 
#
# 1 142.4375 -9.2217 -8.8054 0.0000 -34.2165 0.0000
# 2 -9.2217 69.9416 2.3679 0.0000 -17.4349 0.0000
# 3 -8.8054 2.3679 49.5790 0.0000 -3.3406 0.0000
# 4 0.0000 0.0000 0.0000 24.1040 0.0000 23.6342
# 5 -34.2165 -17.4349 -3.3406 0.0000 27.4545 0.0000
# 6 0.0000 0.0000 0.0000 23.6342 0.0000 -22.8613
#
#
#
# Elastic Compliance Matrix: (Units=1/GPa)
#
#
# Indices 1 2 3 4 5 6 
#
# 1 0.012474 0.006544 0.003257 0.000000 0.020098 0.000000
# 2 0.006544 0.020421 0.001624 0.000000 0.021322 0.000000
# 3 0.003257 0.001624 0.021187 0.000000 0.007668 0.000000
# 4 0.000000 0.000000 0.000000 0.020603 0.000000 0.021299
# 5 0.020098 0.021322 0.007668 0.000000 0.075946 0.000000
# 6 0.000000 0.000000 0.000000 0.021299 0.000000 -0.021723
#
#
# Mechanical properties :
#
#
# Convention : Reuss Voigt Hill
#
# Bulk Modulus (GPa) = 12.99851 25.62664 19.31257
# Shear Modulus (GPa) = 37.96472 24.24727 31.10599
#
# Velocity S-wave (km/s) = 3.83623 3.06582 3.47246
# Velocity P-wave (km/s) = 4.96598 4.73986 4.85424
#
# Compressibility (1/GPa) = 0.07693188
#
# Stress axis : x y z
#
# Youngs Moduli (GPa) = 80.16879 48.97012 47.19781
#
# Poissons Ratio (x) = -0.32048 -0.15372
# Poissons Ratio (y) = -0.52466 -0.07663
# Poissons Ratio (z) = -0.26111 -0.07951
#
# Static dielectric constant tensor:
#      x y z
#    x 2.025250 0.000000 -0.042590 
#    y 0.000000 2.074210 0.000000 
#    z -0.042590 0.000000 2.105280 
# 
# From -- ./inp_files/62354.got.cif
#   From: 2010.05.17/outbox.cif.g08.bks.cpg/sg13_32_cif.got.tgz:62354.got - 2010.06.03 16:44:36.
