data_PCOD9226426
_publ_section_title
;
Structure prediction by ZEFSAII (Michael W. Deem and Ramdas Pophale) SiO2 
 PCOD9226426
Probable space group: P 2/C
;
_chemical_formula_sum "Si O2"
_cell_formula_units_Z 22
_cell_length_a 8.586678
_cell_length_b 5.334527
_cell_length_c 17.641887
_cell_angle_alpha 90.000000
_cell_angle_beta 112.337570
_cell_angle_gamma 90.000000
_cell_volume 747.462506
_symmetry_space_group_name_H-M "P 2/C"
_symmetry_group_IT_number 13
_symmetry_cell_setting 'monoclinic'
loop_
_space_group_symop_operation_xyz
x,y,z
-x,y,1/2-z
-x,-y,-z
x,-y,1/2+z
loop_
_atom_site_type_symbol
_atom_site_label
_atom_site_fract_x
_atom_site_fract_y
_atom_site_fract_z
Si Si1 0.894287 0.750000 0.499672
Si Si2 0.571439 0.750000 0.975903
Si Si3 0.118707 0.250000 0.857940
Si Si4 0.500000 0.250000 0.250000
Si Si5 0.725853 0.250000 0.823992
Si Si6 0.752781 0.750000 0.646515
O O1 0.727777 0.750000 0.417048
O O2 0.831432 0.750000 0.574403
O O3 0.000000 0.500000 0.500000
O O4 0.000000 0.000000 0.500000
O O5 0.452831 0.750000 0.876910
O O6 0.500000 0.500000 0.000000
O O7 0.759361 0.750000 0.044042
O O8 0.500000 0.000000 0.000000
O O9 0.174122 0.486198 0.817893
O O10 0.925928 0.250000 0.844509
O O11 0.174121 0.013802 0.817893
O O12 0.356703 0.483683 0.212999
O O13 0.356703 0.016316 0.212999
#
# Coordination Sequence:
#
# PCOD9226426 Si02
#       6
#     4   4   4   2   4   4
#     4  12  20  30  50  78 104 130 154 192 257 313
#     4   8  16  26  42  66  99 129 153 182 231 296
#     4  10  17  29  49  69  98 129 159 194 239 290
#     4  10  24  36  48  66  94 136 176 214 220 280
#     4  11  20  35  50  70  98 129 172 199 248 278
#     4  10  17  29  43  75 105 127 148 187 245 308
#
# _framework density 29.432917
#
# number of rings (size 3 to 8) (size 9 to 14) (size 15 to 20)
#    0.000    1.818    3.636    2.182    0.000    0.000 
#    0.000    0.000    0.000    0.000    0.000    7.636 
#    0.000    0.000    0.000    0.000    0.000    0.000 
#
# Total GULP energy -122554.388902 kJ/mol
# GULP energy per Si atom -5570.654041 kJ/mol
# Density = 2.936593 g / cm^3
# Si number density = 29.432917 Si / 1000 Ang^3
#
#
#
# Elastic Constant Matrix: (Units=GPa)
#
#
# Indices 1 2 3 4 5 6 
#
# 1 216.5690 90.1119 58.9038 0.0000 41.7205 0.0000
# 2 90.1119 376.9106 74.6991 0.0000 43.1685 0.0000
# 3 58.9038 74.6991 201.9659 0.0000 45.0563 0.0000
# 4 0.0000 0.0000 0.0000 54.9300 0.0000 8.9995
# 5 41.7205 43.1685 45.0563 0.0000 69.1937 0.0000
# 6 0.0000 0.0000 0.0000 8.9995 0.0000 131.3770
#
#
#
# Elastic Compliance Matrix: (Units=1/GPa)
#
#
# Indices 1 2 3 4 5 6 
#
# 1 0.005668 -0.000933 -0.000790 0.000000 -0.002321 0.000000
# 2 -0.000933 0.003117 -0.000670 0.000000 -0.000946 0.000000
# 3 -0.000790 -0.000670 0.006119 0.000000 -0.003090 0.000000
# 4 0.000000 0.000000 0.000000 0.018412 0.000000 -0.001261
# 5 -0.002321 -0.000946 -0.003090 0.000000 0.018454 0.000000
# 6 0.000000 0.000000 0.000000 -0.001261 0.000000 0.007698
#
#
# Mechanical properties :
#
#
# Convention : Reuss Voigt Hill
#
# Bulk Modulus (GPa) = 98.83063 138.09722 118.46393
# Shear Modulus (GPa) = 73.93653 89.21553 81.57603
#
# Velocity S-wave (km/s) = 5.01746 5.51156 5.27030
# Velocity P-wave (km/s) = 8.19864 9.35544 8.79608
#
# Compressibility (1/GPa) = 0.01011832
#
# Stress axis : x y z
#
# Youngs Moduli (GPa) = 176.44362 320.79610 163.42781
#
# Poissons Ratio (x) = 0.29916 0.12915
# Poissons Ratio (y) = 0.16454 0.10947
# Poissons Ratio (z) = 0.13944 0.21488
#
# Static dielectric constant tensor:
#      x y z
#    x 2.339340 0.000000 0.034430 
#    y 0.000000 2.477470 0.000000 
#    z 0.034430 0.000000 2.285660 
# 
# From -- ./inp_files/96365.got.cif
#   From: 2010.05.17/outbox.cif.g08.bks.cpg/sg13_49_cif.got.tgz:96365.got - 2010.06.03 16:44:36.
