data_PCOD9226594
_publ_section_title
;
Structure prediction by ZEFSAII (Michael W. Deem and Ramdas Pophale) SiO2 
 PCOD9226594
Probable space group: P 2/C
;
_chemical_formula_sum "Si O2"
_cell_formula_units_Z 22
_cell_length_a 15.982808
_cell_length_b 6.653422
_cell_length_c 13.350975
_cell_angle_alpha 90.000000
_cell_angle_beta 139.235292
_cell_angle_gamma 90.000000
_cell_volume 927.030141
_symmetry_space_group_name_H-M "P 2/C"
_symmetry_group_IT_number 13
_symmetry_cell_setting 'monoclinic'
loop_
_space_group_symop_operation_xyz
x,y,z
-x,y,1/2-z
-x,-y,-z
x,-y,1/2+z
loop_
_atom_site_type_symbol
_atom_site_label
_atom_site_fract_x
_atom_site_fract_y
_atom_site_fract_z
Si Si1 0.254080 0.518457 0.484130
Si Si2 0.960014 0.733821 0.488349
Si Si3 0.773445 0.792085 0.854369
Si Si4 0.000000 0.688697 0.750000
Si Si5 0.683537 0.393861 0.666649
Si Si6 0.395367 0.165549 0.734287
O O1 0.212810 0.679256 0.527964
O O2 0.337321 0.608691 0.470384
O O3 0.321124 0.334225 0.601375
O O4 0.120889 0.436741 0.320675
O O5 0.816693 0.728680 0.311765
O O6 0.000000 0.500000 0.500000
O O7 0.953595 0.782486 0.602260
O O8 0.914703 0.154021 0.441980
O O9 0.710543 0.623154 0.725363
O O10 0.682117 0.976036 0.795787
O O11 0.575469 0.291956 0.637821
O O12 0.500000 0.093246 0.750000
#
# Coordination Sequence:
#
# PCOD9226594 Si02
#       6
#     4   4   4   2   4   4
#     4  11  21  40  67  95 126 165 207 262 327 380
#     4  10  17  33  64  96 128 160 195 252 325 385
#     4  10  21  38  62  93 129 168 202 264 317 376
#     4  12  16  36  68 100 130 156 198 262 322 392
#     4  10  21  41  67  92 127 167 207 263 326 376
#     4  11  26  44  61  90 128 172 223 262 303 371
#
# _framework density 23.7317
#
# number of rings (size 3 to 8) (size 9 to 14) (size 15 to 20)
#    0.000    1.455    9.091    0.000    0.000    5.818 
#    0.000    2.727    0.000    0.000    0.000    0.000 
#    0.000    0.000    0.000    0.000    0.000    0.000 
#
# Total GULP energy -122783.805212 kJ/mol
# GULP energy per Si atom -5581.082055 kJ/mol
# Density = 2.367769 g / cm^3
# Si number density = 23.731700 Si / 1000 Ang^3
#
#
#
# Elastic Constant Matrix: (Units=GPa)
#
#
# Indices 1 2 3 4 5 6 
#
# 1 197.5207 59.7890 24.6753 0.0000 -25.8266 0.0000
# 2 59.7890 76.6112 9.9924 0.0000 1.1786 0.0000
# 3 24.6753 9.9924 49.3577 0.0000 -28.4144 0.0000
# 4 0.0000 0.0000 0.0000 0.0030 0.0000 0.0525
# 5 -25.8266 1.1786 -28.4144 0.0000 45.7720 0.0000
# 6 0.0000 0.0000 0.0000 0.0525 0.0000 41.8127
#
#
#
# Elastic Compliance Matrix: (Units=1/GPa)
#
#
# Indices 1 2 3 4 5 6 
#
# 1 0.007395 -0.005832 -0.000043 0.000000 0.004296 0.000000
# 2 -0.005832 0.018306 -0.004600 0.000000 -0.006618 0.000000
# 3 -0.000043 -0.004600 0.033094 0.000000 0.020638 0.000000
# 4 0.000000 0.000000 0.000000336.444993 0.000000 -0.422334
# 5 0.004296 -0.006618 0.020638 0.000000 0.037254 0.000000
# 6 0.000000 0.000000 0.000000 -0.422334 0.000000 0.024446
#
#
# Mechanical properties :
#
#
# Convention : Reuss Voigt Hill
#
# Bulk Modulus (GPa) = 26.42361 56.93366 41.67864
# Shear Modulus (GPa) = 0.01485 32.78642 16.40064
#
# Velocity S-wave (km/s) = 0.07920 3.72095 2.63170
# Velocity P-wave (km/s) = 3.34168 6.51945 5.18025
#
# Compressibility (1/GPa) = 0.03784494
#
# Stress axis : x y z
#
# Youngs Moduli (GPa) = 135.22400 54.62700 30.21663
#
# Poissons Ratio (x) = 0.31857 0.00131
# Poissons Ratio (y) = 0.78859 0.13900
# Poissons Ratio (z) = 0.00586 0.25130
#
# Static dielectric constant tensor:
#      x y z
#    x 1.971000 0.000000 0.022880 
#    y 0.000000 1.966230 0.000000 
#    z 0.022880 0.000000 1.990640 
# 
# From -- ./inp_files/54235.got.cif
#   From: 2010.05.17/outbox.cif.g08.bks.cpg/sg13_28_cif.got.tgz:54235.got - 2010.06.03 16:44:36.
