data_PCOD9226970
_publ_section_title
;
Structure prediction by ZEFSAII (Michael W. Deem and Ramdas Pophale) SiO2 
 PCOD9226970
Probable space group: P 2/C
;
_chemical_formula_sum "Si O2"
_cell_formula_units_Z 28
_cell_length_a 20.404802
_cell_length_b 13.895685
_cell_length_c 8.766493
_cell_angle_alpha 90.000000
_cell_angle_beta 149.233519
_cell_angle_gamma 90.000000
_cell_volume 1271.504979
_symmetry_space_group_name_H-M "P 2/C"
_symmetry_group_IT_number 13
_symmetry_cell_setting 'monoclinic'
loop_
_space_group_symop_operation_xyz
x,y,z
-x,y,1/2-z
-x,-y,-z
x,-y,1/2+z
loop_
_atom_site_type_symbol
_atom_site_label
_atom_site_fract_x
_atom_site_fract_y
_atom_site_fract_z
Si Si1 0.780492 0.432898 0.785166
Si Si2 0.500000 0.621935 0.750000
Si Si3 0.386182 0.778397 0.297511
Si Si4 0.000000 0.121935 0.250000
Si Si5 0.886183 0.721603 0.747219
Si Si6 0.280492 0.932898 0.336800
Si Si7 0.414764 0.082768 0.408654
Si Si8 0.914763 0.582767 0.250400
O O1 0.628020 0.439490 0.485942
O O2 0.812818 0.398618 0.680087
O O3 0.838762 0.353231 0.018685
O O4 0.846990 0.532526 0.971299
O O5 0.459401 0.692066 0.529476
O O6 0.338761 0.853231 0.336359
O O7 0.489157 0.828164 0.394819
O O8 0.249999 0.750000 0.951081
O O9 0.959401 0.192066 0.308128
O O10 0.128020 0.060510 0.526136
O O11 0.989158 0.671836 0.061811
O O12 0.312819 0.898618 0.571186
O O13 0.346990 0.032526 0.416659
O O14 0.500000 0.000000 0.500000
O O15 0.000000 0.500000 0.500000
#
# Coordination Sequence:
#
# PCOD9226970 Si02
#       8
#     4   2   4   2   4   4   4   4
#     4  10  20  31  55  83 109 145 185 234 280 334
#     4  10  18  32  52  86 108 142 198 238 262 322
#     4   9  16  29  51  80 105 139 191 237 265 320
#     4  10  18  32  52  86 108 142 198 238 262 322
#     4   9  16  29  51  80 105 139 191 237 265 320
#     4  10  20  31  55  83 109 145 185 234 280 334
#     4  10  18  33  51  84 105 143 186 225 288 331
#     4  10  18  33  51  84 105 143 186 225 288 331
#
# _framework density 22.021149000000001
#
# number of rings (size 3 to 8) (size 9 to 14) (size 15 to 20)
#    0.000    2.286    2.857    2.571    0.000    1.143 
#    0.000    0.000    0.000    0.000  141.143    0.000 
#    0.000    0.000    0.000    0.000    0.000    0.000 
#
# Total GULP energy -156140.429707 kJ/mol
# GULP energy per Si atom -5576.443918 kJ/mol
# Density = 2.197103 g / cm^3
# Si number density = 22.021149 Si / 1000 Ang^3
#
#
#
# Elastic Constant Matrix: (Units=GPa)
#
#
# Indices 1 2 3 4 5 6 
#
# 1 92.7983 24.4719 73.6386 0.0000 11.1753 0.0000
# 2 24.4719 45.7726 42.2999 0.0000 16.0868 0.0000
# 3 73.6386 42.2999 142.0954 0.0000 33.3070 0.0000
# 4 0.0000 0.0000 0.0000 31.9420 0.0000 6.2077
# 5 11.1753 16.0868 33.3070 0.0000 35.7419 0.0000
# 6 0.0000 0.0000 0.0000 6.2077 0.0000 25.0629
#
#
#
# Elastic Compliance Matrix: (Units=1/GPa)
#
#
# Indices 1 2 3 4 5 6 
#
# 1 0.018927 -0.002317 -0.010205 0.000000 0.004635 0.000000
# 2 -0.002317 0.031713 -0.006479 0.000000 -0.007511 0.000000
# 3 -0.010205 -0.006479 0.016408 0.000000 -0.009183 0.000000
# 4 0.000000 0.000000 0.000000 0.032890 0.000000 -0.008146
# 5 0.004635 -0.007511 -0.009183 0.000000 0.038467 0.000000
# 6 0.000000 0.000000 0.000000 -0.008146 0.000000 0.041917
#
#
# Mechanical properties :
#
#
# Convention : Reuss Voigt Hill
#
# Bulk Modulus (GPa) = 34.42974 62.38746 48.40860
# Shear Modulus (GPa) = 21.92910 27.89977 24.91443
#
# Velocity S-wave (km/s) = 3.15909 3.56329 3.36726
# Velocity P-wave (km/s) = 5.38286 6.73213 6.09495
#
# Compressibility (1/GPa) = 0.02904466
#
# Stress axis : x y z
#
# Youngs Moduli (GPa) = 52.83374 31.53232 60.94771
#
# Poissons Ratio (x) = 0.07307 0.62200
# Poissons Ratio (y) = 0.12242 0.39489
# Poissons Ratio (z) = 0.53919 0.20430
#
# Static dielectric constant tensor:
#      x y z
#    x 1.901760 0.000000 -0.044390 
#    y 0.000000 1.849790 0.000000 
#    z -0.044390 0.000000 1.852570 
# 
# From -- ./inp_files/23603.got.cif
#   From: 2010.05.17/outbox.cif.g08.bks.cpg/sg13_12_cif.got.tgz:23603.got - 2010.06.03 16:44:36.
