data_PCOD9226930
_publ_section_title
;
Structure prediction by ZEFSAII (Michael W. Deem and Ramdas Pophale) SiO2 
 PCOD9226930
Probable space group: P 2/C
;
_chemical_formula_sum "Si O2"
_cell_formula_units_Z 20
_cell_length_a 5.750904
_cell_length_b 11.450676
_cell_length_c 14.890803
_cell_angle_alpha 90.000000
_cell_angle_beta 59.506328
_cell_angle_gamma 90.000000
_cell_volume 844.955819
_symmetry_space_group_name_H-M "P 2/C"
_symmetry_group_IT_number 13
_symmetry_cell_setting 'monoclinic'
loop_
_space_group_symop_operation_xyz
x,y,z
-x,y,1/2-z
-x,-y,-z
x,-y,1/2+z
loop_
_atom_site_type_symbol
_atom_site_label
_atom_site_fract_x
_atom_site_fract_y
_atom_site_fract_z
Si Si1 0.691105 0.520065 0.874882
Si Si2 0.173290 0.433114 0.888330
Si Si3 0.203331 0.037191 0.088960
Si Si4 0.576679 0.227819 0.339943
Si Si5 0.991457 0.819445 0.460538
O O1 0.482964 0.469645 0.842062
O O2 0.723532 0.656374 0.845445
O O3 0.983031 0.467747 0.842077
O O4 0.500000 0.500000 0.000000
O O5 0.157954 0.293977 0.902274
O O6 0.000000 0.500000 0.000000
O O7 0.259326 0.110897 0.167636
O O8 0.027414 0.919180 0.112724
O O9 0.097712 0.122258 0.031286
O O10 0.500000 0.000000 0.000000
O O11 0.500000 0.233904 0.250000
O O12 0.306311 0.223444 0.453194
#
# Coordination Sequence:
#
# PCOD9226930 Si02
#       5
#     4   4   4   4   4
#     4  10  19  34  55  85 115 151 194 235 286 350
#     4  10  18  31  58  83 114 146 198 237 280 337
#     4   9  20  35  54  82 113 147 205 246 292 351
#     4  11  22  35  56  89 121 150 186 250 311 354
#     4  10  19  35  58  87 108 157 198 248 288 353
#
# _framework density 23.669875000000001
#
# number of rings (size 3 to 8) (size 9 to 14) (size 15 to 20)
#    0.000    2.000    4.000    2.400    2.800    0.800 
#    0.000    0.000    0.000    1.200   15.600    0.000 
#    0.000    0.000    0.000    0.000    0.000    0.000 
#
# Total GULP energy -111723.055947 kJ/mol
# GULP energy per Si atom -5586.152797 kJ/mol
# Density = 2.361600 g / cm^3
# Si number density = 23.669875 Si / 1000 Ang^3
#
#
#
# Elastic Constant Matrix: (Units=GPa)
#
#
# Indices 1 2 3 4 5 6 
#
# 1 169.4879 34.5971 23.6381 0.0000 -12.0366 0.0000
# 2 34.5971 160.3119 19.1972 0.0000 12.5161 0.0000
# 3 23.6381 19.1972 80.4782 0.0000 30.0108 0.0000
# 4 0.0000 0.0000 0.0000 4.6594 0.0000 25.4308
# 5 -12.0366 12.5161 30.0108 0.0000 44.1554 0.0000
# 6 0.0000 0.0000 0.0000 25.4308 0.0000 29.1996
#
#
#
# Elastic Compliance Matrix: (Units=1/GPa)
#
#
# Indices 1 2 3 4 5 6 
#
# 1 0.007013 -0.001465 -0.003453 0.000000 0.004674 0.000000
# 2 -0.001465 0.006763 -0.000428 0.000000 -0.002026 0.000000
# 3 -0.003453 -0.000428 0.018549 0.000000 -0.013427 0.000000
# 4 0.000000 0.000000 0.000000 -0.057179 0.000000 0.049798
# 5 0.004674 -0.002026 -0.013427 0.000000 0.033622 0.000000
# 6 0.000000 0.000000 0.000000 0.049798 0.000000 -0.009124
#
#
# Mechanical properties :
#
#
# Convention : Reuss Voigt Hill
#
# Bulk Modulus (GPa) = 46.22421 62.79365 54.50893
# Shear Modulus (GPa) = 284.94847 37.79259 161.37053
#
# Velocity S-wave (km/s) = 10.98389 4.00015 8.26580
# Velocity P-wave (km/s) = 13.43250 6.92253 10.68535
#
# Compressibility (1/GPa) = 0.02163369
#
# Stress axis : x y z
#
# Youngs Moduli (GPa) = 142.59874 147.85625 53.91075
#
# Poissons Ratio (x) = 0.21658 0.18617
# Poissons Ratio (y) = 0.20888 0.02306
# Poissons Ratio (z) = 0.49244 0.06323
#
# Static dielectric constant tensor:
#      x y z
#    x 0.934830 0.000000 -0.196180 
#    y 0.000000 1.906240 0.000000 
#    z -0.196180 0.000000 1.907010 
# 
# From -- ./inp_files/43573.got.cif
#   From: 2010.05.17/outbox.cif.g08.bks.cpg/sg13_22_cif.got.tgz:43573.got - 2010.06.03 16:44:36.
