data_PCOD9226669
_publ_section_title
;
Structure prediction by ZEFSAII (Michael W. Deem and Ramdas Pophale) SiO2 
 PCOD9226669
Probable space group: P 2/C
;
_chemical_formula_sum "Si O2"
_cell_formula_units_Z 28
_cell_length_a 11.617058
_cell_length_b 8.145528
_cell_length_c 14.606878
_cell_angle_alpha 90.000000
_cell_angle_beta 63.606615
_cell_angle_gamma 90.000000
_cell_volume 1238.129192
_symmetry_space_group_name_H-M "P 2/C"
_symmetry_group_IT_number 13
_symmetry_cell_setting 'monoclinic'
loop_
_space_group_symop_operation_xyz
x,y,z
-x,y,1/2-z
-x,-y,-z
x,-y,1/2+z
loop_
_atom_site_type_symbol
_atom_site_label
_atom_site_fract_x
_atom_site_fract_y
_atom_site_fract_z
Si Si1 0.863029 0.827436 0.824584
Si Si2 0.777931 0.042268 0.021143
Si Si3 0.051284 0.341785 0.535234
Si Si4 0.875232 0.157147 0.726798
Si Si5 0.597655 0.775895 0.134018
Si Si6 0.626901 0.233308 0.919281
Si Si7 0.274878 0.459307 0.042483
O O1 0.758675 0.687610 0.876471
O O2 0.000000 0.751234 0.750000
O O3 0.843113 0.965047 0.754054
O O4 0.863528 0.926694 0.922291
O O5 0.859718 0.191889 0.034483
O O6 0.694971 0.926584 0.116166
O O7 0.678308 0.121571 0.983587
O O8 0.147389 0.430516 0.573039
O O9 0.000000 0.500000 0.500000
O O10 0.930599 0.241251 0.617382
O O11 0.744100 0.240023 0.805238
O O12 0.000000 0.179289 0.750000
O O13 0.500000 0.740206 0.250000
O O14 0.503301 0.820220 0.082515
O O15 0.680901 0.623516 0.068009
O O16 0.619638 0.415749 0.960100
#
# Coordination Sequence:
#
# PCOD9226669 Si02
#       7
#     4   4   4   4   4   4   4
#     4   9  16  32  61  90 119 158 211 263 308 390
#     4   9  19  41  63  89 124 174 216 261 324 405
#     4  11  22  38  63  95 137 167 202 277 347 398
#     4  10  17  37  63  91 124 166 208 264 327 402
#     4  11  24  41  62  90 129 173 227 277 322 388
#     4  10  20  38  68  89 124 170 222 268 333 391
#     4  10  22  37  61  95 126 167 223 270 331 393
#
# _framework density 22.614763
#
# number of rings (size 3 to 8) (size 9 to 14) (size 15 to 20)
#    0.000    2.000    5.714    0.857    4.000    0.000 
#    0.000   10.000    3.143    0.000    0.000    0.000 
#    0.000    0.000    0.000    0.000    0.000    0.000 
#
# Total GULP energy -156151.530622 kJ/mol
# GULP energy per Si atom -5576.840379 kJ/mol
# Density = 2.256329 g / cm^3
# Si number density = 22.614763 Si / 1000 Ang^3
#
#
#
# Elastic Constant Matrix: (Units=GPa)
#
#
# Indices 1 2 3 4 5 6 
#
# 1 81.1863 25.7454 9.6953 0.0000 -6.7737 0.0000
# 2 25.7454 112.0432 68.8783 0.0000 -19.7210 0.0000
# 3 9.6953 68.8783 91.3684 0.0000 -20.2977 0.0000
# 4 0.0000 0.0000 0.0000 26.9501 0.0000 1.3330
# 5 -6.7737 -19.7210 -20.2977 0.0000 24.8762 0.0000
# 6 0.0000 0.0000 0.0000 1.3330 0.0000 38.1310
#
#
#
# Elastic Compliance Matrix: (Units=1/GPa)
#
#
# Indices 1 2 3 4 5 6 
#
# 1 0.013519 -0.003984 0.002058 0.000000 0.002202 0.000000
# 2 -0.003984 0.018077 -0.012534 0.000000 0.003019 0.000000
# 3 0.002058 -0.012534 0.022098 0.000000 0.008654 0.000000
# 4 0.000000 0.000000 0.000000 0.037170 0.000000 -0.001299
# 5 0.002202 0.003019 0.008654 0.000000 0.050254 0.000000
# 6 0.000000 0.000000 0.000000 -0.001299 0.000000 0.026271
#
#
# Mechanical properties :
#
#
# Convention : Reuss Voigt Hill
#
# Bulk Modulus (GPa) = 40.36563 54.80401 47.58482
# Shear Modulus (GPa) = 24.44195 30.01005 27.22600
#
# Velocity S-wave (km/s) = 3.29111 3.64677 3.47350
# Velocity P-wave (km/s) = 5.68594 6.48215 6.09705
#
# Compressibility (1/GPa) = 0.02477355
#
# Stress axis : x y z
#
# Youngs Moduli (GPa) = 73.97187 55.31796 45.25319
#
# Poissons Ratio (x) = 0.22038 -0.09313
# Poissons Ratio (y) = 0.29469 0.56721
# Poissons Ratio (z) = -0.15223 0.69337
#
# Static dielectric constant tensor:
#      x y z
#    x 1.910220 0.000000 0.062700 
#    y 0.000000 1.839450 0.000000 
#    z 0.062700 0.000000 1.886070 
# 
# From -- ./inp_files/50226.got.cif
#   From: 2010.05.17/outbox.cif.g08.bks.cpg/sg13_26_cif.got.tgz:50226.got - 2010.06.03 16:44:36.
