data_PCOD9226488
_publ_section_title
;
Structure prediction by ZEFSAII (Michael W. Deem and Ramdas Pophale) SiO2 
 PCOD9226488
Probable space group: P 2/C
;
_chemical_formula_sum "Si O2"
_cell_formula_units_Z 30
_cell_length_a 20.165884
_cell_length_b 8.586530
_cell_length_c 17.602710
_cell_angle_alpha 90.000000
_cell_angle_beta 32.025976
_cell_angle_gamma 90.000000
_cell_volume 1616.363879
_symmetry_space_group_name_H-M "P 2/C"
_symmetry_group_IT_number 13
_symmetry_cell_setting 'monoclinic'
loop_
_space_group_symop_operation_xyz
x,y,z
-x,y,1/2-z
-x,-y,-z
x,-y,1/2+z
loop_
_atom_site_type_symbol
_atom_site_label
_atom_site_fract_x
_atom_site_fract_y
_atom_site_fract_z
Si Si1 0.074957 0.825371 0.243083
Si Si2 0.863056 0.185684 0.361591
Si Si3 0.267891 0.819568 0.663595
Si Si4 0.467802 0.675464 0.052415
Si Si5 0.691462 0.159286 0.667544
Si Si6 0.500000 0.037696 0.250000
Si Si7 0.891566 0.927256 0.552583
Si Si8 0.667790 0.165978 0.955516
O O1 0.200872 0.750911 0.153166
O O2 0.000000 0.739401 0.250000
O O3 0.971605 0.856572 0.406950
O O4 0.121012 0.995694 0.164863
O O5 0.806512 0.242854 0.337161
O O6 0.771113 0.223730 0.519720
O O7 0.000000 0.243377 0.250000
O O8 0.402238 0.748174 0.546284
O O9 0.184858 0.810584 0.819641
O O10 0.292627 0.001482 0.620775
O O11 0.368675 0.718264 0.215291
O O12 0.416784 0.751893 0.024673
O O13 0.500000 0.500000 0.000000
O O14 0.581188 0.063112 0.731581
O O15 0.788859 0.047779 0.618616
O O16 0.406504 0.134778 0.394293
O O17 0.000000 0.000000 0.500000
#
# Coordination Sequence:
#
# PCOD9226488 Si02
#       8
#     4   4   4   4   4   2   4   4
#     4  10  17  30  52  92 124 139 176 255 315 349
#     4  10  17  31  55  91 116 138 187 248 301 357
#     4  11  20  35  58  88 116 150 199 247 292 345
#     4  12  26  41  55  81 125 170 202 237 288 355
#     4  12  19  32  57  84 118 153 193 238 303 345
#     4  12  20  32  60  92 112 144 192 260 300 338
#     4  12  18  28  56  91 120 141 185 251 308 346
#     4  11  20  36  59  90 116 147 196 248 296 346
#
# _framework density 18.560176999999999
#
# number of rings (size 3 to 8) (size 9 to 14) (size 15 to 20)
#    0.000    0.800   10.667    1.200    0.000    0.000 
#    0.000    2.000    0.000    8.000    0.000    0.000 
#    0.000    0.000    0.000    0.000    0.000    0.000 
#
# Total GULP energy -167264.787985 kJ/mol
# GULP energy per Si atom -5575.492933 kJ/mol
# Density = 1.851793 g / cm^3
# Si number density = 18.560177 Si / 1000 Ang^3
#
#
#
# Elastic Constant Matrix: (Units=GPa)
#
#
# Indices 1 2 3 4 5 6 
#
# 1 166.2987 33.8226 53.2877 0.0000 -16.6185 0.0000
# 2 33.8226 24.8194 22.7033 0.0000 -0.7548 0.0000
# 3 53.2877 22.7033 165.5967 0.0000 15.7623 0.0000
# 4 0.0000 0.0000 0.0000 4.5811 0.0000 5.7680
# 5 -16.6185 -0.7548 15.7623 0.0000 53.0962 0.0000
# 6 0.0000 0.0000 0.0000 5.7680 0.0000 -10.2356
#
#
#
# Elastic Compliance Matrix: (Units=1/GPa)
#
#
# Indices 1 2 3 4 5 6 
#
# 1 0.009063 -0.010640 -0.001763 0.000000 0.003209 0.000000
# 2 -0.010640 0.058913 -0.004544 0.000000 -0.001144 0.000000
# 3 -0.001763 -0.004544 0.007500 0.000000 -0.002843 0.000000
# 4 0.000000 0.000000 0.000000 0.127690 0.000000 0.071956
# 5 0.003209 -0.001144 -0.002843 0.000000 0.020666 0.000000
# 6 0.000000 0.000000 0.000000 0.071956 0.000000 -0.057149
#
#
# Mechanical properties :
#
#
# Convention : Reuss Voigt Hill
#
# Bulk Modulus (GPa) = 24.04953 64.03798 44.04375
# Shear Modulus (GPa) = 23.31684 25.94841 24.63262
#
# Velocity S-wave (km/s) = 3.54825 3.74313 3.64699
# Velocity P-wave (km/s) = 5.45642 7.29789 6.44328
#
# Compressibility (1/GPa) = 0.04158086
#
# Stress axis : x y z
#
# Youngs Moduli (GPa) = 110.33981 16.97418 133.33889
#
# Poissons Ratio (x) = 0.18061 0.23508
# Poissons Ratio (y) = 1.17404 0.60591
# Poissons Ratio (z) = 0.19453 0.07713
#
# Static dielectric constant tensor:
#      x y z
#    x 1.746520 0.000000 0.023920 
#    y 0.000000 1.627600 0.000000 
#    z 0.023920 0.000000 1.772330 
# 
# From -- ./inp_files/70581.got.cif
#   From: 2010.05.17/outbox.cif.g08.bks.cpg/sg13_36_cif.got.tgz:70581.got - 2010.06.03 16:44:36.
