data_PCOD9226734
_publ_section_title
;
Structure prediction by ZEFSAII (Michael W. Deem and Ramdas Pophale) SiO2 
 PCOD9226734
Probable space group: P 2/C
;
_chemical_formula_sum "Si O2"
_cell_formula_units_Z 30
_cell_length_a 19.353370
_cell_length_b 16.662587
_cell_length_c 5.574168
_cell_angle_alpha 90.000000
_cell_angle_beta 81.720001
_cell_angle_gamma 90.000000
_cell_volume 1778.804791
_symmetry_space_group_name_H-M "P 2/C"
_symmetry_group_IT_number 13
_symmetry_cell_setting 'monoclinic'
loop_
_space_group_symop_operation_xyz
x,y,z
-x,y,1/2-z
-x,-y,-z
x,-y,1/2+z
loop_
_atom_site_type_symbol
_atom_site_label
_atom_site_fract_x
_atom_site_fract_y
_atom_site_fract_z
Si Si1 0.578552 0.532541 0.460724
Si Si2 0.142432 0.148511 0.678784
Si Si3 0.000000 0.049178 0.750000
Si Si4 0.652840 0.776522 0.923580
Si Si5 0.747798 0.004196 0.876101
Si Si6 0.811662 0.168309 0.344169
Si Si7 0.409294 0.721085 0.045353
Si Si8 0.480897 0.871437 0.509552
O O1 0.500000 0.500000 0.500000
O O2 0.611404 0.500000 0.194298
O O3 0.570223 0.628318 0.464888
O O4 0.070103 0.101462 0.714949
O O5 0.150810 0.192745 0.420724
O O6 0.207623 0.085744 0.646189
O O7 0.150810 0.192745 0.928465
O O8 0.000000 0.000000 0.500000
O O9 0.733035 0.800032 0.883482
O O10 0.633121 0.734412 0.681265
O O11 0.633121 0.734413 0.185613
O O12 0.600697 0.852028 0.949651
O O13 0.802833 0.929675 0.848584
O O14 0.707646 0.000000 0.646177
O O15 0.472944 0.786473 0.013528
O O16 0.500000 0.910655 0.250000
O O17 0.500000 0.910655 0.750000
#
# Coordination Sequence:
#
# PCOD9226734 Si02
#       8
#     4   4   2   4   4   4   4   4
#     4  10  21  27  43  62  84 114 148 176 230 265
#     4  10  19  30  45  63  93 114 144 189 216 262
#     4  12  20  30  48  72  94 126 154 170 234 272
#     4  10  19  28  45  58  81 116 143 187 230 265
#     4   8  14  25  39  55  78 104 124 170 211 239
#     4  10  18  30  42  62  85 113 151 180 223 264
#     4  10  19  31  42  61  87 108 148 193 232 253
#     4   8  16  25  41  53  77 101 132 174 233 243
#
# _framework density 16.865255999999999
#
# number of rings (size 3 to 8) (size 9 to 14) (size 15 to 20)
#    0.000    2.400    0.000    4.800   11.200    0.000 
#    0.000    0.000    0.000    0.000    0.000    0.000 
#    0.000  259.200    0.000    0.000    0.000    0.000 
#
# Total GULP energy -167054.875070 kJ/mol
# GULP energy per Si atom -5568.495836 kJ/mol
# Density = 1.682687 g / cm^3
# Si number density = 16.865256 Si / 1000 Ang^3
#
#
#
# Elastic Constant Matrix: (Units=GPa)
#
#
# Indices 1 2 3 4 5 6 
#
# 1 80.1714 12.9474 49.0983 0.0000 0.4022 0.0000
# 2 12.9474 47.9030 17.6630 0.0000 0.4000 0.0000
# 3 49.0983 17.6630 222.6318 0.0000 11.6837 0.0000
# 4 0.0000 0.0000 0.0000 27.6827 0.0000 0.5374
# 5 0.4022 0.4000 11.6837 0.0000 18.8638 0.0000
# 6 0.0000 0.0000 0.0000 0.5374 0.0000 21.3503
#
#
#
# Elastic Compliance Matrix: (Units=1/GPa)
#
#
# Indices 1 2 3 4 5 6 
#
# 1 0.014849 -0.002871 -0.003135 0.000000 0.001686 0.000000
# 2 -0.002871 0.022067 -0.001133 0.000000 0.000295 0.000000
# 3 -0.003135 -0.001133 0.005445 0.000000 -0.003282 0.000000
# 4 0.000000 0.000000 0.000000 0.036141 0.000000 -0.000910
# 5 0.001686 0.000295 -0.003282 0.000000 0.055002 0.000000
# 6 0.000000 0.000000 0.000000 -0.000910 0.000000 0.046861
#
#
# Mechanical properties :
#
#
# Convention : Reuss Voigt Hill
#
# Bulk Modulus (GPa) = 35.61065 56.68042 46.14553
# Shear Modulus (GPa) = 24.50927 31.64588 28.07758
#
# Velocity S-wave (km/s) = 3.81627 4.33644 4.08464
# Velocity P-wave (km/s) = 6.37018 7.66509 7.04744
#
# Compressibility (1/GPa) = 0.02808149
#
# Stress axis : x y z
#
# Youngs Moduli (GPa) = 67.34613 45.31677 183.64487
#
# Poissons Ratio (x) = 0.13012 0.57579
# Poissons Ratio (y) = 0.19337 0.20807
# Poissons Ratio (z) = 0.21115 0.05134
#
# Static dielectric constant tensor:
#      x y z
#    x 1.524000 0.000000 0.026370 
#    y 0.000000 1.567630 0.000000 
#    z 0.026370 0.000000 1.834790 
# 
# From -- ./inp_files/5239.got.cif
#   From: 2010.05.17/outbox.cif.g08.bks.cpg/sg13_3_cif.got.tgz:5239.got - 2010.06.03 16:44:36.
