data_PCOD9226199
_publ_section_title
;
Structure prediction by ZEFSAII (Michael W. Deem and Ramdas Pophale) SiO2 
 PCOD9226199
Probable space group: P 2/C
;
_chemical_formula_sum "Si O2"
_cell_formula_units_Z 18
_cell_length_a 22.171494
_cell_length_b 7.073614
_cell_length_c 5.406923
_cell_angle_alpha 90.000000
_cell_angle_beta 111.890891
_cell_angle_gamma 90.000000
_cell_volume 786.838475
_symmetry_space_group_name_H-M "P 2/C"
_symmetry_group_IT_number 13
_symmetry_cell_setting 'monoclinic'
loop_
_space_group_symop_operation_xyz
x,y,z
-x,y,1/2-z
-x,-y,-z
x,-y,1/2+z
loop_
_atom_site_type_symbol
_atom_site_label
_atom_site_fract_x
_atom_site_fract_y
_atom_site_fract_z
Si Si1 0.309419 0.289924 0.869681
Si Si2 0.638722 0.281839 0.051242
Si Si3 0.822555 0.877432 0.211369
Si Si4 0.500000 0.873695 0.250000
Si Si5 0.027981 0.784259 0.042801
O O1 0.318997 0.203274 0.612313
O O2 0.234999 0.273058 0.838379
O O3 0.350085 0.200089 0.157511
O O4 0.337170 0.501850 0.883591
O O5 0.564483 0.254295 0.860585
O O6 0.894474 0.791235 0.337338
O O7 0.816738 0.022278 0.434725
O O8 0.500000 0.000000 0.500000
O O9 0.000000 0.700154 0.250000
O O10 0.000000 0.700350 0.750000
O O11 0.000000 0.000000 0.000000
#
# Coordination Sequence:
#
# PCOD9226199 Si02
#       5
#     4   4   4   2   4
#     4  10  23  39  62  86 123 174 200 242 298 365
#     4  10  23  45  62  88 124 160 203 241 295 389
#     4  12  21  32  55  90 124 160 209 258 300 348
#     4  12  26  42  72 100 118 150 192 258 320 358
#     4  10  16  30  48  75 122 156 196 255 306 348
#
# _framework density 22.876356000000001
#
# number of rings (size 3 to 8) (size 9 to 14) (size 15 to 20)
#    0.000    1.333    4.444    2.667    0.000    8.889 
#    0.000    0.000    0.000    0.000    0.000   18.667 
#    0.000    0.000    0.000    0.000    0.000    0.000 
#
# Total GULP energy -100552.649229 kJ/mol
# GULP energy per Si atom -5586.258291 kJ/mol
# Density = 2.282429 g / cm^3
# Si number density = 22.876356 Si / 1000 Ang^3
#
#
#
# Elastic Constant Matrix: (Units=GPa)
#
#
# Indices 1 2 3 4 5 6 
#
# 1 131.9356 10.2466 31.0948 0.0000 12.7397 0.0000
# 2 10.2466 100.4593 5.3224 0.0000 7.7397 0.0000
# 3 31.0948 5.3224 148.0121 0.0000 -30.5445 0.0000
# 4 0.0000 0.0000 0.0000 -140.5084 0.0000 -210.1113
# 5 12.7397 7.7397 -30.5445 0.0000 79.7336 0.0000
# 6 0.0000 0.0000 0.0000 -210.1113 0.0000 -348.9551
#
#
#
# Elastic Compliance Matrix: (Units=1/GPa)
#
#
# Indices 1 2 3 4 5 6 
#
# 1 0.008338 -0.000573 -0.002166 0.000000 -0.002106 0.000000
# 2 -0.000573 0.010120 -0.000464 0.000000 -0.001068 0.000000
# 3 -0.002166 -0.000464 0.007936 0.000000 0.003431 0.000000
# 4 0.000000 0.000000 0.000000 -0.071443 0.000000 0.043017
# 5 -0.002106 -0.001068 0.003431 0.000000 0.014296 0.000000
# 6 0.000000 0.000000 0.000000 0.043017 0.000000 -0.028767
#
#
# Mechanical properties :
#
#
# Convention : Reuss Voigt Hill
#
# Bulk Modulus (GPa) = 50.03154 52.63718 51.33436
# Shear Modulus (GPa) = -107.63767 -59.69646 -83.66706
#
# Velocity S-wave (km/s) = -6.86688 -5.11389 -6.05417
# Velocity P-wave (km/s) = 6.39955 3.43655 5.13634
#
# Compressibility (1/GPa) = 0.01998739
#
# Stress axis : x y z
#
# Youngs Moduli (GPa) = 119.93626 98.81756 126.00934
#
# Poissons Ratio (x) = 0.05667 0.27289
# Poissons Ratio (y) = 0.06878 0.05846
# Poissons Ratio (z) = 0.25974 0.04584
#
# Static dielectric constant tensor:
#      x y z
#    x 1.829460 0.000000 -0.055330 
#    y 0.000000 1.635830 0.000000 
#    z -0.055330 0.000000 1.891630 
# 
# From -- ./inp_files/5822.got.cif
#   From: 2010.05.17/outbox.cif.g08.bks.cpg/sg13_3_cif.got.tgz:5822.got - 2010.06.03 16:44:36.
