data_PCOD9226808
_publ_section_title
;
Structure prediction by ZEFSAII (Michael W. Deem and Ramdas Pophale) SiO2 
 PCOD9226808
Probable space group: P 2/C
;
_chemical_formula_sum "Si O2"
_cell_formula_units_Z 26
_cell_length_a 8.386666
_cell_length_b 10.268229
_cell_length_c 15.071111
_cell_angle_alpha 90.000000
_cell_angle_beta 82.412333
_cell_angle_gamma 90.000000
_cell_volume 1286.502774
_symmetry_space_group_name_H-M "P 2/C"
_symmetry_group_IT_number 13
_symmetry_cell_setting 'monoclinic'
loop_
_space_group_symop_operation_xyz
x,y,z
-x,y,1/2-z
-x,-y,-z
x,-y,1/2+z
loop_
_atom_site_type_symbol
_atom_site_label
_atom_site_fract_x
_atom_site_fract_y
_atom_site_fract_z
Si Si1 0.675577 0.974161 0.718518
Si Si2 0.762821 0.071526 0.009799
Si Si3 0.729244 0.417873 0.412742
Si Si4 0.000000 0.951555 0.750000
Si Si5 0.643841 0.339213 0.029285
Si Si6 0.084047 0.829367 0.562409
Si Si7 0.683146 0.667238 0.729367
O O1 0.500000 0.030082 0.750000
O O2 0.703841 0.969577 0.611608
O O3 0.835803 0.032485 0.751162
O O4 0.676575 0.822326 0.750779
O O5 0.656024 0.193379 0.990357
O O6 0.943621 0.132406 0.004061
O O7 0.776854 0.938854 0.955176
O O8 0.543898 0.371337 0.441307
O O9 0.728478 0.558478 0.458067
O O10 0.845124 0.313277 0.450829
O O11 0.768894 0.405267 0.304599
O O12 0.990545 0.858835 0.836038
O O13 0.726015 0.344284 0.121998
O O14 0.500000 0.618186 0.750000
#
# Coordination Sequence:
#
# PCOD9226808 Si02
#       7
#     4   4   4   2   4   4   4
#     4   9  16  30  51  76 104 135 182 228 267 319
#     4   9  20  35  52  76 111 141 174 232 280 318
#     4  10  18  32  57  80 104 141 183 220 266 338
#     4  10  18  30  52  78 100 136 186 228 262 328
#     4   9  19  33  53  81 110 137 175 227 278 319
#     4  10  20  34  55  78 105 140 186 227 273 329
#     4   8  14  28  50  72 101 136 176 218 259 314
#
# _framework density 20.20983
#
# number of rings (size 3 to 8) (size 9 to 14) (size 15 to 20)
#    0.000    2.769    1.538    0.923    0.000    1.231 
#    0.000    0.000   10.154    0.923    0.000    0.000 
#    0.000    0.000    0.000    0.000    0.000    0.000 
#
# Total GULP energy -144795.219172 kJ/mol
# GULP energy per Si atom -5569.046891 kJ/mol
# Density = 2.016383 g / cm^3
# Si number density = 20.209830 Si / 1000 Ang^3
#
#
#
# Elastic Constant Matrix: (Units=GPa)
#
#
# Indices 1 2 3 4 5 6 
#
# 1 79.6397 9.7222 2.2518 0.0000 -6.6256 0.0000
# 2 9.7222 18.2401 -0.4463 0.0000 -7.7779 0.0000
# 3 2.2518 -0.4463 36.6684 0.0000 -9.3676 0.0000
# 4 0.0000 0.0000 0.0000 9.5903 0.0000 -5.6342
# 5 -6.6256 -7.7779 -9.3676 0.0000 19.6402 0.0000
# 6 0.0000 0.0000 0.0000 -5.6342 0.0000 21.3586
#
#
#
# Elastic Compliance Matrix: (Units=1/GPa)
#
#
# Indices 1 2 3 4 5 6 
#
# 1 0.013505 -0.006447 -0.000451 0.000000 0.001788 0.000000
# 2 -0.006447 0.071461 0.009042 0.000000 0.030438 0.000000
# 3 -0.000451 0.009042 0.032210 0.000000 0.018791 0.000000
# 4 0.000000 0.000000 0.000000 0.123396 0.000000 0.032551
# 5 0.001788 0.030438 0.018791 0.000000 0.072536 0.000000
# 6 0.000000 0.000000 0.000000 0.032551 0.000000 0.055406
#
#
# Mechanical properties :
#
#
# Convention : Reuss Voigt Hill
#
# Bulk Modulus (GPa) = 8.23299 17.51149 12.87224
# Shear Modulus (GPa) = 12.35438 18.31918 15.33678
#
# Velocity S-wave (km/s) = 2.47514 3.01400 2.75776
# Velocity P-wave (km/s) = 3.50015 4.56025 4.06491
#
# Compressibility (1/GPa) = 0.12146254
#
# Stress axis : x y z
#
# Youngs Moduli (GPa) = 74.04624 13.99363 31.04645
#
# Poissons Ratio (x) = 0.09022 0.01401
# Poissons Ratio (y) = 0.47739 -0.28071
# Poissons Ratio (z) = 0.03341 -0.12652
#
# Static dielectric constant tensor:
#      x y z
#    x 1.903540 0.000000 -0.058620 
#    y 0.000000 1.682090 0.000000 
#    z -0.058620 0.000000 1.836050 
# 
# From -- ./inp_files/63740.got.cif
#   From: 2010.05.17/outbox.cif.g08.bks.cpg/sg13_32_cif.got.tgz:63740.got - 2010.06.03 16:44:36.
