data_PCOD9226722
_publ_section_title
;
Structure prediction by ZEFSAII (Michael W. Deem and Ramdas Pophale) SiO2 
 PCOD9226722
Probable space group: P 2/C
;
_chemical_formula_sum "Si O2"
_cell_formula_units_Z 30
_cell_length_a 5.408049
_cell_length_b 14.888206
_cell_length_c 19.204460
_cell_angle_alpha 90.000000
_cell_angle_beta 98.731505
_cell_angle_gamma 90.000000
_cell_volume 1528.348748
_symmetry_space_group_name_H-M "P 2/C"
_symmetry_group_IT_number 13
_symmetry_cell_setting 'monoclinic'
loop_
_space_group_symop_operation_xyz
x,y,z
-x,y,1/2-z
-x,-y,-z
x,-y,1/2+z
loop_
_atom_site_type_symbol
_atom_site_label
_atom_site_fract_x
_atom_site_fract_y
_atom_site_fract_z
Si Si1 0.265570 0.506833 0.284243
Si Si2 0.566884 0.072541 0.606599
Si Si3 0.487691 0.874584 0.940286
Si Si4 0.998787 0.222096 0.037131
Si Si5 0.968722 0.397311 0.974537
Si Si6 0.442301 0.440985 0.930234
Si Si7 0.919586 0.828538 0.369574
Si Si8 0.000000 0.312609 0.750000
O O1 0.500000 0.477140 0.250000
O O2 0.339105 0.494651 0.366720
O O3 0.000000 0.467429 0.250000
O O4 0.221825 0.615200 0.274408
O O5 0.528804 0.098741 0.523385
O O6 0.349600 0.122067 0.640949
O O7 0.845992 0.105466 0.636518
O O8 0.530726 0.965402 0.605134
O O9 0.224113 0.823409 0.929822
O O10 0.729526 0.815371 0.931640
O O11 0.972443 0.329243 0.038479
O O12 0.955808 0.201876 0.952166
O O13 0.214703 0.376049 0.939941
O O14 0.000000 0.500000 0.000000
O O15 0.703697 0.393430 0.923451
O O16 0.500000 0.500000 0.000000
O O17 0.937118 0.749594 0.313382
#
# Coordination Sequence:
#
# PCOD9226722 Si02
#       8
#     4   4   4   4   4   4   4   2
#     4  10  22  34  51  73 105 145 189 234 266 326
#     4   9  18  31  45  66  92 127 167 210 255 289
#     4   9  17  30  47  67  92 125 167 210 252 308
#     4  10  18  29  48  70  95 136 176 204 263 324
#     4  10  20  32  49  74 105 142 178 224 275 334
#     4  10  20  35  53  72 103 150 189 229 283 335
#     4  10  20  29  46  66  96 140 173 205 247 312
#     4  10  24  32  48  70 112 146 188 212 262 332
#
# _framework density 19.629026
#
# number of rings (size 3 to 8) (size 9 to 14) (size 15 to 20)
#    0.400    1.867    0.000    3.200    3.733    4.267 
#    0.000    0.000    0.000    0.000    0.000    0.000 
#    0.000    0.000  317.333    0.400    8.000    0.000 
#
# Total GULP energy -167189.453191 kJ/mol
# GULP energy per Si atom -5572.981773 kJ/mol
# Density = 1.958435 g / cm^3
# Si number density = 19.629026 Si / 1000 Ang^3
#
#
#
# Elastic Constant Matrix: (Units=GPa)
#
#
# Indices 1 2 3 4 5 6 
#
# 1 175.1939 25.6201 15.4000 0.0000 -3.9207 0.0000
# 2 25.6201 77.0562 -6.6257 0.0000 -3.2404 0.0000
# 3 15.4000 -6.6257 49.5897 0.0000 7.0141 0.0000
# 4 0.0000 0.0000 0.0000 3.6453 0.0000 18.0055
# 5 -3.9207 -3.2404 7.0141 0.0000 14.6650 0.0000
# 6 0.0000 0.0000 0.0000 18.0055 0.0000 -20.0010
#
#
#
# Elastic Compliance Matrix: (Units=1/GPa)
#
#
# Indices 1 2 3 4 5 6 
#
# 1 0.006316 -0.002221 -0.002604 0.000000 0.002443 0.000000
# 2 -0.002221 0.013977 0.002364 0.000000 0.001364 0.000000
# 3 -0.002604 0.002364 0.022861 0.000000 -0.011108 0.000000
# 4 0.000000 0.000000 0.000000 0.050367 0.000000 0.045342
# 5 0.002443 0.001364 -0.011108 0.000000 0.074457 0.000000
# 6 0.000000 0.000000 0.000000 0.045342 0.000000 -0.009180
#
#
# Mechanical properties :
#
#
# Convention : Reuss Voigt Hill
#
# Bulk Modulus (GPa) = 26.15563 41.18095 33.66829
# Shear Modulus (GPa) = 28.33436 17.49154 22.91295
#
# Velocity S-wave (km/s) = 3.80345 2.98838 3.42028
# Velocity P-wave (km/s) = 5.71334 5.73867 5.72602
#
# Compressibility (1/GPa) = 0.03823269
#
# Stress axis : x y z
#
# Youngs Moduli (GPa) = 158.31903 71.54752 43.74231
#
# Poissons Ratio (x) = 0.15893 0.11390
# Poissons Ratio (y) = 0.35167 -0.10342
# Poissons Ratio (z) = 0.41225 -0.16916
#
# Static dielectric constant tensor:
#      x y z
#    x 1.692090 0.000000 -0.030150 
#    y 0.000000 1.750270 0.000000 
#    z -0.030150 0.000000 1.763160 
# 
# From -- ./inp_files/61411.got.cif
#   From: 2010.05.17/outbox.cif.g08.bks.cpg/sg13_31_cif.got.tgz:61411.got - 2010.06.03 16:44:36.
