data_PCOD9226234
_publ_section_title
;
Structure prediction by ZEFSAII (Michael W. Deem and Ramdas Pophale) SiO2 
 PCOD9226234
Probable space group: P 2/C
;
_chemical_formula_sum "Si O2"
_cell_formula_units_Z 22
_cell_length_a 11.344995
_cell_length_b 6.976906
_cell_length_c 11.909593
_cell_angle_alpha 90.000000
_cell_angle_beta 111.362379
_cell_angle_gamma 90.000000
_cell_volume 877.912967
_symmetry_space_group_name_H-M "P 2/C"
_symmetry_group_IT_number 13
_symmetry_cell_setting 'monoclinic'
loop_
_space_group_symop_operation_xyz
x,y,z
-x,y,1/2-z
-x,-y,-z
x,-y,1/2+z
loop_
_atom_site_type_symbol
_atom_site_label
_atom_site_fract_x
_atom_site_fract_y
_atom_site_fract_z
Si Si1 0.415232 0.546921 0.814903
Si Si2 0.769506 0.902726 0.097170
Si Si3 0.398766 0.782883 0.035596
Si Si4 0.792244 0.325991 0.836404
Si Si5 0.000000 0.821432 0.750000
Si Si6 0.048947 0.222086 0.020946
O O1 0.500000 0.648828 0.750000
O O2 0.391327 0.660460 0.919452
O O3 0.281668 0.519642 0.710010
O O4 0.486539 0.340963 0.866006
O O5 0.769260 0.782969 0.211550
O O6 0.825562 0.781733 0.012112
O O7 0.634628 0.999399 0.018612
O O8 0.877040 0.058551 0.167278
O O9 0.284135 0.764258 0.085547
O O10 0.937735 0.330655 0.917356
O O11 0.044260 0.724046 0.650162
O O12 0.000000 0.000000 0.000000
#
# Coordination Sequence:
#
# PCOD9226234 Si02
#       6
#     4   4   4   4   2   4
#     4   9  22  41  63  82 122 170 208 256 301 365
#     4  11  18  32  64  93 124 155 199 255 312 366
#     4  10  20  40  61  88 121 166 208 249 312 366
#     4  11  19  36  64  92 124 157 204 256 313 362
#     4  10  16  30  52  88 118 156 186 236 294 362
#     4  10  17  31  57  90 120 161 187 243 310 364
#
# _framework density 25.059429999999999
#
# number of rings (size 3 to 8) (size 9 to 14) (size 15 to 20)
#    0.000    1.818    7.273    0.000    0.000    0.727 
#    0.000   13.636    4.000    5.455    0.000    0.000 
#    0.000    0.000    0.000    0.000    0.000    0.000 
#
# Total GULP energy -122677.563334 kJ/mol
# GULP energy per Si atom -5576.252879 kJ/mol
# Density = 2.500239 g / cm^3
# Si number density = 25.059430 Si / 1000 Ang^3
#
#
#
# Elastic Constant Matrix: (Units=GPa)
#
#
# Indices 1 2 3 4 5 6 
#
# 1 159.8330 51.5189 76.9097 0.0000 -13.2493 0.0000
# 2 51.5189 42.3865 50.1900 0.0000 -12.3900 0.0000
# 3 76.9097 50.1900 182.8676 0.0000 -44.3605 0.0000
# 4 0.0000 0.0000 0.0000 35.2530 0.0000 9.0417
# 5 -13.2493 -12.3900 -44.3605 0.0000 56.1648 0.0000
# 6 0.0000 0.0000 0.0000 9.0417 0.0000 55.1604
#
#
#
# Elastic Compliance Matrix: (Units=1/GPa)
#
#
# Indices 1 2 3 4 5 6 
#
# 1 0.010586 -0.011261 -0.001680 0.000000 -0.001314 0.000000
# 2 -0.011261 0.046932 -0.007766 0.000000 0.001563 0.000000
# 3 -0.001680 -0.007766 0.009642 0.000000 0.005506 0.000000
# 4 0.000000 0.000000 0.000000 0.029611 0.000000 -0.004854
# 5 -0.001314 0.001563 0.005506 0.000000 0.022189 0.000000
# 6 0.000000 0.000000 0.000000 -0.004854 0.000000 0.018925
#
#
# Mechanical properties :
#
#
# Convention : Reuss Voigt Hill
#
# Bulk Modulus (GPa) = 38.84081 82.48048 60.66065
# Shear Modulus (GPa) = 26.61257 43.08021 34.84639
#
# Velocity S-wave (km/s) = 3.26234 4.15073 3.73305
# Velocity P-wave (km/s) = 5.45193 7.48043 6.54524
#
# Compressibility (1/GPa) = 0.02574612
#
# Stress axis : x y z
#
# Youngs Moduli (GPa) = 94.46495 21.30726 103.71138
#
# Poissons Ratio (x) = 0.23995 0.17425
# Poissons Ratio (y) = 1.06380 0.80539
# Poissons Ratio (z) = 0.15872 0.16546
#
# Static dielectric constant tensor:
#      x y z
#    x 2.023510 0.000000 -0.043660 
#    y 0.000000 2.148930 0.000000 
#    z -0.043660 0.000000 1.971250 
# 
# From -- ./inp_files/32697.got.cif
#   From: 2010.05.17/outbox.cif.g08.bks.cpg/sg13_17_cif.got.tgz:32697.got - 2010.06.03 16:44:36.
