data_PCOD9226429
_publ_section_title
;
Structure prediction by ZEFSAII (Michael W. Deem and Ramdas Pophale) SiO2 
 PCOD9226429
Probable space group: P 2/C
;
_chemical_formula_sum "Si O2"
_cell_formula_units_Z 24
_cell_length_a 14.711093
_cell_length_b 5.540692
_cell_length_c 27.223762
_cell_angle_alpha 90.000000
_cell_angle_beta 149.357240
_cell_angle_gamma 90.000000
_cell_volume 1130.987461
_symmetry_space_group_name_H-M "P 2/C"
_symmetry_group_IT_number 13
_symmetry_cell_setting 'monoclinic'
loop_
_space_group_symop_operation_xyz
x,y,z
-x,y,1/2-z
-x,-y,-z
x,-y,1/2+z
loop_
_atom_site_type_symbol
_atom_site_label
_atom_site_fract_x
_atom_site_fract_y
_atom_site_fract_z
Si Si1 0.635980 0.750000 0.593510
Si Si2 0.300105 0.250000 0.011491
Si Si3 0.566174 0.750000 0.725198
Si Si4 0.677948 0.750000 0.235147
Si Si5 0.834808 0.250000 0.709962
Si Si6 0.318233 0.250000 0.499969
O O1 0.457596 0.750000 0.543177
O O2 0.738591 0.504594 0.653887
O O3 0.617798 0.750000 0.526483
O O4 0.738591 0.995407 0.653887
O O5 0.397547 0.250000 0.109348
O O6 0.210673 0.506749 0.961056
O O7 0.210673 0.993251 0.961056
O O8 0.500000 0.750000 0.750000
O O9 0.669650 0.500247 0.761274
O O10 0.669650 0.999753 0.761274
O O11 0.837988 0.750000 0.270558
O O12 0.494071 0.750000 0.116568
O O13 0.000000 0.250000 0.750000
#
# Coordination Sequence:
#
# PCOD9226429 Si02
#       6
#     4   4   4   4   4   4
#     4  12  19  33  49  70  99 137 159 195 244 290
#     4  10  17  29  45  73 100 120 153 199 241 291
#     4  10  18  30  49  69  99 130 155 194 251 298
#     4  10  19  34  46  74 102 124 157 207 237 285
#     4  12  23  34  47  67 104 143 169 190 225 284
#     4  10  18  28  51  71  97 130 152 193 257 296
#
# _framework density 21.220395
#
# number of rings (size 3 to 8) (size 9 to 14) (size 15 to 20)
#    0.000    1.333    6.667    3.000    0.000    0.000 
#    0.000    0.000    0.000    0.000    0.000    0.000 
#    0.000  106.667    0.000    0.000    0.000    0.000 
#
# Total GULP energy -133977.707338 kJ/mol
# GULP energy per Si atom -5582.404472 kJ/mol
# Density = 2.117210 g / cm^3
# Si number density = 21.220395 Si / 1000 Ang^3
#
#
#
# Elastic Constant Matrix: (Units=GPa)
#
#
# Indices 1 2 3 4 5 6 
#
# 1 110.1615 87.0086 28.9093 0.0000 -28.2748 0.0000
# 2 87.0086 267.6828 36.5712 0.0000 -7.4323 0.0000
# 3 28.9093 36.5712 22.3558 0.0000 -12.8489 0.0000
# 4 0.0000 0.0000 0.0000 23.0199 0.0000 -7.5689
# 5 -28.2748 -7.4323 -12.8489 0.0000 36.9928 0.0000
# 6 0.0000 0.0000 0.0000 -7.5689 0.0000 28.3108
#
#
#
# Elastic Compliance Matrix: (Units=1/GPa)
#
#
# Indices 1 2 3 4 5 6 
#
# 1 0.017208 -0.003846 -0.011051 0.000000 0.008541 0.000000
# 2 -0.003846 0.005820 -0.006952 0.000000 -0.004185 0.000000
# 3 -0.011051 -0.006952 0.080883 0.000000 0.018250 0.000000
# 4 0.000000 0.000000 0.000000 0.047627 0.000000 0.012733
# 5 0.008541 -0.004185 0.018250 0.000000 0.039059 0.000000
# 6 0.000000 0.000000 0.000000 0.012733 0.000000 0.038726
#
#
# Mechanical properties :
#
#
# Convention : Reuss Voigt Hill
#
# Bulk Modulus (GPa) = 16.60788 78.35313 47.48051
# Shear Modulus (GPa) = 17.05953 34.17877 25.61915
#
# Velocity S-wave (km/s) = 2.83843 4.01765 3.47838
# Velocity P-wave (km/s) = 4.31110 7.65021 6.20932
#
# Compressibility (1/GPa) = 0.06021237
#
# Stress axis : x y z
#
# Youngs Moduli (GPa) = 58.11279 171.83530 12.36357
#
# Poissons Ratio (x) = 0.66094 0.13663
# Poissons Ratio (y) = 0.22352 0.08595
# Poissons Ratio (z) = 0.64221 1.19452
#
# Static dielectric constant tensor:
#      x y z
#    x 1.739970 0.000000 -0.004960 
#    y 0.000000 1.861940 0.000000 
#    z -0.004960 0.000000 1.834650 
# 
# From -- ./inp_files/82649.got.cif
#   From: 2010.05.17/outbox.cif.g08.bks.cpg/sg13_42_cif.got.tgz:82649.got - 2010.06.03 16:44:36.
