data_PCOD9226217
_publ_section_title
;
Structure prediction by ZEFSAII (Michael W. Deem and Ramdas Pophale) SiO2 
 PCOD9226217
Probable space group: P 2/C
;
_chemical_formula_sum "Si O2"
_cell_formula_units_Z 26
_cell_length_a 14.343355
_cell_length_b 7.954698
_cell_length_c 19.196585
_cell_angle_alpha 90.000000
_cell_angle_beta 28.507598
_cell_angle_gamma 90.000000
_cell_volume 1045.363605
_symmetry_space_group_name_H-M "P 2/C"
_symmetry_group_IT_number 13
_symmetry_cell_setting 'monoclinic'
loop_
_space_group_symop_operation_xyz
x,y,z
-x,y,1/2-z
-x,-y,-z
x,-y,1/2+z
loop_
_atom_site_type_symbol
_atom_site_label
_atom_site_fract_x
_atom_site_fract_y
_atom_site_fract_z
Si Si1 0.551990 0.522619 0.867344
Si Si2 0.177407 0.065805 0.531537
Si Si3 0.500000 0.296128 0.250000
Si Si4 0.453638 0.117292 0.465701
Si Si5 0.859355 0.950421 0.655627
Si Si6 0.962612 0.559893 0.602471
Si Si7 0.663993 0.309579 0.581991
O O1 0.553132 0.601694 0.786381
O O2 0.485843 0.683026 0.955159
O O3 0.417815 0.363329 0.939480
O O4 0.764789 0.466847 0.753345
O O5 0.246867 0.874579 0.475620
O O6 0.951900 0.063213 0.656676
O O7 0.311294 0.185481 0.395252
O O8 0.246216 0.103948 0.564273
O O9 0.626326 0.045880 0.299863
O O10 0.500000 0.000000 0.500000
O O11 0.897827 0.754412 0.644881
O O12 0.000000 0.000000 0.500000
O O13 0.162262 0.558753 0.513942
O O14 0.000000 0.500000 0.500000
O O15 0.500000 0.307221 0.750000
#
# Coordination Sequence:
#
# PCOD9226217 Si02
#       7
#     4   4   2   4   4   4   4
#     4  10  19  33  51  78 114 150 186 232 287 345
#     4  10  20  33  53  81 114 146 190 239 281 343
#     4  10  16  30  50  80 114 146 174 236 290 334
#     4  10  23  40  57  78 112 158 198 230 284 342
#     4  10  21  34  57  87 112 142 187 237 292 336
#     4  10  18  28  47  76 114 143 171 221 284 343
#     4  11  19  29  49  81 114 146 180 230 301 346
#
# _framework density 24.871728999999998
#
# number of rings (size 3 to 8) (size 9 to 14) (size 15 to 20)
#    0.000    1.846    3.077    2.769    2.154    1.846 
#    0.000    0.769    0.000    0.000    0.000    6.462 
#    0.000    0.000    0.000    0.000    0.000    0.000 
#
# Total GULP energy -145166.627415 kJ/mol
# GULP energy per Si atom -5583.331824 kJ/mol
# Density = 2.481512 g / cm^3
# Si number density = 24.871729 Si / 1000 Ang^3
#
#
#
# Elastic Constant Matrix: (Units=GPa)
#
#
# Indices 1 2 3 4 5 6 
#
# 1 69.1566 -9.0890 27.6843 0.0000 -13.7478 0.0000
# 2 -9.0890 60.7618 -0.2150 0.0000 -0.4764 0.0000
# 3 27.6843 -0.2150 48.9632 0.0000 -16.7796 0.0000
# 4 0.0000 0.0000 0.0000 20.9317 0.0000 -10.9556
# 5 -13.7478 -0.4764 -16.7796 0.0000 53.5595 0.0000
# 6 0.0000 0.0000 0.0000 -10.9556 0.0000 31.4147
#
#
#
# Elastic Compliance Matrix: (Units=1/GPa)
#
#
# Indices 1 2 3 4 5 6 
#
# 1 0.019310 0.002866 -0.010305 0.000000 0.001754 0.000000
# 2 0.002866 0.016885 -0.001392 0.000000 0.000450 0.000000
# 3 -0.010305 -0.001392 0.028380 0.000000 0.006234 0.000000
# 4 0.000000 0.000000 0.000000 0.058442 0.000000 0.020381
# 5 0.001754 0.000450 0.006234 0.000000 0.021078 0.000000
# 6 0.000000 0.000000 0.000000 0.020381 0.000000 0.038940
#
#
# Mechanical properties :
#
#
# Convention : Reuss Voigt Hill
#
# Bulk Modulus (GPa) = 21.31586 23.96024 22.63805
# Shear Modulus (GPa) = 23.11233 31.88127 27.49680
#
# Velocity S-wave (km/s) = 3.05169 3.58415 3.32858
# Velocity P-wave (km/s) = 4.58323 5.17519 4.88818
#
# Compressibility (1/GPa) = 0.04691342
#
# Stress axis : x y z
#
# Youngs Moduli (GPa) = 51.78586 59.22419 35.23605
#
# Poissons Ratio (x) = -0.16972 0.36309
# Poissons Ratio (y) = -0.14841 0.04905
# Poissons Ratio (z) = 0.53363 0.08245
#
# Static dielectric constant tensor:
#      x y z
#    x 1.954590 0.000000 0.028660 
#    y 0.000000 2.049940 0.000000 
#    z 0.028660 0.000000 2.054440 
# 
# From -- ./inp_files/49894.got.cif
#   From: 2010.05.17/outbox.cif.g08.bks.cpg/sg13_25_cif.got.tgz:49894.got - 2010.06.03 16:44:36.
