data_PCOD9226520
_publ_section_title
;
Structure prediction by ZEFSAII (Michael W. Deem and Ramdas Pophale) SiO2 
 PCOD9226520
Probable space group: P 2/C
;
_chemical_formula_sum "Si O2"
_cell_formula_units_Z 32
_cell_length_a 19.233469
_cell_length_b 8.081073
_cell_length_c 19.206813
_cell_angle_alpha 90.000000
_cell_angle_beta 152.710529
_cell_angle_gamma 90.000000
_cell_volume 1368.700024
_symmetry_space_group_name_H-M "P 2/C"
_symmetry_group_IT_number 13
_symmetry_cell_setting 'monoclinic'
loop_
_space_group_symop_operation_xyz
x,y,z
-x,y,1/2-z
-x,-y,-z
x,-y,1/2+z
loop_
_atom_site_type_symbol
_atom_site_label
_atom_site_fract_x
_atom_site_fract_y
_atom_site_fract_z
Si Si1 0.809139 0.052853 0.255194
Si Si2 0.283483 0.464714 0.664310
Si Si3 0.378563 0.444154 0.557233
Si Si4 0.178302 0.877598 0.895096
Si Si5 0.880134 0.820273 0.426992
Si Si6 0.726260 0.593328 0.689658
Si Si7 0.016916 0.635634 0.112763
Si Si8 0.164486 0.247759 0.874434
O O1 0.781552 0.077586 0.149366
O O2 0.730049 0.217359 0.214169
O O3 0.993143 0.064651 0.426064
O O4 0.767190 0.913940 0.274011
O O5 0.206574 0.284635 0.593180
O O6 0.301697 0.494663 0.764154
O O7 0.157528 0.596667 0.526549
O O8 0.443426 0.461075 0.769282
O O9 0.286601 0.282420 0.503999
O O10 0.374434 0.432020 0.468309
O O11 0.291335 0.614504 0.496585
O O12 0.000000 0.834522 0.750000
O O13 0.193235 0.069469 0.936281
O O14 0.971725 0.702254 0.455331
O O15 0.889551 0.535394 0.803851
O O16 0.119877 0.757040 0.251785
O O17 0.000000 0.316455 0.750000
#
# Coordination Sequence:
#
# PCOD9226520 Si02
#       8
#     4   4   4   4   4   4   4   4
#     4  10  17  31  53  85 105 141 193 235 269 331
#     4  11  19  34  51  85 119 151 173 230 293 348
#     4  10  22  36  56  84 118 147 183 229 298 344
#     4  10  21  39  62  82 106 146 203 242 274 329
#     4  10  18  30  53  83 116 141 186 227 283 336
#     4   9  17  32  52  77 111 151 185 220 269 339
#     4  10  17  33  57  80 107 147 192 228 271 333
#     4  10  21  40  63  81 104 148 201 246 276 332
#
# _framework density 23.379847999999999
#
# number of rings (size 3 to 8) (size 9 to 14) (size 15 to 20)
#    0.000    2.000    3.750    1.500    0.000    0.000 
#    2.250    1.875    0.000    0.000    0.000    0.000 
#    0.000    0.000    0.000    0.000    0.000    0.000 
#
# Total GULP energy -178227.438877 kJ/mol
# GULP energy per Si atom -5569.607465 kJ/mol
# Density = 2.332663 g / cm^3
# Si number density = 23.379848 Si / 1000 Ang^3
#
#
#
# Elastic Constant Matrix: (Units=GPa)
#
#
# Indices 1 2 3 4 5 6 
#
# 1 56.5464 -9.2232 10.9322 0.0000 5.2255 0.0000
# 2 -9.2232 102.4623 61.0960 0.0000 14.3470 0.0000
# 3 10.9322 61.0960 135.6456 0.0000 28.6835 0.0000
# 4 0.0000 0.0000 0.0000 13.7329 0.0000 4.3606
# 5 5.2255 14.3470 28.6835 0.0000 28.8916 0.0000
# 6 0.0000 0.0000 0.0000 4.3606 0.0000 17.3711
#
#
#
# Elastic Compliance Matrix: (Units=1/GPa)
#
#
# Indices 1 2 3 4 5 6 
#
# 1 0.019029 0.003643 -0.002613 0.000000 -0.002657 0.000000
# 2 0.003643 0.014057 -0.006341 0.000000 -0.001344 0.000000
# 3 -0.002613 -0.006341 0.012243 0.000000 -0.008534 0.000000
# 4 0.000000 0.000000 0.000000 0.079125 0.000000 -0.019863
# 5 -0.002657 -0.001344 -0.008534 0.000000 0.044232 0.000000
# 6 0.000000 0.000000 0.000000 -0.019863 0.000000 0.062553
#
#
# Mechanical properties :
#
#
# Convention : Reuss Voigt Hill
#
# Bulk Modulus (GPa) = 28.81146 46.69603 37.75375
# Shear Modulus (GPa) = 19.72935 27.45574 23.59254
#
# Velocity S-wave (km/s) = 2.90808 3.43057 3.18008
# Velocity P-wave (km/s) = 4.86064 5.97561 5.44673
#
# Compressibility (1/GPa) = 0.03470841
#
# Stress axis : x y z
#
# Youngs Moduli (GPa) = 52.55029 71.14131 81.67869
#
# Poissons Ratio (x) = -0.25915 0.21339
# Poissons Ratio (y) = -0.19143 0.51789
# Poissons Ratio (z) = 0.13729 0.45107
#
# Static dielectric constant tensor:
#      x y z
#    x 2.167640 0.000000 -0.063070 
#    y 0.000000 1.988830 0.000000 
#    z -0.063070 0.000000 1.896360 
# 
# From -- ./inp_files/93592.got.cif
#   From: 2010.05.17/outbox.cif.g08.bks.cpg/sg13_47_cif.got.tgz:93592.got - 2010.06.03 16:44:36.
