data_PCOD9226375
_publ_section_title
;
Structure prediction by ZEFSAII (Michael W. Deem and Ramdas Pophale) SiO2 
 PCOD9226375
Probable space group: P 2/C
;
_chemical_formula_sum "Si O2"
_cell_formula_units_Z 24
_cell_length_a 16.289288
_cell_length_b 5.437121
_cell_length_c 25.580523
_cell_angle_alpha 90.000000
_cell_angle_beta 22.477763
_cell_angle_gamma 90.000000
_cell_volume 866.189734
_symmetry_space_group_name_H-M "P 2/C"
_symmetry_group_IT_number 13
_symmetry_cell_setting 'monoclinic'
loop_
_space_group_symop_operation_xyz
x,y,z
-x,y,1/2-z
-x,-y,-z
x,-y,1/2+z
loop_
_atom_site_type_symbol
_atom_site_label
_atom_site_fract_x
_atom_site_fract_y
_atom_site_fract_z
Si Si1 0.436724 0.912229 0.594950
Si Si2 0.720292 0.393153 0.155617
Si Si3 0.604220 0.585112 0.339447
Si Si4 0.908390 0.802004 0.357819
Si Si5 0.757162 0.118625 0.591176
Si Si6 0.128755 0.296183 0.088607
O O1 0.314695 0.137997 0.695726
O O2 0.657424 0.860923 0.497369
O O3 0.500000 0.000000 0.500000
O O4 0.341623 0.636285 0.652835
O O5 0.500000 0.384058 0.250000
O O6 0.659386 0.468371 0.250507
O O7 0.848181 0.626549 0.059074
O O8 0.817936 0.129390 0.084679
O O9 0.348286 0.642773 0.490775
O O10 0.007407 0.077601 0.304409
O O11 0.000000 0.693155 0.250000
O O12 0.940983 0.579937 0.379705
O O13 0.500000 0.130213 0.750000
O O14 0.807986 0.144803 0.500600
#
# Coordination Sequence:
#
# PCOD9226375 Si02
#       6
#     4   4   4   4   4   4
#     4  10  21  34  51  70 100 135 176 214 252 295
#     4  10  17  24  41  66 103 130 153 187 257 322
#     4  10  18  30  46  70 100 139 158 204 257 311
#     4  10  21  34  51  70 100 135 176 214 252 295
#     4  10  17  24  41  66 103 130 153 187 257 322
#     4  10  18  30  46  70 100 139 158 204 257 311
#
# _framework density 27.707553999999998
#
# number of rings (size 3 to 8) (size 9 to 14) (size 15 to 20)
#    0.000    2.000    3.333    3.000    9.333    0.000 
#    0.000    0.000    0.000    0.000    0.000    0.000 
#    0.000   26.667    0.000    0.000    0.000    1.333 
#
# Total GULP energy -134085.862787 kJ/mol
# GULP energy per Si atom -5586.910949 kJ/mol
# Density = 2.764449 g / cm^3
# Si number density = 27.707554 Si / 1000 Ang^3
#
#
#
# Elastic Constant Matrix: (Units=GPa)
#
#
# Indices 1 2 3 4 5 6 
#
# 1 79.2187 70.4743 37.6045 0.0000 -2.6295 0.0000
# 2 70.4743 317.3239 46.3442 0.0000 2.2245 0.0000
# 3 37.6045 46.3442 64.4242 0.0000 31.4510 0.0000
# 4 0.0000 0.0000 0.0000 49.8574 0.0000 5.5957
# 5 -2.6295 2.2245 31.4510 0.0000 55.8311 0.0000
# 6 0.0000 0.0000 0.0000 5.5957 0.0000 59.2327
#
#
#
# Elastic Compliance Matrix: (Units=1/GPa)
#
#
# Indices 1 2 3 4 5 6 
#
# 1 0.023560 -0.002827 -0.016986 0.000000 0.010791 0.000000
# 2 -0.002827 0.003993 -0.001489 0.000000 0.000546 0.000000
# 3 -0.016986 -0.001489 0.037062 0.000000 -0.021619 0.000000
# 4 0.000000 0.000000 0.000000 0.020272 0.000000 -0.001915
# 5 0.010791 0.000546 -0.021619 0.000000 0.030576 0.000000
# 6 0.000000 0.000000 0.000000 -0.001915 0.000000 0.017063
#
#
# Mechanical properties :
#
#
# Convention : Reuss Voigt Hill
#
# Bulk Modulus (GPa) = 45.43351 85.53474 65.48413
# Shear Modulus (GPa) = 27.40220 53.42048 40.41134
#
# Velocity S-wave (km/s) = 3.14822 4.39568 3.82317
# Velocity P-wave (km/s) = 5.44501 7.52995 6.57070
#
# Compressibility (1/GPa) = 0.02201019
#
# Stress axis : x y z
#
# Youngs Moduli (GPa) = 42.44507 250.44688 26.98196
#
# Poissons Ratio (x) = 0.70808 0.45832
# Poissons Ratio (y) = 0.12000 0.04017
# Poissons Ratio (z) = 0.72098 0.37286
#
# Static dielectric constant tensor:
#      x y z
#    x 2.279860 0.000000 -0.038220 
#    y 0.000000 2.209490 0.000000 
#    z -0.038220 0.000000 2.232710 
# 
# From -- ./inp_files/87690.got.cif
#   From: 2010.05.17/outbox.cif.g08.bks.cpg/sg13_44_cif.got.tgz:87690.got - 2010.06.03 16:44:36.
