data_PCOD9226531
_publ_section_title
;
Structure prediction by ZEFSAII (Michael W. Deem and Ramdas Pophale) SiO2 
 PCOD9226531
Probable space group: P 2/C
;
_chemical_formula_sum "Si O2"
_cell_formula_units_Z 18
_cell_length_a 10.806897
_cell_length_b 5.180557
_cell_length_c 19.871360
_cell_angle_alpha 90.000000
_cell_angle_beta 143.209321
_cell_angle_gamma 90.000000
_cell_volume 666.276558
_symmetry_space_group_name_H-M "P 2/C"
_symmetry_group_IT_number 13
_symmetry_cell_setting 'monoclinic'
loop_
_space_group_symop_operation_xyz
x,y,z
-x,y,1/2-z
-x,-y,-z
x,-y,1/2+z
loop_
_atom_site_type_symbol
_atom_site_label
_atom_site_fract_x
_atom_site_fract_y
_atom_site_fract_z
Si Si1 0.604143 0.201326 0.594793
Si Si2 0.270744 0.964961 0.114184
Si Si3 0.606991 0.541005 0.899037
Si Si4 0.197117 0.814613 0.713481
Si Si5 0.000000 0.527657 0.750000
O O1 0.444422 0.415265 0.551667
O O2 0.805456 0.342935 0.655780
O O3 0.500000 0.000000 0.500000
O O4 0.683234 0.035082 0.692803
O O5 0.500000 0.974473 0.250000
O O6 0.281802 0.186288 0.061820
O O7 0.125562 0.061137 0.112226
O O8 0.266322 0.676046 0.085120
O O9 0.369876 0.596747 0.771141
O O10 0.042214 0.695201 0.701009
#
# Coordination Sequence:
#
# PCOD9226531 Si02
#       5
#     4   4   4   4   2
#     4  11  23  41  66  97 136 176 221 273 336 402
#     4  10  17  31  59  91 122 158 224 271 317 393
#     4  10  19  33  59  96 121 165 218 271 325 386
#     4  10  21  36  62  95 129 170 219 278 331 388
#     4  10  24  40  62  98 136 182 222 268 340 398
#
# _framework density 27.015810999999999
#
# number of rings (size 3 to 8) (size 9 to 14) (size 15 to 20)
#    0.000    1.778    4.444    2.667    3.111    3.556 
#    0.000    0.000    0.000    2.667    0.000    0.000 
#    0.000    0.000    0.000    0.000    0.000    0.000 
#
# Total GULP energy -100852.915484 kJ/mol
# GULP energy per Si atom -5602.939749 kJ/mol
# Density = 2.695432 g / cm^3
# Si number density = 27.015811 Si / 1000 Ang^3
#
#
#
# Elastic Constant Matrix: (Units=GPa)
#
#
# Indices 1 2 3 4 5 6 
#
# 1 192.9902 81.1283 54.6442 0.0000 4.0982 0.0000
# 2 81.1283 178.6181 50.2397 0.0000 4.1831 0.0000
# 3 54.6442 50.2397 74.5076 0.0000 -8.6337 0.0000
# 4 0.0000 0.0000 0.0000 41.4485 0.0000 -0.6899
# 5 4.0982 4.1831 -8.6337 0.0000 33.8931 0.0000
# 6 0.0000 0.0000 0.0000 -0.6899 0.0000 78.7034
#
#
#
# Elastic Compliance Matrix: (Units=1/GPa)
#
#
# Indices 1 2 3 4 5 6 
#
# 1 0.007263 -0.002107 -0.004099 0.000000 -0.001662 0.000000
# 2 -0.002107 0.007669 -0.003818 0.000000 -0.001664 0.000000
# 3 -0.004099 -0.003818 0.019695 0.000000 0.005984 0.000000
# 4 0.000000 0.000000 0.000000 0.024130 0.000000 0.000212
# 5 -0.001662 -0.001664 0.005984 0.000000 0.031435 0.000000
# 6 0.000000 0.000000 0.000000 0.000212 0.000000 0.012708
#
#
# Mechanical properties :
#
#
# Convention : Reuss Voigt Hill
#
# Bulk Modulus (GPa) = 68.59169 90.90447 79.74808
# Shear Modulus (GPa) = 39.12123 48.14925 43.63524
#
# Velocity S-wave (km/s) = 3.80950 4.22626 4.02328
# Velocity P-wave (km/s) = 6.69286 7.58530 7.15301
#
# Compressibility (1/GPa) = 0.01457902
#
# Stress axis : x y z
#
# Youngs Moduli (GPa) = 137.67968 130.40260 50.77330
#
# Poissons Ratio (x) = 0.27479 0.20810
# Poissons Ratio (y) = 0.29012 0.19386
# Poissons Ratio (z) = 0.56430 0.49791
#
# Static dielectric constant tensor:
#      x y z
#    x 2.199980 0.000000 0.026300 
#    y 0.000000 2.047340 0.000000 
#    z 0.026300 0.000000 2.269340 
# 
# From -- ./inp_files/77059.got.cif
#   From: 2010.05.17/outbox.cif.g08.bks.cpg/sg13_39_cif.got.tgz:77059.got - 2010.06.03 16:44:36.
