data_PCOD9226709
_publ_section_title
;
Structure prediction by ZEFSAII (Michael W. Deem and Ramdas Pophale) SiO2 
 PCOD9226709
Probable space group: P 2/C
;
_chemical_formula_sum "Si O2"
_cell_formula_units_Z 22
_cell_length_a 18.994410
_cell_length_b 9.230787
_cell_length_c 5.531458
_cell_angle_alpha 90.000000
_cell_angle_beta 72.520345
_cell_angle_gamma 90.000000
_cell_volume 925.065004
_symmetry_space_group_name_H-M "P 2/C"
_symmetry_group_IT_number 13
_symmetry_cell_setting 'monoclinic'
loop_
_space_group_symop_operation_xyz
x,y,z
-x,y,1/2-z
-x,-y,-z
x,-y,1/2+z
loop_
_atom_site_type_symbol
_atom_site_label
_atom_site_fract_x
_atom_site_fract_y
_atom_site_fract_z
Si Si1 0.797265 0.817790 0.028053
Si Si2 0.848440 0.243215 0.975643
Si Si3 0.000000 0.409079 0.750000
Si Si4 0.727444 0.499650 0.135789
Si Si5 0.417272 0.179788 0.409604
Si Si6 0.363354 0.145559 0.964671
O O1 0.849998 0.827070 0.740840
O O2 0.775365 0.647360 0.078900
O O3 0.825334 0.853431 0.267973
O O4 0.719853 0.889406 0.031225
O O5 0.786366 0.369013 0.067390
O O6 0.926109 0.314399 0.832610
O O7 0.000000 0.500000 0.500000
O O8 0.684559 0.499595 0.929939
O O9 0.500000 0.216037 0.250000
O O10 0.396142 0.231018 0.700565
O O11 0.407555 0.004893 0.446015
O O12 0.366892 0.216150 0.227472
#
# Coordination Sequence:
#
# PCOD9226709 Si02
#       6
#     4   4   2   4   4   4
#     4  10  18  29  43  65  95 122 157 195 225 278
#     4  10  19  30  43  64  96 126 158 200 233 269
#     4  12  20  30  48  68  92 136 174 192 244 298
#     4   8  14  25  38  54  83 116 142 181 220 247
#     4  10  19  33  50  73 103 120 141 186 237 295
#     4  10  18  29  48  70  96 128 150 176 235 292
#
# _framework density 23.782112999999999
#
# number of rings (size 3 to 8) (size 9 to 14) (size 15 to 20)
#    0.000    2.182    0.000    8.182    0.000    0.000 
#    0.000    0.000    0.000    0.000    0.000    0.000 
#    0.000  280.727    0.000    0.000    0.000    0.000 
#
# Total GULP energy -122820.803870 kJ/mol
# GULP energy per Si atom -5582.763812 kJ/mol
# Density = 2.372798 g / cm^3
# Si number density = 23.782113 Si / 1000 Ang^3
#
#
#
# Elastic Constant Matrix: (Units=GPa)
#
#
# Indices 1 2 3 4 5 6 
#
# 1 79.2779 1.6176 21.6494 0.0000 -7.2609 0.0000
# 2 1.6176 64.9118 11.1699 0.0000 3.1965 0.0000
# 3 21.6494 11.1699 235.2731 0.0000 24.5832 0.0000
# 4 0.0000 0.0000 0.0000 -20.7151 0.0000 16.7513
# 5 -7.2609 3.1965 24.5832 0.0000 48.7688 0.0000
# 6 0.0000 0.0000 0.0000 16.7513 0.0000 22.6085
#
#
#
# Elastic Compliance Matrix: (Units=1/GPa)
#
#
# Indices 1 2 3 4 5 6 
#
# 1 0.013279 -0.000208 -0.001499 0.000000 0.002746 0.000000
# 2 -0.000208 0.015557 -0.000644 0.000000 -0.000726 0.000000
# 3 -0.001499 -0.000644 0.004685 0.000000 -0.002542 0.000000
# 4 0.000000 0.000000 0.000000 -0.030187 0.000000 0.022367
# 5 0.002746 -0.000726 -0.002542 0.000000 0.022243 0.000000
# 6 0.000000 0.000000 0.000000 0.022367 0.000000 0.027659
#
#
# Mechanical properties :
#
#
# Convention : Reuss Voigt Hill
#
# Bulk Modulus (GPa) = 34.69904 49.81515 42.25709
# Shear Modulus (GPa) = 74.02648 33.13417 53.58033
#
# Velocity S-wave (km/s) = 5.58521 3.73666 4.75169
# Velocity P-wave (km/s) = 7.49765 6.29355 6.92183
#
# Compressibility (1/GPa) = 0.02881924
#
# Stress axis : x y z
#
# Youngs Moduli (GPa) = 75.30703 64.27889 213.46951
#
# Poissons Ratio (x) = 0.01338 0.31998
# Poissons Ratio (y) = 0.01568 0.13738
# Poissons Ratio (z) = 0.11288 0.04137
#
# Static dielectric constant tensor:
#      x y z
#    x 1.865820 0.000000 0.076200 
#    y 0.000000 1.982600 0.000000 
#    z 0.076200 0.000000 2.029390 
# 
# From -- ./inp_files/4867.got.cif
#   From: 2010.05.17/outbox.cif.g08.bks.cpg/sg13_3_cif.got.tgz:4867.got - 2010.06.03 16:44:36.
