data_PCOD9226863
_publ_section_title
;
Structure prediction by ZEFSAII (Michael W. Deem and Ramdas Pophale) SiO2 
 PCOD9226863
Probable space group: P 2/C
;
_chemical_formula_sum "Si O2"
_cell_formula_units_Z 28
_cell_length_a 12.076509
_cell_length_b 10.262406
_cell_length_c 11.224937
_cell_angle_alpha 90.000000
_cell_angle_beta 74.828088
_cell_angle_gamma 90.000000
_cell_volume 1342.663055
_symmetry_space_group_name_H-M "P 2/C"
_symmetry_group_IT_number 13
_symmetry_cell_setting 'monoclinic'
loop_
_space_group_symop_operation_xyz
x,y,z
-x,y,1/2-z
-x,-y,-z
x,-y,1/2+z
loop_
_atom_site_type_symbol
_atom_site_label
_atom_site_fract_x
_atom_site_fract_y
_atom_site_fract_z
Si Si1 0.488106 0.105149 0.612520
Si Si2 0.905771 0.878474 0.141332
Si Si3 0.849822 0.458213 0.416694
Si Si4 0.893625 0.166099 0.076315
Si Si5 0.125533 0.561452 0.839849
Si Si6 0.241754 0.100832 0.605575
Si Si7 0.731055 0.183278 0.490116
O O1 0.500000 0.062924 0.750000
O O2 0.359500 0.154978 0.625681
O O3 0.596086 0.197832 0.554397
O O4 0.500000 0.000000 0.500000
O O5 0.866451 0.853399 0.285691
O O6 0.934865 0.032349 0.124824
O O7 0.792239 0.859991 0.094822
O O8 0.002057 0.798560 0.043458
O O9 0.818158 0.526419 0.549700
O O10 0.822521 0.508356 0.290926
O O11 0.793541 0.315566 0.437435
O O12 0.988621 0.461639 0.380501
O O13 0.868518 0.282249 0.171358
O O14 0.784965 0.140327 0.022071
O O15 0.249522 0.941948 0.602311
#
# Coordination Sequence:
#
# PCOD9226863 Si02
#       7
#     4   4   4   4   4   4   4
#     4  10  20  36  57  83 118 154 196 238 287 346
#     4  10  18  31  50  81 121 152 183 225 292 354
#     4  10  21  38  58  82 113 153 198 237 289 336
#     4  10  20  32  51  83 117 153 187 231 288 355
#     4  10  21  38  57  83 115 154 193 239 283 347
#     4  10  20  32  52  85 118 153 191 231 286 355
#     4  10  19  34  56  80 114 156 188 236 290 343
#
# _framework density 20.854078999999999
#
# number of rings (size 3 to 8) (size 9 to 14) (size 15 to 20)
#    0.000    2.000    2.857    1.286    0.000    1.143 
#    5.143    0.000    0.000    0.857    0.000    0.000 
#    0.000    0.000    0.000    0.000    0.000    0.000 
#
# Total GULP energy -155914.265825 kJ/mol
# GULP energy per Si atom -5568.366637 kJ/mol
# Density = 2.080661 g / cm^3
# Si number density = 20.854079 Si / 1000 Ang^3
#
#
#
# Elastic Constant Matrix: (Units=GPa)
#
#
# Indices 1 2 3 4 5 6 
#
# 1 74.0727 -3.7859 14.3689 0.0000 -0.0561 0.0000
# 2 -3.7859 37.8194 14.7634 0.0000 -2.4165 0.0000
# 3 14.3689 14.7634 125.1153 0.0000 4.5911 0.0000
# 4 0.0000 0.0000 0.0000 6.8657 0.0000 5.6901
# 5 -0.0561 -2.4165 4.5911 0.0000 25.7712 0.0000
# 6 0.0000 0.0000 0.0000 5.6901 0.0000 14.1269
#
#
#
# Elastic Compliance Matrix: (Units=1/GPa)
#
#
# Indices 1 2 3 4 5 6 
#
# 1 0.013977 0.002170 -0.001882 0.000000 0.000569 0.000000
# 2 0.002170 0.028320 -0.003713 0.000000 0.003322 0.000000
# 3 -0.001882 -0.003713 0.008717 0.000000 -0.001905 0.000000
# 4 0.000000 0.000000 0.000000 0.218635 0.000000 -0.088062
# 5 0.000569 0.003322 -0.001905 0.000000 0.039455 0.000000
# 6 0.000000 0.000000 0.000000 -0.088062 0.000000 0.106257
#
#
# Mechanical properties :
#
#
# Convention : Reuss Voigt Hill
#
# Bulk Modulus (GPa) = 22.64277 31.96670 27.30474
# Shear Modulus (GPa) = 11.44345 23.46349 17.45347
#
# Velocity S-wave (km/s) = 2.34506 3.35793 2.89612
# Velocity P-wave (km/s) = 4.26775 5.51328 4.93001
#
# Compressibility (1/GPa) = 0.04416421
#
# Stress axis : x y z
#
# Youngs Moduli (GPa) = 71.54767 35.31034 114.72089
#
# Poissons Ratio (x) = -0.07663 0.21592
# Poissons Ratio (y) = -0.15527 0.42595
# Poissons Ratio (z) = 0.13466 0.13110
#
# Static dielectric constant tensor:
#      x y z
#    x 1.751660 0.000000 0.000110 
#    y 0.000000 1.768880 0.000000 
#    z 0.000110 0.000000 1.894330 
# 
# From -- ./inp_files/33209.got.cif
#   From: 2010.05.17/outbox.cif.g08.bks.cpg/sg13_17_cif.got.tgz:33209.got - 2010.06.03 16:44:36.
