data_PCOD9226454
_publ_section_title
;
Structure prediction by ZEFSAII (Michael W. Deem and Ramdas Pophale) SiO2 
 PCOD9226454
Probable space group: P 2/C
;
_chemical_formula_sum "Si O2"
_cell_formula_units_Z 24
_cell_length_a 16.173483
_cell_length_b 9.014688
_cell_length_c 17.275602
_cell_angle_alpha 90.000000
_cell_angle_beta 35.096324
_cell_angle_gamma 90.000000
_cell_volume 1448.170211
_symmetry_space_group_name_H-M "P 2/C"
_symmetry_group_IT_number 13
_symmetry_cell_setting 'monoclinic'
loop_
_space_group_symop_operation_xyz
x,y,z
-x,y,1/2-z
-x,-y,-z
x,-y,1/2+z
loop_
_atom_site_type_symbol
_atom_site_label
_atom_site_fract_x
_atom_site_fract_y
_atom_site_fract_z
Si Si1 0.033897 0.839809 0.633991
Si Si2 0.585200 0.095262 0.998216
Si Si3 0.692798 0.841193 0.711080
Si Si4 0.348982 0.057508 0.894024
Si Si5 0.961803 0.669428 0.541534
Si Si6 0.151201 0.093624 0.802778
O O1 0.205491 0.848990 0.492112
O O2 0.000000 0.817565 0.750000
O O3 0.971075 0.716529 0.624441
O O4 0.961631 0.994329 0.659863
O O5 0.460876 0.194131 0.132402
O O6 0.638012 0.988378 0.026730
O O7 0.725309 0.157911 0.848113
O O8 0.500000 0.000000 0.000000
O O9 0.803665 0.707910 0.630966
O O10 0.668011 0.909804 0.645575
O O11 0.770029 0.976052 0.700057
O O12 0.500000 0.126725 0.750000
O O13 0.000000 0.500000 0.500000
O O14 0.069135 0.781507 0.413982
#
# Coordination Sequence:
#
# PCOD9226454 Si02
#       6
#     4   4   4   4   4   4
#     4  11  19  34  56  84 105 133 186 234 264 311
#     4   9  18  28  50  87 106 126 169 233 281 306
#     4   9  17  33  52  78 105 134 180 223 265 313
#     4  10  17  29  53  83 106 131 168 230 277 311
#     4  11  22  36  53  76 114 155 178 211 268 328
#     4  10  17  32  55  78 105 135 179 225 267 312
#
# _framework density 16.572638000000001
#
# number of rings (size 3 to 8) (size 9 to 14) (size 15 to 20)
#    0.000    2.000    5.000    1.000    0.000    0.000 
#    0.000    3.333    0.000    3.000    0.000    0.000 
#    0.000    0.000    0.000    0.000    0.000    0.000 
#
# Total GULP energy -133696.943634 kJ/mol
# GULP energy per Si atom -5570.705985 kJ/mol
# Density = 1.653492 g / cm^3
# Si number density = 16.572638 Si / 1000 Ang^3
#
#
#
# Elastic Constant Matrix: (Units=GPa)
#
#
# Indices 1 2 3 4 5 6 
#
# 1 83.6484 8.3551 14.3756 0.0000 9.4116 0.0000
# 2 8.3551 64.4297 17.6684 0.0000 1.7488 0.0000
# 3 14.3756 17.6684 84.3673 0.0000 -3.2112 0.0000
# 4 0.0000 0.0000 0.0000 13.3706 0.0000 -3.5109
# 5 9.4116 1.7488 -3.2112 0.0000 42.1939 0.0000
# 6 0.0000 0.0000 0.0000 -3.5109 0.0000 10.6423
#
#
#
# Elastic Compliance Matrix: (Units=1/GPa)
#
#
# Indices 1 2 3 4 5 6 
#
# 1 0.012744 -0.001004 -0.002074 0.000000 -0.002959 0.000000
# 2 -0.001004 0.016583 -0.003329 0.000000 -0.000717 0.000000
# 3 -0.002074 -0.003329 0.012964 0.000000 0.001587 0.000000
# 4 0.000000 0.000000 0.000000 0.081884 0.000000 0.027013
# 5 -0.002959 -0.000717 0.001587 0.000000 0.024511 0.000000
# 6 0.000000 0.000000 0.000000 0.027013 0.000000 0.102877
#
#
# Mechanical properties :
#
#
# Convention : Reuss Voigt Hill
#
# Bulk Modulus (GPa) = 33.92351 34.80485 34.36418
# Shear Modulus (GPa) = 18.23470 26.04444 22.13957
#
# Velocity S-wave (km/s) = 3.32066 3.96856 3.65898
# Velocity P-wave (km/s) = 5.93434 6.48431 6.21541
#
# Compressibility (1/GPa) = 0.02947809
#
# Stress axis : x y z
#
# Youngs Moduli (GPa) = 78.46585 60.30141 77.13695
#
# Poissons Ratio (x) = 0.06052 0.15998
# Poissons Ratio (y) = 0.07875 0.25680
# Poissons Ratio (z) = 0.16274 0.20076
#
# Static dielectric constant tensor:
#      x y z
#    x 1.582160 0.000000 -0.014200 
#    y 0.000000 1.527930 0.000000 
#    z -0.014200 0.000000 1.613870 
# 
# From -- ./inp_files/52881.got.cif
#   From: 2010.05.17/outbox.cif.g08.bks.cpg/sg13_27_cif.got.tgz:52881.got - 2010.06.03 16:44:36.
