data_PCOD9226256
_publ_section_title
;
Structure prediction by ZEFSAII (Michael W. Deem and Ramdas Pophale) SiO2 
 PCOD9226256
Probable space group: P 2/C
;
_chemical_formula_sum "Si O2"
_cell_formula_units_Z 26
_cell_length_a 13.072291
_cell_length_b 22.021361
_cell_length_c 5.204384
_cell_angle_alpha 90.000000
_cell_angle_beta 73.092396
_cell_angle_gamma 90.000000
_cell_volume 1433.425127
_symmetry_space_group_name_H-M "P 2/C"
_symmetry_group_IT_number 13
_symmetry_cell_setting 'monoclinic'
loop_
_space_group_symop_operation_xyz
x,y,z
-x,y,1/2-z
-x,-y,-z
x,-y,1/2+z
loop_
_atom_site_type_symbol
_atom_site_label
_atom_site_fract_x
_atom_site_fract_y
_atom_site_fract_z
Si Si1 0.129208 0.157200 0.636343
Si Si2 0.129733 0.224487 0.133729
Si Si3 0.735468 0.957785 0.595025
Si Si4 0.500000 0.042471 0.250000
Si Si5 0.451649 0.568715 0.034875
Si Si6 0.069453 0.343558 0.945997
Si Si7 0.202094 0.460154 0.691295
O O1 0.164330 0.206234 0.393813
O O2 0.176081 0.093237 0.513013
O O3 0.000000 0.154973 0.750000
O O4 0.166749 0.176600 0.892604
O O5 0.000000 0.222157 0.250000
O O6 0.147284 0.290974 0.998993
O O7 0.616773 0.927129 0.665955
O O8 0.744225 0.992845 0.859139
O O9 0.500000 0.000000 0.500000
O O10 0.500000 0.599030 0.250000
O O11 0.325265 0.561189 0.122000
O O12 0.500000 0.599424 0.750000
O O13 0.500000 0.500000 0.000000
O O14 0.128395 0.402777 0.800018
O O15 0.000000 0.320200 0.750000
O O16 0.000000 0.359619 0.250000
O O17 0.184352 0.489748 0.426047
#
# Coordination Sequence:
#
# PCOD9226256 Si02
#       7
#     4   4   4   2   4   4   4
#     4  10  19  31  52  77  99 134 171 210 254 301
#     4   9  18  35  53  69  94 130 182 210 235 292
#     4  10  19  31  48  76 110 136 168 208 255 303
#     4   8  16  30  46  66  98 140 178 200 230 296
#     4  10  16  31  51  72  97 128 166 204 235 300
#     4  11  23  38  53  74 106 138 170 217 254 295
#     4  12  22  33  53  80 104 133 169 200 266 325
#
# _framework density 18.138372
#
# number of rings (size 3 to 8) (size 9 to 14) (size 15 to 20)
#    0.000    1.846    3.077    4.154    0.000    2.462 
#    0.000    0.000    0.000    0.000    6.000    0.000 
#    0.000    0.000    0.000    0.000    0.000    0.000 
#
# Total GULP energy -144834.174014 kJ/mol
# GULP energy per Si atom -5570.545154 kJ/mol
# Density = 1.809709 g / cm^3
# Si number density = 18.138372 Si / 1000 Ang^3
#
#
#
# Elastic Constant Matrix: (Units=GPa)
#
#
# Indices 1 2 3 4 5 6 
#
# 1 30.8699 10.6467 19.5520 0.0000 0.3637 0.0000
# 2 10.6467 47.2801 17.5286 0.0000 -13.4149 0.0000
# 3 19.5520 17.5286 120.6659 0.0000 11.6059 0.0000
# 4 0.0000 0.0000 0.0000 -13.4953 0.0000 -0.6371
# 5 0.3637 -13.4149 11.6059 0.0000 25.8109 0.0000
# 6 0.0000 0.0000 0.0000 -0.6371 0.0000 -6.5704
#
#
#
# Elastic Compliance Matrix: (Units=1/GPa)
#
#
# Indices 1 2 3 4 5 6 
#
# 1 0.038058 -0.007375 -0.004886 0.000000 -0.002172 0.000000
# 2 -0.007375 0.029598 -0.004802 0.000000 0.017647 0.000000
# 3 -0.004886 -0.004802 0.010463 0.000000 -0.007131 0.000000
# 4 0.000000 0.000000 0.000000 -0.074441 0.000000 0.007219
# 5 -0.002172 0.017647 -0.007131 0.000000 0.051152 0.000000
# 6 0.000000 0.000000 0.000000 0.007219 0.000000 -0.152898
#
#
# Mechanical properties :
#
#
# Convention : Reuss Voigt Hill
#
# Bulk Modulus (GPa) = 22.73103 32.69670 27.71387
# Shear Modulus (GPa) = -101.46738 11.22161 -45.12288
#
# Velocity S-wave (km/s) = -7.48747 2.49000 -4.99310
# Velocity P-wave (km/s) = 7.88609 5.13149 4.23427
#
# Compressibility (1/GPa) = 0.04399273
#
# Stress axis : x y z
#
# Youngs Moduli (GPa) = 26.27563 33.78556 95.57848
#
# Poissons Ratio (x) = 0.24916 0.46704
# Poissons Ratio (y) = 0.19378 0.45896
# Poissons Ratio (z) = 0.12840 0.16224
#
# Static dielectric constant tensor:
#      x y z
#    x 1.640550 0.000000 0.005650 
#    y 0.000000 1.616980 0.000000 
#    z 0.005650 0.000000 1.637550 
# 
# From -- ./inp_files/5195.got.cif
#   From: 2010.05.17/outbox.cif.g08.bks.cpg/sg13_3_cif.got.tgz:5195.got - 2010.06.03 16:44:36.
