data_PCOD9226306
_publ_section_title
;
Structure prediction by ZEFSAII (Michael W. Deem and Ramdas Pophale) SiO2 
 PCOD9226306
Probable space group: P 2/C
;
_chemical_formula_sum "Si O2"
_cell_formula_units_Z 20
_cell_length_a 7.174811
_cell_length_b 8.759360
_cell_length_c 14.779566
_cell_angle_alpha 90.000000
_cell_angle_beta 129.671373
_cell_angle_gamma 90.000000
_cell_volume 714.951381
_symmetry_space_group_name_H-M "P 2/C"
_symmetry_group_IT_number 13
_symmetry_cell_setting 'monoclinic'
loop_
_space_group_symop_operation_xyz
x,y,z
-x,y,1/2-z
-x,-y,-z
x,-y,1/2+z
loop_
_atom_site_type_symbol
_atom_site_label
_atom_site_fract_x
_atom_site_fract_y
_atom_site_fract_z
Si Si1 0.573317 0.447271 0.667167
Si Si2 0.879901 0.167883 0.952062
Si Si3 0.772197 0.665966 0.044504
Si Si4 0.508200 0.963548 0.606192
Si Si5 0.229642 0.748879 0.712159
O O1 0.500000 0.414010 0.750000
O O2 0.691093 0.345739 0.623284
O O3 0.758027 0.590809 0.731831
O O4 0.331187 0.519503 0.542397
O O5 0.998971 0.249392 0.076093
O O6 0.954891 0.275680 0.891416
O O7 0.606216 0.108721 0.877993
O O8 0.000000 0.000000 0.000000
O O9 0.643872 0.806218 0.952775
O O10 0.757024 0.904644 0.726075
O O11 0.500000 0.000000 0.500000
O O12 0.500000 0.757937 0.750000
#
# Coordination Sequence:
#
# PCOD9226306 Si02
#       5
#     4   4   4   4   4
#     4   9  15  29  56  91 130 175 224 275 328 410
#     4  10  17  32  59  92 129 171 223 283 332 420
#     4   9  17  30  56  91 122 174 225 271 335 394
#     4  10  21  34  54  92 133 168 221 281 343 405
#     4  10  16  33  58  93 127 175 217 269 346 396
#
# _framework density 27.973931
#
# number of rings (size 3 to 8) (size 9 to 14) (size 15 to 20)
#    0.000    2.400    8.000    0.000    0.000    0.800 
#    0.000    1.000    0.000   10.800    0.000    5.600 
#    0.000   17.200    0.000    0.000    0.000    0.000 
#
# Total GULP energy -111444.920023 kJ/mol
# GULP energy per Si atom -5572.246001 kJ/mol
# Density = 2.791026 g / cm^3
# Si number density = 27.973931 Si / 1000 Ang^3
#
#
#
# Elastic Constant Matrix: (Units=GPa)
#
#
# Indices 1 2 3 4 5 6 
#
# 1 197.4028 104.8642 87.6053 0.0000 -35.2121 0.0000
# 2 104.8642 109.4966 73.9765 0.0000 -0.6284 0.0000
# 3 87.6053 73.9765 117.2200 0.0000 -38.7282 0.0000
# 4 0.0000 0.0000 0.0000 38.2728 0.0000 -16.2822
# 5 -35.2121 -0.6284 -38.7282 0.0000 46.1767 0.0000
# 6 0.0000 0.0000 0.0000 -16.2822 0.0000 57.6834
#
#
#
# Elastic Compliance Matrix: (Units=1/GPa)
#
#
# Indices 1 2 3 4 5 6 
#
# 1 0.014925 -0.017603 0.005030 0.000000 0.015360 0.000000
# 2 -0.017603 0.042586 -0.024848 0.000000 -0.033684 0.000000
# 3 0.005030 -0.024848 0.029892 0.000000 0.028568 0.000000
# 4 0.000000 0.000000 0.000000 0.029694 0.000000 0.008382
# 5 0.015360 -0.033684 0.028568 0.000000 0.056870 0.000000
# 6 0.000000 0.000000 0.000000 0.008382 0.000000 0.019702
#
#
# Mechanical properties :
#
#
# Convention : Reuss Voigt Hill
#
# Bulk Modulus (GPa) = 79.62589 106.33462 92.98026
# Shear Modulus (GPa) = 18.33536 38.93813 28.63674
#
# Velocity S-wave (km/s) = 2.56294 3.73492 3.20299
# Velocity P-wave (km/s) = 6.10609 7.52955 6.85487
#
# Compressibility (1/GPa) = 0.01255873
#
# Stress axis : x y z
#
# Youngs Moduli (GPa) = 67.00327 23.48205 33.45422
#
# Poissons Ratio (x) = 0.41337 -0.16828
# Poissons Ratio (y) = 1.17949 0.83128
# Poissons Ratio (z) = -0.33703 0.58349
#
# Static dielectric constant tensor:
#      x y z
#    x 2.526190 0.000000 0.320580 
#    y 0.000000 2.192140 0.000000 
#    z 0.320580 0.000000 2.508050 
# 
# From -- ./inp_files/64368.got.cif
#   From: 2010.05.17/outbox.cif.g08.bks.cpg/sg13_33_cif.got.tgz:64368.got - 2010.06.03 16:44:36.
