data_PCOD9226671
_publ_section_title
;
Structure prediction by ZEFSAII (Michael W. Deem and Ramdas Pophale) SiO2 
 PCOD9226671
Probable space group: P 2/C
;
_chemical_formula_sum "Si O2"
_cell_formula_units_Z 26
_cell_length_a 22.826889
_cell_length_b 9.298229
_cell_length_c 13.963661
_cell_angle_alpha 90.000000
_cell_angle_beta 160.470192
_cell_angle_gamma 90.000000
_cell_volume 990.784099
_symmetry_space_group_name_H-M "P 2/C"
_symmetry_group_IT_number 13
_symmetry_cell_setting 'monoclinic'
loop_
_space_group_symop_operation_xyz
x,y,z
-x,y,1/2-z
-x,-y,-z
x,-y,1/2+z
loop_
_atom_site_type_symbol
_atom_site_label
_atom_site_fract_x
_atom_site_fract_y
_atom_site_fract_z
Si Si1 0.000000 0.735886 0.750000
Si Si2 0.348399 0.742493 0.748822
Si Si3 0.781289 0.385292 0.624137
Si Si4 0.691969 0.863979 0.541273
Si Si5 0.834022 0.013073 0.435002
Si Si6 0.305940 0.339448 0.618332
Si Si7 0.821838 0.588603 0.844019
O O1 0.888637 0.636191 0.644343
O O2 0.859968 0.844503 0.487670
O O3 0.305143 0.744463 0.569215
O O4 0.322694 0.899609 0.756969
O O5 0.215909 0.633950 0.604164
O O6 0.538606 0.682112 0.068295
O O7 0.670936 0.518867 0.409008
O O8 0.777849 0.431813 0.730878
O O9 0.986123 0.377969 0.905949
O O10 0.500000 0.930865 0.250000
O O11 0.827725 0.953454 0.812815
O O12 0.722505 0.811800 0.481592
O O13 0.693647 0.709899 0.599098
O O14 0.000000 0.074237 0.750000
#
# Coordination Sequence:
#
# PCOD9226671 Si02
#       7
#     2   4   4   4   4   4   4
#     4  10  26  42  52  92 128 158 206 262 322 358
#     4  11  19  37  66  90 119 165 213 247 308 372
#     4  10  21  34  59  95 124 160 193 256 311 370
#     4  10  17  37  65  91 110 155 210 259 296 361
#     4   9  20  39  63  89 115 158 212 258 298 372
#     4  11  23  38  60  91 128 161 198 259 315 372
#     4   9  19  34  57  93 123 152 207 243 299 377
#
# _framework density 26.241841999999998
#
# number of rings (size 3 to 8) (size 9 to 14) (size 15 to 20)
#    0.462    1.538    3.077    2.769    2.154    1.231 
#    0.000    0.000    0.000    0.000    0.000    0.000 
#    0.000    0.000    0.000    0.000    0.000    0.000 
#
# Total GULP energy -144905.140265 kJ/mol
# GULP energy per Si atom -5573.274626 kJ/mol
# Density = 2.618211 g / cm^3
# Si number density = 26.241842 Si / 1000 Ang^3
#
#
#
# Elastic Constant Matrix: (Units=GPa)
#
#
# Indices 1 2 3 4 5 6 
#
# 1 52.4470 9.9431 21.8287 0.0000 -3.0949 0.0000
# 2 9.9431 72.8893 9.3682 0.0000 -7.8242 0.0000
# 3 21.8287 9.3682 112.4359 0.0000 -13.3525 0.0000
# 4 0.0000 0.0000 0.0000 9.7360 0.0000 4.8497
# 5 -3.0949 -7.8242 -13.3525 0.0000 36.1987 0.0000
# 6 0.0000 0.0000 0.0000 4.8497 0.0000 17.0756
#
#
#
# Elastic Compliance Matrix: (Units=1/GPa)
#
#
# Indices 1 2 3 4 5 6 
#
# 1 0.021145 -0.002397 -0.003924 0.000000 -0.000158 0.000000
# 2 -0.002397 0.014395 -0.000407 0.000000 0.002756 0.000000
# 3 -0.003924 -0.000407 0.010081 0.000000 0.003295 0.000000
# 4 0.000000 0.000000 0.000000 0.119637 0.000000 -0.033979
# 5 -0.000158 0.002756 0.003295 0.000000 0.029423 0.000000
# 6 0.000000 0.000000 0.000000 -0.033979 0.000000 0.068214
#
#
# Mechanical properties :
#
#
# Convention : Reuss Voigt Hill
#
# Bulk Modulus (GPa) = 31.08970 35.56134 33.32552
# Shear Modulus (GPa) = 17.41723 25.71086 21.56405
#
# Velocity S-wave (km/s) = 2.57907 3.13352 2.86972
# Velocity P-wave (km/s) = 4.55433 5.16456 4.86902
#
# Compressibility (1/GPa) = 0.03216499
#
# Stress axis : x y z
#
# Youngs Moduli (GPa) = 47.29184 69.47060 99.19630
#
# Poissons Ratio (x) = 0.16653 0.38927
# Poissons Ratio (y) = 0.11336 0.04034
# Poissons Ratio (z) = 0.18558 0.02825
#
# Static dielectric constant tensor:
#      x y z
#    x 2.363840 0.000000 -0.087840 
#    y 0.000000 2.066400 0.000000 
#    z -0.087840 0.000000 2.073100 
# 
# From -- ./inp_files/58930.got.cif
#   From: 2010.05.17/outbox.cif.g08.bks.cpg/sg13_30_cif.got.tgz:58930.got - 2010.06.03 16:44:36.
