data_PCOD9226848
_publ_section_title
;
Structure prediction by ZEFSAII (Michael W. Deem and Ramdas Pophale) SiO2 
 PCOD9226848
Probable space group: P 2/C
;
_chemical_formula_sum "Si O2"
_cell_formula_units_Z 30
_cell_length_a 16.494202
_cell_length_b 7.239157
_cell_length_c 20.854084
_cell_angle_alpha 90.000000
_cell_angle_beta 152.770224
_cell_angle_gamma 90.000000
_cell_volume 1139.353670
_symmetry_space_group_name_H-M "P 2/C"
_symmetry_group_IT_number 13
_symmetry_cell_setting 'monoclinic'
loop_
_space_group_symop_operation_xyz
x,y,z
-x,y,1/2-z
-x,-y,-z
x,-y,1/2+z
loop_
_atom_site_type_symbol
_atom_site_label
_atom_site_fract_x
_atom_site_fract_y
_atom_site_fract_z
Si Si1 0.967521 0.215438 0.361401
Si Si2 0.310116 0.672457 0.142270
Si Si3 0.304667 0.491972 0.275373
Si Si4 0.560295 0.147469 0.419112
Si Si5 0.807320 0.722020 0.981774
Si Si6 0.000000 0.402752 0.250000
Si Si7 0.203664 0.949682 0.654306
Si Si8 0.802409 0.289792 0.683451
O O1 0.164297 0.173160 0.525765
O O2 0.994277 0.268944 0.307258
O O3 0.884530 0.393012 0.341372
O O4 0.823185 0.074406 0.286181
O O5 0.500000 0.719860 0.250000
O O6 0.295968 0.614090 0.205870
O O7 0.244336 0.493700 0.056190
O O8 0.449908 0.331704 0.364971
O O9 0.322540 0.623354 0.349586
O O10 0.664780 0.183116 0.427339
O O11 0.410538 0.993955 0.300989
O O12 0.707659 0.126933 0.577779
O O13 0.003857 0.748753 0.149364
O O14 0.787594 0.789648 0.894929
O O15 0.156467 0.547852 0.340886
O O16 0.000000 0.000000 0.500000
#
# Coordination Sequence:
#
# PCOD9226848 Si02
#       8
#     4   4   4   4   4   2   4   4
#     4  10  20  35  55  84 124 159 194 245 311 371
#     4  12  18  31  53  91 125 154 200 246 310 387
#     4  10  19  28  53  86 132 163 187 233 301 378
#     4  11  20  36  58  94 116 158 209 248 307 372
#     4  12  19  37  63  91 122 162 203 258 311 379
#     4  10  18  30  58  90 134 160 176 236 326 400
#     4  11  25  43  63  81 112 166 230 269 300 341
#     4  11  20  33  56  96 137 159 187 236 320 401
#
# _framework density 26.330719999999999
#
# number of rings (size 3 to 8) (size 9 to 14) (size 15 to 20)
#    0.000    1.067    8.000    2.000    0.000    0.000 
#    0.000    2.000    2.933    0.000    0.000    0.000 
#    0.000    0.000    0.000    0.000    0.000    0.000 
#
# Total GULP energy -167378.799338 kJ/mol
# GULP energy per Si atom -5579.293311 kJ/mol
# Density = 2.627079 g / cm^3
# Si number density = 26.330720 Si / 1000 Ang^3
#
#
#
# Elastic Constant Matrix: (Units=GPa)
#
#
# Indices 1 2 3 4 5 6 
#
# 1 235.9077 29.6149 66.2237 0.0000 10.7684 0.0000
# 2 29.6149 46.6833 24.2179 0.0000 15.5073 0.0000
# 3 66.2237 24.2179 145.6815 0.0000 13.6899 0.0000
# 4 0.0000 0.0000 0.0000 26.5370 0.0000 17.4435
# 5 10.7684 15.5073 13.6899 0.0000 43.9708 0.0000
# 6 0.0000 0.0000 0.0000 17.4435 0.0000 22.8004
#
#
#
# Elastic Compliance Matrix: (Units=1/GPa)
#
#
# Indices 1 2 3 4 5 6 
#
# 1 0.005059 -0.002257 -0.001940 0.000000 0.000161 0.000000
# 2 -0.002257 0.026943 -0.002691 0.000000 -0.008112 0.000000
# 3 -0.001940 -0.002691 0.008303 0.000000 -0.001161 0.000000
# 4 0.000000 0.000000 0.000000 0.075804 0.000000 -0.057994
# 5 0.000161 -0.008112 -0.001161 0.000000 0.025925 0.000000
# 6 0.000000 0.000000 0.000000 -0.057994 0.000000 0.088228
#
#
# Mechanical properties :
#
#
# Convention : Reuss Voigt Hill
#
# Bulk Modulus (GPa) = 37.69304 74.26506 55.97905
# Shear Modulus (GPa) = 19.77219 39.20939 29.49079
#
# Velocity S-wave (km/s) = 2.74326 3.86309 3.35029
# Velocity P-wave (km/s) = 4.93764 6.94002 6.02263
#
# Compressibility (1/GPa) = 0.02653010
#
# Stress axis : x y z
#
# Youngs Moduli (GPa) = 197.64949 37.11547 120.44522
#
# Poissons Ratio (x) = 0.08376 0.23365
# Poissons Ratio (y) = 0.44603 0.32410
# Poissons Ratio (z) = 0.38342 0.09987
#
# Static dielectric constant tensor:
#      x y z
#    x 1.869010 0.000000 0.059710 
#    y 0.000000 2.516540 0.000000 
#    z 0.059710 0.000000 1.965380 
# 
# From -- ./inp_files/80121.got.cif
#   From: 2010.05.17/outbox.cif.g08.bks.cpg/sg13_41_cif.got.tgz:80121.got - 2010.06.03 16:44:36.
