data_PCOD9226929
_publ_section_title
;
Structure prediction by ZEFSAII (Michael W. Deem and Ramdas Pophale) SiO2 
 PCOD9226929
Probable space group: P 2/C
;
_chemical_formula_sum "Si O2"
_cell_formula_units_Z 20
_cell_length_a 25.768837
_cell_length_b 5.594718
_cell_length_c 16.771124
_cell_angle_alpha 90.000000
_cell_angle_beta 20.430616
_cell_angle_gamma 90.000000
_cell_volume 844.017092
_symmetry_space_group_name_H-M "P 2/C"
_symmetry_group_IT_number 13
_symmetry_cell_setting 'monoclinic'
loop_
_space_group_symop_operation_xyz
x,y,z
-x,y,1/2-z
-x,-y,-z
x,-y,1/2+z
loop_
_atom_site_type_symbol
_atom_site_label
_atom_site_fract_x
_atom_site_fract_y
_atom_site_fract_z
Si Si1 0.407886 0.535588 0.215390
Si Si2 0.331884 0.967960 0.777075
Si Si3 0.148920 0.939571 0.389782
Si Si4 0.111781 0.689495 0.799975
Si Si5 0.369491 0.596203 0.982863
O O1 0.309206 0.773298 0.350452
O O2 0.533761 0.577522 0.100930
O O3 0.330649 0.273107 0.331168
O O4 0.500000 0.500000 0.000000
O O5 0.211920 0.946380 0.879148
O O6 0.500000 0.000000 0.500000
O O7 0.985578 0.818818 0.627754
O O8 0.143297 0.121002 0.324232
O O9 0.269165 0.745151 0.187500
O O10 0.263648 0.541695 0.573432
O O11 0.000000 0.500000 0.000000
O O12 0.500000 0.741166 0.750000
#
# Coordination Sequence:
#
# PCOD9226929 Si02
#       5
#     4   4   4   4   4
#     4  10  19  34  55  86 114 148 197 244 290 347
#     4  10  18  31  58  82 113 144 202 245 285 337
#     4  10  19  35  57  86 113 155 201 249 288 355
#     4   9  20  35  55  84 115 153 200 241 294 353
#     4  11  22  35  56  89 122 151 188 249 311 356
#
# _framework density 23.696202
#
# number of rings (size 3 to 8) (size 9 to 14) (size 15 to 20)
#    0.000    2.000    4.000    2.400    2.800    0.800 
#    0.000    0.000    0.000    1.200    0.000    0.000 
#    0.000    0.000    0.000    0.000    0.000    0.000 
#
# Total GULP energy -111575.436104 kJ/mol
# GULP energy per Si atom -5578.771805 kJ/mol
# Density = 2.364227 g / cm^3
# Si number density = 23.696202 Si / 1000 Ang^3
#
#
#
# Elastic Constant Matrix: (Units=GPa)
#
#
# Indices 1 2 3 4 5 6 
#
# 1 123.2163 25.3665 38.7648 0.0000 -44.7899 0.0000
# 2 25.3665 126.2839 29.6806 0.0000 -17.2368 0.0000
# 3 38.7648 29.6806 112.4053 0.0000 -25.9290 0.0000
# 4 0.0000 0.0000 0.0000 16.0068 0.0000 -8.4728
# 5 -44.7899 -17.2368 -25.9290 0.0000 36.7010 0.0000
# 6 0.0000 0.0000 0.0000 -8.4728 0.0000 39.2319
#
#
#
# Elastic Compliance Matrix: (Units=1/GPa)
#
#
# Indices 1 2 3 4 5 6 
#
# 1 0.014719 -0.000385 -0.001042 0.000000 0.017046 0.000000
# 2 -0.000385 0.008711 -0.001591 0.000000 0.002497 0.000000
# 3 -0.001042 -0.001591 0.011003 0.000000 0.005754 0.000000
# 4 0.000000 0.000000 0.000000 0.070537 0.000000 0.015234
# 5 0.017046 0.002497 0.005754 0.000000 0.053289 0.000000
# 6 0.000000 0.000000 0.000000 0.015234 0.000000 0.028779
#
#
# Mechanical properties :
#
#
# Convention : Reuss Voigt Hill
#
# Bulk Modulus (GPa) = 35.21595 61.05882 48.13739
# Shear Modulus (GPa) = 24.68625 36.26083 30.47354
#
# Velocity S-wave (km/s) = 3.23116 3.91607 3.58999
# Velocity P-wave (km/s) = 5.36789 6.80226 6.12719
#
# Compressibility (1/GPa) = 0.02839622
#
# Stress axis : x y z
#
# Youngs Moduli (GPa) = 67.93718 114.79962 90.88064
#
# Poissons Ratio (x) = 0.04420 0.09474
# Poissons Ratio (y) = 0.02615 0.14462
# Poissons Ratio (z) = 0.07082 0.18269
#
# Static dielectric constant tensor:
#      x y z
#    x 1.806740 0.000000 0.104990 
#    y 0.000000 1.811480 0.000000 
#    z 0.104990 0.000000 1.923620 
# 
# From -- ./inp_files/56372.got.cif
#   From: 2010.05.17/outbox.cif.g08.bks.cpg/sg13_29_cif.got.tgz:56372.got - 2010.06.03 16:44:36.
