data_PCOD9226147
_publ_section_title
;
Structure prediction by ZEFSAII (Michael W. Deem and Ramdas Pophale) SiO2 
 PCOD9226147
Probable space group: P 2/C
;
_chemical_formula_sum "Si O2"
_cell_formula_units_Z 28
_cell_length_a 20.911565
_cell_length_b 15.707417
_cell_length_c 23.814383
_cell_angle_alpha 90.000000
_cell_angle_beta 169.368274
_cell_angle_gamma 90.000000
_cell_volume 1443.167196
_symmetry_space_group_name_H-M "P 2/C"
_symmetry_group_IT_number 13
_symmetry_cell_setting 'monoclinic'
loop_
_space_group_symop_operation_xyz
x,y,z
-x,y,1/2-z
-x,-y,-z
x,-y,1/2+z
loop_
_atom_site_type_symbol
_atom_site_label
_atom_site_fract_x
_atom_site_fract_y
_atom_site_fract_z
Si Si1 0.441824 0.227793 0.556264
Si Si2 0.649182 0.505170 0.565614
Si Si3 0.910370 0.779536 0.349568
Si Si4 0.097090 0.977853 0.148117
Si Si5 0.215455 0.124710 0.551726
Si Si6 0.837031 0.615161 0.430477
Si Si7 0.447898 0.322542 0.374900
O O1 0.655157 0.234465 0.682676
O O2 0.607225 0.157084 0.738370
O O3 0.535243 0.312958 0.672725
O O4 0.062859 0.194847 0.211078
O O5 0.500000 0.500000 0.500000
O O6 0.350615 0.545960 0.270131
O O7 0.673833 0.408527 0.564778
O O8 0.985683 0.566618 0.863605
O O9 0.993278 0.878982 0.420741
O O10 0.227160 0.714565 0.633032
O O11 0.692111 0.751823 0.107736
O O12 0.500000 0.000000 0.500000
O O13 0.000000 0.000000 0.000000
O O14 0.944161 0.036262 0.065564
O O15 0.500000 0.113479 0.750000
O O16 0.158686 0.656350 0.673588
#
# Coordination Sequence:
#
# PCOD9226147 Si02
#       7
#     4   4   4   4   4   4   4
#     4  11  20  35  53  76 106 140 192 221 273 329
#     4  10  16  27  40  67 104 142 174 207 263 316
#     4  11  19  31  51  74 103 139 185 226 268 330
#     4  12  22  38  57  80 106 142 192 234 281 340
#     4  12  24  39  56  79 110 145 183 238 288 335
#     4  10  18  27  46  67 101 143 180 209 252 324
#     4  10  18  27  44  72 106 140 173 221 267 316
#
# _framework density 19.401771
#
# number of rings (size 3 to 8) (size 9 to 14) (size 15 to 20)
#    0.000    1.143    2.857    9.857    0.000    0.000 
#    0.000    0.000    0.000    0.000    0.000    0.000 
#    0.000   17.143    0.000    0.286    0.000    0.000 
#
# Total GULP energy -156029.215809 kJ/mol
# GULP energy per Si atom -5572.471993 kJ/mol
# Density = 1.935761 g / cm^3
# Si number density = 19.401771 Si / 1000 Ang^3
#
#
#
# Elastic Constant Matrix: (Units=GPa)
#
#
# Indices 1 2 3 4 5 6 
#
# 1 70.5637 -75.6761 -42.3827 0.0000 4.9339 0.0000
# 2 -75.6761 211.8431 127.7034 0.0000 -10.2765 0.0000
# 3 -42.3827 127.7034 197.7258 0.0000 -37.6832 0.0000
# 4 0.0000 0.0000 0.0000 35.8578 0.0000 -11.7694
# 5 4.9339 -10.2765 -37.6832 0.0000 27.9461 0.0000
# 6 0.0000 0.0000 0.0000 -11.7694 0.0000 12.1114
#
#
#
# Elastic Compliance Matrix: (Units=1/GPa)
#
#
# Indices 1 2 3 4 5 6 
#
# 1 0.023141 0.008916 -0.001281 0.000000 -0.002535 0.000000
# 2 0.008916 0.011780 -0.006960 0.000000 -0.006627 0.000000
# 3 -0.001281 -0.006960 0.011888 0.000000 0.013698 0.000000
# 4 0.000000 0.000000 0.000000 0.040949 0.000000 0.039793
# 5 -0.002535 -0.006627 0.013698 0.000000 0.052264 0.000000
# 6 0.000000 0.000000 0.000000 0.039793 0.000000 0.121236
#
#
# Mechanical properties :
#
#
# Convention : Reuss Voigt Hill
#
# Bulk Modulus (GPa) = 20.76434 55.49131 38.12783
# Shear Modulus (GPa) = 18.11852 46.54893 32.33372
#
# Velocity S-wave (km/s) = 3.05923 4.90349 4.08675
# Velocity P-wave (km/s) = 4.81705 7.79244 6.47789
#
# Compressibility (1/GPa) = 0.04815948
#
# Stress axis : x y z
#
# Youngs Moduli (GPa) = 43.21267 84.89236 84.11491
#
# Poissons Ratio (x) = -0.75691 0.10777
# Poissons Ratio (y) = -0.38529 0.58543
# Poissons Ratio (z) = 0.05537 0.59084
#
# Static dielectric constant tensor:
#      x y z
#    x 1.598320 0.000000 -0.019770 
#    y 0.000000 1.778400 0.000000 
#    z -0.019770 0.000000 1.699730 
# 
# From -- ./inp_files/93886.got.cif
#   From: 2010.05.17/outbox.cif.g08.bks.cpg/sg13_47_cif.got.tgz:93886.got - 2010.06.03 16:44:36.
