data_PCOD9226707
_publ_section_title
;
Structure prediction by ZEFSAII (Michael W. Deem and Ramdas Pophale) SiO2 
 PCOD9226707
Probable space group: P 2/C
;
_chemical_formula_sum "Si O2"
_cell_formula_units_Z 24
_cell_length_a 18.349865
_cell_length_b 15.885898
_cell_length_c 5.454973
_cell_angle_alpha 90.000000
_cell_angle_beta 72.198347
_cell_angle_gamma 90.000000
_cell_volume 1514.011583
_symmetry_space_group_name_H-M "P 2/C"
_symmetry_group_IT_number 13
_symmetry_cell_setting 'monoclinic'
loop_
_space_group_symop_operation_xyz
x,y,z
-x,y,1/2-z
-x,-y,-z
x,-y,1/2+z
loop_
_atom_site_type_symbol
_atom_site_label
_atom_site_fract_x
_atom_site_fract_y
_atom_site_fract_z
Si Si1 0.167353 0.623832 0.118886
Si Si2 0.078291 0.767357 0.017954
Si Si3 0.912325 0.034816 0.078356
Si Si4 0.653528 0.597766 0.627612
Si Si5 0.085008 0.389668 0.210485
Si Si6 0.409318 0.594037 0.307860
O O1 0.146451 0.722611 0.100247
O O2 0.136216 0.599680 0.417617
O O3 0.255941 0.603442 0.999829
O O4 0.121732 0.582881 0.933702
O O5 0.000000 0.752205 0.250000
O O6 0.086267 0.865209 0.957385
O O7 0.077048 0.710798 0.774458
O O8 0.876956 0.007467 0.373180
O O9 0.000000 0.000000 0.000000
O O10 0.612564 0.634557 0.429073
O O11 0.625801 0.500415 0.670034
O O12 0.627753 0.635549 0.913941
O O13 0.000000 0.423555 0.250000
O O14 0.500000 0.587242 0.250000
#
# Coordination Sequence:
#
# PCOD9226707 Si02
#       6
#     4   4   4   4   4   4
#     4  10  20  27  44  64  89 115 149 193 232 258
#     4  10  19  29  44  58  86 114 163 198 229 262
#     4  10  20  25  39  58  80 108 148 199 235 258
#     4  10  18  31  46  74  95 113 146 176 219 271
#     4  10  18  29  42  58  79 117 157 199 223 256
#     4  10  19  33  55  73  94 116 140 170 207 277
#
# _framework density 15.851926000000001
#
# number of rings (size 3 to 8) (size 9 to 14) (size 15 to 20)
#    1.000    1.000    3.333    4.000    4.667    0.000 
#    0.000    0.000    0.000    0.000    0.000   79.333 
#    0.000    0.000    0.000    0.000    0.000   28.333 
#
# Total GULP energy -133620.844658 kJ/mol
# GULP energy per Si atom -5567.535194 kJ/mol
# Density = 1.581585 g / cm^3
# Si number density = 15.851926 Si / 1000 Ang^3
#
#
#
# Elastic Constant Matrix: (Units=GPa)
#
#
# Indices 1 2 3 4 5 6 
#
# 1 48.6600 6.4355 2.7574 0.0000 -2.6454 0.0000
# 2 6.4355 74.4817 9.2365 0.0000 -0.8329 0.0000
# 3 2.7574 9.2365 109.8670 0.0000 16.6476 0.0000
# 4 0.0000 0.0000 0.0000 75.3803 0.0000 26.0861
# 5 -2.6454 -0.8329 16.6476 0.0000 34.8384 0.0000
# 6 0.0000 0.0000 0.0000 26.0861 0.0000 10.2876
#
#
#
# Elastic Compliance Matrix: (Units=1/GPa)
#
#
# Indices 1 2 3 4 5 6 
#
# 1 0.020915 -0.001704 -0.000664 0.000000 0.001865 0.000000
# 2 -0.001704 0.013735 -0.001231 0.000000 0.000787 0.000000
# 3 -0.000664 -0.001231 0.009955 0.000000 -0.004837 0.000000
# 4 0.000000 0.000000 0.000000 0.108292 0.000000 -0.274595
# 5 0.001865 0.000787 -0.004837 0.000000 0.031176 0.000000
# 6 0.000000 0.000000 0.000000 -0.274595 0.000000 0.793490
#
#
# Mechanical properties :
#
#
# Convention : Reuss Voigt Hill
#
# Bulk Modulus (GPa) = 26.73353 29.98528 28.35941
# Shear Modulus (GPa) = 5.01389 38.40656 21.71022
#
# Velocity S-wave (km/s) = 1.78040 4.92757 3.70478
# Velocity P-wave (km/s) = 4.59647 7.16460 6.01910
#
# Compressibility (1/GPa) = 0.03740620
#
# Stress axis : x y z
#
# Youngs Moduli (GPa) = 47.81226 72.80756 100.45200
#
# Poissons Ratio (x) = 0.12406 0.06672
# Poissons Ratio (y) = 0.08147 0.12368
# Poissons Ratio (z) = 0.03176 0.08964
#
# Static dielectric constant tensor:
#      x y z
#    x 1.515190 0.000000 0.061840 
#    y 0.000000 1.467250 0.000000 
#    z 0.061840 0.000000 1.612230 
# 
# From -- ./inp_files/5116.got.cif
#   From: 2010.05.17/outbox.cif.g08.bks.cpg/sg13_3_cif.got.tgz:5116.got - 2010.06.03 16:44:36.
