data_PCOD9226670
_publ_section_title
;
Structure prediction by ZEFSAII (Michael W. Deem and Ramdas Pophale) SiO2 
 PCOD9226670
Probable space group: P 2/C
;
_chemical_formula_sum "Si O2"
_cell_formula_units_Z 28
_cell_length_a 20.233787
_cell_length_b 12.242843
_cell_length_c 12.063123
_cell_angle_alpha 90.000000
_cell_angle_beta 28.669200
_cell_angle_gamma 90.000000
_cell_volume 1433.626172
_symmetry_space_group_name_H-M "P 2/C"
_symmetry_group_IT_number 13
_symmetry_cell_setting 'monoclinic'
loop_
_space_group_symop_operation_xyz
x,y,z
-x,y,1/2-z
-x,-y,-z
x,-y,1/2+z
loop_
_atom_site_type_symbol
_atom_site_label
_atom_site_fract_x
_atom_site_fract_y
_atom_site_fract_z
Si Si1 0.395480 0.405624 0.678865
Si Si2 0.717202 0.186542 0.436261
Si Si3 0.893177 0.548559 0.008219
Si Si4 0.000000 0.842572 0.250000
Si Si5 0.026766 0.681843 0.001037
Si Si6 0.500000 0.656261 0.250000
Si Si7 0.433681 0.841129 0.108031
Si Si8 0.720891 0.957637 0.730833
O O1 0.500000 0.500000 0.500000
O O2 0.252420 0.436082 0.835256
O O3 0.406295 0.401108 0.796988
O O4 0.435906 0.285983 0.574256
O O5 0.858069 0.252555 0.238843
O O6 0.612785 0.267362 0.523926
O O7 0.636705 0.157995 0.665932
O O8 0.738078 0.081392 0.331507
O O9 0.911565 0.427181 0.031950
O O10 0.000000 0.563564 0.750000
O O11 0.918395 0.634120 0.071605
O O12 0.013309 0.763905 0.339257
O O13 0.862059 0.917026 0.465168
O O14 0.324983 0.916786 0.202949
O O15 0.585147 0.895348 0.881771
#
# Coordination Sequence:
#
# PCOD9226670 Si02
#       8
#     4   4   4   2   4   2   4   4
#     4  11  23  38  62  94 126 165 207 269 321 389
#     4  10  17  37  65  87 117 174 215 260 318 393
#     4  11  22  38  62  96 132 172 215 273 332 385
#     4  10  22  42  66  94 126 178 220 266 338 394
#     4  10  22  39  62  92 133 173 221 265 324 406
#     4  10  18  36  62  86 120 164 216 246 312 400
#     4  10  21  39  63  93 125 163 220 263 324 389
#     4  10  20  39  65  90 121 166 216 272 310 391
#
# _framework density 19.530892999999999
#
# number of rings (size 3 to 8) (size 9 to 14) (size 15 to 20)
#    0.000    1.714    3.571    2.571    2.000    1.143 
#    6.429    1.429    3.143    0.000    0.000    0.000 
#    0.000    0.000    0.000    0.000    0.000    0.000 
#
# Total GULP energy -155946.335747 kJ/mol
# GULP energy per Si atom -5569.511991 kJ/mol
# Density = 1.948644 g / cm^3
# Si number density = 19.530893 Si / 1000 Ang^3
#
#
#
# Elastic Constant Matrix: (Units=GPa)
#
#
# Indices 1 2 3 4 5 6 
#
# 1 111.0798 45.0781 30.6846 0.0000 -23.6035 0.0000
# 2 45.0781 118.6130 45.2790 0.0000 -15.0978 0.0000
# 3 30.6846 45.2790 100.0314 0.0000 -18.6669 0.0000
# 4 0.0000 0.0000 0.0000 21.8648 0.0000 -4.6259
# 5 -23.6035 -15.0978 -18.6669 0.0000 29.9419 0.0000
# 6 0.0000 0.0000 0.0000 -4.6259 0.0000 30.5377
#
#
#
# Elastic Compliance Matrix: (Units=1/GPa)
#
#
# Indices 1 2 3 4 5 6 
#
# 1 0.012166 -0.003367 -0.000831 0.000000 0.007374 0.000000
# 2 -0.003367 0.011301 -0.003977 0.000000 0.000564 0.000000
# 3 -0.000831 -0.003977 0.013077 0.000000 0.005492 0.000000
# 4 0.000000 0.000000 0.000000 0.047250 0.000000 0.007158
# 5 0.007374 0.000564 0.005492 0.000000 0.042919 0.000000
# 6 0.000000 0.000000 0.000000 0.007158 0.000000 0.033831
#
#
# Mechanical properties :
#
#
# Convention : Reuss Voigt Hill
#
# Bulk Modulus (GPa) = 49.52604 63.53417 56.53010
# Shear Modulus (GPa) = 27.22937 30.38104 28.80521
#
# Velocity S-wave (km/s) = 3.73791 3.94831 3.84455
# Velocity P-wave (km/s) = 6.63642 7.30659 6.97955
#
# Compressibility (1/GPa) = 0.02019140
#
# Stress axis : x y z
#
# Youngs Moduli (GPa) = 82.19824 88.49159 76.47069
#
# Poissons Ratio (x) = 0.29799 0.06358
# Poissons Ratio (y) = 0.27680 0.30412
# Poissons Ratio (z) = 0.06835 0.35192
#
# Static dielectric constant tensor:
#      x y z
#    x 1.707690 0.000000 -0.013160 
#    y 0.000000 1.779980 0.000000 
#    z -0.013160 0.000000 1.658440 
# 
# From -- ./inp_files/40780.got.cif
#   From: 2010.05.17/outbox.cif.g08.bks.cpg/sg13_21_cif.got.tgz:40780.got - 2010.06.03 16:44:36.
