data_PCOD9226812
_publ_section_title
;
Structure prediction by ZEFSAII (Michael W. Deem and Ramdas Pophale) SiO2 
 PCOD9226812
Probable space group: P 2/C
;
_chemical_formula_sum "Si O2"
_cell_formula_units_Z 26
_cell_length_a 5.489931
_cell_length_b 13.131220
_cell_length_c 22.463708
_cell_angle_alpha 90.000000
_cell_angle_beta 61.465783
_cell_angle_gamma 90.000000
_cell_volume 1422.692337
_symmetry_space_group_name_H-M "P 2/C"
_symmetry_group_IT_number 13
_symmetry_cell_setting 'monoclinic'
loop_
_space_group_symop_operation_xyz
x,y,z
-x,y,1/2-z
-x,-y,-z
x,-y,1/2+z
loop_
_atom_site_type_symbol
_atom_site_label
_atom_site_fract_x
_atom_site_fract_y
_atom_site_fract_z
Si Si1 0.950976 0.380555 0.361763
Si Si2 0.322297 0.584867 0.154263
Si Si3 0.500000 0.886412 0.250000
Si Si4 0.259045 0.435142 0.993946
Si Si5 0.000000 0.241207 0.750000
Si Si6 0.338317 0.085309 0.327702
Si Si7 0.500000 0.461807 0.250000
Si Si8 0.830113 0.169821 0.330243
O O1 0.270783 0.389425 0.306783
O O2 0.841371 0.492221 0.357326
O O3 0.872860 0.364086 0.439680
O O4 0.815751 0.290901 0.339539
O O5 0.585804 0.608837 0.081975
O O6 0.398829 0.536585 0.209249
O O7 0.135884 0.683412 0.185667
O O8 0.749037 0.823223 0.250612
O O9 0.366393 0.964541 0.313737
O O10 0.500000 0.500000 0.000000
O O11 0.000000 0.500000 0.000000
O O12 0.500000 0.128881 0.250000
O O13 0.527060 0.122052 0.359805
O O14 0.027024 0.125390 0.359079
O O15 0.000000 0.143549 0.250000
#
# Coordination Sequence:
#
# PCOD9226812 Si02
#       8
#     4   4   2   4   2   4   2   4
#     4  11  23  33  54  84 119 158 184 223 281 343
#     4  11  23  36  52  84 118 155 193 234 266 330
#     4  10  21  37  54  80 110 142 183 239 310 332
#     4  10  22  39  54  71 116 166 196 217 268 329
#     4  12  22  34  58  82 106 146 196 244 280 318
#     4   8  18  33  50  75 111 132 173 228 293 346
#     4  12  19  33  54  76 126 144 195 231 276 306
#     4  10  18  30  52  81 111 139 171 224 285 342
#
# _framework density 18.275207999999999
#
# number of rings (size 3 to 8) (size 9 to 14) (size 15 to 20)
#    0.462    1.231    3.077    2.308    5.385    0.000 
#    0.000    0.000    0.000    0.000    0.000    6.462 
#    0.000    0.000    0.000    0.000    0.000    0.000 
#
# Total GULP energy -144797.700819 kJ/mol
# GULP energy per Si atom -5569.142339 kJ/mol
# Density = 1.823361 g / cm^3
# Si number density = 18.275208 Si / 1000 Ang^3
#
#
#
# Elastic Constant Matrix: (Units=GPa)
#
#
# Indices 1 2 3 4 5 6 
#
# 1 131.7584 52.7581 21.1082 0.0000 -8.6225 0.0000
# 2 52.7581 94.9550 9.5986 0.0000 -9.6364 0.0000
# 3 21.1082 9.5986 90.3772 0.0000 -19.5258 0.0000
# 4 0.0000 0.0000 0.0000 -6.2401 0.0000 0.6206
# 5 -8.6225 -9.6364 -19.5258 0.0000 17.2608 0.0000
# 6 0.0000 0.0000 0.0000 0.6206 0.0000 36.2247
#
#
#
# Elastic Compliance Matrix: (Units=1/GPa)
#
#
# Indices 1 2 3 4 5 6 
#
# 1 0.010034 -0.005396 -0.001771 0.000000 -0.000004 0.000000
# 2 -0.005396 0.014069 0.001166 0.000000 0.006477 0.000000
# 3 -0.001771 0.001166 0.014960 0.000000 0.016689 0.000000
# 4 0.000000 0.000000 0.000000 -0.159981 0.000000 0.002741
# 5 -0.000004 0.006477 0.016689 0.000000 0.080428 0.000000
# 6 0.000000 0.000000 0.000000 0.002741 0.000000 0.027558
#
#
# Mechanical properties :
#
#
# Convention : Reuss Voigt Hill
#
# Bulk Modulus (GPa) = 36.95579 53.78004 45.36791
# Shear Modulus (GPa) = 617.80080 25.02413 321.41247
#
# Velocity S-wave (km/s) = 18.40619 3.70441 13.27612
# Velocity P-wave (km/s) = 21.72517 6.91293 16.12097
#
# Compressibility (1/GPa) = 0.02705936
#
# Stress axis : x y z
#
# Youngs Moduli (GPa) = 99.66197 71.07779 66.84340
#
# Poissons Ratio (x) = 0.38356 0.11839
# Poissons Ratio (y) = 0.53781 -0.07791
# Poissons Ratio (z) = 0.17652 -0.08284
#
# Static dielectric constant tensor:
#      x y z
#    x 1.708200 0.000000 0.006850 
#    y 0.000000 1.625470 0.000000 
#    z 0.006850 0.000000 1.652400 
# 
# From -- ./inp_files/83497.got.cif
#   From: 2010.05.17/outbox.cif.g08.bks.cpg/sg13_42_cif.got.tgz:83497.got - 2010.06.03 16:44:36.
