data_PCOD9226397
_publ_section_title
;
Structure prediction by ZEFSAII (Michael W. Deem and Ramdas Pophale) SiO2 
 PCOD9226397
Probable space group: P 2/C
;
_chemical_formula_sum "Si O2"
_cell_formula_units_Z 28
_cell_length_a 16.358253
_cell_length_b 11.437031
_cell_length_c 14.020059
_cell_angle_alpha 90.000000
_cell_angle_beta 38.331870
_cell_angle_gamma 90.000000
_cell_volume 1626.831773
_symmetry_space_group_name_H-M "P 2/C"
_symmetry_group_IT_number 13
_symmetry_cell_setting 'monoclinic'
loop_
_space_group_symop_operation_xyz
x,y,z
-x,y,1/2-z
-x,-y,-z
x,-y,1/2+z
loop_
_atom_site_type_symbol
_atom_site_label
_atom_site_fract_x
_atom_site_fract_y
_atom_site_fract_z
Si Si1 0.147109 0.266973 0.106074
Si Si2 0.385727 0.901132 0.434006
Si Si3 0.502059 0.281998 0.974959
Si Si4 0.249385 0.578950 0.343773
Si Si5 0.655909 0.395109 0.089417
Si Si6 0.610647 0.834825 0.568132
Si Si7 0.743034 0.557187 0.839199
O O1 0.172258 0.356375 0.171783
O O2 0.000000 0.220282 0.250000
O O3 0.259921 0.169904 0.011473
O O4 0.167732 0.335053 0.987126
O O5 0.500000 0.900485 0.250000
O O6 0.447549 0.827103 0.463891
O O7 0.345639 0.033996 0.495943
O O8 0.619759 0.350586 0.811976
O O9 0.552867 0.229936 0.027979
O O10 0.378060 0.370025 0.096308
O O11 0.285028 0.470699 0.379752
O O12 0.188224 0.519705 0.305482
O O13 0.500000 0.389364 0.250000
O O14 0.706187 0.262737 0.027543
O O15 0.679871 0.467518 0.971802
O O16 0.500000 0.852371 0.750000
#
# Coordination Sequence:
#
# PCOD9226397 Si02
#       7
#     4   4   4   4   4   4   4
#     4  10  23  38  56  78 106 144 183 221 266 317
#     4  10  20  36  55  80 106 142 184 226 259 311
#     4  11  18  31  53  85 111 142 172 220 270 317
#     4  11  19  31  55  79 111 142 174 215 273 324
#     4  10  17  27  46  81 117 139 165 213 273 323
#     4  10  20  30  48  81 117 139 173 222 270 310
#     4  10  19  30  53  82 111 139 172 212 272 323
#
# _framework density 17.211368
#
# number of rings (size 3 to 8) (size 9 to 14) (size 15 to 20)
#    0.000    1.714    4.286    2.571    0.000    0.571 
#    0.000    0.000    0.000    4.286    0.000    0.000 
#    0.000    0.000    0.000    0.000    0.000    0.000 
#
# Total GULP energy -155971.649037 kJ/mol
# GULP energy per Si atom -5570.416037 kJ/mol
# Density = 1.717219 g / cm^3
# Si number density = 17.211368 Si / 1000 Ang^3
#
#
#
# Elastic Constant Matrix: (Units=GPa)
#
#
# Indices 1 2 3 4 5 6 
#
# 1 60.0328 37.2728 42.1126 0.0000 21.7718 0.0000
# 2 37.2728 126.3685 24.8895 0.0000 8.7867 0.0000
# 3 42.1126 24.8895 60.2202 0.0000 4.8801 0.0000
# 4 0.0000 0.0000 0.0000 12.5599 0.0000 14.7686
# 5 21.7718 8.7867 4.8801 0.0000 29.4127 0.0000
# 6 0.0000 0.0000 0.0000 14.7686 0.0000 -23.3857
#
#
#
# Elastic Compliance Matrix: (Units=1/GPa)
#
#
# Indices 1 2 3 4 5 6 
#
# 1 0.059360 -0.008079 -0.035281 0.000000 -0.035672 0.000000
# 2 -0.008079 0.009833 0.001357 0.000000 0.002818 0.000000
# 3 -0.035281 0.001357 0.039160 0.000000 0.019213 0.000000
# 4 0.000000 0.000000 0.000000 0.045690 0.000000 0.028854
# 5 -0.035672 0.002818 0.019213 0.000000 0.056375 0.000000
# 6 0.000000 0.000000 0.000000 0.028854 0.000000 -0.024539
#
#
# Mechanical properties :
#
#
# Convention : Reuss Voigt Hill
#
# Bulk Modulus (GPa) = 41.07175 50.57457 45.82316
# Shear Modulus (GPa) = 17.98553 13.20715 15.59634
#
# Velocity S-wave (km/s) = 3.23612 2.77311 3.01352
# Velocity P-wave (km/s) = 6.15453 6.30093 6.22816
#
# Compressibility (1/GPa) = 0.02434763
#
# Stress axis : x y z
#
# Youngs Moduli (GPa) = 16.84625 101.69759 25.53609
#
# Poissons Ratio (x) = 0.82163 0.90095
# Poissons Ratio (y) = 0.13610 -0.03466
# Poissons Ratio (z) = 0.59436 -0.13805
#
# Static dielectric constant tensor:
#      x y z
#    x 1.606150 0.000000 0.022670 
#    y 0.000000 1.626340 0.000000 
#    z 0.022670 0.000000 1.577290 
# 
# From -- ./inp_files/33249.got.cif
#   From: 2010.05.17/outbox.cif.g08.bks.cpg/sg13_17_cif.got.tgz:33249.got - 2010.06.03 16:44:36.
