data_PCOD9226001
_publ_section_title
;
Structure prediction by ZEFSAII (Michael W. Deem and Ramdas Pophale) SiO2 
 PCOD9226001
Probable space group: P 2/C
;
_chemical_formula_sum "Si O2"
_cell_formula_units_Z 26
_cell_length_a 26.133222
_cell_length_b 7.544106
_cell_length_c 5.565094
_cell_angle_alpha 90.000000
_cell_angle_beta 75.015381
_cell_angle_gamma 90.000000
_cell_volume 1059.859372
_symmetry_space_group_name_H-M "P 2/C"
_symmetry_group_IT_number 13
_symmetry_cell_setting 'monoclinic'
loop_
_space_group_symop_operation_xyz
x,y,z
-x,y,1/2-z
-x,-y,-z
x,-y,1/2+z
loop_
_atom_site_type_symbol
_atom_site_label
_atom_site_fract_x
_atom_site_fract_y
_atom_site_fract_z
Si Si1 0.861667 0.607892 0.198662
Si Si2 0.500000 0.398901 0.250000
Si Si3 0.978924 0.707726 0.025595
Si Si4 0.608841 0.513756 0.123331
Si Si5 0.416999 0.922867 0.329736
Si Si6 0.744502 0.600030 0.274329
Si Si7 0.704306 0.050421 0.988957
O O1 0.864074 0.526587 0.465843
O O2 0.915491 0.715919 0.104940
O O3 0.803186 0.688045 0.239154
O O4 0.500000 0.500000 0.500000
O O5 0.563722 0.358481 0.173998
O O6 0.000000 0.783759 0.250000
O O7 0.000000 0.783443 0.750000
O O8 0.000000 0.500000 0.000000
O O9 0.638291 0.484479 0.335878
O O10 0.582317 0.709628 0.166185
O O11 0.440345 0.999671 0.551735
O O12 0.355128 0.977131 0.404889
O O13 0.742311 0.459511 0.498211
O O14 0.703379 0.751604 0.393225
O O15 0.728725 0.950755 0.727108
#
# Coordination Sequence:
#
# PCOD9226001 Si02
#       7
#     4   2   4   4   4   4   4
#     4  10  16  25  39  64  95 129 157 202 246 308
#     4   8  16  30  52  80 110 144 174 220 268 316
#     4  10  14  20  34  55  91 132 151 178 249 314
#     4  10  19  35  58  83 111 143 187 223 265 317
#     4  10  21  38  55  79 112 144 176 226 273 320
#     4  10  21  35  55  79 105 135 175 225 266 312
#     4  10  21  40  58  75 106 143 177 222 274 327
#
# _framework density 24.531552999999999
#
# number of rings (size 3 to 8) (size 9 to 14) (size 15 to 20)
#    0.000    2.154    3.077    1.846    0.000    0.000 
#    0.000   19.231    0.000    0.000    0.000    0.000 
#    0.000    3.692    0.000    0.000    0.000    0.000 
#
# Total GULP energy -144792.507620 kJ/mol
# GULP energy per Si atom -5568.942601 kJ/mol
# Density = 2.447572 g / cm^3
# Si number density = 24.531553 Si / 1000 Ang^3
#
#
#
# Elastic Constant Matrix: (Units=GPa)
#
#
# Indices 1 2 3 4 5 6 
#
# 1 67.8795 24.0452 39.6292 0.0000 9.8603 0.0000
# 2 24.0452 72.0433 19.5486 0.0000 4.2053 0.0000
# 3 39.6292 19.5486 232.6946 0.0000 30.6919 0.0000
# 4 0.0000 0.0000 0.0000 31.2014 0.0000 4.5007
# 5 9.8603 4.2053 30.6919 0.0000 41.8366 0.0000
# 6 0.0000 0.0000 0.0000 4.5007 0.0000 1.4075
#
#
#
# Elastic Compliance Matrix: (Units=1/GPa)
#
#
# Indices 1 2 3 4 5 6 
#
# 1 0.018323 -0.005345 -0.002405 0.000000 -0.002016 0.000000
# 2 -0.005345 0.015778 -0.000412 0.000000 -0.000024 0.000000
# 3 -0.002405 -0.000412 0.005161 0.000000 -0.003178 0.000000
# 4 0.000000 0.000000 0.000000 0.059492 0.000000 -0.190241
# 5 -0.002016 -0.000024 -0.003178 0.000000 0.026711 0.000000
# 6 0.000000 0.000000 0.000000 -0.190241 0.000000 1.318846
#
#
# Mechanical properties :
#
#
# Convention : Reuss Voigt Hill
#
# Bulk Modulus (GPa) = 43.59902 59.89592 51.74747
# Shear Modulus (GPa) = 3.40534 34.18203 18.79369
#
# Velocity S-wave (km/s) = 1.17948 3.73686 2.77086
# Velocity P-wave (km/s) = 4.43465 6.56413 5.60151
#
# Compressibility (1/GPa) = 0.02293630
#
# Stress axis : x y z
#
# Youngs Moduli (GPa) = 54.57736 63.38065 193.76481
#
# Poissons Ratio (x) = 0.33877 0.46609
# Poissons Ratio (y) = 0.29171 0.07984
# Poissons Ratio (z) = 0.13128 0.02612
#
# Static dielectric constant tensor:
#      x y z
#    x 2.068210 0.000000 0.089070 
#    y 0.000000 2.026780 0.000000 
#    z 0.089070 0.000000 2.092640 
# 
# From -- ./inp_files/7781.got.cif
#   From: 2010.05.17/outbox.cif.g08.bks.cpg/sg13_4_cif.got.tgz:7781.got - 2010.06.03 16:44:36.
