data_PCOD9226620
_publ_section_title
;
Structure prediction by ZEFSAII (Michael W. Deem and Ramdas Pophale) SiO2 
 PCOD9226620
Probable space group: P 2/C
;
_chemical_formula_sum "Si O2"
_cell_formula_units_Z 16
_cell_length_a 18.996842
_cell_length_b 5.198268
_cell_length_c 12.891968
_cell_angle_alpha 90.000000
_cell_angle_beta 28.559398
_cell_angle_gamma 90.000000
_cell_volume 608.625847
_symmetry_space_group_name_H-M "P 2/C"
_symmetry_group_IT_number 13
_symmetry_cell_setting 'monoclinic'
loop_
_space_group_symop_operation_xyz
x,y,z
-x,y,1/2-z
-x,-y,-z
x,-y,1/2+z
loop_
_atom_site_type_symbol
_atom_site_label
_atom_site_fract_x
_atom_site_fract_y
_atom_site_fract_z
Si Si1 0.960214 0.004074 0.429745
Si Si2 0.204147 0.502020 0.815597
Si Si3 0.525305 0.794696 0.556558
Si Si4 0.743924 0.220221 0.948533
O O1 0.850163 0.766041 0.569346
O O2 0.121136 0.937758 0.176159
O O3 0.884757 0.276382 0.510654
O O4 0.000000 0.000000 0.500000
O O5 0.375510 0.445288 0.607022
O O6 0.186391 0.451706 0.712742
O O7 0.643367 0.916666 0.489085
O O8 0.500000 0.000000 0.500000
O O9 0.379625 0.714995 0.807625
#
# Coordination Sequence:
#
# PCOD9226620 Si02
#       4
#     4   4   4   4
#     4  10  17  34  62  89 114 155 205 252 308 374
#     4   9  19  34  61  89 116 157 203 253 309 376
#     4   9  18  35  56  86 126 161 202 257 315 378
#     4   8  17  33  57  87 115 162 206 251 313 377
#
# _framework density 26.288727000000002
#
# number of rings (size 3 to 8) (size 9 to 14) (size 15 to 20)
#    1.500    1.500    0.000    3.000    0.000    0.000 
#    0.000   15.000    0.000    3.000    0.000    0.000 
#    0.000    0.000    0.000    0.000    0.000    0.000 
#
# Total GULP energy -89365.548334 kJ/mol
# GULP energy per Si atom -5585.346771 kJ/mol
# Density = 2.622889 g / cm^3
# Si number density = 26.288727 Si / 1000 Ang^3
#
#
#
# Elastic Constant Matrix: (Units=GPa)
#
#
# Indices 1 2 3 4 5 6 
#
# 1 78.0493 44.1913 62.8883 0.0000 5.1512 0.0000
# 2 44.1913 113.7688 60.6349 0.0000 4.4755 0.0000
# 3 62.8883 60.6349 221.4367 0.0000 -6.6780 0.0000
# 4 0.0000 0.0000 0.0000 36.8387 0.0000 -6.2030
# 5 5.1512 4.4755 -6.6780 0.0000 61.8674 0.0000
# 6 0.0000 0.0000 0.0000 -6.2030 0.0000 33.6029
#
#
#
# Elastic Compliance Matrix: (Units=1/GPa)
#
#
# Indices 1 2 3 4 5 6 
#
# 1 0.019141 -0.005206 -0.004061 0.000000 -0.001655 0.000000
# 2 -0.005206 0.011776 -0.001765 0.000000 -0.000609 0.000000
# 3 -0.004061 -0.001765 0.006187 0.000000 0.001134 0.000000
# 4 0.000000 0.000000 0.000000 0.028016 0.000000 0.005172
# 5 -0.001655 -0.000609 0.001134 0.000000 0.016468 0.000000
# 6 0.000000 0.000000 0.000000 0.005172 0.000000 0.030714
#
#
# Mechanical properties :
#
#
# Convention : Reuss Voigt Hill
#
# Bulk Modulus (GPa) = 66.48006 83.18709 74.83357
# Shear Modulus (GPa) = 35.87385 42.83113 39.35249
#
# Velocity S-wave (km/s) = 3.69807 4.04079 3.87322
# Velocity P-wave (km/s) = 6.60133 7.31320 6.96637
#
# Compressibility (1/GPa) = 0.01504210
#
# Stress axis : x y z
#
# Youngs Moduli (GPa) = 52.24414 84.91694 161.64165
#
# Poissons Ratio (x) = 0.44205 0.65635
# Poissons Ratio (y) = 0.27197 0.28523
# Poissons Ratio (z) = 0.21214 0.14984
#
# Static dielectric constant tensor:
#      x y z
#    x 2.224440 0.000000 0.014650 
#    y 0.000000 2.056180 0.000000 
#    z 0.014650 0.000000 2.111100 
# 
# From -- ./inp_files/56140.got.cif
#   From: 2010.05.17/outbox.cif.g08.bks.cpg/sg13_29_cif.got.tgz:56140.got - 2010.06.03 16:44:36.
