data_PCOD9226770
_publ_section_title
;
Structure prediction by ZEFSAII (Michael W. Deem and Ramdas Pophale) SiO2 
 PCOD9226770
Probable space group: P 2/C
;
_chemical_formula_sum "Si O2"
_cell_formula_units_Z 32
_cell_length_a 12.470217
_cell_length_b 10.602168
_cell_length_c 19.655825
_cell_angle_alpha 90.000000
_cell_angle_beta 142.009379
_cell_angle_gamma 90.000000
_cell_volume 1599.598321
_symmetry_space_group_name_H-M "P 2/C"
_symmetry_group_IT_number 13
_symmetry_cell_setting 'monoclinic'
loop_
_space_group_symop_operation_xyz
x,y,z
-x,y,1/2-z
-x,-y,-z
x,-y,1/2+z
loop_
_atom_site_type_symbol
_atom_site_label
_atom_site_fract_x
_atom_site_fract_y
_atom_site_fract_z
Si Si1 0.297125 0.884535 0.856412
Si Si2 0.800053 0.632596 0.620803
Si Si3 0.702875 0.884536 0.059286
Si Si4 0.199947 0.632596 0.320750
Si Si5 0.705460 0.760053 0.777461
Si Si6 0.204879 0.472917 0.526611
Si Si7 0.294539 0.760053 0.572000
Si Si8 0.795121 0.527083 0.321731
O O1 0.289214 0.757177 0.896218
O O2 0.216475 0.844914 0.743437
O O3 0.218005 1.000000 0.859002
O O4 0.500000 0.916945 0.945326
O O5 0.730227 0.500000 0.615113
O O6 0.778053 0.620087 0.528522
O O7 0.000000 0.638968 0.750000
O O8 0.710787 0.757177 0.107005
O O9 0.783526 0.844914 0.026963
O O10 0.221947 0.620087 0.250469
O O11 0.000000 0.638968 0.250000
O O12 0.500000 0.788009 0.678513
O O13 0.783150 0.777778 0.891575
O O14 0.717524 0.611131 0.766958
O O15 0.282475 0.611131 0.549434
O O16 0.265860 0.433364 0.632930
O O17 1.000000 0.499999 0.428358
#
# Coordination Sequence:
#
# PCOD9226770 Si02
#       8
#     4   4   4   4   4   4   4   4
#     4  10  21  35  51  74 102 134 171 207 248 297
#     4  11  19  33  52  78 103 127 167 210 249 297
#     4  10  21  35  51  74 102 134 171 207 248 297
#     4  11  19  33  52  78 103 127 167 210 249 297
#     4   9  17  30  49  72  98 130 166 201 244 300
#     4  10  18  30  49  74 103 131 160 202 252 297
#     4   9  17  30  49  72  98 130 166 201 244 300
#     4  10  18  30  49  74 103 131 160 202 252 297
#
# _framework density 20.005023000000001
#
# number of rings (size 3 to 8) (size 9 to 14) (size 15 to 20)
#    0.000    2.000    5.000    0.000    0.000    2.000 
#    0.000    1.250    0.000    1.500    0.000    8.750 
#    0.000    0.000    0.000    0.000    0.000    0.000 
#
# Total GULP energy -178272.818348 kJ/mol
# GULP energy per Si atom -5571.025573 kJ/mol
# Density = 1.995949 g / cm^3
# Si number density = 20.005023 Si / 1000 Ang^3
#
#
#
# Elastic Constant Matrix: (Units=GPa)
#
#
# Indices 1 2 3 4 5 6 
#
# 1 64.8896 30.9031 43.0026 0.0000 -44.2281 0.0000
# 2 30.9031 80.2306 27.5501 0.0000 -26.3222 0.0000
# 3 43.0026 27.5501 54.3275 0.0000 -38.6891 0.0000
# 4 0.0000 0.0000 0.0000 14.2495 0.0000 -6.4363
# 5 -44.2281 -26.3222 -38.6891 0.0000 51.6111 0.0000
# 6 0.0000 0.0000 0.0000 -6.4363 0.0000 15.0691
#
#
#
# Elastic Compliance Matrix: (Units=1/GPa)
#
#
# Indices 1 2 3 4 5 6 
#
# 1 0.044011 -0.003627 -0.015995 0.000000 0.023876 0.000000
# 2 -0.003627 0.015829 -0.003476 0.000000 0.002359 0.000000
# 3 -0.015995 -0.003476 0.046779 0.000000 0.019588 0.000000
# 4 0.000000 0.000000 0.000000 0.086954 0.000000 0.037139
# 5 0.023876 0.002359 0.019588 0.000000 0.055722 0.000000
# 6 0.000000 0.000000 0.000000 0.037139 0.000000 0.082224
#
#
# Mechanical properties :
#
#
# Convention : Reuss Voigt Hill
#
# Bulk Modulus (GPa) = 16.54976 44.70660 30.62818
# Shear Modulus (GPa) = 12.56739 22.71873 17.64306
#
# Velocity S-wave (km/s) = 2.50913 3.37360 2.97295
# Velocity P-wave (km/s) = 4.08474 6.12953 5.20846
#
# Compressibility (1/GPa) = 0.06042382
#
# Stress axis : x y z
#
# Youngs Moduli (GPa) = 22.72161 63.17661 21.37693
#
# Poissons Ratio (x) = 0.22912 0.34192
# Poissons Ratio (y) = 0.08240 0.07431
# Poissons Ratio (z) = 0.36342 0.21962
#
# Static dielectric constant tensor:
#      x y z
#    x 2.249310 0.000000 0.456660 
#    y 0.000000 1.679130 0.000000 
#    z 0.456660 0.000000 2.307470 
# 
# From -- ./inp_files/79846.got.cif
#   From: 2010.05.17/outbox.cif.g08.bks.cpg/sg13_40_cif.got.tgz:79846.got - 2010.06.03 16:44:36.
