data_PCOD9226593
_publ_section_title
;
Structure prediction by ZEFSAII (Michael W. Deem and Ramdas Pophale) SiO2 
 PCOD9226593
Probable space group: P 2/C
;
_chemical_formula_sum "Si O2"
_cell_formula_units_Z 30
_cell_length_a 10.696581
_cell_length_b 8.470324
_cell_length_c 21.560995
_cell_angle_alpha 90.000000
_cell_angle_beta 129.398751
_cell_angle_gamma 90.000000
_cell_volume 1509.563422
_symmetry_space_group_name_H-M "P 2/C"
_symmetry_group_IT_number 13
_symmetry_cell_setting 'monoclinic'
loop_
_space_group_symop_operation_xyz
x,y,z
-x,y,1/2-z
-x,-y,-z
x,-y,1/2+z
loop_
_atom_site_type_symbol
_atom_site_label
_atom_site_fract_x
_atom_site_fract_y
_atom_site_fract_z
Si Si1 0.255425 0.924715 0.813344
Si Si2 0.835455 0.601163 0.951745
Si Si3 0.702515 0.665538 0.584858
Si Si4 0.549227 0.821319 0.077727
Si Si5 0.323122 0.722439 0.718140
Si Si6 0.000000 0.805225 0.250000
Si Si7 0.827450 0.331885 0.585225
Si Si8 0.472305 0.485454 0.858754
O O1 0.198556 0.787173 0.841848
O O2 0.264950 0.849434 0.749342
O O3 0.424692 0.999943 0.891799
O O4 0.145291 0.076771 0.781876
O O5 0.800093 0.693875 0.876770
O O6 0.662719 0.508692 0.905214
O O7 0.851988 0.700281 0.020662
O O8 0.000000 0.500000 0.000000
O O9 0.618477 0.771517 0.506271
O O10 0.790734 0.517819 0.582053
O O11 0.575895 0.583957 0.593900
O O12 0.679854 0.770778 0.066500
O O13 0.569375 0.694899 0.139750
O O14 0.500000 0.773993 0.750000
O O15 0.365941 0.562978 0.770669
O O16 0.031651 0.704864 0.321435
#
# Coordination Sequence:
#
# PCOD9226593 Si02
#       8
#     4   4   4   4   4   2   4   4
#     4  10  22  36  57  88 119 152 182 238 308 351
#     4  11  21  34  57  86 116 153 195 236 281 345
#     4  10  17  33  64  86 108 142 197 251 283 335
#     4  10  17  34  62  88 110 136 195 254 285 330
#     4   9  21  40  59  79 114 161 199 235 286 352
#     4  10  24  40  56  84 122 146 188 248 302 360
#     4  10  20  37  59  84 111 153 191 240 293 332
#     4   9  17  36  60  87 110 146 200 248 284 327
#
# _framework density 19.873297000000001
#
# number of rings (size 3 to 8) (size 9 to 14) (size 15 to 20)
#    0.000    2.133    2.667    1.200    0.000    5.867 
#    0.000    4.000    0.000    0.000    0.000    0.000 
#    0.000    0.000    0.000    0.000    0.000    0.000 
#
# Total GULP energy -167232.817490 kJ/mol
# GULP energy per Si atom -5574.427250 kJ/mol
# Density = 1.982806 g / cm^3
# Si number density = 19.873297 Si / 1000 Ang^3
#
#
#
# Elastic Constant Matrix: (Units=GPa)
#
#
# Indices 1 2 3 4 5 6 
#
# 1 37.6009 18.4367 35.2792 0.0000 -10.6544 0.0000
# 2 18.4367 71.3520 58.4853 0.0000 -11.9029 0.0000
# 3 35.2792 58.4853 158.7329 0.0000 -24.1497 0.0000
# 4 0.0000 0.0000 0.0000 25.7474 0.0000 -5.0940
# 5 -10.6544 -11.9029 -24.1497 0.0000 32.8425 0.0000
# 6 0.0000 0.0000 0.0000 -5.0940 0.0000 17.3689
#
#
#
# Elastic Compliance Matrix: (Units=1/GPa)
#
#
# Indices 1 2 3 4 5 6 
#
# 1 0.035313 -0.003491 -0.005643 0.000000 0.006041 0.000000
# 2 -0.003491 0.020550 -0.006570 0.000000 0.001484 0.000000
# 3 -0.005643 -0.006570 0.010510 0.000000 0.003516 0.000000
# 4 0.000000 0.000000 0.000000 0.041231 0.000000 0.012092
# 5 0.006041 0.001484 0.003516 0.000000 0.035532 0.000000
# 6 0.000000 0.000000 0.000000 0.012092 0.000000 0.061121
#
#
# Mechanical properties :
#
#
# Convention : Reuss Voigt Hill
#
# Bulk Modulus (GPa) = 28.60052 54.67646 41.63849
# Shear Modulus (GPa) = 20.21673 25.55741 22.88707
#
# Velocity S-wave (km/s) = 3.19294 3.59000 3.39728
# Velocity P-wave (km/s) = 5.29300 6.69002 6.03209
#
# Compressibility (1/GPa) = 0.03496439
#
# Stress axis : x y z
#
# Youngs Moduli (GPa) = 28.31785 48.66208 95.15000
#
# Poissons Ratio (x) = 0.16990 0.53694
# Poissons Ratio (y) = 0.09887 0.62512
# Poissons Ratio (z) = 0.15980 0.31970
#
# Static dielectric constant tensor:
#      x y z
#    x 1.747940 0.000000 0.052790 
#    y 0.000000 1.695400 0.000000 
#    z 0.052790 0.000000 1.813030 
# 
# From -- ./inp_files/78128.got.cif
#   From: 2010.05.17/outbox.cif.g08.bks.cpg/sg13_40_cif.got.tgz:78128.got - 2010.06.03 16:44:36.
