data_PCOD9226664
_publ_section_title
;
Structure prediction by ZEFSAII (Michael W. Deem and Ramdas Pophale) SiO2 
 PCOD9226664
Probable space group: P 2/C
;
_chemical_formula_sum "Si O2"
_cell_formula_units_Z 32
_cell_length_a 9.008344
_cell_length_b 9.891883
_cell_length_c 29.203877
_cell_angle_alpha 90.000000
_cell_angle_beta 148.197869
_cell_angle_gamma 90.000000
_cell_volume 1371.401688
_symmetry_space_group_name_H-M "P 2/C"
_symmetry_group_IT_number 13
_symmetry_cell_setting 'monoclinic'
loop_
_space_group_symop_operation_xyz
x,y,z
-x,y,1/2-z
-x,-y,-z
x,-y,1/2+z
loop_
_atom_site_type_symbol
_atom_site_label
_atom_site_fract_x
_atom_site_fract_y
_atom_site_fract_z
Si Si1 0.755245 0.686072 0.851528
Si Si2 0.942126 0.260272 0.155621
Si Si3 0.389139 0.650060 0.482188
Si Si4 0.795560 0.024019 0.404437
Si Si5 0.142299 0.980759 0.238057
Si Si6 0.824871 0.213367 0.836900
Si Si7 0.667905 0.467403 0.202589
Si Si8 0.165980 0.350165 0.834046
O O1 0.500000 0.721882 0.750000
O O2 0.623797 0.566606 0.848448
O O3 0.997556 0.667057 0.877625
O O4 0.826735 0.820330 0.897757
O O5 0.156346 0.328385 0.247798
O O6 0.611061 0.281850 0.074345
O O7 0.018796 0.104205 0.175695
O O8 0.658126 0.461512 0.650422
O O9 0.369045 0.710880 0.424869
O O10 0.071465 0.682380 0.415655
O O11 0.471705 0.002630 0.332703
O O12 0.840956 0.913841 0.376048
O O13 0.000000 0.000000 0.500000
O O14 0.117908 0.850863 0.198438
O O15 0.000000 0.991210 0.250000
O O16 0.500000 0.263742 0.750000
O O17 0.000000 0.726627 0.250000
O O18 0.902967 0.566535 0.287622
O O19 0.500000 0.500000 0.000000
#
# Coordination Sequence:
#
# PCOD9226664 Si02
#       8
#     4   4   4   4   4   4   4   4
#     4  10  17  37  62  93 128 178 224 282 347 416
#     4  11  21  36  68 100 133 172 237 292 349 415
#     4  12  24  41  65  98 135 180 234 293 339 404
#     4  11  22  39  66  99 142 177 222 290 346 426
#     4  11  24  41  70 103 134 189 229 284 370 423
#     4  10  25  50  66  95 143 187 228 281 362 434
#     4   8  17  34  64  88 120 178 221 279 350 405
#     4   8  19  38  57  90 131 174 232 289 343 394
#
# _framework density 23.33379
#
# number of rings (size 3 to 8) (size 9 to 14) (size 15 to 20)
#    0.750    1.000    5.000    0.375    3.500    3.000 
#    2.250    1.875    0.000    0.000    0.000    0.000 
#    0.000    0.000    0.000    0.000    0.000    0.000 
#
# Total GULP energy -178202.207099 kJ/mol
# GULP energy per Si atom -5568.818972 kJ/mol
# Density = 2.328068 g / cm^3
# Si number density = 23.333790 Si / 1000 Ang^3
#
#
#
# Elastic Constant Matrix: (Units=GPa)
#
#
# Indices 1 2 3 4 5 6 
#
# 1 121.4932 9.2672 25.0511 0.0000 7.5495 0.0000
# 2 9.2672 67.8839 22.8009 0.0000 19.1254 0.0000
# 3 25.0511 22.8009 113.4994 0.0000 8.9761 0.0000
# 4 0.0000 0.0000 0.0000 8.3986 0.0000 9.1596
# 5 7.5495 19.1254 8.9761 0.0000 37.5438 0.0000
# 6 0.0000 0.0000 0.0000 9.1596 0.0000 26.7427
#
#
#
# Elastic Compliance Matrix: (Units=1/GPa)
#
#
# Indices 1 2 3 4 5 6 
#
# 1 0.008690 -0.000255 -0.001772 0.000000 -0.001194 0.000000
# 2 -0.000255 0.018137 -0.002916 0.000000 -0.008491 0.000000
# 3 -0.001772 -0.002916 0.009828 0.000000 -0.000508 0.000000
# 4 0.000000 0.000000 0.000000 0.190067 0.000000 -0.065100
# 5 -0.001194 -0.008491 -0.000508 0.000000 0.031323 0.000000
# 6 0.000000 0.000000 0.000000 -0.065100 0.000000 0.059691
#
#
# Mechanical properties :
#
#
# Convention : Reuss Voigt Hill
#
# Bulk Modulus (GPa) = 37.35623 46.34610 41.85116
# Shear Modulus (GPa) = 14.85688 30.92082 22.88885
#
# Velocity S-wave (km/s) = 2.52605 3.64421 3.13538
# Velocity P-wave (km/s) = 4.95501 6.13289 5.57515
#
# Compressibility (1/GPa) = 0.02676930
#
# Stress axis : x y z
#
# Youngs Moduli (GPa) = 115.07483 55.13449 101.75245
#
# Poissons Ratio (x) = 0.01404 0.18035
# Poissons Ratio (y) = 0.02930 0.29670
# Poissons Ratio (z) = 0.20396 0.16077
#
# Static dielectric constant tensor:
#      x y z
#    x 2.060440 0.000000 0.036550 
#    y 0.000000 1.950480 0.000000 
#    z 0.036550 0.000000 1.860680 
# 
# From -- ./inp_files/96177.got.cif
#   From: 2010.05.17/outbox.cif.g08.bks.cpg/sg13_49_cif.got.tgz:96177.got - 2010.06.03 16:44:36.
