data_PCOD9226064
_publ_section_title
;
Structure prediction by ZEFSAII (Michael W. Deem and Ramdas Pophale) SiO2 
 PCOD9226064
Probable space group: P 2/C
;
_chemical_formula_sum "Si O2"
_cell_formula_units_Z 20
_cell_length_a 6.794909
_cell_length_b 15.101806
_cell_length_c 8.292591
_cell_angle_alpha 90.000000
_cell_angle_beta 76.230301
_cell_angle_gamma 90.000000
_cell_volume 826.491539
_symmetry_space_group_name_H-M "P 2/C"
_symmetry_group_IT_number 13
_symmetry_cell_setting 'monoclinic'
loop_
_space_group_symop_operation_xyz
x,y,z
-x,y,1/2-z
-x,-y,-z
x,-y,1/2+z
loop_
_atom_site_type_symbol
_atom_site_label
_atom_site_fract_x
_atom_site_fract_y
_atom_site_fract_z
Si Si1 0.265055 0.375661 0.354966
Si Si2 0.241914 0.894813 0.186362
Si Si3 0.655599 0.546365 0.345198
Si Si4 0.200544 0.817757 0.872794
Si Si5 0.237447 0.092662 0.053850
O O1 0.500000 0.358404 0.250000
O O2 0.223678 0.468089 0.269247
O O3 0.229110 0.392778 0.552633
O O4 0.151639 0.284495 0.349235
O O5 0.317236 0.891523 0.357408
O O6 0.000000 0.881954 0.250000
O O7 0.270090 0.991992 0.102827
O O8 0.298841 0.828088 0.030667
O O9 0.500000 0.591466 0.250000
O O10 0.500000 0.500000 0.500000
O O11 0.313266 0.850817 0.690705
O O12 0.000391 0.880240 0.913988
#
# Coordination Sequence:
#
# PCOD9226064 Si02
#       5
#     4   4   4   4   4
#     4   9  17  32  50  72  95 119 159 201 241 288
#     4  10  15  28  47  72  92 125 167 198 226 268
#     4   7  13  29  51  64  84 119 155 193 233 280
#     4  10  18  27  48  76  97 120 160 208 231 273
#     4  10  17  29  50  72  96 127 163 199 236 271
#
# _framework density 24.198677
#
# number of rings (size 3 to 8) (size 9 to 14) (size 15 to 20)
#    0.000    3.200    4.000    1.200    0.000    0.000 
#   10.800    0.000    0.000    6.000    0.000    0.000 
#    0.000    0.000    0.000    0.000    0.000    0.000 
#
# Total GULP energy -111370.509931 kJ/mol
# GULP energy per Si atom -5568.525497 kJ/mol
# Density = 2.414360 g / cm^3
# Si number density = 24.198677 Si / 1000 Ang^3
#
#
#
# Elastic Constant Matrix: (Units=GPa)
#
#
# Indices 1 2 3 4 5 6 
#
# 1 47.5727 11.7088 53.1725 0.0000 -0.4017 0.0000
# 2 11.7088 117.0562 52.2665 0.0000 23.7174 0.0000
# 3 53.1725 52.2665 255.6029 0.0000 36.3337 0.0000
# 4 0.0000 0.0000 0.0000 35.4049 0.0000 6.6475
# 5 -0.4017 23.7174 36.3337 0.0000 47.9294 0.0000
# 6 0.0000 0.0000 0.0000 6.6475 0.0000 -12.7583
#
#
#
# Elastic Compliance Matrix: (Units=1/GPa)
#
#
# Indices 1 2 3 4 5 6 
#
# 1 0.028669 -0.001107 -0.006556 0.000000 0.005758 0.000000
# 2 -0.001107 0.010026 -0.001248 0.000000 -0.004025 0.000000
# 3 -0.006556 -0.001248 0.006110 0.000000 -0.004069 0.000000
# 4 0.000000 0.000000 0.000000 0.025728 0.000000 0.013405
# 5 0.005758 -0.004025 -0.004069 0.000000 0.025989 0.000000
# 6 0.000000 0.000000 0.000000 0.013405 0.000000 -0.071396
#
#
# Mechanical properties :
#
#
# Convention : Reuss Voigt Hill
#
# Bulk Modulus (GPa) = 37.05971 72.72528 54.89249
# Shear Modulus (GPa) = 96.25988 34.32079 65.29033
#
# Velocity S-wave (km/s) = 6.31390 3.77011 5.19995
# Velocity P-wave (km/s) = 8.27658 7.00502 7.66721
#
# Compressibility (1/GPa) = 0.02698348
#
# Stress axis : x y z
#
# Youngs Moduli (GPa) = 34.88032 99.73800 163.67246
#
# Poissons Ratio (x) = 0.11041 1.07307
# Poissons Ratio (y) = 0.03861 0.20423
# Poissons Ratio (z) = 0.22868 0.12445
#
# Static dielectric constant tensor:
#      x y z
#    x 2.034870 0.000000 0.056900 
#    y 0.000000 1.915580 0.000000 
#    z 0.056900 0.000000 2.009860 
# 
# From -- ./inp_files/12243.got.cif
#   From: 2010.05.17/outbox.cif.g08.bks.cpg/sg13_7_cif.got.tgz:12243.got - 2010.06.03 16:44:36.
