data_PCOD9226122
_publ_section_title
;
Structure prediction by ZEFSAII (Michael W. Deem and Ramdas Pophale) SiO2 
 PCOD9226122
Probable space group: P 2/C
;
_chemical_formula_sum "Si O2"
_cell_formula_units_Z 32
_cell_length_a 17.853529
_cell_length_b 16.582169
_cell_length_c 5.484660
_cell_angle_alpha 90.000000
_cell_angle_beta 55.222013
_cell_angle_gamma 90.000000
_cell_volume 1333.684549
_symmetry_space_group_name_H-M "P 2/C"
_symmetry_group_IT_number 13
_symmetry_cell_setting 'monoclinic'
loop_
_space_group_symop_operation_xyz
x,y,z
-x,y,1/2-z
-x,-y,-z
x,-y,1/2+z
loop_
_atom_site_type_symbol
_atom_site_label
_atom_site_fract_x
_atom_site_fract_y
_atom_site_fract_z
Si Si1 0.599749 0.399942 0.151926
Si Si2 0.118182 0.719341 0.109750
Si Si3 0.090785 0.196565 0.159166
Si Si4 0.334690 0.580012 0.468171
Si Si5 0.799435 0.982460 0.557866
Si Si6 0.696910 0.859377 0.250234
Si Si7 0.875568 0.541242 0.564317
Si Si8 0.297885 0.189753 0.261994
O O1 0.500000 0.376825 0.250000
O O2 0.623877 0.371508 0.379823
O O3 0.607315 0.497465 0.169002
O O4 0.664598 0.379030 0.800272
O O5 0.091013 0.737507 0.438576
O O6 0.081659 0.773668 0.953556
O O7 0.096674 0.629596 0.070537
O O8 0.226910 0.737081 0.895634
O O9 0.000000 0.147126 0.250000
O O10 0.194524 0.164529 0.951029
O O11 0.234638 0.548597 0.722240
O O12 0.766554 0.891147 0.613417
O O13 0.850205 0.001964 0.214872
O O14 0.711083 0.043471 0.724422
O O15 0.652543 0.821397 0.573239
O O16 0.654291 0.822740 0.084883
O O17 0.902478 0.483603 0.288489
#
# Coordination Sequence:
#
# PCOD9226122 Si02
#       8
#     4   4   4   4   4   4   4   4
#     4  10  16  25  41  63  91 116 135 152 191 242
#     4  10  21  33  50  67  77 105 133 165 219 263
#     4  10  19  34  51  66  84 103 128 163 208 267
#     4  10  16  27  39  61  84 112 135 164 200 232
#     4   8  12  20  36  56  81 106 122 147 176 215
#     4   8  14  23  40  61  79 102 124 144 186 231
#     4  12  21  35  50  64  86 103 137 183 221 258
#     4   8  14  25  39  58  82 101 129 154 183 234
#
# _framework density 23.993677999999999
#
# number of rings (size 3 to 8) (size 9 to 14) (size 15 to 20)
#    0.000    2.500    2.500    3.000    0.000    0.000 
#    0.000    0.000    0.000   26.250    0.000    0.000 
#    0.000    0.000    0.000    0.000    0.000    0.000 
#
# Total GULP energy -178368.328534 kJ/mol
# GULP energy per Si atom -5574.010267 kJ/mol
# Density = 2.393907 g / cm^3
# Si number density = 23.993678 Si / 1000 Ang^3
#
#
#
# Elastic Constant Matrix: (Units=GPa)
#
#
# Indices 1 2 3 4 5 6 
#
# 1 36.5576 -9.3114 32.1318 0.0000 21.3882 0.0000
# 2 -9.3114 38.4809 9.3107 0.0000 9.4442 0.0000
# 3 32.1318 9.3107 142.1262 0.0000 64.4928 0.0000
# 4 0.0000 0.0000 0.0000 21.6981 0.0000 12.5507
# 5 21.3882 9.4442 64.4928 0.0000 54.6036 0.0000
# 6 0.0000 0.0000 0.0000 12.5507 0.0000 5.5373
#
#
#
# Elastic Compliance Matrix: (Units=1/GPa)
#
#
# Indices 1 2 3 4 5 6 
#
# 1 0.043481 0.015147 -0.004106 0.000000 -0.014802 0.000000
# 2 0.015147 0.032454 -0.000670 0.000000 -0.010754 0.000000
# 3 -0.004106 -0.000670 0.015571 0.000000 -0.016667 0.000000
# 4 0.000000 0.000000 0.000000 -0.148173 0.000000 0.335843
# 5 -0.014802 -0.010754 -0.016667 0.000000 0.045658 0.000000
# 6 0.000000 0.000000 0.000000 0.335843 0.000000 -0.580617
#
#
# Mechanical properties :
#
#
# Convention : Reuss Voigt Hill
#
# Bulk Modulus (GPa) = 8.90882 31.26966 20.08924
# Shear Modulus (GPa) = -8.69637 28.70337 10.00350
#
# Velocity S-wave (km/s) = -1.90586 3.46249 2.04408
# Velocity P-wave (km/s) = 1.05926 5.38942 3.73657
#
# Compressibility (1/GPa) = 0.11224834
#
# Stress axis : x y z
#
# Youngs Moduli (GPa) = 22.99863 30.81302 64.22099
#
# Poissons Ratio (x) = -0.46674 0.26367
# Poissons Ratio (y) = -0.34837 0.04306
# Poissons Ratio (z) = 0.09443 0.02066
#
# Static dielectric constant tensor:
#      x y z
#    x 1.975720 0.000000 0.064680 
#    y 0.000000 1.973010 0.000000 
#    z 0.064680 0.000000 2.043190 
# 
# From -- ./inp_files/6400.got.cif
#   From: 2010.05.17/outbox.cif.g08.bks.cpg/sg13_4_cif.got.tgz:6400.got - 2010.06.03 16:44:36.
