data_PCOD9226933
_publ_section_title
;
Structure prediction by ZEFSAII (Michael W. Deem and Ramdas Pophale) SiO2 
 PCOD9226933
Probable space group: P 2/C
;
_chemical_formula_sum "Si O2"
_cell_formula_units_Z 20
_cell_length_a 9.582865
_cell_length_b 11.522568
_cell_length_c 10.954260
_cell_angle_alpha 90.000000
_cell_angle_beta 44.622398
_cell_angle_gamma 90.000000
_cell_volume 849.633400
_symmetry_space_group_name_H-M "P 2/C"
_symmetry_group_IT_number 13
_symmetry_cell_setting 'monoclinic'
loop_
_space_group_symop_operation_xyz
x,y,z
-x,y,1/2-z
-x,-y,-z
x,-y,1/2+z
loop_
_atom_site_type_symbol
_atom_site_label
_atom_site_fract_x
_atom_site_fract_y
_atom_site_fract_z
Si Si1 0.244864 0.421487 0.604967
Si Si2 0.342120 0.180218 0.452213
Si Si3 0.009028 0.179660 0.014901
Si Si4 0.802644 0.428350 0.593727
Si Si5 0.183460 0.991435 0.228264
O O1 0.363431 0.303858 0.502190
O O2 0.300651 0.445100 0.710700
O O3 0.283922 0.515336 0.474685
O O4 0.000000 0.404671 0.750000
O O5 0.500000 0.156507 0.250000
O O6 0.134054 0.200208 0.510834
O O7 0.346563 0.075842 0.546849
O O8 0.858573 0.124818 0.208506
O O9 0.130740 0.294816 0.969341
O O10 0.157636 0.079663 0.871518
O O11 0.000000 0.500000 0.500000
O O12 0.000000 0.972589 0.250000
#
# Coordination Sequence:
#
# PCOD9226933 Si02
#       5
#     4   4   4   4   4
#     4  10  18  35  56  83 109 147 192 237 286 331
#     4  11  20  34  54  78 118 157 184 224 287 355
#     4  10  18  35  56  81 106 142 190 239 284 324
#     4  10  18  31  61  84 108 138 190 249 278 329
#     4   9  19  34  57  81 105 139 189 243 278 333
#
# _framework density 23.539563000000001
#
# number of rings (size 3 to 8) (size 9 to 14) (size 15 to 20)
#    0.000    2.000    6.000    0.600    0.000    3.200 
#    0.000    1.000    0.000    0.000    0.000    0.000 
#    0.000    0.000    0.000    0.000    0.000    0.000 
#
# Total GULP energy -111377.174879 kJ/mol
# GULP energy per Si atom -5568.858744 kJ/mol
# Density = 2.348599 g / cm^3
# Si number density = 23.539563 Si / 1000 Ang^3
#
#
#
# Elastic Constant Matrix: (Units=GPa)
#
#
# Indices 1 2 3 4 5 6 
#
# 1 44.7615 81.2500 54.7550 0.0000 -3.1600 0.0000
# 2 81.2500 125.1705 67.9887 0.0000 55.2232 0.0000
# 3 54.7550 67.9887 136.7849 0.0000 64.3733 0.0000
# 4 0.0000 0.0000 0.0000 43.8998 0.0000 21.8897
# 5 -3.1600 55.2232 64.3733 0.0000 22.7760 0.0000
# 6 0.0000 0.0000 0.0000 21.8897 0.0000 20.8069
#
#
#
# Elastic Compliance Matrix: (Units=1/GPa)
#
#
# Indices 1 2 3 4 5 6 
#
# 1 0.007906 0.001712 0.007810 0.000000 -0.025127 0.000000
# 2 0.001712 0.006501 -0.010268 0.000000 0.013495 0.000000
# 3 0.007810 -0.010268 0.008899 0.000000 0.000826 0.000000
# 4 0.000000 0.000000 0.000000 0.047913 0.000000 -0.050407
# 5 -0.025127 0.013495 0.000826 0.000000 0.005365 0.000000
# 6 0.000000 0.000000 0.000000 -0.050407 0.000000 0.101091
#
#
# Mechanical properties :
#
#
# Convention : Reuss Voigt Hill
#
# Bulk Modulus (GPa) = 45.84123 79.41159 62.62641
# Shear Modulus (GPa) = 26.81842 24.34476 25.58159
#
# Velocity S-wave (km/s) = 3.37900 3.21940 3.30016
# Velocity P-wave (km/s) = 5.89406 6.90130 6.41747
#
# Compressibility (1/GPa) = 0.02181442
#
# Stress axis : x y z
#
# Youngs Moduli (GPa) = 126.49037 153.82043 112.36815
#
# Poissons Ratio (x) = -0.26335 -0.87756
# Poissons Ratio (y) = -0.21656 1.15376
# Poissons Ratio (z) = -0.98785 1.57937
#
# Static dielectric constant tensor:
#      x y z
#    x 1.936020 0.000000 -0.062950 
#    y 0.000000 1.930910 0.000000 
#    z -0.062950 0.000000 1.987550 
# 
# From -- ./inp_files/33576.got.cif
#   From: 2010.05.17/outbox.cif.g08.bks.cpg/sg13_17_cif.got.tgz:33576.got - 2010.06.03 16:44:36.
