data_PCOD9226730
_publ_section_title
;
Structure prediction by ZEFSAII (Michael W. Deem and Ramdas Pophale) SiO2 
 PCOD9226730
Probable space group: P 2/C
;
_chemical_formula_sum "Si O2"
_cell_formula_units_Z 28
_cell_length_a 14.538630
_cell_length_b 8.970747
_cell_length_c 17.095315
_cell_angle_alpha 90.000000
_cell_angle_beta 138.933301
_cell_angle_gamma 90.000000
_cell_volume 1464.714650
_symmetry_space_group_name_H-M "P 2/C"
_symmetry_group_IT_number 13
_symmetry_cell_setting 'monoclinic'
loop_
_space_group_symop_operation_xyz
x,y,z
-x,y,1/2-z
-x,-y,-z
x,-y,1/2+z
loop_
_atom_site_type_symbol
_atom_site_label
_atom_site_fract_x
_atom_site_fract_y
_atom_site_fract_z
Si Si1 0.559905 0.599124 0.107255
Si Si2 0.646711 0.416520 0.315214
Si Si3 0.000000 0.437609 0.250000
Si Si4 0.624692 0.271095 0.886605
Si Si5 0.000000 0.053240 0.750000
Si Si6 0.069535 0.187325 0.420355
Si Si7 0.158677 0.697991 0.280321
Si Si8 0.958954 0.667963 0.002864
O O1 0.618907 0.487901 0.212086
O O2 0.441955 0.701677 0.071485
O O3 0.689207 0.694255 0.158892
O O4 0.500000 0.500000 0.000000
O O5 0.500000 0.344153 0.250000
O O6 0.664793 0.563269 0.381083
O O7 0.791771 0.328490 0.408732
O O8 0.036376 0.332679 0.345988
O O9 0.126748 0.546439 0.307472
O O10 0.500000 0.218465 0.750000
O O11 0.762897 0.174899 0.969271
O O12 0.870799 0.164139 0.681963
O O13 0.987948 0.950466 0.666014
O O14 0.005888 0.219373 0.464463
O O15 0.045063 0.699078 0.137071
O O16 0.000000 0.500000 0.000000
#
# Coordination Sequence:
#
# PCOD9226730 Si02
#       8
#     4   4   2   4   2   4   4   4
#     4  10  18  29  53  85 118 147 183 237 300 346
#     4   9  18  31  50  91 123 138 177 248 316 341
#     4  10  18  30  58  82 114 142 186 254 284 340
#     4   9  17  30  51  77 110 145 182 238 292 346
#     4  10  28  40  54  80 124 164 192 246 304 362
#     4  11  20  37  57  86 114 152 205 238 294 354
#     4  11  21  38  57  86 118 153 197 240 304 355
#     4  12  18  33  64  91 111 146 207 260 288 346
#
# _framework density 19.116351999999999
#
# number of rings (size 3 to 8) (size 9 to 14) (size 15 to 20)
#    0.000    2.000    4.286    1.714    0.000    5.143 
#    0.000    0.714    0.000    4.286    0.000    1.000 
#    0.000    0.000    0.000    0.000    0.000    0.000 
#
# Total GULP energy -156298.101441 kJ/mol
# GULP energy per Si atom -5582.075051 kJ/mol
# Density = 1.907284 g / cm^3
# Si number density = 19.116352 Si / 1000 Ang^3
#
#
#
# Elastic Constant Matrix: (Units=GPa)
#
#
# Indices 1 2 3 4 5 6 
#
# 1 122.6617 23.6135 25.5357 0.0000 15.2550 0.0000
# 2 23.6135 56.7030 13.0123 0.0000 -1.2932 0.0000
# 3 25.5357 13.0123 40.1109 0.0000 17.5355 0.0000
# 4 0.0000 0.0000 0.0000 3.1381 0.0000 -4.4647
# 5 15.2550 -1.2932 17.5355 0.0000 38.4059 0.0000
# 6 0.0000 0.0000 0.0000 -4.4647 0.0000 16.7946
#
#
#
# Elastic Compliance Matrix: (Units=1/GPa)
#
#
# Indices 1 2 3 4 5 6 
#
# 1 0.009934 -0.003173 -0.004402 0.000000 -0.002043 0.000000
# 2 -0.003173 0.020662 -0.006919 0.000000 0.005115 0.000000
# 3 -0.004402 -0.006919 0.036626 0.000000 -0.015207 0.000000
# 4 0.000000 0.000000 0.000000 0.512491 0.000000 0.136240
# 5 -0.002043 0.005115 -0.015207 0.000000 0.033965 0.000000
# 6 0.000000 0.000000 0.000000 0.136240 0.000000 0.095761
#
#
# Mechanical properties :
#
#
# Convention : Reuss Voigt Hill
#
# Bulk Modulus (GPa) = 26.15480 38.19987 32.17733
# Shear Modulus (GPa) = 6.65628 22.15533 14.40581
#
# Velocity S-wave (km/s) = 1.86803 3.40806 2.74813
# Velocity P-wave (km/s) = 4.28536 5.95925 5.19023
#
# Compressibility (1/GPa) = 0.03823390
#
# Stress axis : x y z
#
# Youngs Moduli (GPa) = 100.66654 48.39877 27.30311
#
# Poissons Ratio (x) = 0.15359 0.12018
# Poissons Ratio (y) = 0.31945 0.18890
# Poissons Ratio (z) = 0.44309 0.33486
#
# Static dielectric constant tensor:
#      x y z
#    x 1.694850 0.000000 0.008810 
#    y 0.000000 1.644970 0.000000 
#    z 0.008810 0.000000 1.684680 
# 
# From -- ./inp_files/68267.got.cif
#   From: 2010.05.17/outbox.cif.g08.bks.cpg/sg13_35_cif.got.tgz:68267.got - 2010.06.03 16:44:36.
