data_PCOD9226191
_publ_section_title
;
Structure prediction by ZEFSAII (Michael W. Deem and Ramdas Pophale) SiO2 
 PCOD9226191
Probable space group: P 2/C
;
_chemical_formula_sum "Si O2"
_cell_formula_units_Z 28
_cell_length_a 12.824284
_cell_length_b 17.792900
_cell_length_c 5.474031
_cell_angle_alpha 90.000000
_cell_angle_beta 74.771494
_cell_angle_gamma 90.000000
_cell_volume 1205.211012
_symmetry_space_group_name_H-M "P 2/C"
_symmetry_group_IT_number 13
_symmetry_cell_setting 'monoclinic'
loop_
_space_group_symop_operation_xyz
x,y,z
-x,y,1/2-z
-x,-y,-z
x,-y,1/2+z
loop_
_atom_site_type_symbol
_atom_site_label
_atom_site_fract_x
_atom_site_fract_y
_atom_site_fract_z
Si Si1 0.566637 0.706710 0.457500
Si Si2 0.881306 0.877523 0.390338
Si Si3 0.778498 0.135295 0.452954
Si Si4 0.622386 0.030164 0.421587
Si Si5 0.622940 0.469064 0.910127
Si Si6 0.129047 0.303524 0.139081
Si Si7 0.803367 0.288468 0.901577
O O1 0.500000 0.725334 0.250000
O O2 0.605567 0.620021 0.409345
O O3 0.683020 0.744790 0.430752
O O4 0.500000 0.715043 0.750000
O O5 0.845537 0.899560 0.684596
O O6 0.878471 0.785283 0.391764
O O7 0.000000 0.903864 0.250000
O O8 0.808982 0.895549 0.199034
O O9 0.653929 0.115754 0.467078
O O10 0.814605 0.221453 0.424313
O O11 0.500000 0.000000 0.500000
O O12 0.667126 0.986298 0.627401
O O13 0.673534 0.502221 0.632142
O O14 0.500000 0.500000 0.000000
O O15 0.184694 0.333170 0.351567
O O16 0.000000 0.299651 0.250000
O O17 0.158030 0.335986 0.855637
#
# Coordination Sequence:
#
# PCOD9226191 Si02
#       7
#     4   4   4   4   4   4   4
#     4  12  21  32  50  71 114 154 173 217 267 313
#     4  10  19  35  60  81 105 134 169 222 260 305
#     4  10  18  32  59  79 102 132 173 214 252 313
#     4  10  21  37  57  76 102 141 175 211 250 297
#     4  10  16  30  48  69  89 140 187 229 256 298
#     4  10  19  36  60  80 105 136 173 226 265 312
#     4  10  20  32  51  80 111 139 173 213 268 326
#
# _framework density 23.232445999999999
#
# number of rings (size 3 to 8) (size 9 to 14) (size 15 to 20)
#    0.000    1.714    2.857    6.000    0.000    0.000 
#    0.000    0.000   75.429   14.571    0.000    0.000 
#    0.000   19.429    0.000    0.000    0.000    0.000 
#
# Total GULP energy -156006.408664 kJ/mol
# GULP energy per Si atom -5571.657452 kJ/mol
# Density = 2.317957 g / cm^3
# Si number density = 23.232446 Si / 1000 Ang^3
#
#
#
# Elastic Constant Matrix: (Units=GPa)
#
#
# Indices 1 2 3 4 5 6 
#
# 1 82.6116 17.5729 46.9383 0.0000 3.1834 0.0000
# 2 17.5729 15.8857 0.8689 0.0000 1.2091 0.0000
# 3 46.9383 0.8689 235.9702 0.0000 42.5125 0.0000
# 4 0.0000 0.0000 0.0000 -40.2390 0.0000 57.4657
# 5 3.1834 1.2091 42.5125 0.0000 47.2655 0.0000
# 6 0.0000 0.0000 0.0000 57.4657 0.0000 -43.6565
#
#
#
# Elastic Compliance Matrix: (Units=1/GPa)
#
#
# Indices 1 2 3 4 5 6 
#
# 1 0.018808 -0.020808 -0.004215 0.000000 0.003057 0.000000
# 2 -0.020808 0.086094 0.004733 0.000000 -0.005058 0.000000
# 3 -0.004215 0.004733 0.006002 0.000000 -0.005236 0.000000
# 4 0.000000 0.000000 0.000000 0.028246 0.000000 0.037180
# 5 0.003057 -0.005058 -0.005236 0.000000 0.025790 0.000000
# 6 0.000000 0.000000 0.000000 0.037180 0.000000 0.026035
#
#
# Mechanical properties :
#
#
# Convention : Reuss Voigt Hill
#
# Bulk Modulus (GPa) = 14.21985 51.69197 32.95591
# Shear Modulus (GPa) = 19.60808 10.61313 15.11060
#
# Velocity S-wave (km/s) = 2.90831 2.13966 2.55308
# Velocity P-wave (km/s) = 4.17273 5.32939 4.78613
#
# Compressibility (1/GPa) = 0.07032421
#
# Stress axis : x y z
#
# Youngs Moduli (GPa) = 53.16755 11.61518 166.60563
#
# Poissons Ratio (x) = 0.24169 0.70232
# Poissons Ratio (y) = 1.10632 -0.78861
# Poissons Ratio (z) = 0.22413 -0.05498
#
# Static dielectric constant tensor:
#      x y z
#    x 1.788870 0.000000 0.062690 
#    y 0.000000 1.917740 0.000000 
#    z 0.062690 0.000000 2.018690 
# 
# From -- ./inp_files/4101.got.cif
#   From: 2010.05.17/outbox.cif.g08.bks.cpg/sg13_3_cif.got.tgz:4101.got - 2010.06.03 16:44:36.
