data_PCOD9226626
_publ_section_title
;
Structure prediction by ZEFSAII (Michael W. Deem and Ramdas Pophale) SiO2 
 PCOD9226626
Probable space group: P 2/C
;
_chemical_formula_sum "Si O2"
_cell_formula_units_Z 24
_cell_length_a 17.312115
_cell_length_b 11.860105
_cell_length_c 12.999031
_cell_angle_alpha 90.000000
_cell_angle_beta 23.310153
_cell_angle_gamma 90.000000
_cell_volume 1056.147911
_symmetry_space_group_name_H-M "P 2/C"
_symmetry_group_IT_number 13
_symmetry_cell_setting 'monoclinic'
loop_
_space_group_symop_operation_xyz
x,y,z
-x,y,1/2-z
-x,-y,-z
x,-y,1/2+z
loop_
_atom_site_type_symbol
_atom_site_label
_atom_site_fract_x
_atom_site_fract_y
_atom_site_fract_z
Si Si1 0.362980 0.152643 0.726217
Si Si2 0.500000 0.958620 0.250000
Si Si3 0.500000 0.436559 0.750000
Si Si4 0.474531 0.630671 0.502742
Si Si5 0.795389 0.861764 0.376331
Si Si6 0.774053 0.367977 0.995898
Si Si7 0.212271 0.073396 0.371448
O O1 0.371676 0.122606 0.836017
O O2 0.344397 0.281882 0.716198
O O3 0.584368 0.118405 0.422017
O O4 0.213828 0.062389 0.864405
O O5 0.358411 0.048946 0.480572
O O6 0.575807 0.368948 0.557310
O O7 0.327099 0.518904 0.921944
O O8 0.500000 0.500000 0.500000
O O9 0.327644 0.667211 0.772277
O O10 0.743866 0.729949 0.447262
O O11 0.792793 0.896616 0.500796
O O12 0.013888 0.877231 0.068802
O O13 0.000000 0.380582 0.750000
#
# Coordination Sequence:
#
# PCOD9226626 Si02
#       7
#     4   2   2   4   4   4   4
#     4  10  18  35  54  83 110 155 184 244 307 358
#     4  10  22  28  56  80 122 149 187 248 308 358
#     4  10  24  38  60  94 122 161 221 258 310 376
#     4  10  21  39  64  87 121 167 210 256 313 362
#     4  10  17  35  52  88 110 151 195 239 302 374
#     4  11  20  38  66  88 124 164 205 265 309 366
#     4   9  18  31  58  78 112 142 191 231 293 372
#
# _framework density 22.724088999999999
#
# number of rings (size 3 to 8) (size 9 to 14) (size 15 to 20)
#    0.000    2.000    3.333    1.000    0.000    1.333 
#    0.000    0.000   36.667    0.000    0.000    0.000 
#    0.000    0.000    0.000    0.000    0.000    0.000 
#
# Total GULP energy -133763.653701 kJ/mol
# GULP energy per Si atom -5573.485571 kJ/mol
# Density = 2.267237 g / cm^3
# Si number density = 22.724089 Si / 1000 Ang^3
#
#
#
# Elastic Constant Matrix: (Units=GPa)
#
#
# Indices 1 2 3 4 5 6 
#
# 1 68.2171 -4.4996 4.2853 0.0000 16.9016 0.0000
# 2 -4.4996 101.6623 6.7707 0.0000 -0.5054 0.0000
# 3 4.2853 6.7707 48.7617 0.0000 -0.9120 0.0000
# 4 0.0000 0.0000 0.0000 21.5077 0.0000 -0.4992
# 5 16.9016 -0.5054 -0.9120 0.0000 29.8713 0.0000
# 6 0.0000 0.0000 0.0000 -0.4992 0.0000 18.7447
#
#
#
# Elastic Compliance Matrix: (Units=1/GPa)
#
#
# Indices 1 2 3 4 5 6 
#
# 1 0.017258 0.000836 -0.001816 0.000000 -0.009806 0.000000
# 2 0.000836 0.009969 -0.001464 0.000000 -0.000349 0.000000
# 3 -0.001816 -0.001464 0.020901 0.000000 0.001641 0.000000
# 4 0.000000 0.000000 0.000000 0.046524 0.000000 0.001239
# 5 -0.009806 -0.000349 0.001641 0.000000 0.039070 0.000000
# 6 0.000000 0.000000 0.000000 0.001239 0.000000 0.053382
#
#
# Mechanical properties :
#
#
# Convention : Reuss Voigt Hill
#
# Bulk Modulus (GPa) = 23.12677 25.75043 24.43860
# Shear Modulus (GPa) = 24.22414 28.16371 26.19392
#
# Velocity S-wave (km/s) = 3.26853 3.52430 3.39882
# Velocity P-wave (km/s) = 4.94405 5.28368 5.11668
#
# Compressibility (1/GPa) = 0.04323993
#
# Stress axis : x y z
#
# Youngs Moduli (GPa) = 57.94448 100.30813 47.84346
#
# Poissons Ratio (x) = -0.08386 0.08689
# Poissons Ratio (y) = -0.04844 0.07006
# Poissons Ratio (z) = 0.10524 0.14688
#
# Static dielectric constant tensor:
#      x y z
#    x 1.942380 0.000000 0.040250 
#    y 0.000000 1.925930 0.000000 
#    z 0.040250 0.000000 1.863410 
# 
# From -- ./inp_files/57698.got.cif
#   From: 2010.05.17/outbox.cif.g08.bks.cpg/sg13_29_cif.got.tgz:57698.got - 2010.06.03 16:44:36.
