data_PCOD9226202
_publ_section_title
;
Structure prediction by ZEFSAII (Michael W. Deem and Ramdas Pophale) SiO2 
 PCOD9226202
Probable space group: P 2/C
;
_chemical_formula_sum "Si O2"
_cell_formula_units_Z 28
_cell_length_a 21.054447
_cell_length_b 12.521085
_cell_length_c 5.355746
_cell_angle_alpha 90.000000
_cell_angle_beta 67.472547
_cell_angle_gamma 90.000000
_cell_volume 1304.171991
_symmetry_space_group_name_H-M "P 2/C"
_symmetry_group_IT_number 13
_symmetry_cell_setting 'monoclinic'
loop_
_space_group_symop_operation_xyz
x,y,z
-x,y,1/2-z
-x,-y,-z
x,-y,1/2+z
loop_
_atom_site_type_symbol
_atom_site_label
_atom_site_fract_x
_atom_site_fract_y
_atom_site_fract_z
Si Si1 0.828850 0.564355 0.147730
Si Si2 0.956302 0.713742 0.072971
Si Si3 0.673374 0.572391 0.439591
Si Si4 0.588932 0.256136 0.797847
Si Si5 0.500000 0.430284 0.750000
Si Si6 0.358976 0.961985 0.413562
Si Si7 0.500000 0.102001 0.250000
Si Si8 0.921319 0.956710 0.142903
O O1 0.833268 0.471580 0.352301
O O2 0.891481 0.640050 0.118720
O O3 0.752459 0.609939 0.305341
O O4 0.928719 0.831764 0.174193
O O5 0.000000 0.677539 0.250000
O O6 0.000000 0.718695 0.750000
O O7 0.664048 0.508567 0.714613
O O8 0.625596 0.675537 0.461404
O O9 0.562978 0.348489 0.657107
O O10 0.633039 0.165007 0.598579
O O11 0.526814 0.183826 0.999857
O O12 0.500000 0.500000 0.500000
O O13 0.323839 0.004585 0.711709
O O14 0.433495 0.028128 0.286516
O O15 0.888329 0.014798 0.428316
O O16 0.000000 0.000000 0.000000
#
# Coordination Sequence:
#
# PCOD9226202 Si02
#       8
#     4   4   4   4   2   4   2   4
#     4  10  23  42  58  80 116 152 192 241 281 337
#     4  12  21  32  59  90 114 149 190 231 291 347
#     4  10  23  43  62  79 108 157 201 229 281 342
#     4  11  21  37  60  82 113 151 189 231 283 342
#     4  12  24  34  48  80 114 132 172 236 282 314
#     4  10  20  34  53  80 110 142 179 219 277 345
#     4  10  20  36  56  88 116 146 180 228 294 346
#     4  10  16  30  48  77 115 149 180 213 271 332
#
# _framework density 21.469563000000001
#
# number of rings (size 3 to 8) (size 9 to 14) (size 15 to 20)
#    0.000    1.429    2.857    5.143    0.000    6.286 
#    0.000    0.000    0.000    3.429    0.000    0.000 
#    0.000    0.000    0.000    0.000    0.000    0.000 
#
# Total GULP energy -156264.261944 kJ/mol
# GULP energy per Si atom -5580.866498 kJ/mol
# Density = 2.142070 g / cm^3
# Si number density = 21.469563 Si / 1000 Ang^3
#
#
#
# Elastic Constant Matrix: (Units=GPa)
#
#
# Indices 1 2 3 4 5 6 
#
# 1 60.4269 26.4152 23.1055 0.0000 16.8518 0.0000
# 2 26.4152 86.3029 27.7406 0.0000 9.1762 0.0000
# 3 23.1055 27.7406 102.0311 0.0000 39.6323 0.0000
# 4 0.0000 0.0000 0.0000 25.4860 0.0000 9.0519
# 5 16.8518 9.1762 39.6323 0.0000 29.8208 0.0000
# 6 0.0000 0.0000 0.0000 9.0519 0.0000 7.9383
#
#
#
# Elastic Compliance Matrix: (Units=1/GPa)
#
#
# Indices 1 2 3 4 5 6 
#
# 1 0.022086 -0.005904 0.001542 0.000000 -0.012713 0.000000
# 2 -0.005904 0.014303 -0.004420 0.000000 0.004809 0.000000
# 3 0.001542 -0.004420 0.021630 0.000000 -0.028257 0.000000
# 4 0.000000 0.000000 0.000000 0.065944 0.000000 -0.075194
# 5 -0.012713 0.004809 -0.028257 0.000000 0.076793 0.000000
# 6 0.000000 0.000000 0.000000 -0.075194 0.000000 0.211712
#
#
# Mechanical properties :
#
#
# Convention : Reuss Voigt Hill
#
# Bulk Modulus (GPa) = 24.71869 44.80929 34.76399
# Shear Modulus (GPa) = 11.27357 24.08233 17.67795
#
# Velocity S-wave (km/s) = 2.29398 3.35281 2.87260
# Velocity P-wave (km/s) = 4.30753 5.99206 5.21822
#
# Compressibility (1/GPa) = 0.04045521
#
# Stress axis : x y z
#
# Youngs Moduli (GPa) = 45.27841 69.91310 46.23315
#
# Poissons Ratio (x) = 0.41275 -0.07129
# Poissons Ratio (y) = 0.26731 0.20435
# Poissons Ratio (z) = -0.06982 0.30901
#
# Static dielectric constant tensor:
#      x y z
#    x 1.816010 0.000000 0.037820 
#    y 0.000000 1.754570 0.000000 
#    z 0.037820 0.000000 1.921800 
# 
# From -- ./inp_files/6909.got.cif
#   From: 2010.05.17/outbox.cif.g08.bks.cpg/sg13_4_cif.got.tgz:6909.got - 2010.06.03 16:44:36.
