data_PCOD9226934
_publ_section_title
;
Structure prediction by ZEFSAII (Michael W. Deem and Ramdas Pophale) SiO2 
 PCOD9226934
Probable space group: P 2/C
;
_chemical_formula_sum "Si O2"
_cell_formula_units_Z 14
_cell_length_a 8.421869
_cell_length_b 13.325826
_cell_length_c 5.896539
_cell_angle_alpha 90.000000
_cell_angle_beta 54.700140
_cell_angle_gamma 90.000000
_cell_volume 540.087254
_symmetry_space_group_name_H-M "P 2/C"
_symmetry_group_IT_number 13
_symmetry_cell_setting 'monoclinic'
loop_
_space_group_symop_operation_xyz
x,y,z
-x,y,1/2-z
-x,-y,-z
x,-y,1/2+z
loop_
_atom_site_type_symbol
_atom_site_label
_atom_site_fract_x
_atom_site_fract_y
_atom_site_fract_z
Si Si1 0.693228 0.241772 0.953172
Si Si2 0.269980 0.535448 0.182288
Si Si3 0.500000 0.900986 0.250000
Si Si4 0.866748 0.094130 0.176333
O O1 0.769734 0.345372 0.793873
O O2 0.622132 0.170410 0.812793
O O3 0.500000 0.272694 0.250000
O O4 0.813693 0.172177 0.025657
O O5 0.198845 0.500660 0.490758
O O6 0.500000 0.500000 0.000000
O O7 0.332550 0.949025 0.546657
O O8 0.000000 0.149791 0.250000
O O9 0.000000 0.000000 0.000000
#
# Coordination Sequence:
#
# PCOD9226934 Si02
#       4
#     4   4   2   4
#     4  10  21  41  68 110 149 203 259 317 392 485
#     4  10  18  31  64 110 155 196 256 320 399 479
#     4  10  24  46  76 104 148 200 266 324 396 478
#     4  11  28  48  73 106 150 208 266 327 398 472
#
# _framework density 25.921738000000001
#
# number of rings (size 3 to 8) (size 9 to 14) (size 15 to 20)
#    0.000    1.714    2.857    1.714    8.000    1.143 
#    2.571    0.000    0.000    1.714    0.000    0.000 
#    0.000    0.000    0.000    2.857    0.000    0.286 
#
# Total GULP energy -78352.674250 kJ/mol
# GULP energy per Si atom -5596.619589 kJ/mol
# Density = 2.586274 g / cm^3
# Si number density = 25.921738 Si / 1000 Ang^3
#
#
#
# Elastic Constant Matrix: (Units=GPa)
#
#
# Indices 1 2 3 4 5 6 
#
# 1 188.1717 86.2351 76.3145 0.0000 48.3918 0.0000
# 2 86.2351 196.1102 65.1539 0.0000 23.1832 0.0000
# 3 76.3145 65.1539 193.3883 0.0000 -8.4404 0.0000
# 4 0.0000 0.0000 0.0000 12.7908 0.0000 -5.8600
# 5 48.3918 23.1832 -8.4404 0.0000 77.5644 0.0000
# 6 0.0000 0.0000 0.0000 -5.8600 0.0000 14.3723
#
#
#
# Elastic Compliance Matrix: (Units=1/GPa)
#
#
# Indices 1 2 3 4 5 6 
#
# 1 0.008914 -0.002322 -0.002962 0.000000 -0.005190 0.000000
# 2 -0.002322 0.006652 -0.001354 0.000000 -0.000687 0.000000
# 3 -0.002962 -0.001354 0.006927 0.000000 0.003007 0.000000
# 4 0.000000 0.000000 0.000000 0.096140 0.000000 0.039200
# 5 -0.005190 -0.000687 0.003007 0.000000 0.016663 0.000000
# 6 0.000000 0.000000 0.000000 0.039200 0.000000 0.085561
#
#
# Mechanical properties :
#
#
# Convention : Reuss Voigt Hill
#
# Bulk Modulus (GPa) = 108.50880 114.78635 111.64757
# Shear Modulus (GPa) = 21.07861 44.27661 32.67761
#
# Velocity S-wave (km/s) = 2.85470 4.13739 3.55438
# Velocity P-wave (km/s) = 7.26751 8.19768 7.74657
#
# Compressibility (1/GPa) = 0.00921584
#
# Stress axis : x y z
#
# Youngs Moduli (GPa) = 112.17704 150.34093 144.35620
#
# Poissons Ratio (x) = 0.34915 0.42757
# Poissons Ratio (y) = 0.26052 0.19552
# Poissons Ratio (z) = 0.33226 0.20363
#
# Static dielectric constant tensor:
#      x y z
#    x 2.088370 0.000000 -0.014010 
#    y 0.000000 1.933990 0.000000 
#    z -0.014010 0.000000 2.221780 
# 
# From -- ./inp_files/990.got.cif
#   From: 2010.05.17/outbox.cif.g08.bks.cpg/sg13_1_cif.got.tgz:990.got - 2010.06.03 16:44:36.
