data_PCOD9226382
_publ_section_title
;
Structure prediction by ZEFSAII (Michael W. Deem and Ramdas Pophale) SiO2 
 PCOD9226382
Probable space group: P 2/C
;
_chemical_formula_sum "Si O2"
_cell_formula_units_Z 26
_cell_length_a 18.941374
_cell_length_b 14.291987
_cell_length_c 9.039923
_cell_angle_alpha 90.000000
_cell_angle_beta 30.761722
_cell_angle_gamma 90.000000
_cell_volume 1251.664843
_symmetry_space_group_name_H-M "P 2/C"
_symmetry_group_IT_number 13
_symmetry_cell_setting 'monoclinic'
loop_
_space_group_symop_operation_xyz
x,y,z
-x,y,1/2-z
-x,-y,-z
x,-y,1/2+z
loop_
_atom_site_type_symbol
_atom_site_label
_atom_site_fract_x
_atom_site_fract_y
_atom_site_fract_z
Si Si1 0.500000 0.507238 0.750000
Si Si2 0.206799 0.332119 0.500953
Si Si3 0.106779 0.676148 0.842320
Si Si4 0.772039 0.996655 0.179428
Si Si5 0.925996 0.884152 0.652378
Si Si6 0.313394 0.459028 0.832158
Si Si7 0.740461 0.130703 0.988417
O O1 0.419874 0.445459 0.774501
O O2 0.612272 0.565067 0.455091
O O3 0.174076 0.320625 0.385065
O O4 0.283212 0.430195 0.382995
O O5 0.279883 0.239949 0.437308
O O6 0.055742 0.341468 0.846743
O O7 0.124775 0.778460 0.742780
O O8 0.178452 0.598718 0.612846
O O9 0.693348 0.920429 0.422514
O O10 0.855256 0.065161 0.140108
O O11 0.873998 0.939118 0.888868
O O12 0.692306 0.065868 0.211679
O O13 0.090534 0.879193 0.329011
#
# Coordination Sequence:
#
# PCOD9226382 Si02
#       7
#     2   4   4   4   4   4   4
#     4  10  24  38  62  78 100 136 190 234 276 312
#     4  10  20  34  54  82 115 149 178 215 272 333
#     4  10  20  34  54  82 115 149 178 215 272 333
#     4  10  17  26  42  66 106 151 182 213 246 300
#     4  10  17  27  44  70 105 147 184 209 251 314
#     4  11  21  42  58  80 107 141 180 232 272 325
#     4  10  17  27  44  70 105 147 184 209 251 314
#
# _framework density 20.772333
#
# number of rings (size 3 to 8) (size 9 to 14) (size 15 to 20)
#    0.000    1.846    3.077    4.154    0.000    1.231 
#    0.000    1.538    0.000    0.000    0.000    0.000 
#    0.000   86.154    0.000    0.000    0.000    0.000 
#
# Total GULP energy -145089.676052 kJ/mol
# GULP energy per Si atom -5580.372156 kJ/mol
# Density = 2.072505 g / cm^3
# Si number density = 20.772333 Si / 1000 Ang^3
#
#
#
# Elastic Constant Matrix: (Units=GPa)
#
#
# Indices 1 2 3 4 5 6 
#
# 1 42.8403 19.0321 19.8412 0.0000 21.5084 0.0000
# 2 19.0321 152.9448 43.7234 0.0000 8.1279 0.0000
# 3 19.8412 43.7234 76.4209 0.0000 26.7151 0.0000
# 4 0.0000 0.0000 0.0000 2.7363 0.0000 11.2748
# 5 21.5084 8.1279 26.7151 0.0000 26.0353 0.0000
# 6 0.0000 0.0000 0.0000 11.2748 0.0000 11.9939
#
#
#
# Elastic Compliance Matrix: (Units=1/GPa)
#
#
# Indices 1 2 3 4 5 6 
#
# 1 0.042704 -0.004763 0.005381 0.000000 -0.039313 0.000000
# 2 -0.004763 0.008540 -0.006382 0.000000 0.007818 0.000000
# 3 0.005381 -0.006382 0.025258 0.000000 -0.028370 0.000000
# 4 0.000000 0.000000 0.000000 -0.127185 0.000000 0.119559
# 5 -0.039313 0.007818 -0.028370 0.000000 0.097557 0.000000
# 6 0.000000 0.000000 0.000000 0.119559 0.000000 -0.029016
#
#
# Mechanical properties :
#
#
# Convention : Reuss Voigt Hill
#
# Bulk Modulus (GPa) = 15.39116 48.59996 31.99556
# Shear Modulus (GPa) = 97.95372 20.79373 59.37372
#
# Velocity S-wave (km/s) = 6.87446 3.16734 5.35211
# Velocity P-wave (km/s) = 8.39265 6.06822 7.32324
#
# Compressibility (1/GPa) = 0.06497236
#
# Stress axis : x y z
#
# Youngs Moduli (GPa) = 23.41706 117.09388 39.59216
#
# Poissons Ratio (x) = 0.55773 -0.21304
# Poissons Ratio (y) = 0.11154 0.25270
# Poissons Ratio (z) = -0.12601 0.74735
#
# Static dielectric constant tensor:
#      x y z
#    x 1.791600 0.000000 0.009410 
#    y 0.000000 1.752130 0.000000 
#    z 0.009410 0.000000 1.750730 
# 
# From -- ./inp_files/23518.got.cif
#   From: 2010.05.17/outbox.cif.g08.bks.cpg/sg13_12_cif.got.tgz:23518.got - 2010.06.03 16:44:36.
