data_PCOD9226996
_publ_section_title
;
Structure prediction by ZEFSAII (Michael W. Deem and Ramdas Pophale) SiO2 
 PCOD9226996
Probable space group: P 2/C
;
_chemical_formula_sum "Si O2"
_cell_formula_units_Z 22
_cell_length_a 25.348197
_cell_length_b 7.113551
_cell_length_c 5.403536
_cell_angle_alpha 90.000000
_cell_angle_beta 78.021975
_cell_angle_gamma 90.000000
_cell_volume 953.128242
_symmetry_space_group_name_H-M "P 2/C"
_symmetry_group_IT_number 13
_symmetry_cell_setting 'monoclinic'
loop_
_space_group_symop_operation_xyz
x,y,z
-x,y,1/2-z
-x,-y,-z
x,-y,1/2+z
loop_
_atom_site_type_symbol
_atom_site_label
_atom_site_fract_x
_atom_site_fract_y
_atom_site_fract_z
Si Si1 0.115486 0.282775 0.716948
Si Si2 0.671262 0.287122 0.995559
Si Si3 0.841110 0.709763 0.825144
Si Si4 0.714973 0.287775 0.452671
Si Si5 0.560547 0.877980 0.714964
Si Si6 0.000000 0.125604 0.750000
O O1 0.133995 0.499825 0.725371
O O2 0.150316 0.205448 0.454413
O O3 0.053585 0.252221 0.708244
O O4 0.127575 0.200041 0.975740
O O5 0.683648 0.201000 0.715153
O O6 0.691096 0.501483 0.949189
O O7 0.705005 0.203825 0.191556
O O8 0.608959 0.266761 0.126567
O O9 0.778144 0.700229 0.947793
O O10 0.500000 0.798082 0.750000
O O11 0.565432 0.026372 0.481247
O O12 0.000000 0.000000 0.500000
#
# Coordination Sequence:
#
# PCOD9226996 Si02
#       6
#     4   4   4   4   4   2
#     4  10  20  35  59  83 106 138 180 220 263 315
#     4  10  18  32  54  80 109 142 175 215 273 325
#     4  10  19  35  62  87 106 133 173 228 271 311
#     4  10  19  33  57  85 114 137 161 217 285 329
#     4  10  21  37  55  74 103 146 191 228 257 299
#     4  12  26  42  56  76 112 152 180 214 262 314
#
# _framework density 23.081890000000001
#
# number of rings (size 3 to 8) (size 9 to 14) (size 15 to 20)
#    0.000    1.818    0.000    7.636    0.000    2.909 
#    0.000    3.636    0.000   37.091    0.000    0.000 
#    0.000    0.000    0.000    0.000    0.000    0.000 
#
# Total GULP energy -122877.692776 kJ/mol
# GULP energy per Si atom -5585.349672 kJ/mol
# Density = 2.302935 g / cm^3
# Si number density = 23.081890 Si / 1000 Ang^3
#
#
#
# Elastic Constant Matrix: (Units=GPa)
#
#
# Indices 1 2 3 4 5 6 
#
# 1 112.2880 -16.5466 -10.1562 0.0000 -18.2848 0.0000
# 2 -16.5466 57.2375 -26.9857 0.0000 -1.6767 0.0000
# 3 -10.1562 -26.9857 144.7812 0.0000 28.5796 0.0000
# 4 0.0000 0.0000 0.0000 -7.2203 0.0000 5.9876
# 5 -18.2848 -1.6767 28.5796 0.0000 60.4323 0.0000
# 6 0.0000 0.0000 0.0000 5.9876 0.0000 -17.2548
#
#
#
# Elastic Compliance Matrix: (Units=1/GPa)
#
#
# Indices 1 2 3 4 5 6 
#
# 1 0.009907 0.003309 0.000774 0.000000 0.002723 0.000000
# 2 0.003309 0.020349 0.004098 0.000000 -0.000373 0.000000
# 3 0.000774 0.004098 0.008445 0.000000 -0.003646 0.000000
# 4 0.000000 0.000000 0.000000 -0.194458 0.000000 -0.067479
# 5 0.002723 -0.000373 -0.003646 0.000000 0.019085 0.000000
# 6 0.000000 0.000000 0.000000 -0.067479 0.000000 -0.081371
#
#
# Mechanical properties :
#
#
# Convention : Reuss Voigt Hill
#
# Bulk Modulus (GPa) = 18.16109 22.99219 20.57664
# Shear Modulus (GPa) = -23.14269 31.72447 4.29089
#
# Velocity S-wave (km/s) = -3.16987 3.71135 1.36493
# Velocity P-wave (km/s) = 2.34783 5.32431 3.37905
#
# Compressibility (1/GPa) = 0.05506277
#
# Stress axis : x y z
#
# Youngs Moduli (GPa) = 100.94213 49.14268 118.41511
#
# Poissons Ratio (x) = -0.16259 -0.09166
# Poissons Ratio (y) = -0.33398 -0.48532
# Poissons Ratio (z) = -0.07814 -0.20141
#
# Static dielectric constant tensor:
#      x y z
#    x 1.828630 0.000000 0.050590 
#    y 0.000000 1.318640 0.000000 
#    z 0.050590 0.000000 1.958790 
# 
# From -- ./inp_files/6719.got.cif
#   From: 2010.05.17/outbox.cif.g08.bks.cpg/sg13_4_cif.got.tgz:6719.got - 2010.06.03 16:44:36.
