data_PCOD9226662
_publ_section_title
;
Structure prediction by ZEFSAII (Michael W. Deem and Ramdas Pophale) SiO2 
 PCOD9226662
Probable space group: P 2/C
;
_chemical_formula_sum "Si O2"
_cell_formula_units_Z 26
_cell_length_a 12.132814
_cell_length_b 14.001740
_cell_length_c 7.239324
_cell_angle_alpha 90.000000
_cell_angle_beta 60.250320
_cell_angle_gamma 90.000000
_cell_volume 1067.731702
_symmetry_space_group_name_H-M "P 2/C"
_symmetry_group_IT_number 13
_symmetry_cell_setting 'monoclinic'
loop_
_space_group_symop_operation_xyz
x,y,z
-x,y,1/2-z
-x,-y,-z
x,-y,1/2+z
loop_
_atom_site_type_symbol
_atom_site_label
_atom_site_fract_x
_atom_site_fract_y
_atom_site_fract_z
Si Si1 0.176098 0.561195 0.722906
Si Si2 0.095885 0.630137 0.405153
Si Si3 0.285081 0.071856 0.906107
Si Si4 0.390582 0.680467 0.697181
Si Si5 0.758117 0.868096 0.636928
Si Si6 0.962412 0.160544 0.500833
Si Si7 0.500000 0.212319 0.750000
O O1 0.173930 0.612356 0.527661
O O2 0.152844 0.448286 0.721368
O O3 0.301203 0.591569 0.724252
O O4 0.049413 0.600806 0.928758
O O5 0.092230 0.741270 0.371649
O O6 0.397458 0.139665 0.743566
O O7 0.307605 0.959150 0.901981
O O8 0.264121 0.112313 0.127740
O O9 0.153420 0.086672 0.905461
O O10 0.500000 0.657142 0.750000
O O11 0.303955 0.766350 0.852039
O O12 0.445900 0.722362 0.459043
O O13 0.910617 0.867278 0.496825
O O14 0.000000 0.177242 0.250000
#
# Coordination Sequence:
#
# PCOD9226662 Si02
#       7
#     4   4   4   4   4   4   2
#     4  10  20  39  65  99 121 165 212 278 325 397
#     4  10  18  37  70  90 127 159 219 266 344 394
#     4  10  22  35  61  89 126 171 220 264 325 397
#     4  11  24  44  69  94 137 175 225 270 328 398
#     4  10  21  37  61  92 127 168 222 271 330 381
#     4  10  17  37  62  88 123 172 206 272 339 387
#     4  10  24  42  64  96 130 192 220 258 336 398
#
# _framework density 24.350687000000001
#
# number of rings (size 3 to 8) (size 9 to 14) (size 15 to 20)
#    0.000    1.846    3.077    2.308    3.231    1.231 
#    5.538    0.769    5.077    0.000    0.000    0.000 
#    0.000    0.000    0.000    0.000    0.000    0.000 
#
# Total GULP energy -145553.884422 kJ/mol
# GULP energy per Si atom -5598.226324 kJ/mol
# Density = 2.429526 g / cm^3
# Si number density = 24.350687 Si / 1000 Ang^3
#
#
#
# Elastic Constant Matrix: (Units=GPa)
#
#
# Indices 1 2 3 4 5 6 
#
# 1 128.3452 -2.1432 17.2651 0.0000 4.4109 0.0000
# 2 -2.1432 85.0342 11.5958 0.0000 0.6253 0.0000
# 3 17.2651 11.5958 65.2687 0.0000 -6.0230 0.0000
# 4 0.0000 0.0000 0.0000 -2.9820 0.0000 -3.0085
# 5 4.4109 0.6253 -6.0230 0.0000 24.0786 0.0000
# 6 0.0000 0.0000 0.0000 -3.0085 0.0000 35.8670
#
#
#
# Elastic Compliance Matrix: (Units=1/GPa)
#
#
# Indices 1 2 3 4 5 6 
#
# 1 0.008206 0.000559 -0.002467 0.000000 -0.002135 0.000000
# 2 0.000559 0.012108 -0.002393 0.000000 -0.001015 0.000000
# 3 -0.002467 -0.002393 0.016835 0.000000 0.004725 0.000000
# 4 0.000000 0.000000 0.000000 -0.309184 0.000000 -0.025934
# 5 -0.002135 -0.001015 0.004725 0.000000 0.043130 0.000000
# 6 0.000000 0.000000 0.000000 -0.025934 0.000000 0.025705
#
#
# Mechanical properties :
#
#
# Convention : Reuss Voigt Hill
#
# Bulk Modulus (GPa) = 35.02945 36.89818 35.96381
# Shear Modulus (GPa) = -27.01506 28.18808 0.58651
#
# Velocity S-wave (km/s) = -3.33440 3.40603 0.49131
# Velocity P-wave (km/s) = 0.63852 5.53658 3.88883
#
# Compressibility (1/GPa) = 0.02854741
#
# Stress axis : x y z
#
# Youngs Moduli (GPa) = 121.86125 82.59142 59.40016
#
# Poissons Ratio (x) = -0.04616 0.14654
# Poissons Ratio (y) = -0.06811 0.14212
# Poissons Ratio (z) = 0.30063 0.19761
#
# Static dielectric constant tensor:
#      x y z
#    x 1.464470 0.000000 0.070900 
#    y 0.000000 1.945890 0.000000 
#    z 0.070900 0.000000 2.001070 
# 
# From -- ./inp_files/16426.got.cif
#   From: 2010.05.17/outbox.cif.g08.bks.cpg/sg13_9_cif.got.tgz:16426.got - 2010.06.03 16:44:36.
