data_PCOD9226249
_publ_section_title
;
Structure prediction by ZEFSAII (Michael W. Deem and Ramdas Pophale) SiO2 
 PCOD9226249
Probable space group: P 2/C
;
_chemical_formula_sum "Si O2"
_cell_formula_units_Z 30
_cell_length_a 7.250636
_cell_length_b 11.908534
_cell_length_c 24.382043
_cell_angle_alpha 90.000000
_cell_angle_beta 40.627913
_cell_angle_gamma 90.000000
_cell_volume 1370.823575
_symmetry_space_group_name_H-M "P 2/C"
_symmetry_group_IT_number 13
_symmetry_cell_setting 'monoclinic'
loop_
_space_group_symop_operation_xyz
x,y,z
-x,y,1/2-z
-x,-y,-z
x,-y,1/2+z
loop_
_atom_site_type_symbol
_atom_site_label
_atom_site_fract_x
_atom_site_fract_y
_atom_site_fract_z
Si Si1 0.430433 0.792814 0.969484
Si Si2 0.151067 0.557531 0.044122
Si Si3 0.384049 0.394421 0.909439
Si Si4 0.051067 0.022843 0.903333
Si Si5 0.500000 0.158972 0.750000
Si Si6 0.767321 0.381096 0.725506
Si Si7 0.307537 0.844605 0.472130
Si Si8 0.213922 0.970728 0.653727
O O1 0.638602 0.848652 0.878344
O O2 0.320178 0.668236 0.987614
O O3 0.165005 0.877126 0.033743
O O4 0.595188 0.801715 0.990052
O O5 0.858436 0.556692 0.075677
O O6 0.043717 0.573053 0.131451
O O7 0.335185 0.454181 0.979260
O O8 0.677925 0.403608 0.808721
O O9 0.315084 0.263017 0.932184
O O10 0.957113 0.982838 0.864242
O O11 0.355312 0.079114 0.827450
O O12 0.983539 0.915115 0.956208
O O13 0.734796 0.245748 0.721655
O O14 0.500000 0.425881 0.750000
O O15 0.542054 0.936156 0.403544
O O16 0.000000 0.990311 0.750000
#
# Coordination Sequence:
#
# PCOD9226249 Si02
#       8
#     4   4   4   4   2   4   4   4
#     4   9  17  37  52  72 103 148 168 207 279 322
#     4  10  19  35  57  73 111 138 178 224 272 308
#     4  10  20  34  53  84 102 140 185 224 258 315
#     4   9  17  33  50  77 106 138 165 219 274 307
#     4  10  16  30  58  76 108 134 180 214 264 332
#     4   8  17  31  52  77 101 139 172 217 263 313
#     4   9  20  33  53  75 112 134 179 218 260 321
#     4   9  19  31  52  75 105 139 174 216 263 321
#
# _framework density 21.884656
#
# number of rings (size 3 to 8) (size 9 to 14) (size 15 to 20)
#    0.400    2.400    1.333    1.600    1.867    0.533 
#    2.400    4.667    4.400    0.800    0.000    0.000 
#    0.000    0.000    0.000    0.000    0.000    0.000 
#
# Total GULP energy -167330.651068 kJ/mol
# GULP energy per Si atom -5577.688369 kJ/mol
# Density = 2.183485 g / cm^3
# Si number density = 21.884656 Si / 1000 Ang^3
#
#
#
# Elastic Constant Matrix: (Units=GPa)
#
#
# Indices 1 2 3 4 5 6 
#
# 1 38.7368 4.2680 21.0982 0.0000 -2.8816 0.0000
# 2 4.2680 97.2537 72.9271 0.0000 -3.2272 0.0000
# 3 21.0982 72.9271 156.4011 0.0000 -0.5580 0.0000
# 4 0.0000 0.0000 0.0000 -29.9666 0.0000 7.0097
# 5 -2.8816 -3.2272 -0.5580 0.0000 24.8459 0.0000
# 6 0.0000 0.0000 0.0000 7.0097 0.0000 20.9593
#
#
#
# Elastic Compliance Matrix: (Units=1/GPa)
#
#
# Indices 1 2 3 4 5 6 
#
# 1 0.028556 0.002681 -0.005090 0.000000 0.003546 0.000000
# 2 0.002681 0.016151 -0.007885 0.000000 0.002232 0.000000
# 3 -0.005090 -0.007885 0.010752 0.000000 -0.001373 0.000000
# 4 0.000000 0.000000 0.000000 -0.030949 0.000000 0.010351
# 5 0.003546 0.002232 -0.001373 0.000000 0.040918 0.000000
# 6 0.000000 0.000000 0.000000 0.010351 0.000000 0.044250
#
#
# Mechanical properties :
#
#
# Convention : Reuss Voigt Hill
#
# Bulk Modulus (GPa) = 28.67607 54.33091 41.50349
# Shear Modulus (GPa) = 35.23892 16.10761 25.67327
#
# Velocity S-wave (km/s) = 4.01710 2.71592 3.42880
# Velocity P-wave (km/s) = 5.88624 5.89193 5.88909
#
# Compressibility (1/GPa) = 0.03487228
#
# Stress axis : x y z
#
# Youngs Moduli (GPa) = 35.01935 61.91452 93.00583
#
# Poissons Ratio (x) = -0.16599 0.47336
# Poissons Ratio (y) = -0.09389 0.73333
# Poissons Ratio (z) = 0.17823 0.48818
#
# Static dielectric constant tensor:
#      x y z
#    x 1.876090 0.000000 0.018070 
#    y 0.000000 1.769720 0.000000 
#    z 0.018070 0.000000 1.815940 
# 
# From -- ./inp_files/85205.got.cif
#   From: 2010.05.17/outbox.cif.g08.bks.cpg/sg13_43_cif.got.tgz:85205.got - 2010.06.03 16:44:36.
