data_PCOD9226476
_publ_section_title
;
Structure prediction by ZEFSAII (Michael W. Deem and Ramdas Pophale) SiO2 
 PCOD9226476
Probable space group: P 2/C
;
_chemical_formula_sum "Si O2"
_cell_formula_units_Z 28
_cell_length_a 8.599367
_cell_length_b 12.549887
_cell_length_c 19.076577
_cell_angle_alpha 90.000000
_cell_angle_beta 45.300301
_cell_angle_gamma 90.000000
_cell_volume 1463.376595
_symmetry_space_group_name_H-M "P 2/C"
_symmetry_group_IT_number 13
_symmetry_cell_setting 'monoclinic'
loop_
_space_group_symop_operation_xyz
x,y,z
-x,y,1/2-z
-x,-y,-z
x,-y,1/2+z
loop_
_atom_site_type_symbol
_atom_site_label
_atom_site_fract_x
_atom_site_fract_y
_atom_site_fract_z
Si Si1 0.249934 0.383176 0.811131
Si Si2 0.743210 0.009830 0.594530
Si Si3 0.405907 0.583324 0.118030
Si Si4 0.234831 0.585869 0.015204
Si Si5 0.677076 0.167138 0.011584
Si Si6 0.830453 0.860150 0.193510
Si Si7 0.516625 0.828680 0.414323
O O1 0.500000 0.414324 0.750000
O O2 0.233963 0.417548 0.735177
O O3 0.241496 0.254295 0.815715
O O4 0.024867 0.423578 0.917620
O O5 0.727357 0.044233 0.680727
O O6 0.660171 0.107191 0.573317
O O7 0.639251 0.904754 0.592035
O O8 0.000000 0.000000 0.500000
O O9 0.285601 0.569950 0.082102
O O10 0.507681 0.701913 0.085238
O O11 0.599144 0.499073 0.070064
O O12 0.307652 0.707414 0.976141
O O13 0.516280 0.146688 0.997033
O O14 0.911577 0.138104 0.902060
O O15 0.740667 0.858290 0.301063
#
# Coordination Sequence:
#
# PCOD9226476 Si02
#       7
#     4   4   4   4   4   4   4
#     4  10  18  29  48  76 103 129 166 209 249 293
#     4  10  19  30  45  69  99 128 156 196 250 295
#     4   9  18  32  53  76  99 132 171 209 250 294
#     4   9  18  33  51  74 104 135 165 204 253 302
#     4   9  18  30  49  74 100 126 161 203 246 299
#     4   9  17  30  48  71  97 126 160 203 250 290
#     4  10  17  30  51  74  95 124 169 211 242 284
#
# _framework density 19.133832000000002
#
# number of rings (size 3 to 8) (size 9 to 14) (size 15 to 20)
#    0.000    2.571    0.000    3.429    0.000    4.000 
#    0.000    0.000    0.000    6.857    0.000   12.000 
#    0.000    0.000    0.000    0.000    0.000    0.000 
#
# Total GULP energy -155874.191017 kJ/mol
# GULP energy per Si atom -5566.935393 kJ/mol
# Density = 1.909028 g / cm^3
# Si number density = 19.133832 Si / 1000 Ang^3
#
#
#
# Elastic Constant Matrix: (Units=GPa)
#
#
# Indices 1 2 3 4 5 6 
#
# 1 63.2540 27.7868 8.5953 0.0000 -3.5396 0.0000
# 2 27.7868 65.9310 33.4536 0.0000 12.1443 0.0000
# 3 8.5953 33.4536 41.2532 0.0000 4.8408 0.0000
# 4 0.0000 0.0000 0.0000 26.2744 0.0000 -0.0660
# 5 -3.5396 12.1443 4.8408 0.0000 32.9339 0.0000
# 6 0.0000 0.0000 0.0000 -0.0660 0.0000 23.7897
#
#
#
# Elastic Compliance Matrix: (Units=1/GPa)
#
#
# Indices 1 2 3 4 5 6 
#
# 1 0.020975 -0.012552 0.005089 0.000000 0.006135 0.000000
# 2 -0.012552 0.034748 -0.024321 0.000000 -0.010588 0.000000
# 3 0.005089 -0.024321 0.042520 0.000000 0.003265 0.000000
# 4 0.000000 0.000000 0.000000 0.038060 0.000000 0.000106
# 5 0.006135 -0.010588 0.003265 0.000000 0.034447 0.000000
# 6 0.000000 0.000000 0.000000 0.000106 0.000000 0.042035
#
#
# Mechanical properties :
#
#
# Convention : Reuss Voigt Hill
#
# Bulk Modulus (GPa) = 28.83951 34.45662 31.64806
# Shear Modulus (GPa) = 17.36644 23.30644 20.33644
#
# Velocity S-wave (km/s) = 3.01596 3.49388 3.26368
# Velocity P-wave (km/s) = 5.21855 5.85863 5.54783
#
# Compressibility (1/GPa) = 0.03467466
#
# Stress axis : x y z
#
# Youngs Moduli (GPa) = 47.67560 28.77861 23.51860
#
# Poissons Ratio (x) = 0.36123 -0.11968
# Poissons Ratio (y) = 0.59843 0.57199
# Poissons Ratio (z) = -0.24261 0.69991
#
# Static dielectric constant tensor:
#      x y z
#    x 1.727500 0.000000 0.007290 
#    y 0.000000 1.672120 0.000000 
#    z 0.007290 0.000000 1.679040 
# 
# From -- ./inp_files/76217.got.cif
#   From: 2010.05.17/outbox.cif.g08.bks.cpg/sg13_39_cif.got.tgz:76217.got - 2010.06.03 16:44:36.
