data_PCOD9226773
_publ_section_title
;
Structure prediction by ZEFSAII (Michael W. Deem and Ramdas Pophale) SiO2 
 PCOD9226773
Probable space group: P 2/C
;
_chemical_formula_sum "Si O2"
_cell_formula_units_Z 24
_cell_length_a 12.405742
_cell_length_b 8.298085
_cell_length_c 17.105342
_cell_angle_alpha 90.000000
_cell_angle_beta 30.747209
_cell_angle_gamma 90.000000
_cell_volume 900.257493
_symmetry_space_group_name_H-M "P 2/C"
_symmetry_group_IT_number 13
_symmetry_cell_setting 'monoclinic'
loop_
_space_group_symop_operation_xyz
x,y,z
-x,y,1/2-z
-x,-y,-z
x,-y,1/2+z
loop_
_atom_site_type_symbol
_atom_site_label
_atom_site_fract_x
_atom_site_fract_y
_atom_site_fract_z
Si Si1 0.089858 0.113373 0.552054
Si Si2 0.672692 0.241858 0.245377
Si Si3 0.054513 0.433833 0.628222
Si Si4 0.413536 0.435813 0.637722
Si Si5 0.581947 0.069822 0.866691
Si Si6 0.947527 0.772442 0.873976
O O1 0.139352 0.253237 0.583379
O O2 0.836410 0.088668 0.706960
O O3 0.178872 0.203106 0.420257
O O4 0.159893 0.930758 0.523414
O O5 0.559066 0.415255 0.318714
O O6 0.824038 0.245248 0.226694
O O7 0.537337 0.079086 0.336434
O O8 0.839506 0.418447 0.713182
O O9 0.160346 0.601245 0.536013
O O10 0.000000 0.481569 0.750000
O O11 0.500000 0.500000 0.500000
O O12 0.496242 0.252925 0.598098
O O13 0.500000 0.000000 0.000000
O O14 0.000000 0.805987 0.750000
#
# Coordination Sequence:
#
# PCOD9226773 Si02
#       6
#     4   4   4   4   4   4
#     4  10  20  32  52  80 107 136 179 232 274 318
#     4  10  20  33  51  81 107 133 182 229 273 314
#     4   9  19  33  52  79 106 141 183 223 271 331
#     4  10  19  32  53  78 106 140 179 222 273 327
#     4  10  18  30  49  74 108 136 173 221 271 319
#     4   9  17  30  49  75 107 134 172 218 272 319
#
# _framework density 26.659040999999998
#
# number of rings (size 3 to 8) (size 9 to 14) (size 15 to 20)
#    0.000    2.333    1.667    2.500    0.000    7.333 
#    0.000    0.000    0.000    1.000    0.000   14.000 
#    0.000    0.000    0.000    0.000    0.000    0.000 
#
# Total GULP energy -133921.851914 kJ/mol
# GULP energy per Si atom -5580.077163 kJ/mol
# Density = 2.659836 g / cm^3
# Si number density = 26.659041 Si / 1000 Ang^3
#
#
#
# Elastic Constant Matrix: (Units=GPa)
#
#
# Indices 1 2 3 4 5 6 
#
# 1 50.8568 21.4636 -2.9550 0.0000 -15.0289 0.0000
# 2 21.4636 339.5594 50.0984 0.0000 -22.4925 0.0000
# 3 -2.9550 50.0984 116.3865 0.0000 2.0532 0.0000
# 4 0.0000 0.0000 0.0000 64.1212 0.0000 1.5518
# 5 -15.0289 -22.4925 2.0532 0.0000 35.4942 0.0000
# 6 0.0000 0.0000 0.0000 1.5518 0.0000 47.2378
#
#
#
# Elastic Compliance Matrix: (Units=1/GPa)
#
#
# Indices 1 2 3 4 5 6 
#
# 1 0.022774 -0.000968 0.000836 0.000000 0.008981 0.000000
# 2 -0.000968 0.003346 -0.001497 0.000000 0.001797 0.000000
# 3 0.000836 -0.001497 0.009277 0.000000 -0.001131 0.000000
# 4 0.000000 0.000000 0.000000 0.015608 0.000000 -0.000513
# 5 0.008981 0.001797 -0.001131 0.000000 0.033181 0.000000
# 6 0.000000 0.000000 0.000000 -0.000513 0.000000 0.021186
#
#
# Mechanical properties :
#
#
# Convention : Reuss Voigt Hill
#
# Bulk Modulus (GPa) = 31.11246 71.55738 51.33492
# Shear Modulus (GPa) = 41.89618 58.58369 50.23994
#
# Velocity S-wave (km/s) = 3.96859 4.69285 4.34583
# Velocity P-wave (km/s) = 5.71799 7.50092 6.66930
#
# Compressibility (1/GPa) = 0.03214147
#
# Stress axis : x y z
#
# Youngs Moduli (GPa) = 43.90921 298.86223 107.78829
#
# Poissons Ratio (x) = 0.28932 -0.09016
# Poissons Ratio (y) = 0.04251 0.16131
# Poissons Ratio (z) = -0.03673 0.44727
#
# Static dielectric constant tensor:
#      x y z
#    x 2.139080 0.000000 -0.096550 
#    y 0.000000 2.202720 0.000000 
#    z -0.096550 0.000000 2.183470 
# 
# From -- ./inp_files/69402.got.cif
#   From: 2010.05.17/outbox.cif.g08.bks.cpg/sg13_35_cif.got.tgz:69402.got - 2010.06.03 16:44:36.
