data_PCOD9226279
_publ_section_title
;
Structure prediction by ZEFSAII (Michael W. Deem and Ramdas Pophale) SiO2 
 PCOD9226279
Probable space group: P 2/C
;
_chemical_formula_sum "Si O2"
_cell_formula_units_Z 28
_cell_length_a 7.113963
_cell_length_b 7.740676
_cell_length_c 21.019492
_cell_angle_alpha 90.000000
_cell_angle_beta 117.276462
_cell_angle_gamma 90.000000
_cell_volume 1028.772814
_symmetry_space_group_name_H-M "P 2/C"
_symmetry_group_IT_number 13
_symmetry_cell_setting 'monoclinic'
loop_
_space_group_symop_operation_xyz
x,y,z
-x,y,1/2-z
-x,-y,-z
x,-y,1/2+z
loop_
_atom_site_type_symbol
_atom_site_label
_atom_site_fract_x
_atom_site_fract_y
_atom_site_fract_z
Si Si1 0.243585 0.129582 0.259911
Si Si2 0.704431 0.241213 0.681448
Si Si3 0.085824 0.133912 0.102928
Si Si4 0.093273 0.600017 0.178527
Si Si5 0.438360 0.799643 0.475861
Si Si6 0.245567 0.706492 0.878941
Si Si7 0.036340 0.764286 0.047210
O O1 0.248919 0.170562 0.185753
O O2 0.352083 0.253370 0.328358
O O3 0.000000 0.141571 0.250000
O O4 0.321848 0.937283 0.285542
O O5 0.931655 0.252449 0.679752
O O6 0.548365 0.246095 0.596907
O O7 0.724955 0.386530 0.739965
O O8 0.004974 0.261029 0.034202
O O9 0.872746 0.123032 0.112023
O O10 0.134238 0.954563 0.075663
O O11 0.938327 0.435460 0.156043
O O12 0.152714 0.639010 0.115291
O O13 0.583644 0.675036 0.540954
O O14 0.203394 0.769754 0.464638
O O15 0.500000 0.000000 0.500000
#
# Coordination Sequence:
#
# PCOD9226279 Si02
#       7
#     4   4   4   4   4   4   4
#     4  10  16  32  55  83 109 147 204 247 272 340
#     4  10  18  32  55  82 113 147 193 246 294 337
#     4  10  20  34  56  86 111 160 204 241 278 363
#     4  10  20  34  54  86 117 154 192 245 295 356
#     4  11  19  36  60  89 113 152 192 259 298 345
#     4  11  22  33  61  89 116 147 202 248 297 352
#     4  10  20  36  56  80 123 153 198 241 303 350
#
# _framework density 27.216895000000001
#
# number of rings (size 3 to 8) (size 9 to 14) (size 15 to 20)
#    0.000    1.714    5.714    1.714    6.000    2.857 
#    0.000    0.714    0.000    2.571    0.000    0.000 
#    0.000    0.000    0.000    0.000    0.000    0.000 
#
# Total GULP energy -156221.918099 kJ/mol
# GULP energy per Si atom -5579.354218 kJ/mol
# Density = 2.715495 g / cm^3
# Si number density = 27.216895 Si / 1000 Ang^3
#
#
#
# Elastic Constant Matrix: (Units=GPa)
#
#
# Indices 1 2 3 4 5 6 
#
# 1 66.3401 -0.0696 27.6299 0.0000 -20.6627 0.0000
# 2 -0.0696 97.0208 77.7619 0.0000 -1.3699 0.0000
# 3 27.6299 77.7619 353.2661 0.0000 -25.9374 0.0000
# 4 0.0000 0.0000 0.0000 39.0120 0.0000 -1.7242
# 5 -20.6627 -1.3699 -25.9374 0.0000 35.0006 0.0000
# 6 0.0000 0.0000 0.0000 -1.7242 0.0000 11.2658
#
#
#
# Elastic Compliance Matrix: (Units=1/GPa)
#
#
# Indices 1 2 3 4 5 6 
#
# 1 0.018687 0.000873 -0.000890 0.000000 0.010407 0.000000
# 2 0.000873 0.012646 -0.002938 0.000000 -0.001166 0.000000
# 3 -0.000890 -0.002938 0.003701 0.000000 0.002103 0.000000
# 4 0.000000 0.000000 0.000000 0.025808 0.000000 0.003950
# 5 0.010407 -0.001166 0.002103 0.000000 0.036227 0.000000
# 6 0.000000 0.000000 0.000000 0.003950 0.000000 0.089369
#
#
# Mechanical properties :
#
#
# Convention : Reuss Voigt Hill
#
# Bulk Modulus (GPa) = 34.33364 80.80791 57.57078
# Shear Modulus (GPa) = 24.74597 44.47601 34.61099
#
# Velocity S-wave (km/s) = 3.01859 4.04683 3.56992
# Velocity P-wave (km/s) = 4.97909 7.18266 6.17988
#
# Compressibility (1/GPa) = 0.02912595
#
# Stress axis : x y z
#
# Youngs Moduli (GPa) = 53.51428 79.07846 270.17407
#
# Poissons Ratio (x) = -0.06907 0.24038
# Poissons Ratio (y) = -0.04674 0.79365
# Poissons Ratio (z) = 0.04761 0.23230
#
# Static dielectric constant tensor:
#      x y z
#    x 2.202390 0.000000 0.090080 
#    y 0.000000 2.138700 0.000000 
#    z 0.090080 0.000000 2.370670 
# 
# From -- ./inp_files/78107.got.cif
#   From: 2010.05.17/outbox.cif.g08.bks.cpg/sg13_40_cif.got.tgz:78107.got - 2010.06.03 16:44:36.
