data_PCOD9226127
_publ_section_title
;
Structure prediction by ZEFSAII (Michael W. Deem and Ramdas Pophale) SiO2 
 PCOD9226127
Probable space group: P 2/C
;
_chemical_formula_sum "Si O2"
_cell_formula_units_Z 24
_cell_length_a 6.865926
_cell_length_b 27.666268
_cell_length_c 5.441693
_cell_angle_alpha 90.000000
_cell_angle_beta 102.501440
_cell_angle_gamma 90.000000
_cell_volume 1009.166506
_symmetry_space_group_name_H-M "P 2/C"
_symmetry_group_IT_number 13
_symmetry_cell_setting 'monoclinic'
loop_
_space_group_symop_operation_xyz
x,y,z
-x,y,1/2-z
-x,-y,-z
x,-y,1/2+z
loop_
_atom_site_type_symbol
_atom_site_label
_atom_site_fract_x
_atom_site_fract_y
_atom_site_fract_z
Si Si1 0.219287 0.329981 0.030338
Si Si2 0.224624 0.019228 0.030474
Si Si3 0.233859 0.631739 0.035721
Si Si4 0.368898 0.228674 0.963490
Si Si5 0.229240 0.480996 0.536098
Si Si6 0.630329 0.121394 0.536429
O O1 0.316494 0.359175 0.831297
O O2 0.224396 0.274134 0.954704
O O3 0.310425 0.337763 0.325233
O O4 0.996165 0.350752 0.997240
O O5 0.230504 0.074999 0.954607
O O6 0.313073 0.011200 0.326891
O O7 0.000000 0.000000 0.000000
O O8 0.235723 0.575343 0.975112
O O9 0.500000 0.235099 0.750000
O O10 0.500000 0.228990 0.250000
O O11 0.275869 0.174987 0.921512
O O12 0.313906 0.510715 0.330683
O O13 0.000000 0.500000 0.500000
O O14 0.500000 0.121408 0.250000
O O15 0.500000 0.115404 0.750000
#
# Coordination Sequence:
#
# PCOD9226127 Si02
#       6
#     4   4   4   4   4   4
#     4  10  18  32  49  70 103 133 163 211 261 309
#     4  10  21  37  55  82 116 145 174 219 270 319
#     4  10  19  30  47  76 106 130 163 207 264 324
#     4  10  21  37  55  76 102 136 180 220 253 296
#     4  10  16  25  41  65 102 131 157 199 251 318
#     4  10  21  37  58  81 105 139 184 227 264 310
#
# _framework density 23.782003
#
# number of rings (size 3 to 8) (size 9 to 14) (size 15 to 20)
#    0.000    2.000    0.000    7.000    0.000    2.000 
#    0.000    6.667    0.000    0.000    0.000    0.000 
#    0.000  162.667    0.000    0.000    0.000    0.000 
#
# Total GULP energy -134123.071032 kJ/mol
# GULP energy per Si atom -5588.461293 kJ/mol
# Density = 2.372787 g / cm^3
# Si number density = 23.782003 Si / 1000 Ang^3
#
#
#
# Elastic Constant Matrix: (Units=GPa)
#
#
# Indices 1 2 3 4 5 6 
#
# 1 57.1576 21.4268 29.1074 0.0000 -17.2280 0.0000
# 2 21.4268 222.5610 24.4904 0.0000 -31.2528 0.0000
# 3 29.1074 24.4904 211.8921 0.0000 -32.9856 0.0000
# 4 0.0000 0.0000 0.0000 43.1574 0.0000 9.7434
# 5 -17.2280 -31.2528 -32.9856 0.0000 46.0810 0.0000
# 6 0.0000 0.0000 0.0000 9.7434 0.0000 -85.1665
#
#
#
# Elastic Compliance Matrix: (Units=1/GPa)
#
#
# Indices 1 2 3 4 5 6 
#
# 1 0.020505 -0.000973 -0.001816 0.000000 0.005706 0.000000
# 2 -0.000973 0.005013 0.000030 0.000000 0.003058 0.000000
# 3 -0.001816 0.000030 0.005473 0.000000 0.003259 0.000000
# 4 0.000000 0.000000 0.000000 0.022588 0.000000 0.002584
# 5 0.005706 0.003058 0.003259 0.000000 0.028241 0.000000
# 6 0.000000 0.000000 0.000000 0.002584 0.000000 -0.011446
#
#
# Mechanical properties :
#
#
# Convention : Reuss Voigt Hill
#
# Bulk Modulus (GPa) = 39.25708 71.29556 55.27632
# Shear Modulus (GPa) = 59.25479 28.58679 43.92079
#
# Velocity S-wave (km/s) = 4.99699 3.47080 4.30211
# Velocity P-wave (km/s) = 7.05947 6.79012 6.92611
#
# Compressibility (1/GPa) = 0.02547311
#
# Stress axis : x y z
#
# Youngs Moduli (GPa) = 48.76872 199.48673 182.72566
#
# Poissons Ratio (x) = 0.19409 0.33183
# Poissons Ratio (y) = 0.04745 -0.00553
# Poissons Ratio (z) = 0.08856 -0.00604
#
# Static dielectric constant tensor:
#      x y z
#    x 1.520840 0.000000 -0.214170 
#    y 0.000000 1.830930 0.000000 
#    z -0.214170 0.000000 1.811460 
# 
# From -- ./inp_files/2415.got.cif
#   From: 2010.05.17/outbox.cif.g08.bks.cpg/sg13_2_cif.got.tgz:2415.got - 2010.06.03 16:44:36.
