data_PCOD9226992
_publ_section_title
;
Structure prediction by ZEFSAII (Michael W. Deem and Ramdas Pophale) SiO2 
 PCOD9226992
Probable space group: P 2/C
;
_chemical_formula_sum "Si O2"
_cell_formula_units_Z 22
_cell_length_a 22.857737
_cell_length_b 8.260407
_cell_length_c 15.387974
_cell_angle_alpha 90.000000
_cell_angle_beta 157.756507
_cell_angle_gamma 90.000000
_cell_volume 1099.846096
_symmetry_space_group_name_H-M "P 2/C"
_symmetry_group_IT_number 13
_symmetry_cell_setting 'monoclinic'
loop_
_space_group_symop_operation_xyz
x,y,z
-x,y,1/2-z
-x,-y,-z
x,-y,1/2+z
loop_
_atom_site_type_symbol
_atom_site_label
_atom_site_fract_x
_atom_site_fract_y
_atom_site_fract_z
Si Si1 0.632133 0.965981 0.056879
Si Si2 0.096707 0.162614 0.111567
Si Si3 0.136662 0.693375 0.092427
Si Si4 0.140768 0.634604 0.506333
Si Si5 0.694460 0.910206 0.839827
Si Si6 0.000000 0.092951 0.250000
O O1 0.724967 0.797087 0.174353
O O2 0.725802 0.104591 0.133550
O O3 0.655658 0.015741 0.191086
O O4 0.449351 0.945949 0.795399
O O5 0.086958 0.226079 0.999669
O O6 0.014652 0.301794 0.054486
O O7 0.000000 0.000000 0.000000
O O8 0.186782 0.519162 0.126942
O O9 0.076844 0.795873 0.928126
O O10 0.274395 0.720121 0.633906
O O11 0.000000 0.589450 0.250000
O O12 0.857361 0.988534 0.091278
#
# Coordination Sequence:
#
# PCOD9226992 Si02
#       6
#     4   4   4   4   4   2
#     4   8  17  33  52  78 101 142 185 223 270 324
#     4   9  19  35  56  77 105 146 190 223 269 336
#     4  10  19  33  54  80 111 143 185 226 282 336
#     4  11  20  32  54  86 111 142 182 231 285 333
#     4   9  17  31  53  77 107 137 185 227 267 324
#     4  10  18  32  54  80 104 144 186 230 268 328
#
# _framework density 20.002797999999999
#
# number of rings (size 3 to 8) (size 9 to 14) (size 15 to 20)
#    0.000    2.545    1.818    1.636    0.000    0.727 
#    0.000    0.909    0.000    0.000    9.455    0.000 
#    0.000    0.000    0.000    0.000    0.000    0.000 
#
# Total GULP energy -122513.586210 kJ/mol
# GULP energy per Si atom -5568.799373 kJ/mol
# Density = 1.995727 g / cm^3
# Si number density = 20.002798 Si / 1000 Ang^3
#
#
#
# Elastic Constant Matrix: (Units=GPa)
#
#
# Indices 1 2 3 4 5 6 
#
# 1 31.5071 2.9060 15.2065 0.0000 21.0484 0.0000
# 2 2.9060 79.9373 29.8988 0.0000 14.5472 0.0000
# 3 15.2065 29.8988 100.7014 0.0000 35.6872 0.0000
# 4 0.0000 0.0000 0.0000 17.7368 0.0000 -0.4857
# 5 21.0484 14.5472 35.6872 0.0000 36.2454 0.0000
# 6 0.0000 0.0000 0.0000 -0.4857 0.0000 31.9523
#
#
#
# Elastic Compliance Matrix: (Units=1/GPa)
#
#
# Indices 1 2 3 4 5 6 
#
# 1 0.053864 0.003237 0.003764 0.000000 -0.036286 0.000000
# 2 0.003237 0.014399 -0.003148 0.000000 -0.004559 0.000000
# 3 0.003764 -0.003148 0.016317 0.000000 -0.016988 0.000000
# 4 0.000000 0.000000 0.000000 0.056403 0.000000 0.000857
# 5 -0.036286 -0.004559 -0.016988 0.000000 0.067218 0.000000
# 6 0.000000 0.000000 0.000000 0.000857 0.000000 0.031310
#
#
# Mechanical properties :
#
#
# Convention : Reuss Voigt Hill
#
# Bulk Modulus (GPa) = 10.83577 34.24093 22.53835
# Shear Modulus (GPa) = 19.04270 28.12920 23.58595
#
# Velocity S-wave (km/s) = 3.08880 3.75409 3.43758
# Velocity P-wave (km/s) = 4.26026 5.99551 5.20077
#
# Compressibility (1/GPa) = 0.09228691
#
# Stress axis : x y z
#
# Youngs Moduli (GPa) = 18.56517 69.44735 61.28564
#
# Poissons Ratio (x) = -0.22482 -0.23068
# Poissons Ratio (y) = -0.06010 0.19295
# Poissons Ratio (z) = -0.06988 0.21864
#
# Static dielectric constant tensor:
#      x y z
#    x 1.803760 0.000000 0.017470 
#    y 0.000000 1.736650 0.000000 
#    z 0.017470 0.000000 1.728070 
# 
# From -- ./inp_files/67803.got.cif
#   From: 2010.05.17/outbox.cif.g08.bks.cpg/sg13_34_cif.got.tgz:67803.got - 2010.06.03 16:44:36.
