data_PCOD9226745
_publ_section_title
;
Structure prediction by ZEFSAII (Michael W. Deem and Ramdas Pophale) SiO2 
 PCOD9226745
Probable space group: P 2/C
;
_chemical_formula_sum "Si O2"
_cell_formula_units_Z 32
_cell_length_a 27.494739
_cell_length_b 6.754408
_cell_length_c 28.461491
_cell_angle_alpha 90.000000
_cell_angle_beta 164.490465
_cell_angle_gamma 90.000000
_cell_volume 1413.363564
_symmetry_space_group_name_H-M "P 2/C"
_symmetry_group_IT_number 13
_symmetry_cell_setting 'monoclinic'
loop_
_space_group_symop_operation_xyz
x,y,z
-x,y,1/2-z
-x,-y,-z
x,-y,1/2+z
loop_
_atom_site_type_symbol
_atom_site_label
_atom_site_fract_x
_atom_site_fract_y
_atom_site_fract_z
Si Si1 0.105975 0.446165 0.021093
Si Si2 0.910720 0.276454 0.390989
Si Si3 0.669675 0.883031 0.882990
Si Si4 0.609845 0.122983 0.532603
Si Si5 0.476624 0.579991 0.830687
Si Si6 0.706512 0.895502 0.221574
Si Si7 0.819630 0.579167 0.101122
Si Si8 0.970189 0.124491 0.821548
O O1 0.138211 0.382543 0.105334
O O2 0.290592 0.531672 0.170685
O O3 0.934772 0.590323 0.867682
O O4 0.048536 0.258537 0.936976
O O5 0.115013 0.190669 0.588463
O O6 0.771930 0.100360 0.258603
O O7 0.500000 0.992939 0.750000
O O8 0.584920 0.757751 0.761407
O O9 0.740460 0.715787 0.985586
O O10 0.854105 0.988128 0.036224
O O11 0.543900 0.304228 0.439200
O O12 0.644533 0.214683 0.616942
O O13 0.789504 0.031824 0.675354
O O14 0.453108 0.958302 0.392399
O O15 0.646103 0.472585 0.963211
O O16 0.895675 0.729740 0.211504
O O17 0.000000 0.468316 0.250000
#
# Coordination Sequence:
#
# PCOD9226745 Si02
#       8
#     4   4   4   4   4   4   4   4
#     4  10  18  32  46  71  92 132 159 204 245 276
#     4  10  20  33  49  62  94 130 182 201 232 280
#     4   8  14  24  42  68 100 124 145 185 247 306
#     4  10  18  30  45  68  93 129 164 198 244 278
#     4   9  16  27  46  69 100 123 156 195 247 289
#     4  10  20  34  48  64  94 136 180 201 231 287
#     4   8  14  25  41  69 102 125 141 188 250 307
#     4   9  16  27  46  68 101 122 154 194 250 285
#
# _framework density 22.641024000000002
#
# number of rings (size 3 to 8) (size 9 to 14) (size 15 to 20)
#    0.000    2.750    2.500    0.000    0.000    0.000 
#    0.000    6.250    0.000    0.000    0.000    0.000 
#    0.000  372.000    0.000    0.000    0.000    0.000 
#
# Total GULP energy -178183.135884 kJ/mol
# GULP energy per Si atom -5568.222996 kJ/mol
# Density = 2.258949 g / cm^3
# Si number density = 22.641024 Si / 1000 Ang^3
#
#
#
# Elastic Constant Matrix: (Units=GPa)
#
#
# Indices 1 2 3 4 5 6 
#
# 1 137.8426 9.9506 46.9605 0.0000 54.6948 0.0000
# 2 9.9506 14.6176 3.8112 0.0000 10.7788 0.0000
# 3 46.9605 3.8112 87.9893 0.0000 43.1823 0.0000
# 4 0.0000 0.0000 0.0000 5.6599 0.0000 3.4982
# 5 54.6948 10.7788 43.1823 0.0000 73.8481 0.0000
# 6 0.0000 0.0000 0.0000 3.4982 0.0000 7.7989
#
#
#
# Elastic Compliance Matrix: (Units=1/GPa)
#
#
# Indices 1 2 3 4 5 6 
#
# 1 0.010724 -0.002123 -0.002644 0.000000 -0.006086 0.000000
# 2 -0.002123 0.077668 0.003591 0.000000 -0.011864 0.000000
# 3 -0.002644 0.003591 0.016713 0.000000 -0.008338 0.000000
# 4 0.000000 0.000000 0.000000 0.244457 0.000000 -0.109653
# 5 -0.006086 -0.011864 -0.008338 0.000000 0.024657 0.000000
# 6 0.000000 0.000000 0.000000 -0.109653 0.000000 0.177408
#
#
# Mechanical properties :
#
#
# Convention : Reuss Voigt Hill
#
# Bulk Modulus (GPa) = 9.73204 40.21046 24.97125
# Shear Modulus (GPa) = 8.50009 29.44320 18.97164
#
# Velocity S-wave (km/s) = 1.93970 3.61007 2.89785
# Velocity P-wave (km/s) = 3.05358 5.93088 4.71697
#
# Compressibility (1/GPa) = 0.10275342
#
# Stress axis : x y z
#
# Youngs Moduli (GPa) = 93.25054 12.87533 59.83338
#
# Poissons Ratio (x) = 0.02733 0.15823
# Poissons Ratio (y) = 0.19793 -0.21488
# Poissons Ratio (z) = 0.24660 -0.04624
#
# Static dielectric constant tensor:
#      x y z
#    x 1.901150 0.000000 0.045900 
#    y 0.000000 1.842990 0.000000 
#    z 0.045900 0.000000 1.918400 
# 
# From -- ./inp_files/88985.got.cif
#   From: 2010.05.17/outbox.cif.g08.bks.cpg/sg13_45_cif.got.tgz:88985.got - 2010.06.03 16:44:36.
