data_PCOD9226240
_publ_section_title
;
Structure prediction by ZEFSAII (Michael W. Deem and Ramdas Pophale) SiO2 
 PCOD9226240
Probable space group: P 2/C
;
_chemical_formula_sum "Si O2"
_cell_formula_units_Z 22
_cell_length_a 9.569885
_cell_length_b 15.237698
_cell_length_c 8.766069
_cell_angle_alpha 90.000000
_cell_angle_beta 118.178964
_cell_angle_gamma 90.000000
_cell_volume 1126.787176
_symmetry_space_group_name_H-M "P 2/C"
_symmetry_group_IT_number 13
_symmetry_cell_setting 'monoclinic'
loop_
_space_group_symop_operation_xyz
x,y,z
-x,y,1/2-z
-x,-y,-z
x,-y,1/2+z
loop_
_atom_site_type_symbol
_atom_site_label
_atom_site_fract_x
_atom_site_fract_y
_atom_site_fract_z
Si Si1 0.121860 0.533012 0.190385
Si Si2 0.000000 0.830090 0.250000
Si Si3 0.119892 0.297726 0.547177
Si Si4 0.335860 0.104648 0.964163
Si Si5 0.780732 0.658606 0.718234
Si Si6 0.500000 0.956649 0.250000
Si Si7 0.500000 0.747352 0.750000
O O1 0.213128 0.447729 0.299945
O O2 0.000000 0.570438 0.250000
O O3 0.206611 0.618033 0.168283
O O4 0.000000 0.500000 0.000000
O O5 0.147678 0.886133 0.384868
O O6 0.918165 0.772898 0.342836
O O7 0.213620 0.286264 0.436584
O O8 0.944010 0.321399 0.392111
O O9 0.417727 0.188981 0.083935
O O10 0.392966 0.020153 0.089401
O O11 0.394456 0.095649 0.819062
O O12 0.633169 0.688120 0.740826
#
# Coordination Sequence:
#
# PCOD9226240 Si02
#       7
#     4   2   4   4   4   2   2
#     4  10  16  30  54  76 111 160 210 244 291 340
#     4  12  22  36  64 102 116 150 212 252 280 348
#     4  10  20  34  57  85 119 156 210 250 292 344
#     4  10  23  41  67  89 123 157 190 244 297 374
#     4  10  20  36  54  83 118 168 204 249 303 346
#     4   9  22  48  64  89 124 160 184 225 326 376
#     4  11  22  40  60  89 126 160 196 253 310 350
#
# _framework density 19.524536999999999
#
# number of rings (size 3 to 8) (size 9 to 14) (size 15 to 20)
#    0.000    1.818    6.364    0.000    2.545    0.727 
#    0.000    0.909    0.000    0.000    0.000    0.000 
#    0.000    0.000    0.000    0.000    0.000    0.000 
#
# Total GULP energy -122497.012767 kJ/mol
# GULP energy per Si atom -5568.046035 kJ/mol
# Density = 1.948010 g / cm^3
# Si number density = 19.524537 Si / 1000 Ang^3
#
#
#
# Elastic Constant Matrix: (Units=GPa)
#
#
# Indices 1 2 3 4 5 6 
#
# 1 112.1294 40.5035 28.8609 0.0000 -21.5359 0.0000
# 2 40.5035 51.8659 17.3282 0.0000 -7.0288 0.0000
# 3 28.8609 17.3282 74.2623 0.0000 -25.1274 0.0000
# 4 0.0000 0.0000 0.0000 7.0012 0.0000 -5.0363
# 5 -21.5359 -7.0288 -25.1274 0.0000 35.3238 0.0000
# 6 0.0000 0.0000 0.0000 -5.0363 0.0000 -2.1397
#
#
#
# Elastic Compliance Matrix: (Units=1/GPa)
#
#
# Indices 1 2 3 4 5 6 
#
# 1 0.013775 -0.009590 -0.001211 0.000000 0.005628 0.000000
# 2 -0.009590 0.027609 -0.003733 0.000000 -0.003009 0.000000
# 3 -0.001211 -0.003733 0.018841 0.000000 0.011921 0.000000
# 4 0.000000 0.000000 0.000000 0.053036 0.000000 -0.124832
# 5 0.005628 -0.003009 0.011921 0.000000 0.039623 0.000000
# 6 0.000000 0.000000 0.000000 -0.124832 0.000000 -0.173534
#
#
# Mechanical properties :
#
#
# Convention : Reuss Voigt Hill
#
# Bulk Modulus (GPa) = 32.09607 45.73807 38.91707
# Shear Modulus (GPa) = 265.89861 18.14139 142.02000
#
# Velocity S-wave (km/s) = 11.68257 3.05152 8.53798
# Velocity P-wave (km/s) = 14.08727 5.99103 10.82460
#
# Compressibility (1/GPa) = 0.03115646
#
# Stress axis : x y z
#
# Youngs Moduli (GPa) = 72.59442 36.21992 53.07470
#
# Poissons Ratio (x) = 0.34735 0.06429
# Poissons Ratio (y) = 0.69618 0.19814
# Poissons Ratio (z) = 0.08794 0.13522
#
# Static dielectric constant tensor:
#      x y z
#    x 1.640270 0.000000 -0.003660 
#    y 0.000000 1.727950 0.000000 
#    z -0.003660 0.000000 1.694600 
# 
# From -- ./inp_files/12589.got.cif
#   From: 2010.05.17/outbox.cif.g08.bks.cpg/sg13_7_cif.got.tgz:12589.got - 2010.06.03 16:44:36.
