data_PCOD9226993
_publ_section_title
;
Structure prediction by ZEFSAII (Michael W. Deem and Ramdas Pophale) SiO2 
 PCOD9226993
Probable space group: P 2/C
;
_chemical_formula_sum "Si O2"
_cell_formula_units_Z 16
_cell_length_a 7.213063
_cell_length_b 18.314783
_cell_length_c 7.980801
_cell_angle_alpha 90.000000
_cell_angle_beta 141.669261
_cell_angle_gamma 90.000000
_cell_volume 653.882519
_symmetry_space_group_name_H-M "P 2/C"
_symmetry_group_IT_number 13
_symmetry_cell_setting 'monoclinic'
loop_
_space_group_symop_operation_xyz
x,y,z
-x,y,1/2-z
-x,-y,-z
x,-y,1/2+z
loop_
_atom_site_type_symbol
_atom_site_label
_atom_site_fract_x
_atom_site_fract_y
_atom_site_fract_z
Si Si1 0.346824 0.301207 0.460105
Si Si2 0.776595 0.551359 0.738700
Si Si3 0.639084 0.151969 0.659258
Si Si4 0.132618 0.075965 0.157952
O O1 0.353892 0.367362 0.330296
O O2 0.534374 0.231775 0.530972
O O3 0.000000 0.278603 0.250000
O O4 0.500000 0.323321 0.750000
O O5 0.500000 0.500000 0.500000
O O6 0.000000 0.571197 0.750000
O O7 0.000000 0.500000 0.000000
O O8 0.500000 0.145945 0.750000
O O9 0.482231 0.090349 0.433572
O O10 0.985653 0.137011 0.934437
O O11 0.000000 0.084778 0.250000
O O12 0.000000 0.000000 0.000000
#
# Coordination Sequence:
#
# PCOD9226993 Si02
#       4
#     4   4   4   4
#     4  10  18  32  54  80 105 136 183 235 274 317
#     4  11  22  37  58  85 115 149 187 234 287 342
#     4   9  17  30  50  74  98 128 174 222 259 304
#     4  10  19  31  49  73 100 131 166 211 263 317
#
# _framework density 24.46923
#
# number of rings (size 3 to 8) (size 9 to 14) (size 15 to 20)
#    0.000    2.000    0.000    8.250    0.000    0.000 
#    0.000    0.000    0.000    9.000    0.000    0.000 
#    0.000    0.000    0.000    0.000    0.000    0.000 
#
# Total GULP energy -89211.360927 kJ/mol
# GULP energy per Si atom -5575.710058 kJ/mol
# Density = 2.441354 g / cm^3
# Si number density = 24.469230 Si / 1000 Ang^3
#
#
#
# Elastic Constant Matrix: (Units=GPa)
#
#
# Indices 1 2 3 4 5 6 
#
# 1 37.4280 -6.1646 8.8815 0.0000 2.3568 0.0000
# 2 -6.1646 186.8796 79.6155 0.0000 -2.9488 0.0000
# 3 8.8815 79.6155 192.3096 0.0000 20.0479 0.0000
# 4 0.0000 0.0000 0.0000 50.1969 0.0000 -2.7036
# 5 2.3568 -2.9488 20.0479 0.0000 36.1926 0.0000
# 6 0.0000 0.0000 0.0000 -2.7036 0.0000 18.9998
#
#
#
# Elastic Compliance Matrix: (Units=1/GPa)
#
#
# Indices 1 2 3 4 5 6 
#
# 1 0.027493 0.001715 -0.001918 0.000000 -0.000588 0.000000
# 2 0.001715 0.006764 -0.003105 0.000000 0.002159 0.000000
# 3 -0.001918 -0.003105 0.006991 0.000000 -0.004000 0.000000
# 4 0.000000 0.000000 0.000000 0.020075 0.000000 0.002857
# 5 -0.000588 0.002159 -0.004000 0.000000 0.030060 0.000000
# 6 0.000000 0.000000 0.000000 0.002857 0.000000 0.053039
#
#
# Mechanical properties :
#
#
# Convention : Reuss Voigt Hill
#
# Bulk Modulus (GPa) = 28.87541 64.58690 46.73116
# Shear Modulus (GPa) = 30.75365 43.36351 37.05858
#
# Velocity S-wave (km/s) = 3.54903 4.21428 3.89588
# Velocity P-wave (km/s) = 5.34981 7.08044 6.27507
#
# Compressibility (1/GPa) = 0.03463154
#
# Stress axis : x y z
#
# Youngs Moduli (GPa) = 36.37338 147.83344 143.04245
#
# Poissons Ratio (x) = -0.25352 0.27441
# Poissons Ratio (y) = -0.06238 0.44411
# Poissons Ratio (z) = 0.06978 0.45898
#
# Static dielectric constant tensor:
#      x y z
#    x 1.998990 0.000000 -0.040060 
#    y 0.000000 2.507630 0.000000 
#    z -0.040060 0.000000 1.976280 
# 
# From -- ./inp_files/9741.got.cif
#   From: 2010.05.17/outbox.cif.g08.bks.cpg/sg13_5_cif.got.tgz:9741.got - 2010.06.03 16:44:36.
