data_PCOD9226836
_publ_section_title
;
Structure prediction by ZEFSAII (Michael W. Deem and Ramdas Pophale) SiO2 
 PCOD9226836
Probable space group: P 2/C
;
_chemical_formula_sum "Si O2"
_cell_formula_units_Z 24
_cell_length_a 9.066639
_cell_length_b 11.256051
_cell_length_c 16.880675
_cell_angle_alpha 90.000000
_cell_angle_beta 41.433817
_cell_angle_gamma 90.000000
_cell_volume 1140.037335
_symmetry_space_group_name_H-M "P 2/C"
_symmetry_group_IT_number 13
_symmetry_cell_setting 'monoclinic'
loop_
_space_group_symop_operation_xyz
x,y,z
-x,y,1/2-z
-x,-y,-z
x,-y,1/2+z
loop_
_atom_site_type_symbol
_atom_site_label
_atom_site_fract_x
_atom_site_fract_y
_atom_site_fract_z
Si Si1 0.592007 0.500641 0.871555
Si Si2 0.000000 0.343630 0.250000
Si Si3 0.875810 0.707083 0.218775
Si Si4 0.647777 0.834608 0.942729
Si Si5 0.500000 0.117759 0.250000
Si Si6 0.327579 0.044762 0.684039
Si Si7 0.307183 0.290324 0.453444
O O1 0.652437 0.372117 0.812243
O O2 0.420351 0.582487 0.893924
O O3 0.823782 0.573743 0.776722
O O4 0.500000 0.500000 0.000000
O O5 0.847707 0.259052 0.366225
O O6 0.837516 0.847561 0.236121
O O7 0.000000 0.673510 0.250000
O O8 0.053597 0.686426 0.078613
O O9 0.447448 0.772087 0.970928
O O10 0.728042 0.949444 0.861289
O O11 0.548597 0.887294 0.062965
O O12 0.345494 0.202013 0.365620
O O13 0.635393 0.032880 0.253649
#
# Coordination Sequence:
#
# PCOD9226836 Si02
#       7
#     4   2   4   4   2   4   4
#     4  11  19  35  58  91 120 149 193 254 304 343
#     4  10  18  30  54  88 116 146 192 246 300 340
#     4  12  20  34  62  95 119 151 197 256 297 353
#     4   9  19  33  56  85 113 152 200 251 284 349
#     4  10  24  44  56  80 128 168 192 246 298 372
#     4  10  21  36  57  85 119 155 196 239 305 346
#     4  10  21  39  60  85 125 158 199 246 304 351
#
# _framework density 21.051942
#
# number of rings (size 3 to 8) (size 9 to 14) (size 15 to 20)
#    0.000    1.667    4.167    1.000    1.167    0.667 
#    0.000    5.000    0.000    0.000    0.000    0.000 
#    0.000    0.000    0.000    0.000    0.000    0.000 
#
# Total GULP energy -133965.103632 kJ/mol
# GULP energy per Si atom -5581.879318 kJ/mol
# Density = 2.100403 g / cm^3
# Si number density = 21.051942 Si / 1000 Ang^3
#
#
#
# Elastic Constant Matrix: (Units=GPa)
#
#
# Indices 1 2 3 4 5 6 
#
# 1 16.0076 20.8282 31.9161 0.0000 2.8429 0.0000
# 2 20.8282 135.3478 39.7664 0.0000 -0.6966 0.0000
# 3 31.9161 39.7664 101.4235 0.0000 -0.6299 0.0000
# 4 0.0000 0.0000 0.0000 39.5679 0.0000 -2.8671
# 5 2.8429 -0.6966 -0.6299 0.0000 22.2440 0.0000
# 6 0.0000 0.0000 0.0000 -2.8671 0.0000 13.0038
#
#
#
# Elastic Compliance Matrix: (Units=1/GPa)
#
#
# Indices 1 2 3 4 5 6 
#
# 1 0.201512 -0.014095 -0.058058 0.000000 -0.027839 0.000000
# 2 -0.014095 0.009337 0.000788 0.000000 0.002116 0.000000
# 3 -0.058058 0.000788 0.027872 0.000000 0.008234 0.000000
# 4 0.000000 0.000000 0.000000 0.025683 0.000000 0.005663
# 5 -0.027839 0.002116 0.008234 0.000000 0.048813 0.000000
# 6 0.000000 0.000000 0.000000 0.005663 0.000000 0.078149
#
#
# Mechanical properties :
#
#
# Convention : Reuss Voigt Hill
#
# Bulk Modulus (GPa) = 10.41787 48.64448 29.53117
# Shear Modulus (GPa) = 8.83245 25.64767 17.24006
#
# Velocity S-wave (km/s) = 2.05053 3.49421 2.86480
# Velocity P-wave (km/s) = 3.25048 6.27984 5.00010
#
# Compressibility (1/GPa) = 0.09598893
#
# Stress axis : x y z
#
# Youngs Moduli (GPa) = 4.96249 107.10236 35.87854
#
# Poissons Ratio (x) = 1.50963 2.08305
# Poissons Ratio (y) = 0.06995 -0.02827
# Poissons Ratio (z) = 0.28811 -0.08438
#
# Static dielectric constant tensor:
#      x y z
#    x 1.775830 0.000000 -0.008240 
#    y 0.000000 1.783420 0.000000 
#    z -0.008240 0.000000 1.782980 
# 
# From -- ./inp_files/33108.got.cif
#   From: 2010.05.17/outbox.cif.g08.bks.cpg/sg13_17_cif.got.tgz:33108.got - 2010.06.03 16:44:36.
