data_PCOD9226193
_publ_section_title
;
Structure prediction by ZEFSAII (Michael W. Deem and Ramdas Pophale) SiO2 
 PCOD9226193
Probable space group: P 2/C
;
_chemical_formula_sum "Si O2"
_cell_formula_units_Z 28
_cell_length_a 9.114347
_cell_length_b 5.481997
_cell_length_c 31.841182
_cell_angle_alpha 90.000000
_cell_angle_beta 119.797843
_cell_angle_gamma 90.000000
_cell_volume 1380.591685
_symmetry_space_group_name_H-M "P 2/C"
_symmetry_group_IT_number 13
_symmetry_cell_setting 'monoclinic'
loop_
_space_group_symop_operation_xyz
x,y,z
-x,y,1/2-z
-x,-y,-z
x,-y,1/2+z
loop_
_atom_site_type_symbol
_atom_site_label
_atom_site_fract_x
_atom_site_fract_y
_atom_site_fract_z
Si Si1 0.074393 0.724213 0.712705
Si Si2 0.721431 0.297448 0.117306
Si Si3 0.096984 0.797074 0.487071
Si Si4 0.320866 0.127602 0.478122
Si Si5 0.251051 0.403451 0.555968
Si Si6 0.578557 0.794145 0.136902
Si Si7 0.819449 0.220927 0.749796
O O1 0.179001 0.474359 0.724908
O O2 0.000000 0.725963 0.750000
O O3 0.914027 0.727994 0.659642
O O4 0.176866 0.974156 0.722913
O O5 0.703524 0.297944 0.064914
O O6 0.658689 0.558307 0.125009
O O7 0.623036 0.056118 0.121650
O O8 0.243887 0.680011 0.537160
O O9 0.941660 0.619263 0.454931
O O10 0.180696 0.915520 0.458686
O O11 0.000000 0.000000 0.500000
O O12 0.294544 0.262186 0.518625
O O13 0.500000 0.000000 0.500000
O O14 0.381959 0.285237 0.606932
O O15 0.668838 0.795313 0.194877
O O16 0.000000 0.223052 0.750000
#
# Coordination Sequence:
#
# PCOD9226193 Si02
#       7
#     4   4   4   4   4   4   4
#     4  10  16  31  46  70 114 152 172 220 284 337
#     4  12  22  31  52  84 120 148 181 227 290 340
#     4   9  21  42  56  73 111 154 193 231 279 330
#     4  11  22  35  55  85 119 147 182 235 287 341
#     4  10  22  38  58  77 114 154 192 233 277 344
#     4  12  21  32  54  85 113 150 185 230 285 341
#     4  10  16  30  48  71 113 146 179 223 280 332
#
# _framework density 20.28116
#
# number of rings (size 3 to 8) (size 9 to 14) (size 15 to 20)
#    0.000    1.429    7.143    0.857    4.000    1.143 
#    0.000    0.000    0.000    0.000    0.000    1.000 
#    0.000    0.000    0.000    0.000    0.000    0.000 
#
# Total GULP energy -156008.449571 kJ/mol
# GULP energy per Si atom -5571.730342 kJ/mol
# Density = 2.023500 g / cm^3
# Si number density = 20.281160 Si / 1000 Ang^3
#
#
#
# Elastic Constant Matrix: (Units=GPa)
#
#
# Indices 1 2 3 4 5 6 
#
# 1 51.8393 13.5693 15.2289 0.0000 12.3704 0.0000
# 2 13.5693 123.8128 -8.1415 0.0000 1.2390 0.0000
# 3 15.2289 -8.1415 63.7975 0.0000 25.9782 0.0000
# 4 0.0000 0.0000 0.0000 24.6199 0.0000 11.3360
# 5 12.3704 1.2390 25.9782 0.0000 19.6660 0.0000
# 6 0.0000 0.0000 0.0000 11.3360 0.0000 12.0990
#
#
#
# Elastic Compliance Matrix: (Units=1/GPa)
#
#
# Indices 1 2 3 4 5 6 
#
# 1 0.023400 -0.002412 0.000083 0.000000 -0.014676 0.000000
# 2 -0.002412 0.008548 0.002744 0.000000 -0.002646 0.000000
# 3 0.000083 0.002744 0.034833 0.000000 -0.046239 0.000000
# 4 0.000000 0.000000 0.000000 0.071435 0.000000 -0.066930
# 5 -0.014676 -0.002646 -0.046239 0.000000 0.121327 0.000000
# 6 0.000000 0.000000 0.000000 -0.066930 0.000000 0.145360
#
#
# Mechanical properties :
#
#
# Convention : Reuss Voigt Hill
#
# Bulk Modulus (GPa) = 14.79065 31.19588 22.99326
# Shear Modulus (GPa) = 11.72029 25.86319 18.79174
#
# Velocity S-wave (km/s) = 2.40654 3.57491 3.04725
# Velocity P-wave (km/s) = 3.87693 5.69694 4.87266
#
# Compressibility (1/GPa) = 0.06761030
#
# Stress axis : x y z
#
# Youngs Moduli (GPa) = 42.73563 116.98634 28.70806
#
# Poissons Ratio (x) = 0.28219 -0.00237
# Poissons Ratio (y) = 0.10309 -0.07878
# Poissons Ratio (z) = -0.00353 -0.32103
#
# Static dielectric constant tensor:
#      x y z
#    x 1.725130 0.000000 0.053150 
#    y 0.000000 1.843950 0.000000 
#    z 0.053150 0.000000 1.733680 
# 
# From -- ./inp_files/95598.got.cif
#   From: 2010.05.17/outbox.cif.g08.bks.cpg/sg13_48_cif.got.tgz:95598.got - 2010.06.03 16:44:36.
