data_PCOD9226621
_publ_section_title
;
Structure prediction by ZEFSAII (Michael W. Deem and Ramdas Pophale) SiO2 
 PCOD9226621
Probable space group: P 2/C
;
_chemical_formula_sum "Si O2"
_cell_formula_units_Z 24
_cell_length_a 19.187135
_cell_length_b 11.805158
_cell_length_c 14.335089
_cell_angle_alpha 90.000000
_cell_angle_beta 19.200594
_cell_angle_gamma 90.000000
_cell_volume 1067.861891
_symmetry_space_group_name_H-M "P 2/C"
_symmetry_group_IT_number 13
_symmetry_cell_setting 'monoclinic'
loop_
_space_group_symop_operation_xyz
x,y,z
-x,y,1/2-z
-x,-y,-z
x,-y,1/2+z
loop_
_atom_site_type_symbol
_atom_site_label
_atom_site_fract_x
_atom_site_fract_y
_atom_site_fract_z
Si Si1 0.847485 0.545757 0.566317
Si Si2 0.190233 0.692808 0.390756
Si Si3 0.420289 0.698879 0.457437
Si Si4 0.520667 0.614455 0.827032
Si Si5 0.969867 0.866830 0.551708
Si Si6 0.130892 0.236728 0.666622
O O1 0.949739 0.421590 0.422740
O O2 0.667574 0.548324 0.713701
O O3 0.017335 0.641967 0.328773
O O4 0.724145 0.595810 0.814655
O O5 0.371262 0.709982 0.239841
O O6 0.063287 0.805663 0.526161
O O7 0.310677 0.646422 0.146300
O O8 0.500000 0.687647 0.250000
O O9 0.263610 0.808904 0.664089
O O10 0.500000 0.564802 0.750000
O O11 0.640378 0.733656 0.659580
O O12 0.112057 0.824840 0.286145
O O13 0.000000 0.000000 0.500000
O O14 0.000000 0.177870 0.750000
#
# Coordination Sequence:
#
# PCOD9226621 Si02
#       6
#     4   4   4   4   4   4
#     4   9  21  38  60  97 136 163 203 262 326 396
#     4  11  23  42  64  99 135 168 213 264 325 390
#     4  10  23  45  64  96 135 172 211 263 328 391
#     4  10  17  34  62  94 123 165 211 254 316 392
#     4  11  25  47  66  91 129 174 224 273 316 362
#     4   9  19  40  63  94 125 164 213 264 322 385
#
# _framework density 22.474817000000002
#
# number of rings (size 3 to 8) (size 9 to 14) (size 15 to 20)
#    0.000    2.000    1.667    3.000    0.000    6.667 
#   21.000    0.000    0.000    0.000    0.000    0.000 
#    0.000    0.000    0.000    0.000    0.000    0.000 
#
# Total GULP energy -133827.258808 kJ/mol
# GULP energy per Si atom -5576.135784 kJ/mol
# Density = 2.242366 g / cm^3
# Si number density = 22.474817 Si / 1000 Ang^3
#
#
#
# Elastic Constant Matrix: (Units=GPa)
#
#
# Indices 1 2 3 4 5 6 
#
# 1 140.8162 41.9297 4.1791 0.0000 -0.9138 0.0000
# 2 41.9297 162.0708 10.8420 0.0000 -14.7417 0.0000
# 3 4.1791 10.8420 37.5963 0.0000 18.1816 0.0000
# 4 0.0000 0.0000 0.0000 12.3821 0.0000 -2.5236
# 5 -0.9138 -14.7417 18.1816 0.0000 45.3106 0.0000
# 6 0.0000 0.0000 0.0000 -2.5236 0.0000 13.8556
#
#
#
# Elastic Compliance Matrix: (Units=1/GPa)
#
#
# Indices 1 2 3 4 5 6 
#
# 1 0.007706 -0.002037 -0.000030 0.000000 -0.000495 0.000000
# 2 -0.002037 0.007295 -0.003729 0.000000 0.003828 0.000000
# 3 -0.000030 -0.003729 0.035069 0.000000 -0.015286 0.000000
# 4 0.000000 0.000000 0.000000 0.083876 0.000000 0.015277
# 5 -0.000495 0.003828 -0.015286 0.000000 0.029439 0.000000
# 6 0.000000 0.000000 0.000000 0.015277 0.000000 0.074956
#
#
# Mechanical properties :
#
#
# Convention : Reuss Voigt Hill
#
# Bulk Modulus (GPa) = 25.98790 50.48721 38.23755
# Shear Modulus (GPa) = 19.02903 33.21182 26.12042
#
# Velocity S-wave (km/s) = 2.91294 3.84830 3.41282
# Velocity P-wave (km/s) = 4.78559 6.50066 5.70791
#
# Compressibility (1/GPa) = 0.03847945
#
# Stress axis : x y z
#
# Youngs Moduli (GPa) = 129.77676 137.08592 28.51507
#
# Poissons Ratio (x) = 0.27919 0.00085
# Poissons Ratio (y) = 0.26430 0.10632
# Poissons Ratio (z) = 0.00386 0.51115
#
# Static dielectric constant tensor:
#      x y z
#    x 1.921500 0.000000 -0.008920 
#    y 0.000000 1.899980 0.000000 
#    z -0.008920 0.000000 1.910670 
# 
# From -- ./inp_files/57659.got.cif
#   From: 2010.05.17/outbox.cif.g08.bks.cpg/sg13_29_cif.got.tgz:57659.got - 2010.06.03 16:44:36.
