data_PCOD9226573
_publ_section_title
;
Structure prediction by ZEFSAII (Michael W. Deem and Ramdas Pophale) SiO2 
 PCOD9226573
Probable space group: P 2/C
;
_chemical_formula_sum "Si O2"
_cell_formula_units_Z 26
_cell_length_a 30.564204
_cell_length_b 9.364291
_cell_length_c 17.256597
_cell_angle_alpha 90.000000
_cell_angle_beta 164.255938
_cell_angle_gamma 90.000000
_cell_volume 1340.164445
_symmetry_space_group_name_H-M "P 2/C"
_symmetry_group_IT_number 13
_symmetry_cell_setting 'monoclinic'
loop_
_space_group_symop_operation_xyz
x,y,z
-x,y,1/2-z
-x,-y,-z
x,-y,1/2+z
loop_
_atom_site_type_symbol
_atom_site_label
_atom_site_fract_x
_atom_site_fract_y
_atom_site_fract_z
Si Si1 0.000000 0.876855 0.750000
Si Si2 0.873718 0.110209 0.639837
Si Si3 0.333660 0.887755 0.568759
Si Si4 0.186940 0.832993 0.777098
Si Si5 0.198569 0.527682 0.719619
Si Si6 0.500000 0.318270 0.250000
Si Si7 0.000000 0.358332 0.750000
Si Si8 0.963067 0.263149 0.024464
O O1 0.949238 0.782011 0.590381
O O2 0.126314 0.986448 0.924975
O O3 0.718501 0.110586 0.430398
O O4 0.906395 0.257395 0.651092
O O5 0.036618 0.098967 0.971411
O O6 0.479296 0.789560 0.787804
O O7 0.183068 0.808993 0.270763
O O8 0.325623 0.049054 0.522587
O O9 0.228115 0.682294 0.807685
O O10 0.120265 0.795457 0.749018
O O11 0.056409 0.433255 0.515977
O O12 0.133952 0.554078 0.523532
O O13 0.350785 0.424409 0.984021
#
# Coordination Sequence:
#
# PCOD9226573 Si02
#       8
#     2   4   4   4   4   2   2   4
#     4  11  15  26  52  88 116 132 174 232 298 322
#     4   9  17  30  56  88 111 141 185 244 282 335
#     4  10  18  36  54  78 108 153 198 233 276 331
#     4  10  17  33  56  82 109 145 195 239 285 329
#     4  10  21  36  54  86 117 153 187 231 288 343
#     4  10  24  38  56  78 116 158 202 236 268 338
#     4   9  19  34  58  88 118 146 184 240 296 334
#     4  10  18  29  52  85 114 138 181 244 286 334
#
# _framework density 19.400603
#
# number of rings (size 3 to 8) (size 9 to 14) (size 15 to 20)
#    0.000    2.154    3.077    1.846    0.000    1.846 
#    0.000    0.769    0.000    5.538    0.000    0.000 
#    0.000    0.000    0.000    0.000    0.000    0.000 
#
# Total GULP energy -144804.250604 kJ/mol
# GULP energy per Si atom -5569.394254 kJ/mol
# Density = 1.935645 g / cm^3
# Si number density = 19.400603 Si / 1000 Ang^3
#
#
#
# Elastic Constant Matrix: (Units=GPa)
#
#
# Indices 1 2 3 4 5 6 
#
# 1 117.0646 35.1484 19.2353 0.0000 0.3500 0.0000
# 2 35.1484 124.8633 26.9677 0.0000 6.1177 0.0000
# 3 19.2353 26.9677 20.9584 0.0000 4.3789 0.0000
# 4 0.0000 0.0000 0.0000 18.5621 0.0000 1.5238
# 5 0.3500 6.1177 4.3789 0.0000 20.0284 0.0000
# 6 0.0000 0.0000 0.0000 1.5238 0.0000 24.1447
#
#
#
# Elastic Compliance Matrix: (Units=1/GPa)
#
#
# Indices 1 2 3 4 5 6 
#
# 1 0.010258 -0.001194 -0.008296 0.000000 0.001999 0.000000
# 2 -0.001194 0.011231 -0.013249 0.000000 -0.000513 0.000000
# 3 -0.008296 -0.013249 0.074922 0.000000 -0.012189 0.000000
# 4 0.000000 0.000000 0.000000 0.054154 0.000000 -0.003418
# 5 0.001999 -0.000513 -0.012189 0.000000 0.052716 0.000000
# 6 0.000000 0.000000 0.000000 -0.003418 0.000000 0.041633
#
#
# Mechanical properties :
#
#
# Convention : Reuss Voigt Hill
#
# Bulk Modulus (GPa) = 19.63342 47.28769 33.46055
# Shear Modulus (GPa) = 16.26707 24.64937 20.45822
#
# Velocity S-wave (km/s) = 2.89880 3.56834 3.25085
# Velocity P-wave (km/s) = 4.62017 6.43464 5.60137
#
# Compressibility (1/GPa) = 0.05093356
#
# Stress axis : x y z
#
# Youngs Moduli (GPa) = 97.48571 89.03605 13.34718
#
# Poissons Ratio (x) = 0.10628 0.11073
# Poissons Ratio (y) = 0.11637 0.17684
# Poissons Ratio (z) = 0.80877 1.17964
#
# Static dielectric constant tensor:
#      x y z
#    x 1.730720 0.000000 0.037210 
#    y 0.000000 1.727440 0.000000 
#    z 0.037210 0.000000 1.696750 
# 
# From -- ./inp_files/65637.got.cif
#   From: 2010.05.17/outbox.cif.g08.bks.cpg/sg13_33_cif.got.tgz:65637.got - 2010.06.03 16:44:36.
