data_PCOD9226368
_publ_section_title
;
Structure prediction by ZEFSAII (Michael W. Deem and Ramdas Pophale) SiO2 
 PCOD9226368
Probable space group: P 2/C
;
_chemical_formula_sum "Si O2"
_cell_formula_units_Z 28
_cell_length_a 11.025225
_cell_length_b 24.587235
_cell_length_c 5.178130
_cell_angle_alpha 90.000000
_cell_angle_beta 97.093289
_cell_angle_gamma 90.000000
_cell_volume 1392.943192
_symmetry_space_group_name_H-M "P 2/C"
_symmetry_group_IT_number 13
_symmetry_cell_setting 'monoclinic'
loop_
_space_group_symop_operation_xyz
x,y,z
-x,y,1/2-z
-x,-y,-z
x,-y,1/2+z
loop_
_atom_site_type_symbol
_atom_site_label
_atom_site_fract_x
_atom_site_fract_y
_atom_site_fract_z
Si Si1 0.376445 0.350524 0.339787
Si Si2 0.140472 0.021903 0.492693
Si Si3 0.652302 0.531621 0.461754
Si Si4 0.147495 0.204414 0.801113
Si Si5 0.922235 0.574157 0.468800
Si Si6 0.227882 0.326471 0.794250
Si Si7 0.145141 0.854923 0.802254
O O1 0.500000 0.327251 0.250000
O O2 0.399531 0.411415 0.451159
O O3 0.323475 0.321467 0.580728
O O4 0.283106 0.351572 0.072676
O O5 0.151208 0.082026 0.382183
O O6 0.195512 0.017427 0.790987
O O7 0.000000 0.000000 0.500000
O O8 0.621331 0.514237 0.163380
O O9 0.799128 0.541060 0.497181
O O10 0.179639 0.267019 0.850668
O O11 0.196595 0.182203 0.543303
O O12 0.000000 0.200330 0.750000
O O13 0.193150 0.165015 0.040576
O O14 0.872486 0.632202 0.347803
O O15 0.000000 0.580786 0.750000
O O16 0.000000 0.550190 0.250000
O O17 0.000000 0.844236 0.750000
#
# Coordination Sequence:
#
# PCOD9226368 Si02
#       7
#     4   4   4   4   4   4   4
#     4  11  24  42  64  82 101 133 175 221 272 344
#     4  10  17  24  40  57  88 137 186 238 247 276
#     4  11  23  38  56  84 113 136 169 214 264 319
#     4  10  21  31  49  72 104 139 174 226 256 305
#     4  11  22  36  57  80 110 149 181 210 249 316
#     4  11  22  40  58  80 107 135 181 224 276 313
#     4  10  18  28  40  66  97 133 189 227 250 292
#
# _framework density 20.101320999999999
#
# number of rings (size 3 to 8) (size 9 to 14) (size 15 to 20)
#    0.000    1.429    1.429    6.857    4.000    4.000 
#    0.000    0.000    0.000    0.000    0.000    0.000 
#    0.000    0.000    0.000    0.000    0.000  180.000 
#
# Total GULP energy -156344.013327 kJ/mol
# GULP energy per Si atom -5583.714762 kJ/mol
# Density = 2.005557 g / cm^3
# Si number density = 20.101321 Si / 1000 Ang^3
#
#
#
# Elastic Constant Matrix: (Units=GPa)
#
#
# Indices 1 2 3 4 5 6 
#
# 1 38.9188 1.9335 18.2294 0.0000 -9.0868 0.0000
# 2 1.9335 98.7531 44.0849 0.0000 6.1855 0.0000
# 3 18.2294 44.0849 162.3426 0.0000 -0.4987 0.0000
# 4 0.0000 0.0000 0.0000 34.3405 0.0000 -5.5746
# 5 -9.0868 6.1855 -0.4987 0.0000 31.1605 0.0000
# 6 0.0000 0.0000 0.0000 -5.5746 0.0000 9.0908
#
#
#
# Elastic Compliance Matrix: (Units=1/GPa)
#
#
# Indices 1 2 3 4 5 6 
#
# 1 0.029207 0.000405 -0.003364 0.000000 0.008383 0.000000
# 2 0.000405 0.011702 -0.003230 0.000000 -0.002256 0.000000
# 3 -0.003364 -0.003230 0.007414 0.000000 -0.000221 0.000000
# 4 0.000000 0.000000 0.000000 0.032339 0.000000 0.019831
# 5 0.008383 -0.002256 -0.000221 0.000000 0.034981 0.000000
# 6 0.000000 0.000000 0.000000 0.019831 0.000000 0.122163
#
#
# Mechanical properties :
#
#
# Convention : Reuss Voigt Hill
#
# Bulk Modulus (GPa) = 27.82053 47.61222 37.71638
# Shear Modulus (GPa) = 19.07191 30.63612 24.85402
#
# Velocity S-wave (km/s) = 3.08358 3.90819 3.52012
# Velocity P-wave (km/s) = 5.15249 6.64099 5.94352
#
# Compressibility (1/GPa) = 0.03594467
#
# Stress axis : x y z
#
# Youngs Moduli (GPa) = 34.23803 85.45841 134.88038
#
# Poissons Ratio (x) = -0.03459 0.45371
# Poissons Ratio (y) = -0.01386 0.43566
# Poissons Ratio (z) = 0.11517 0.27603
#
# Static dielectric constant tensor:
#      x y z
#    x 1.806670 0.000000 0.055280 
#    y 0.000000 1.724190 0.000000 
#    z 0.055280 0.000000 1.807060 
# 
# From -- ./inp_files/3942.got.cif
#   From: 2010.05.17/outbox.cif.g08.bks.cpg/sg13_2_cif.got.tgz:3942.got - 2010.06.03 16:44:36.
