data_PCOD9226438
_publ_section_title
;
Structure prediction by ZEFSAII (Michael W. Deem and Ramdas Pophale) SiO2 
 PCOD9226438
Probable space group: P 2/C
;
_chemical_formula_sum "Si O2"
_cell_formula_units_Z 32
_cell_length_a 11.099944
_cell_length_b 7.835187
_cell_length_c 17.260803
_cell_angle_alpha 90.000000
_cell_angle_beta 128.304321
_cell_angle_gamma 90.000000
_cell_volume 1178.016028
_symmetry_space_group_name_H-M "P 2/C"
_symmetry_group_IT_number 13
_symmetry_cell_setting 'monoclinic'
loop_
_space_group_symop_operation_xyz
x,y,z
-x,y,1/2-z
-x,-y,-z
x,-y,1/2+z
loop_
_atom_site_type_symbol
_atom_site_label
_atom_site_fract_x
_atom_site_fract_y
_atom_site_fract_z
Si Si1 0.129761 0.216083 0.857633
Si Si2 0.825577 0.763713 0.651976
Si Si3 0.656806 0.425906 0.646112
Si Si4 0.551108 0.049654 0.106927
Si Si5 0.571701 0.604092 0.864269
Si Si6 0.240577 0.051491 0.528194
Si Si7 0.887256 0.750630 0.944623
Si Si8 0.089736 0.560792 0.138791
O O1 0.290335 0.271910 0.885229
O O2 0.171334 0.098488 0.945212
O O3 0.038433 0.383721 0.850916
O O4 0.000000 0.139691 0.750000
O O5 0.734312 0.592672 0.639656
O O6 0.732047 0.912869 0.663297
O O7 0.000000 0.756600 0.750000
O O8 0.807719 0.798735 0.551612
O O9 0.483051 0.458219 0.599150
O O10 0.747031 0.389252 0.761786
O O11 0.499519 0.228117 0.125077
O O12 0.426322 0.937081 0.107470
O O13 0.500000 0.000000 0.000000
O O14 0.500000 0.585490 0.750000
O O15 0.750151 0.636633 0.927219
O O16 0.168019 0.949789 0.576117
O O17 0.900909 0.641494 0.871224
O O18 0.043259 0.686057 0.049239
#
# Coordination Sequence:
#
# PCOD9226438 Si02
#       8
#     4   4   4   4   4   4   4   4
#     4   9  17  29  47  73 103 133 165 205 252 303
#     4  10  18  30  49  72  98 131 165 212 252 300
#     4  10  19  31  48  74 103 130 166 212 258 299
#     4   8  17  31  47  72 100 129 167 215 261 298
#     4  10  17  29  49  76 100 132 181 215 249 312
#     4   9  17  31  49  72 100 130 174 206 250 309
#     4   9  17  29  48  74 102 134 170 209 256 308
#     4   9  16  29  47  70 104 133 161 204 258 306
#
# _framework density 27.164318000000002
#
# number of rings (size 3 to 8) (size 9 to 14) (size 15 to 20)
#    0.000    2.750    1.250    1.500    0.000    0.000 
#    0.000   11.250    0.000    3.000    3.250    7.875 
#    0.000    0.000    0.000    0.000    0.000    0.000 
#
# Total GULP energy -178157.385476 kJ/mol
# GULP energy per Si atom -5567.418296 kJ/mol
# Density = 2.710249 g / cm^3
# Si number density = 27.164318 Si / 1000 Ang^3
#
#
#
# Elastic Constant Matrix: (Units=GPa)
#
#
# Indices 1 2 3 4 5 6 
#
# 1 101.5693 37.2485 17.5840 0.0000 32.9388 0.0000
# 2 37.2485 103.3003 12.4043 0.0000 7.5627 0.0000
# 3 17.5840 12.4043 76.6970 0.0000 16.7077 0.0000
# 4 0.0000 0.0000 0.0000 29.2494 0.0000 11.4375
# 5 32.9388 7.5627 16.7077 0.0000 42.9554 0.0000
# 6 0.0000 0.0000 0.0000 11.4375 0.0000 6.1179
#
#
#
# Elastic Compliance Matrix: (Units=1/GPa)
#
#
# Indices 1 2 3 4 5 6 
#
# 1 0.015024 -0.004596 -0.000402 0.000000 -0.010555 0.000000
# 2 -0.004596 0.011337 -0.001216 0.000000 0.002001 0.000000
# 3 -0.000402 -0.001216 0.014437 0.000000 -0.005093 0.000000
# 4 0.000000 0.000000 0.000000 0.127117 0.000000 -0.237648
# 5 -0.010555 0.002001 -0.005093 0.000000 0.033002 0.000000
# 6 0.000000 0.000000 0.000000 -0.237648 0.000000 0.607744
#
#
# Mechanical properties :
#
#
# Convention : Reuss Voigt Hill
#
# Bulk Modulus (GPa) = 35.24891 46.22671 40.73781
# Shear Modulus (GPa) = 6.02015 29.95318 17.98666
#
# Velocity S-wave (km/s) = 1.49030 3.32424 2.57601
# Velocity P-wave (km/s) = 3.99571 5.63813 4.88642
#
# Compressibility (1/GPa) = 0.02836967
#
# Stress axis : x y z
#
# Youngs Moduli (GPa) = 66.56218 88.20401 69.26868
#
# Poissons Ratio (x) = 0.40541 0.02783
# Poissons Ratio (y) = 0.30594 0.08422
# Poissons Ratio (z) = 0.02674 0.10724
#
# Static dielectric constant tensor:
#      x y z
#    x 2.346880 0.000000 -0.110350 
#    y 0.000000 2.269400 0.000000 
#    z -0.110350 0.000000 2.205180 
# 
# From -- ./inp_files/78302.got.cif
#   From: 2010.05.17/outbox.cif.g08.bks.cpg/sg13_40_cif.got.tgz:78302.got - 2010.06.03 16:44:36.
