data_PCOD9226922
_publ_section_title
;
Structure prediction by ZEFSAII (Michael W. Deem and Ramdas Pophale) SiO2 
 PCOD9226922
Probable space group: P 2/C
;
_chemical_formula_sum "Si O2"
_cell_formula_units_Z 32
_cell_length_a 23.207439
_cell_length_b 8.400374
_cell_length_c 21.878621
_cell_angle_alpha 90.000000
_cell_angle_beta 157.624040
_cell_angle_gamma 90.000000
_cell_volume 1623.710546
_symmetry_space_group_name_H-M "P 2/C"
_symmetry_group_IT_number 13
_symmetry_cell_setting 'monoclinic'
loop_
_space_group_symop_operation_xyz
x,y,z
-x,y,1/2-z
-x,-y,-z
x,-y,1/2+z
loop_
_atom_site_type_symbol
_atom_site_label
_atom_site_fract_x
_atom_site_fract_y
_atom_site_fract_z
Si Si1 0.774307 0.756113 0.559723
Si Si2 0.255495 0.330363 0.056335
Si Si3 0.364386 0.089676 0.068688
Si Si4 0.717301 0.242332 0.786780
Si Si5 0.481841 0.450533 0.634635
Si Si6 0.434328 0.643808 0.474967
Si Si7 0.078052 0.366950 0.413746
Si Si8 0.620325 0.111532 0.221722
O O1 0.626499 0.655583 0.430967
O O2 0.819683 0.733351 0.533861
O O3 0.908694 0.682030 0.731809
O O4 0.746796 0.940975 0.544215
O O5 0.278897 0.242427 0.014379
O O6 0.404014 0.437397 0.215999
O O7 0.266229 0.196331 0.119368
O O8 0.117926 0.451071 0.933998
O O9 0.500000 0.053874 0.250000
O O10 0.459251 0.097646 0.099391
O O11 0.584887 0.333688 0.694565
O O12 0.696270 0.280893 0.694677
O O13 0.688285 0.055962 0.768718
O O14 0.866655 0.315217 0.965048
O O15 0.394806 0.565550 0.501497
O O16 0.500000 0.500000 0.500000
O O17 0.571189 0.769160 0.619706
#
# Coordination Sequence:
#
# PCOD9226922 Si02
#       8
#     4   4   4   4   4   4   4   4
#     4  11  22  37  54  84 117 148 187 226 286 340
#     4   9  20  33  56  84 114 144 188 229 282 338
#     4  10  20  33  58  90 110 146 190 240 282 333
#     4  10  18  36  57  82 108 148 188 231 284 337
#     4   9  19  34  58  84 112 144 187 237 276 332
#     4   9  19  33  54  86 111 140 184 245 285 326
#     4  10  23  36  54  80 117 156 182 225 283 342
#     4  10  18  31  56  90 107 140 187 244 286 321
#
# _framework density 19.707944999999999
#
# number of rings (size 3 to 8) (size 9 to 14) (size 15 to 20)
#    0.000    2.250    1.250    2.625    8.750    0.000 
#    0.000    5.625    0.000    0.750    0.000    0.000 
#    0.000    0.000    0.000    0.000    0.000    0.000 
#
# Total GULP energy -178485.999935 kJ/mol
# GULP energy per Si atom -5577.687498 kJ/mol
# Density = 1.966309 g / cm^3
# Si number density = 19.707945 Si / 1000 Ang^3
#
#
#
# Elastic Constant Matrix: (Units=GPa)
#
#
# Indices 1 2 3 4 5 6 
#
# 1 19.3885 19.2772 11.2887 0.0000 -9.1444 0.0000
# 2 19.2772 132.7997 23.5390 0.0000 -2.7553 0.0000
# 3 11.2887 23.5390 56.9086 0.0000 -12.1917 0.0000
# 4 0.0000 0.0000 0.0000 27.9431 0.0000 -4.1460
# 5 -9.1444 -2.7553 -12.1917 0.0000 20.1933 0.0000
# 6 0.0000 0.0000 0.0000 -4.1460 0.0000 23.5945
#
#
#
# Elastic Compliance Matrix: (Units=1/GPa)
#
#
# Indices 1 2 3 4 5 6 
#
# 1 0.079218 -0.009991 -0.004811 0.000000 0.031605 0.000000
# 2 -0.009991 0.009406 -0.002990 0.000000 -0.005046 0.000000
# 3 -0.004811 -0.002990 0.022062 0.000000 0.010734 0.000000
# 4 0.000000 0.000000 0.000000 0.036745 0.000000 0.006457
# 5 0.031605 -0.005046 0.010734 0.000000 0.069626 0.000000
# 6 0.000000 0.000000 0.000000 0.006457 0.000000 0.043517
#
#
# Mechanical properties :
#
#
# Convention : Reuss Voigt Hill
#
# Bulk Modulus (GPa) = 13.31495 35.25632 24.28563
# Shear Modulus (GPa) = 15.56708 24.67897 20.12303
#
# Velocity S-wave (km/s) = 2.81354 3.54253 3.19887
# Velocity P-wave (km/s) = 4.16239 5.88735 5.09835
#
# Compressibility (1/GPa) = 0.07510357
#
# Stress axis : x y z
#
# Youngs Moduli (GPa) = 12.62344 106.31929 45.32593
#
# Poissons Ratio (x) = 1.06222 0.21805
# Poissons Ratio (y) = 0.12612 0.13551
# Poissons Ratio (z) = 0.06073 0.31785
#
# Static dielectric constant tensor:
#      x y z
#    x 1.715830 0.000000 -0.048390 
#    y 0.000000 1.733800 0.000000 
#    z -0.048390 0.000000 1.716720 
# 
# From -- ./inp_files/89515.got.cif
#   From: 2010.05.17/outbox.cif.g08.bks.cpg/sg13_45_cif.got.tgz:89515.got - 2010.06.03 16:44:36.
