data_PCOD9226290
_publ_section_title
;
Structure prediction by ZEFSAII (Michael W. Deem and Ramdas Pophale) SiO2 
 PCOD9226290
Probable space group: P 2/C
;
_chemical_formula_sum "Si O2"
_cell_formula_units_Z 26
_cell_length_a 7.823639
_cell_length_b 16.077517
_cell_length_c 8.162886
_cell_angle_alpha 90.000000
_cell_angle_beta 84.345763
_cell_angle_gamma 90.000000
_cell_volume 1021.770430
_symmetry_space_group_name_H-M "P 2/C"
_symmetry_group_IT_number 13
_symmetry_cell_setting 'monoclinic'
loop_
_space_group_symop_operation_xyz
x,y,z
-x,y,1/2-z
-x,-y,-z
x,-y,1/2+z
loop_
_atom_site_type_symbol
_atom_site_label
_atom_site_fract_x
_atom_site_fract_y
_atom_site_fract_z
Si Si1 0.500000 0.251179 0.250000
Si Si2 0.000000 0.361659 0.250000
Si Si3 0.778372 0.746315 0.989358
Si Si4 0.209057 0.372928 0.752203
Si Si5 0.965291 0.094154 0.446736
Si Si6 0.805634 0.513448 0.954241
Si Si7 0.500000 0.021828 0.750000
Si Si8 0.319175 0.885236 0.977503
O O1 0.358748 0.284037 0.134197
O O2 0.606081 0.194399 0.115429
O O3 0.954963 0.298903 0.404886
O O4 0.842981 0.427756 0.291586
O O5 0.801463 0.846395 0.985560
O O6 0.742118 0.715729 0.177270
O O7 0.270839 0.424441 0.588482
O O8 0.000000 0.372903 0.750000
O O9 0.273836 0.431155 0.896884
O O10 0.122451 0.135588 0.527372
O O11 0.000000 0.097412 0.250000
O O12 0.000000 0.000000 0.500000
O O13 0.000000 0.500000 0.000000
O O14 0.411455 0.079491 0.626153
O O15 0.357667 0.960803 0.844105
#
# Coordination Sequence:
#
# PCOD9226290 Si02
#       8
#     2   2   4   4   4   4   2   4
#     4  11  22  42  60  74 118 167 204 240 303 378
#     4  10  16  32  60  88 114 144 194 240 288 352
#     4  11  23  37  58  86 119 160 199 248 307 349
#     4   9  18  32  56  92 123 146 193 239 296 357
#     4  12  24  41  60  88 117 155 204 263 305 351
#     4   9  14  27  55  93 118 150 180 240 293 348
#     4   9  20  34  62  88 102 147 186 254 307 368
#     4  10  20  38  61  81 111 147 202 245 305 365
#
# _framework density 25.446027999999998
#
# number of rings (size 3 to 8) (size 9 to 14) (size 15 to 20)
#    0.000    1.846    4.615    0.923    4.308    0.615 
#    2.769    0.000    0.000    3.692    0.000    0.000 
#    0.000    0.000    0.000    0.000    0.000    0.000 
#
# Total GULP energy -144760.087405 kJ/mol
# GULP energy per Si atom -5567.695669 kJ/mol
# Density = 2.538811 g / cm^3
# Si number density = 25.446028 Si / 1000 Ang^3
#
#
#
# Elastic Constant Matrix: (Units=GPa)
#
#
# Indices 1 2 3 4 5 6 
#
# 1 62.9007 10.0317 12.9172 0.0000 25.9066 0.0000
# 2 10.0317 108.1729 32.8797 0.0000 21.2796 0.0000
# 3 12.9172 32.8797 89.8714 0.0000 24.8336 0.0000
# 4 0.0000 0.0000 0.0000 83.2424 0.0000 17.9597
# 5 25.9066 21.2796 24.8336 0.0000 22.2317 0.0000
# 6 0.0000 0.0000 0.0000 17.9597 0.0000 4.1446
#
#
#
# Elastic Compliance Matrix: (Units=1/GPa)
#
#
# Indices 1 2 3 4 5 6 
#
# 1 0.037317 0.005359 0.008837 0.000000 -0.058486 0.000000
# 2 0.005359 0.012334 -0.000427 0.000000 -0.017574 0.000000
# 3 0.008837 -0.000427 0.018436 0.000000 -0.030484 0.000000
# 4 0.000000 0.000000 0.000000 0.184605 0.000000 -0.799954
# 5 -0.058486 -0.017574 -0.030484 0.000000 0.164007 0.000000
# 6 0.000000 0.000000 0.000000 -0.799954 0.000000 3.707742
#
#
# Mechanical properties :
#
#
# Convention : Reuss Voigt Hill
#
# Bulk Modulus (GPa) = 10.45746 41.40024 25.92885
# Shear Modulus (GPa) = 1.21101 35.59814 18.40458
#
# Velocity S-wave (km/s) = 0.69061 3.74433 2.69230
# Velocity P-wave (km/s) = 2.18048 5.91596 4.45831
#
# Compressibility (1/GPa) = 0.09562554
#
# Stress axis : x y z
#
# Youngs Moduli (GPa) = 26.79740 81.07476 54.24085
#
# Poissons Ratio (x) = -0.43444 -0.47933
# Poissons Ratio (y) = -0.14359 0.02314
# Poissons Ratio (z) = -0.23681 0.03459
#
# Static dielectric constant tensor:
#      x y z
#    x 2.114970 0.000000 -0.011510 
#    y 0.000000 2.217190 0.000000 
#    z -0.011510 0.000000 2.037880 
# 
# From -- ./inp_files/13168.got.cif
#   From: 2010.05.17/outbox.cif.g08.bks.cpg/sg13_7_cif.got.tgz:13168.got - 2010.06.03 16:44:36.
