data_PCOD9226125
_publ_section_title
;
Structure prediction by ZEFSAII (Michael W. Deem and Ramdas Pophale) SiO2 
 PCOD9226125
Probable space group: P 2/C
;
_chemical_formula_sum "Si O2"
_cell_formula_units_Z 28
_cell_length_a 16.039114
_cell_length_b 14.216508
_cell_length_c 5.425374
_cell_angle_alpha 90.000000
_cell_angle_beta 70.401158
_cell_angle_gamma 90.000000
_cell_volume 1165.422786
_symmetry_space_group_name_H-M "P 2/C"
_symmetry_group_IT_number 13
_symmetry_cell_setting 'monoclinic'
loop_
_space_group_symop_operation_xyz
x,y,z
-x,y,1/2-z
-x,-y,-z
x,-y,1/2+z
loop_
_atom_site_type_symbol
_atom_site_label
_atom_site_fract_x
_atom_site_fract_y
_atom_site_fract_z
Si Si1 0.724932 0.613282 0.099738
Si Si2 0.053993 0.143093 0.444832
Si Si3 0.540758 0.107276 0.459398
Si Si4 0.466048 0.609509 0.033080
Si Si5 0.232313 0.602746 0.945471
Si Si6 0.253650 0.060425 0.262834
Si Si7 0.046670 0.369520 0.451752
O O1 0.637201 0.624162 0.347200
O O2 0.790937 0.644438 0.258348
O O3 0.729963 0.501245 0.048955
O O4 0.716484 0.655349 0.831571
O O5 0.157590 0.112587 0.344001
O O6 0.055331 0.256530 0.436557
O O7 0.000000 0.112209 0.250000
O O8 0.000000 0.116041 0.750000
O O9 0.500000 0.148118 0.250000
O O10 0.648237 0.108406 0.350532
O O11 0.500000 0.000000 0.500000
O O12 0.500000 0.147928 0.750000
O O13 0.500000 0.650332 0.250000
O O14 0.500000 0.650141 0.750000
O O15 0.500000 0.500000 0.000000
O O16 0.142968 0.588182 0.879204
O O17 0.253533 0.008557 0.526869
O O18 0.000000 0.399669 0.250000
O O19 0.000000 0.394311 0.750000
#
# Coordination Sequence:
#
# PCOD9226125 Si02
#       7
#     4   4   4   4   4   4   4
#     4  10  19  30  45  77 106 120 159 215 265 302
#     4  10  23  40  54  76 109 142 181 221 253 310
#     4  10  16  30  48  76 112 136 169 209 250 297
#     4  10  16  25  41  63  96 128 161 185 241 306
#     4  10  18  32  50  70  98 128 158 207 260 301
#     4  12  21  32  56  84 110 140 176 209 271 315
#     4  10  21  39  57  70  93 135 180 208 244 306
#
# _framework density 24.025618999999999
#
# number of rings (size 3 to 8) (size 9 to 14) (size 15 to 20)
#    0.000    1.714    2.857    6.000    0.000    1.714 
#    0.000    8.571    0.000    0.000    0.000   12.000 
#    0.000    0.000    0.000    0.000    0.000    0.000 
#
# Total GULP energy -156035.792210 kJ/mol
# GULP energy per Si atom -5572.706865 kJ/mol
# Density = 2.397094 g / cm^3
# Si number density = 24.025619 Si / 1000 Ang^3
#
#
#
# Elastic Constant Matrix: (Units=GPa)
#
#
# Indices 1 2 3 4 5 6 
#
# 1 117.3526 16.8807 27.2894 0.0000 0.2361 0.0000
# 2 16.8807 64.8239 14.4017 0.0000 -3.7349 0.0000
# 3 27.2894 14.4017 179.0413 0.0000 23.5511 0.0000
# 4 0.0000 0.0000 0.0000 -14.9962 0.0000 29.1936
# 5 0.2361 -3.7349 23.5511 0.0000 66.7385 0.0000
# 6 0.0000 0.0000 0.0000 29.1936 0.0000 -91.2080
#
#
#
# Elastic Compliance Matrix: (Units=1/GPa)
#
#
# Indices 1 2 3 4 5 6 
#
# 1 0.009113 -0.002076 -0.001261 0.000000 0.000297 0.000000
# 2 -0.002076 0.016304 -0.001170 0.000000 0.001333 0.000000
# 3 -0.001261 -0.001170 0.006166 0.000000 -0.002237 0.000000
# 4 0.000000 0.000000 0.000000 -0.176928 0.000000 -0.056630
# 5 0.000297 0.001333 -0.002237 0.000000 0.015847 0.000000
# 6 0.000000 0.000000 0.000000 -0.056630 0.000000 -0.029090
#
#
# Mechanical properties :
#
#
# Convention : Reuss Voigt Hill
#
# Bulk Modulus (GPa) = 44.31049 53.15125 48.73087
# Shear Modulus (GPa) = -35.19842 12.28325 -11.45759
#
# Velocity S-wave (km/s) = -3.83173 2.26355 -2.18615
# Velocity P-wave (km/s) = 1.04555 5.38538 3.73558
#
# Compressibility (1/GPa) = 0.02256802
#
# Stress axis : x y z
#
# Youngs Moduli (GPa) = 109.73876 61.33553 162.18274
#
# Poissons Ratio (x) = 0.12732 0.20451
# Poissons Ratio (y) = 0.22779 0.18981
# Poissons Ratio (z) = 0.13838 0.07178
#
# Static dielectric constant tensor:
#      x y z
#    x 1.472550 0.000000 2.053880 
#    y 0.000000 1.923350 0.000000 
#    z 2.053880 0.000000 1.069310 
# 
# From -- ./inp_files/5225.got.cif
#   From: 2010.05.17/outbox.cif.g08.bks.cpg/sg13_3_cif.got.tgz:5225.got - 2010.06.03 16:44:36.
