data_PCOD9226713
_publ_section_title
;
Structure prediction by ZEFSAII (Michael W. Deem and Ramdas Pophale) SiO2 
 PCOD9226713
Probable space group: P 2/C
;
_chemical_formula_sum "Si O2"
_cell_formula_units_Z 30
_cell_length_a 9.818615
_cell_length_b 31.659249
_cell_length_c 5.298518
_cell_angle_alpha 90.000000
_cell_angle_beta 99.126327
_cell_angle_gamma 90.000000
_cell_volume 1626.194316
_symmetry_space_group_name_H-M "P 2/C"
_symmetry_group_IT_number 13
_symmetry_cell_setting 'monoclinic'
loop_
_space_group_symop_operation_xyz
x,y,z
-x,y,1/2-z
-x,-y,-z
x,-y,1/2+z
loop_
_atom_site_type_symbol
_atom_site_label
_atom_site_fract_x
_atom_site_fract_y
_atom_site_fract_z
Si Si1 0.000000 0.328837 0.250000
Si Si2 0.848346 0.381342 0.830269
Si Si3 0.168504 0.877915 0.293136
Si Si4 0.343925 0.693766 0.282349
Si Si5 0.831814 0.024648 0.707066
Si Si6 0.773483 0.731855 0.772948
Si Si7 0.167161 0.522354 0.276028
Si Si8 0.166251 0.170148 0.290848
O O1 0.911990 0.294999 0.387827
O O2 0.114904 0.361141 0.388612
O O3 0.735026 0.350082 0.686216
O O4 0.803973 0.429660 0.796748
O O5 0.000000 0.377954 0.750000
O O6 0.210793 0.926645 0.279596
O O7 0.215051 0.858156 0.571044
O O8 0.000000 0.877493 0.250000
O O9 0.214158 0.849265 0.070759
O O10 0.500000 0.685958 0.250000
O O11 0.330435 0.721695 0.530181
O O12 0.272148 0.715431 0.017162
O O13 0.000000 0.024613 0.750000
O O14 0.787480 0.003059 0.433289
O O15 0.797684 0.781376 0.750369
O O16 0.216708 0.508453 0.567104
O O17 0.000000 0.519243 0.250000
O O18 0.000000 0.167895 0.250000
#
# Coordination Sequence:
#
# PCOD9226713 Si02
#       8
#     2   4   4   4   4   4   4   4
#     4  10  20  32  52  84 104 132 178 224 260 310
#     4  10  20  34  57  79 109 137 178 219 263 307
#     4   9  17  26  38  60  91 123 166 218 265 303
#     4  11  24  39  56  79 108 141 177 219 266 316
#     4   9  15  23  35  51  77 120 170 212 248 300
#     4  11  21  36  55  75 105 136 177 218 269 312
#     4   9  19  30  48  76 108 135 165 208 261 311
#     4  10  18  29  45  68  95 126 164 218 266 305
#
# _framework density 18.447979
#
# number of rings (size 3 to 8) (size 9 to 14) (size 15 to 20)
#    0.000    2.133    2.000    2.000    4.667    3.200 
#    0.000    0.000    0.000    0.800    0.000    0.000 
#    0.000    0.000    0.000    0.000    0.000  168.000 
#
# Total GULP energy -167084.312230 kJ/mol
# GULP energy per Si atom -5569.477074 kJ/mol
# Density = 1.840599 g / cm^3
# Si number density = 18.447979 Si / 1000 Ang^3
#
#
#
# Elastic Constant Matrix: (Units=GPa)
#
#
# Indices 1 2 3 4 5 6 
#
# 1 29.1584 19.8442 8.1190 0.0000 -12.3318 0.0000
# 2 19.8442 155.2218 64.7008 0.0000 -14.1745 0.0000
# 3 8.1190 64.7008 111.0256 0.0000 -18.8970 0.0000
# 4 0.0000 0.0000 0.0000 28.9514 0.0000 -3.2110
# 5 -12.3318 -14.1745 -18.8970 0.0000 16.4732 0.0000
# 6 0.0000 0.0000 0.0000 -3.2110 0.0000 2.1154
#
#
#
# Elastic Compliance Matrix: (Units=1/GPa)
#
#
# Indices 1 2 3 4 5 6 
#
# 1 0.054999 -0.005888 0.006902 0.000000 0.044024 0.000000
# 2 -0.005888 0.009195 -0.005382 0.000000 -0.002670 0.000000
# 3 0.006902 -0.005382 0.014576 0.000000 0.017256 0.000000
# 4 0.000000 0.000000 0.000000 0.041533 0.000000 0.063044
# 5 0.044024 -0.002670 0.017256 0.000000 0.111158 0.000000
# 6 0.000000 0.000000 0.000000 0.063044 0.000000 0.568426
#
#
# Mechanical properties :
#
#
# Convention : Reuss Voigt Hill
#
# Bulk Modulus (GPa) = 14.27883 53.41487 33.84685
# Shear Modulus (GPa) = 6.00985 23.02413 14.51699
#
# Velocity S-wave (km/s) = 1.80688 3.53662 2.80824
# Velocity P-wave (km/s) = 3.47993 6.75974 5.37606
#
# Compressibility (1/GPa) = 0.07003376
#
# Stress axis : x y z
#
# Youngs Moduli (GPa) = 18.18202 108.75724 68.60696
#
# Poissons Ratio (x) = 0.64040 -0.47356
# Poissons Ratio (y) = 0.10706 0.36926
# Poissons Ratio (z) = -0.12550 0.58536
#
# Static dielectric constant tensor:
#      x y z
#    x 1.641560 0.000000 -0.001520 
#    y 0.000000 1.618670 0.000000 
#    z -0.001520 0.000000 1.732120 
# 
# From -- ./inp_files/2637.got.cif
#   From: 2010.05.17/outbox.cif.g08.bks.cpg/sg13_2_cif.got.tgz:2637.got - 2010.06.03 16:44:36.
