data_PCOD9226370
_publ_section_title
;
Structure prediction by ZEFSAII (Michael W. Deem and Ramdas Pophale) SiO2 
 PCOD9226370
Probable space group: P 2/C
;
_chemical_formula_sum "Si O2"
_cell_formula_units_Z 28
_cell_length_a 7.772888
_cell_length_b 30.560860
_cell_length_c 5.493265
_cell_angle_alpha 90.000000
_cell_angle_beta 121.792875
_cell_angle_gamma 90.000000
_cell_volume 1109.113797
_symmetry_space_group_name_H-M "P 2/C"
_symmetry_group_IT_number 13
_symmetry_cell_setting 'monoclinic'
loop_
_space_group_symop_operation_xyz
x,y,z
-x,y,1/2-z
-x,-y,-z
x,-y,1/2+z
loop_
_atom_site_type_symbol
_atom_site_label
_atom_site_fract_x
_atom_site_fract_y
_atom_site_fract_z
Si Si1 0.261831 0.019157 0.591359
Si Si2 0.265180 0.516227 0.296668
Si Si3 0.261571 0.385517 0.594827
Si Si4 0.253522 0.345997 0.090477
Si Si5 0.247077 0.789386 0.187963
Si Si6 0.871424 0.883994 0.404750
Si Si7 0.786289 0.246131 0.337316
O O1 0.500000 0.009029 0.750000
O O2 0.234837 0.069335 0.647543
O O3 0.183292 0.010218 0.258631
O O4 0.500000 0.500000 0.500000
O O5 0.184368 0.513073 0.512370
O O6 0.250848 0.565023 0.182667
O O7 0.500000 0.374763 0.750000
O O8 0.190229 0.378820 0.262772
O O9 0.183714 0.356077 0.762016
O O10 0.500000 0.347597 0.250000
O O11 0.193505 0.298165 0.140115
O O12 0.269718 0.841444 0.216526
O O13 0.314046 0.767064 0.485049
O O14 0.317047 0.770075 0.985193
O O15 0.005163 0.777642 0.003203
O O16 0.000000 0.884478 0.250000
O O17 0.000000 0.878278 0.750000
#
# Coordination Sequence:
#
# PCOD9226370 Si02
#       7
#     4   4   4   4   4   4   4
#     4  10  23  42  60  85 128 169 195 233 297 364
#     4  10  17  24  41  61  83 130 182 208 244 303
#     4  10  18  29  41  63  97 134 177 205 251 302
#     4  10  21  31  46  68 103 140 170 204 258 327
#     4  10  19  35  59  76 101 133 171 239 277 312
#     4  12  21  37  63  93 118 148 202 254 299 331
#     4  10  18  35  53  74  98 138 172 213 283 321
#
# _framework density 25.245380999999998
#
# number of rings (size 3 to 8) (size 9 to 14) (size 15 to 20)
#    0.000    1.714    4.286    2.571    4.000    1.714 
#    0.000    1.429    0.000    0.000    0.000    0.000 
#    0.000    0.000    0.000  180.000    0.000    0.000 
#
# Total GULP energy -156686.861541 kJ/mol
# GULP energy per Si atom -5595.959341 kJ/mol
# Density = 2.518792 g / cm^3
# Si number density = 25.245381 Si / 1000 Ang^3
#
#
#
# Elastic Constant Matrix: (Units=GPa)
#
#
# Indices 1 2 3 4 5 6 
#
# 1 128.8706 30.7293 44.9220 0.0000 -45.5197 0.0000
# 2 30.7293 159.2319 37.5220 0.0000 -50.0296 0.0000
# 3 44.9220 37.5220 211.5576 0.0000 -53.1559 0.0000
# 4 0.0000 0.0000 0.0000 65.6135 0.0000 7.9483
# 5 -45.5197 -50.0296 -53.1559 0.0000 60.9143 0.0000
# 6 0.0000 0.0000 0.0000 7.9483 0.0000 68.8580
#
#
#
# Elastic Compliance Matrix: (Units=1/GPa)
#
#
# Indices 1 2 3 4 5 6 
#
# 1 0.010600 0.000581 -0.000312 0.000000 0.008126 0.000000
# 2 0.000581 0.008513 0.000298 0.000000 0.007686 0.000000
# 3 -0.000312 0.000298 0.006075 0.000000 0.005313 0.000000
# 4 0.000000 0.000000 0.000000 0.015457 0.000000 -0.001784
# 5 0.008126 0.007686 0.005313 0.000000 0.033437 0.000000
# 6 0.000000 0.000000 0.000000 -0.001784 0.000000 0.014729
#
#
# Mechanical properties :
#
#
# Convention : Reuss Voigt Hill
#
# Bulk Modulus (GPa) = 37.99142 80.66742 59.32942
# Shear Modulus (GPa) = 51.83963 64.84295 58.34129
#
# Velocity S-wave (km/s) = 4.53640 5.07354 4.81247
# Velocity P-wave (km/s) = 6.52074 8.14517 7.37780
#
# Compressibility (1/GPa) = 0.02632173
#
# Stress axis : x y z
#
# Youngs Moduli (GPa) = 94.33697 117.47299 164.60384
#
# Poissons Ratio (x) = -0.06826 0.05138
# Poissons Ratio (y) = -0.05481 -0.04904
# Poissons Ratio (z) = 0.02945 -0.03500
#
# Static dielectric constant tensor:
#      x y z
#    x 1.598590 0.000000 0.028120 
#    y 0.000000 1.897590 0.000000 
#    z 0.028120 0.000000 2.014090 
# 
# From -- ./inp_files/2751.got.cif
#   From: 2010.05.17/outbox.cif.g08.bks.cpg/sg13_2_cif.got.tgz:2751.got - 2010.06.03 16:44:36.
