data_PCOD9226101
_publ_section_title
;
Structure prediction by ZEFSAII (Michael W. Deem and Ramdas Pophale) SiO2 
 PCOD9226101
Probable space group: P 2/C
;
_chemical_formula_sum "Si O2"
_cell_formula_units_Z 24
_cell_length_a 7.137647
_cell_length_b 25.473656
_cell_length_c 5.421091
_cell_angle_alpha 90.000000
_cell_angle_beta 82.764125
_cell_angle_gamma 90.000000
_cell_volume 977.823542
_symmetry_space_group_name_H-M "P 2/C"
_symmetry_group_IT_number 13
_symmetry_cell_setting 'monoclinic'
loop_
_space_group_symop_operation_xyz
x,y,z
-x,y,1/2-z
-x,-y,-z
x,-y,1/2+z
loop_
_atom_site_type_symbol
_atom_site_label
_atom_site_fract_x
_atom_site_fract_y
_atom_site_fract_z
Si Si1 0.300793 0.354752 0.144142
Si Si2 0.761770 0.812486 0.531443
Si Si3 0.799875 0.854405 0.024868
Si Si4 0.213680 0.021812 0.980708
Si Si5 0.206563 0.300960 0.637446
Si Si6 0.716660 0.521768 0.947213
O O1 0.500000 0.346208 0.250000
O O2 0.174020 0.337898 0.401225
O O3 0.281484 0.416111 0.088589
O O4 0.288993 0.325786 0.878865
O O5 0.696843 0.827116 0.814317
O O6 0.706619 0.752807 0.477748
O O7 0.989715 0.827547 0.503370
O O8 0.705117 0.845879 0.304459
O O9 0.805729 0.916201 0.976891
O O10 0.300481 0.993321 0.203008
O O11 0.000000 0.000000 0.000000
O O12 0.000000 0.283492 0.750000
O O13 0.801740 0.494921 0.692405
O O14 0.500000 0.500000 0.000000
#
# Coordination Sequence:
#
# PCOD9226101 Si02
#       6
#     4   4   4   4   4   4
#     4  12  25  41  67 100 120 157 206 252 308 356
#     4  10  18  31  48  69  98 150 202 235 267 347
#     4  10  17  27  47  63 100 144 214 229 277 365
#     4  10  16  23  34  60  93 133 188 251 293 327
#     4  12  25  41  62  89 133 162 201 260 303 356
#     4  10  19  36  67  93 114 146 203 241 277 359
#
# _framework density 24.544308999999998
#
# number of rings (size 3 to 8) (size 9 to 14) (size 15 to 20)
#    0.000    1.333    3.333    8.000    4.667    0.000 
#    0.000    0.000    0.000   10.000    0.000    0.000 
#    0.000    0.000    0.000    0.000    0.000  710.000 
#
# Total GULP energy -134023.073872 kJ/mol
# GULP energy per Si atom -5584.294745 kJ/mol
# Density = 2.448845 g / cm^3
# Si number density = 24.544309 Si / 1000 Ang^3
#
#
#
# Elastic Constant Matrix: (Units=GPa)
#
#
# Indices 1 2 3 4 5 6 
#
# 1 55.3593 4.3896 25.1467 0.0000 27.1969 0.0000
# 2 4.3896 203.5057 89.0116 0.0000 23.0579 0.0000
# 3 25.1467 89.0116 285.7447 0.0000 33.8850 0.0000
# 4 0.0000 0.0000 0.0000 52.2541 0.0000 -11.7622
# 5 27.1969 23.0579 33.8850 0.0000 32.6216 0.0000
# 6 0.0000 0.0000 0.0000 -11.7622 0.0000 1.2188
#
#
#
# Elastic Compliance Matrix: (Units=1/GPa)
#
#
# Indices 1 2 3 4 5 6 
#
# 1 0.031755 0.002616 -0.000286 0.000000 -0.028026 0.000000
# 2 0.002616 0.006087 -0.001548 0.000000 -0.004875 0.000000
# 3 -0.000286 -0.001548 0.004390 0.000000 -0.003227 0.000000
# 4 0.000000 0.000000 0.000000 -0.016325 0.000000 -0.157541
# 5 -0.028026 -0.004875 -0.003227 0.000000 0.060818 0.000000
# 6 0.000000 0.000000 0.000000 -0.157541 0.000000 -0.699880
#
#
# Mechanical properties :
#
#
# Convention : Reuss Voigt Hill
#
# Bulk Modulus (GPa) = 22.83384 86.85615 54.84500
# Shear Modulus (GPa) = -8.33167 45.62303 18.64568
#
# Velocity S-wave (km/s) = -1.84443 4.31606 2.75921
# Velocity P-wave (km/s) = 2.18802 7.76545 5.70480
#
# Compressibility (1/GPa) = 0.04379465
#
# Stress axis : x y z
#
# Youngs Moduli (GPa) = 31.49113 164.28526 227.80310
#
# Poissons Ratio (x) = -0.42970 0.06512
# Poissons Ratio (y) = -0.08237 0.35269
# Poissons Ratio (z) = 0.00900 0.25435
#
# Static dielectric constant tensor:
#      x y z
#    x 1.999660 0.000000 -0.041700 
#    y 0.000000 1.848550 0.000000 
#    z -0.041700 0.000000 2.109800 
# 
# From -- ./inp_files/2422.got.cif
#   From: 2010.05.17/outbox.cif.g08.bks.cpg/sg13_2_cif.got.tgz:2422.got - 2010.06.03 16:44:36.
