data_PCOD9226327
_publ_section_title
;
Structure prediction by ZEFSAII (Michael W. Deem and Ramdas Pophale) SiO2 
 PCOD9226327
Probable space group: P 2/C
;
_chemical_formula_sum "Si O2"
_cell_formula_units_Z 30
_cell_length_a 23.215915
_cell_length_b 9.230463
_cell_length_c 14.634844
_cell_angle_alpha 90.000000
_cell_angle_beta 27.802241
_cell_angle_gamma 90.000000
_cell_volume 1462.768859
_symmetry_space_group_name_H-M "P 2/C"
_symmetry_group_IT_number 13
_symmetry_cell_setting 'monoclinic'
loop_
_space_group_symop_operation_xyz
x,y,z
-x,y,1/2-z
-x,-y,-z
x,-y,1/2+z
loop_
_atom_site_type_symbol
_atom_site_label
_atom_site_fract_x
_atom_site_fract_y
_atom_site_fract_z
Si Si1 0.922729 0.350908 0.608932
Si Si2 0.928053 0.778480 0.447070
Si Si3 0.500000 0.070621 0.250000
Si Si4 0.455331 0.149310 0.649621
Si Si5 0.311339 0.717591 0.955599
Si Si6 0.126461 0.442535 0.015172
Si Si7 0.399643 0.537529 0.218758
Si Si8 0.299433 0.084028 0.299246
O O1 0.883347 0.337323 0.558840
O O2 0.000000 0.500000 0.500000
O O3 0.996166 0.228862 0.564115
O O4 0.799984 0.365227 0.841128
O O5 0.881380 0.612529 0.502205
O O6 0.812280 0.886068 0.612071
O O7 0.000000 0.808684 0.250000
O O8 0.616454 0.176684 0.078022
O O9 0.514767 0.967745 0.315377
O O10 0.435993 0.309911 0.712014
O O11 0.571975 0.148939 0.418459
O O12 0.333854 0.081743 0.772028
O O13 0.397430 0.596433 0.790472
O O14 0.268365 0.823436 0.933702
O O15 0.000000 0.417520 0.250000
O O16 0.259793 0.437325 0.877046
O O17 0.500000 0.500000 0.000000
#
# Coordination Sequence:
#
# PCOD9226327 Si02
#       8
#     4   4   2   4   4   4   4   4
#     4  10  21  34  62 101 133 170 221 287 340 398
#     4  10  16  34  61  94 122 168 224 264 327 415
#     4  10  26  44  62  94 138 178 224 282 352 410
#     4  10  23  41  62  92 135 173 215 287 351 393
#     4  11  21  40  67  96 129 177 228 276 344 419
#     4  10  21  38  59  91 138 175 218 286 343 400
#     4  12  22  39  68 100 125 174 234 283 346 412
#     4  10  19  39  65  86 126 181 216 260 343 417
#
# _framework density 20.509049999999998
#
# number of rings (size 3 to 8) (size 9 to 14) (size 15 to 20)
#    0.000    1.600    4.000    1.600    1.867    0.533 
#    7.200    0.667    0.000    3.200    0.000    0.000 
#    0.000    0.000    0.000    0.000    0.000    0.000 
#
# Total GULP energy -167235.665071 kJ/mol
# GULP energy per Si atom -5574.522169 kJ/mol
# Density = 2.046237 g / cm^3
# Si number density = 20.509050 Si / 1000 Ang^3
#
#
#
# Elastic Constant Matrix: (Units=GPa)
#
#
# Indices 1 2 3 4 5 6 
#
# 1 84.5465 23.1316 27.1169 0.0000 -9.1141 0.0000
# 2 23.1316 83.2897 31.2736 0.0000 -6.6340 0.0000
# 3 27.1169 31.2736 111.7315 0.0000 -1.5315 0.0000
# 4 0.0000 0.0000 0.0000 27.6160 0.0000 -6.9520
# 5 -9.1141 -6.6340 -1.5315 0.0000 21.4350 0.0000
# 6 0.0000 0.0000 0.0000 -6.9520 0.0000 24.3173
#
#
#
# Elastic Compliance Matrix: (Units=1/GPa)
#
#
# Indices 1 2 3 4 5 6 
#
# 1 0.013875 -0.002481 -0.002605 0.000000 0.004946 0.000000
# 2 -0.002481 0.014192 -0.003328 0.000000 0.003099 0.000000
# 3 -0.002605 -0.003328 0.010495 0.000000 -0.001388 0.000000
# 4 0.000000 0.000000 0.000000 0.039019 0.000000 0.011155
# 5 0.004946 0.003099 -0.001388 0.000000 0.049616 0.000000
# 6 0.000000 0.000000 0.000000 0.011155 0.000000 0.044312
#
#
# Mechanical properties :
#
#
# Convention : Reuss Voigt Hill
#
# Bulk Modulus (GPa) = 46.01195 49.17913 47.59554
# Shear Modulus (GPa) = 25.56482 27.87671 26.72076
#
# Velocity S-wave (km/s) = 3.53443 3.69079 3.61345
# Velocity P-wave (km/s) = 6.25619 6.49568 6.37706
#
# Compressibility (1/GPa) = 0.02173348
#
# Stress axis : x y z
#
# Youngs Moduli (GPa) = 72.06984 70.46357 95.28661
#
# Poissons Ratio (x) = 0.17485 0.24824
# Poissons Ratio (y) = 0.17884 0.31707
# Poissons Ratio (z) = 0.18776 0.23447
#
# Static dielectric constant tensor:
#      x y z
#    x 1.835250 0.000000 -0.022260 
#    y 0.000000 1.711990 0.000000 
#    z -0.022260 0.000000 1.765120 
# 
# From -- ./inp_files/58669.got.cif
#   From: 2010.05.17/outbox.cif.g08.bks.cpg/sg13_30_cif.got.tgz:58669.got - 2010.06.03 16:44:36.
