data_PCOD9226624
_publ_section_title
;
Structure prediction by ZEFSAII (Michael W. Deem and Ramdas Pophale) SiO2 
 PCOD9226624
Probable space group: P 2/C
;
_chemical_formula_sum "Si O2"
_cell_formula_units_Z 26
_cell_length_a 10.959885
_cell_length_b 22.848751
_cell_length_c 5.205859
_cell_angle_alpha 90.000000
_cell_angle_beta 100.800094
_cell_angle_gamma 90.000000
_cell_volume 1280.557944
_symmetry_space_group_name_H-M "P 2/C"
_symmetry_group_IT_number 13
_symmetry_cell_setting 'monoclinic'
loop_
_space_group_symop_operation_xyz
x,y,z
-x,y,1/2-z
-x,-y,-z
x,-y,1/2+z
loop_
_atom_site_type_symbol
_atom_site_label
_atom_site_fract_x
_atom_site_fract_y
_atom_site_fract_z
Si Si1 0.418918 0.160819 0.971449
Si Si2 0.225642 0.458849 0.646330
Si Si3 0.779999 0.227712 0.934673
Si Si4 0.792390 0.877942 0.824310
Si Si5 0.500000 0.459372 0.750000
Si Si6 0.000000 0.826553 0.250000
Si Si7 0.915755 0.339915 0.965640
Si Si8 0.000000 0.960158 0.750000
O O1 0.500000 0.181142 0.250000
O O2 0.667976 0.109791 0.438206
O O3 0.500000 0.144297 0.750000
O O4 0.321825 0.208698 0.817698
O O5 0.213056 0.502982 0.400421
O O6 0.364777 0.430388 0.697053
O O7 0.130178 0.406159 0.588682
O O8 0.796650 0.297016 0.963465
O O9 0.920808 0.211414 0.912390
O O10 0.760508 0.182236 0.160060
O O11 0.869826 0.923188 0.682535
O O12 0.899136 0.864606 0.069737
O O13 0.500000 0.500000 0.500000
O O14 0.000000 0.325576 0.750000
O O15 0.000000 0.334898 0.250000
O O16 0.000000 0.000000 0.500000
#
# Coordination Sequence:
#
# PCOD9226624 Si02
#       8
#     4   4   4   4   2   2   4   2
#     4  11  24  42  67  99 129 177 225 262 324 404
#     4  10  21  41  62  84 121 165 212 265 323 378
#     4  11  22  39  67  92 136 168 217 268 332 391
#     4  11  22  40  69  95 137 177 209 270 333 378
#     4   8  16  34  62  80 102 152 212 250 302 370
#     4  10  17  34  64  94 122 175 210 250 328 390
#     4  12  26  39  61  95 129 165 215 262 324 407
#     4  12  27  40  66 108 140 165 224 276 322 378
#
# _framework density 20.303649
#
# number of rings (size 3 to 8) (size 9 to 14) (size 15 to 20)
#    0.000    1.231    3.846    2.308    4.308    1.846 
#    1.385    0.000    6.769    2.769    0.000    0.000 
#    0.000    0.000    0.000    0.000    0.000    0.000 
#
# Total GULP energy -144775.253924 kJ/mol
# GULP energy per Si atom -5568.278997 kJ/mol
# Density = 2.025744 g / cm^3
# Si number density = 20.303649 Si / 1000 Ang^3
#
#
#
# Elastic Constant Matrix: (Units=GPa)
#
#
# Indices 1 2 3 4 5 6 
#
# 1 131.7093 39.0797 42.9109 0.0000 -12.3659 0.0000
# 2 39.0797 79.4738 35.0563 0.0000 -5.1180 0.0000
# 3 42.9109 35.0563 156.4033 0.0000 -0.5009 0.0000
# 4 0.0000 0.0000 0.0000 3.4729 0.0000 -3.4617
# 5 -12.3659 -5.1180 -0.5009 0.0000 39.2927 0.0000
# 6 0.0000 0.0000 0.0000 -3.4617 0.0000 12.6476
#
#
#
# Elastic Compliance Matrix: (Units=1/GPa)
#
#
# Indices 1 2 3 4 5 6 
#
# 1 0.009509 -0.003738 -0.001763 0.000000 0.002483 0.000000
# 2 -0.003738 0.015558 -0.002459 0.000000 0.000819 0.000000
# 3 -0.001763 -0.002459 0.007426 0.000000 -0.000780 0.000000
# 4 0.000000 0.000000 0.000000 0.395982 0.000000 0.108382
# 5 0.002483 0.000819 -0.000780 0.000000 0.026328 0.000000
# 6 0.000000 0.000000 0.000000 0.108382 0.000000 0.108731
#
#
# Mechanical properties :
#
#
# Convention : Reuss Voigt Hill
#
# Bulk Modulus (GPa) = 60.33949 66.85335 63.59642
# Shear Modulus (GPa) = 8.54731 27.78528 18.16629
#
# Velocity S-wave (km/s) = 2.05399 3.70332 2.99445
# Velocity P-wave (km/s) = 5.95048 7.16131 6.58379
#
# Compressibility (1/GPa) = 0.01657290
#
# Stress axis : x y z
#
# Youngs Moduli (GPa) = 105.16069 64.27387 134.66004
#
# Poissons Ratio (x) = 0.24028 0.23742
# Poissons Ratio (y) = 0.39313 0.33113
# Poissons Ratio (z) = 0.18541 0.15805
#
# Static dielectric constant tensor:
#      x y z
#    x 1.960940 0.000000 0.021290 
#    y 0.000000 1.787920 0.000000 
#    z 0.021290 0.000000 1.813160 
# 
# From -- ./inp_files/4223.got.cif
#   From: 2010.05.17/outbox.cif.g08.bks.cpg/sg13_3_cif.got.tgz:4223.got - 2010.06.03 16:44:36.
