data_PCOD9226091
_publ_section_title
;
Structure prediction by ZEFSAII (Michael W. Deem and Ramdas Pophale) SiO2 
 PCOD9226091
Probable space group: P 2/C
;
_chemical_formula_sum "Si O2"
_cell_formula_units_Z 20
_cell_length_a 11.823353
_cell_length_b 22.321609
_cell_length_c 5.636960
_cell_angle_alpha 90.000000
_cell_angle_beta 33.301320
_cell_angle_gamma 90.000000
_cell_volume 816.801886
_symmetry_space_group_name_H-M "P 2/C"
_symmetry_group_IT_number 13
_symmetry_cell_setting 'monoclinic'
loop_
_space_group_symop_operation_xyz
x,y,z
-x,y,1/2-z
-x,-y,-z
x,-y,1/2+z
loop_
_atom_site_type_symbol
_atom_site_label
_atom_site_fract_x
_atom_site_fract_y
_atom_site_fract_z
Si Si1 0.269212 0.337519 0.910196
Si Si2 0.761683 0.477685 0.434234
Si Si3 0.738683 0.976331 0.584445
Si Si4 0.373184 0.158415 0.223136
Si Si5 0.254474 0.290793 0.434414
O O1 0.183403 0.320990 0.802767
O O2 0.503338 0.311733 0.495841
O O3 0.258958 0.408554 0.960718
O O4 0.177301 0.309707 0.311064
O O5 0.681238 0.513561 0.806272
O O6 0.000000 0.500000 0.000000
O O7 0.742994 0.904571 0.582501
O O8 0.819578 0.999778 0.192293
O O9 0.500000 0.000000 0.000000
O O10 0.500000 0.156378 0.250000
O O11 0.244296 0.219214 0.468558
O O12 0.500000 0.162507 0.750000
#
# Coordination Sequence:
#
# PCOD9226091 Si02
#       5
#     4   4   4   4   4
#     4  10  18  32  48  65  90 112 142 182 222 272
#     4  10  21  37  54  70  87 111 142 179 220 274
#     4  10  16  22  31  49  73 108 153 198 222 235
#     4  12  16  25  38  53  82 114 151 193 221 259
#     4  10  19  30  43  67  90 119 148 184 228 264
#
# _framework density 24.48574
#
# number of rings (size 3 to 8) (size 9 to 14) (size 15 to 20)
#    0.000    1.600    8.000    1.200    0.000    0.000 
#    0.000   12.000    0.000    0.000    0.000    0.000 
#    0.000    0.000    0.000    0.000    0.000    0.000 
#
# Total GULP energy -111842.183570 kJ/mol
# GULP energy per Si atom -5592.109179 kJ/mol
# Density = 2.443001 g / cm^3
# Si number density = 24.485740 Si / 1000 Ang^3
#
#
#
# Elastic Constant Matrix: (Units=GPa)
#
#
# Indices 1 2 3 4 5 6 
#
# 1 187.2189 36.1805 64.8252 0.0000 66.2464 0.0000
# 2 36.1805 255.9097 61.3027 0.0000 44.2781 0.0000
# 3 64.8252 61.3027 227.4712 0.0000 71.1493 0.0000
# 4 0.0000 0.0000 0.0000 63.2786 0.0000 41.0743
# 5 66.2464 44.2781 71.1493 0.0000 70.7436 0.0000
# 6 0.0000 0.0000 0.0000 41.0743 0.0000 1.0050
#
#
#
# Elastic Compliance Matrix: (Units=1/GPa)
#
#
# Indices 1 2 3 4 5 6 
#
# 1 0.007997 0.000180 0.000073 0.000000 -0.007675 0.000000
# 2 0.000180 0.004421 -0.000473 0.000000 -0.002459 0.000000
# 3 0.000073 -0.000473 0.006466 0.000000 -0.006275 0.000000
# 4 0.000000 0.000000 0.000000 -0.000619 0.000000 0.025300
# 5 -0.007675 -0.002459 -0.006275 0.000000 0.029172 0.000000
# 6 0.000000 0.000000 0.000000 0.025300 0.000000 -0.038977
#
#
# Mechanical properties :
#
#
# Convention : Reuss Voigt Hill
#
# Bulk Modulus (GPa) = 54.22324 110.57962 82.40143
# Shear Modulus (GPa) = 332.25020 60.89152 196.57086
#
# Velocity S-wave (km/s) = 11.66130 4.99221 8.96962
# Velocity P-wave (km/s) = 14.26560 8.85937 11.87425
#
# Compressibility (1/GPa) = 0.01844228
#
# Stress axis : x y z
#
# Youngs Moduli (GPa) = 125.04853 226.18543 154.66538
#
# Poissons Ratio (x) = -0.04066 -0.01130
# Poissons Ratio (y) = -0.02248 0.07323
# Poissons Ratio (z) = -0.00913 0.10709
#
# Static dielectric constant tensor:
#      x y z
#    x 2.071510 0.000000 0.035570 
#    y 0.000000 1.825050 0.000000 
#    z 0.035570 0.000000 1.935360 
# 
# From -- ./inp_files/2030.got.cif
#   From: 2010.05.17/outbox.cif.g08.bks.cpg/sg13_2_cif.got.tgz:2030.got - 2010.06.03 16:44:36.
