data_PCOD9226896
_publ_section_title
;
Structure prediction by ZEFSAII (Michael W. Deem and Ramdas Pophale) SiO2 
 PCOD9226896
Probable space group: P 2/C
;
_chemical_formula_sum "Si O2"
_cell_formula_units_Z 28
_cell_length_a 21.396564
_cell_length_b 8.698501
_cell_length_c 22.097700
_cell_angle_alpha 90.000000
_cell_angle_beta 158.721784
_cell_angle_gamma 90.000000
_cell_volume 1492.515581
_symmetry_space_group_name_H-M "P 2/C"
_symmetry_group_IT_number 13
_symmetry_cell_setting 'monoclinic'
loop_
_space_group_symop_operation_xyz
x,y,z
-x,y,1/2-z
-x,-y,-z
x,-y,1/2+z
loop_
_atom_site_type_symbol
_atom_site_label
_atom_site_fract_x
_atom_site_fract_y
_atom_site_fract_z
Si Si1 0.253689 0.881752 0.932990
Si Si2 0.450208 0.292157 0.011500
Si Si3 0.219737 0.081418 0.733230
Si Si4 0.689037 0.379779 0.115654
Si Si5 0.129089 0.906306 0.951477
Si Si6 0.603989 0.058963 0.225945
Si Si7 0.994820 0.233035 0.442829
O O1 0.289701 0.736982 0.921220
O O2 0.216539 0.844037 0.969622
O O3 0.068367 0.950417 0.743623
O O4 0.422838 0.988001 0.083952
O O5 0.325439 0.149726 0.883616
O O6 0.355920 0.448370 0.943781
O O7 0.544762 0.322149 0.032786
O O8 0.576593 0.231698 0.177490
O O9 0.100387 0.217906 0.599433
O O10 0.335104 0.030445 0.780073
O O11 0.113397 0.928686 0.653768
O O12 0.862756 0.368221 0.312164
O O13 0.113607 0.780258 0.990823
O O14 0.248855 0.035196 0.090868
#
# Coordination Sequence:
#
# PCOD9226896 Si02
#       7
#     4   4   4   4   4   4   4
#     4  10  19  37  58  78 109 141 194 236 272 331
#     4  11  20  31  51  81 115 143 176 220 288 342
#     4  10  18  31  54  82 111 142 180 236 282 329
#     4  10  20  33  50  77 113 151 174 222 279 338
#     4   9  20  33  57  84 102 139 193 236 270 325
#     4  11  19  33  57  83 109 144 184 233 287 322
#     4   9  18  33  53  79 110 141 188 234 276 325
#
# _framework density 18.760272000000001
#
# number of rings (size 3 to 8) (size 9 to 14) (size 15 to 20)
#    0.000    2.000    2.857    2.571    0.000    0.571 
#    0.000    0.000    0.000   17.143    0.000    0.000 
#    0.000    0.000    0.000    0.000    0.000    0.000 
#
# Total GULP energy -155975.970638 kJ/mol
# GULP energy per Si atom -5570.570380 kJ/mol
# Density = 1.871757 g / cm^3
# Si number density = 18.760272 Si / 1000 Ang^3
#
#
#
# Elastic Constant Matrix: (Units=GPa)
#
#
# Indices 1 2 3 4 5 6 
#
# 1 96.4805 18.8212 24.3216 0.0000 7.4606 0.0000
# 2 18.8212 62.0389 42.4573 0.0000 -0.2317 0.0000
# 3 24.3216 42.4573 85.0467 0.0000 -9.3858 0.0000
# 4 0.0000 0.0000 0.0000 26.1649 0.0000 1.4231
# 5 7.4606 -0.2317 -9.3858 0.0000 26.0315 0.0000
# 6 0.0000 0.0000 0.0000 1.4231 0.0000 11.4174
#
#
#
# Elastic Compliance Matrix: (Units=1/GPa)
#
#
# Indices 1 2 3 4 5 6 
#
# 1 0.011790 -0.001434 -0.003156 0.000000 -0.004530 0.000000
# 2 -0.001434 0.025144 -0.012572 0.000000 -0.003898 0.000000
# 3 -0.003156 -0.012572 0.019813 0.000000 0.007936 0.000000
# 4 0.000000 0.000000 0.000000 0.038480 0.000000 -0.004796
# 5 -0.004530 -0.003898 0.007936 0.000000 0.042540 0.000000
# 6 0.000000 0.000000 0.000000 -0.004796 0.000000 0.088183
#
#
# Mechanical properties :
#
#
# Convention : Reuss Voigt Hill
#
# Bulk Modulus (GPa) = 44.59823 46.08516 45.34169
# Shear Modulus (GPa) = 18.67424 23.25383 20.96404
#
# Velocity S-wave (km/s) = 3.15844 3.52451 3.34648
# Velocity P-wave (km/s) = 6.09305 6.41728 6.25727
#
# Compressibility (1/GPa) = 0.02242242
#
# Stress axis : x y z
#
# Youngs Moduli (GPa) = 84.81509 39.77170 50.47204
#
# Poissons Ratio (x) = 0.05704 0.15928
# Poissons Ratio (y) = 0.12164 0.63455
# Poissons Ratio (z) = 0.26765 0.50002
#
# Static dielectric constant tensor:
#      x y z
#    x 1.659330 0.000000 0.019960 
#    y 0.000000 1.639720 0.000000 
#    z 0.019960 0.000000 1.732110 
# 
# From -- ./inp_files/88896.got.cif
#   From: 2010.05.17/outbox.cif.g08.bks.cpg/sg13_45_cif.got.tgz:88896.got - 2010.06.03 16:44:36.
