data_PCOD9226769
_publ_section_title
;
Structure prediction by ZEFSAII (Michael W. Deem and Ramdas Pophale) SiO2 
 PCOD9226769
Probable space group: P 2/C
;
_chemical_formula_sum "Si O2"
_cell_formula_units_Z 28
_cell_length_a 16.036256
_cell_length_b 14.469321
_cell_length_c 5.583645
_cell_angle_alpha 90.000000
_cell_angle_beta 69.836132
_cell_angle_gamma 90.000000
_cell_volume 1216.187814
_symmetry_space_group_name_H-M "P 2/C"
_symmetry_group_IT_number 13
_symmetry_cell_setting 'monoclinic'
loop_
_space_group_symop_operation_xyz
x,y,z
-x,y,1/2-z
-x,-y,-z
x,-y,1/2+z
loop_
_atom_site_type_symbol
_atom_site_label
_atom_site_fract_x
_atom_site_fract_y
_atom_site_fract_z
Si Si1 0.661255 0.912239 0.163554
Si Si2 0.096566 0.175362 0.719861
Si Si3 0.254650 0.690396 0.606219
Si Si4 0.153842 0.885219 0.665011
Si Si5 0.129505 0.513973 0.738695
Si Si6 0.250642 0.333388 0.607341
Si Si7 0.597954 0.116225 0.226143
O O1 0.659264 0.865954 0.429493
O O2 0.602957 0.004357 0.247553
O O3 0.759875 0.945207 0.989196
O O4 0.625296 0.855365 0.969197
O O5 0.115423 0.107211 0.472471
O O6 0.170013 0.257092 0.670392
O O7 0.000000 0.215924 0.750000
O O8 0.095523 0.123858 0.980109
O O9 0.201785 0.785559 0.640016
O O10 0.177158 0.612858 0.692074
O O11 0.301398 0.676839 0.306584
O O12 0.303678 0.679802 0.809272
O O13 0.082002 0.502156 0.534946
O O14 0.205913 0.434539 0.656101
O O15 0.500000 0.145840 0.250000
#
# Coordination Sequence:
#
# PCOD9226769 Si02
#       7
#     4   4   4   4   4   4   4
#     4  10  18  30  49  74 100 125 149 176 207 258
#     4  10  19  31  44  60  85 119 162 206 242 274
#     4   8  14  23  36  53  78 104 137 181 225 266
#     4  10  19  30  45  66  87 116 157 192 230 269
#     4   8  12  20  34  50  69  99 135 175 230 270
#     4   8  14  23  37  52  70 100 144 186 233 273
#     4  10  19  33  53  79 104 123 142 162 200 262
#
# _framework density 23.022760000000002
#
# number of rings (size 3 to 8) (size 9 to 14) (size 15 to 20)
#    0.000    2.857    0.000    3.429    0.000    0.000 
#    0.000    0.000    0.000   21.429    0.000   40.000 
#    0.000    0.000    0.000    0.000    0.000  607.143 
#
# Total GULP energy -155945.232897 kJ/mol
# GULP energy per Si atom -5569.472603 kJ/mol
# Density = 2.297036 g / cm^3
# Si number density = 23.022760 Si / 1000 Ang^3
#
#
#
# Elastic Constant Matrix: (Units=GPa)
#
#
# Indices 1 2 3 4 5 6 
#
# 1 57.4295 5.4088 28.3222 0.0000 22.1403 0.0000
# 2 5.4088 60.8637 7.4985 0.0000 -3.2110 0.0000
# 3 28.3222 7.4985 178.6305 0.0000 56.6113 0.0000
# 4 0.0000 0.0000 0.0000 24.9053 0.0000 -0.4769
# 5 22.1403 -3.2110 56.6113 0.0000 47.8413 0.0000
# 6 0.0000 0.0000 0.0000 -0.4769 0.0000 3.1172
#
#
#
# Elastic Compliance Matrix: (Units=1/GPa)
#
#
# Indices 1 2 3 4 5 6 
#
# 1 0.021555 -0.002420 -0.000165 0.000000 -0.009942 0.000000
# 2 -0.002420 0.017077 -0.001682 0.000000 0.004257 0.000000
# 3 -0.000165 -0.001682 0.009131 0.000000 -0.010841 0.000000
# 4 0.000000 0.000000 0.000000 0.040270 0.000000 0.006160
# 5 -0.009942 0.004257 -0.010841 0.000000 0.038618 0.000000
# 6 0.000000 0.000000 0.000000 0.006160 0.000000 0.321739
#
#
# Mechanical properties :
#
#
# Convention : Reuss Voigt Hill
#
# Bulk Modulus (GPa) = 25.49161 42.15364 33.82262
# Shear Modulus (GPa) = 10.63831 32.21906 21.42869
#
# Velocity S-wave (km/s) = 2.15193 3.74497 3.05415
# Velocity P-wave (km/s) = 4.15582 6.08679 5.21152
#
# Compressibility (1/GPa) = 0.03922860
#
# Stress axis : x y z
#
# Youngs Moduli (GPa) = 46.39303 58.55829 109.52150
#
# Poissons Ratio (x) = 0.14170 0.01808
# Poissons Ratio (y) = 0.11226 0.18424
# Poissons Ratio (z) = 0.00766 0.09851
#
# Static dielectric constant tensor:
#      x y z
#    x 1.877440 0.000000 0.035080 
#    y 0.000000 1.885010 0.000000 
#    z 0.035080 0.000000 2.069100 
# 
# From -- ./inp_files/5216.got.cif
#   From: 2010.05.17/outbox.cif.g08.bks.cpg/sg13_3_cif.got.tgz:5216.got - 2010.06.03 16:44:36.
