data_PCOD9226780
_publ_section_title
;
Structure prediction by ZEFSAII (Michael W. Deem and Ramdas Pophale) SiO2 
 PCOD9226780
Probable space group: P 2/C
;
_chemical_formula_sum "Si O2"
_cell_formula_units_Z 28
_cell_length_a 17.922643
_cell_length_b 12.846698
_cell_length_c 9.072928
_cell_angle_alpha 90.000000
_cell_angle_beta 40.140087
_cell_angle_gamma 90.000000
_cell_volume 1346.699961
_symmetry_space_group_name_H-M "P 2/C"
_symmetry_group_IT_number 13
_symmetry_cell_setting 'monoclinic'
loop_
_space_group_symop_operation_xyz
x,y,z
-x,y,1/2-z
-x,-y,-z
x,-y,1/2+z
loop_
_atom_site_type_symbol
_atom_site_label
_atom_site_fract_x
_atom_site_fract_y
_atom_site_fract_z
Si Si1 0.375149 0.131580 0.370884
Si Si2 0.160159 0.943884 0.354977
Si Si3 0.664422 0.676572 0.362334
Si Si4 0.449306 0.761848 0.487751
Si Si5 0.872830 0.761584 0.879616
Si Si6 0.412994 0.454332 0.010412
Si Si7 0.956268 0.160371 0.967380
O O1 0.500000 0.104531 0.250000
O O2 0.277351 0.057079 0.583870
O O3 0.338061 0.244386 0.496236
O O4 0.391266 0.147027 0.171832
O O5 0.164083 0.874429 0.497235
O O6 0.064122 0.884743 0.399815
O O7 0.117481 0.057947 0.458761
O O8 0.556849 0.718843 0.425691
O O9 0.658366 0.556839 0.421574
O O10 0.776557 0.687531 0.091528
O O11 0.500000 0.791301 0.250000
O O12 0.364266 0.660246 0.615396
O O13 0.884070 0.768887 0.687948
O O14 0.000000 0.736864 0.750000
O O15 0.500000 0.427719 0.750000
O O16 0.500000 0.500000 0.000000
O O17 0.000000 0.209290 0.750000
#
# Coordination Sequence:
#
# PCOD9226780 Si02
#       7
#     4   4   4   4   4   4   4
#     4   9  17  30  47  67  95 128 155 182 224 276
#     4   9  17  30  49  69  91 121 157 191 223 272
#     4   9  16  28  46  66  94 126 155 186 219 267
#     4   9  17  27  43  71 100 121 148 187 228 269
#     4   9  18  31  47  70  92 117 154 191 229 273
#     4   9  15  25  43  69  93 118 152 184 217 259
#     4  10  18  30  50  72  91 113 150 199 239 268
#
# _framework density 20.791564999999999
#
# number of rings (size 3 to 8) (size 9 to 14) (size 15 to 20)
#    0.000    2.857    0.000    4.286    0.000    1.143 
#    0.000    0.000    0.000   14.571    0.000   38.000 
#    0.000    1.143    0.000    0.000    0.000    0.000 
#
# Total GULP energy -156067.476688 kJ/mol
# GULP energy per Si atom -5573.838453 kJ/mol
# Density = 2.074424 g / cm^3
# Si number density = 20.791565 Si / 1000 Ang^3
#
#
#
# Elastic Constant Matrix: (Units=GPa)
#
#
# Indices 1 2 3 4 5 6 
#
# 1 18.2065 2.4271 16.5164 0.0000 17.7233 0.0000
# 2 2.4271 16.1337 14.9722 0.0000 -2.7038 0.0000
# 3 16.5164 14.9722 129.0284 0.0000 11.7858 0.0000
# 4 0.0000 0.0000 0.0000 -10.8266 0.0000 25.1085
# 5 17.7233 -2.7038 11.7858 0.0000 47.4228 0.0000
# 6 0.0000 0.0000 0.0000 25.1085 0.0000 -8.8684
#
#
#
# Elastic Compliance Matrix: (Units=1/GPa)
#
#
# Indices 1 2 3 4 5 6 
#
# 1 0.098496 -0.013576 -0.007776 0.000000 -0.035652 0.000000
# 2 -0.013576 0.073103 -0.007765 0.000000 0.011172 0.000000
# 3 -0.007776 -0.007765 0.009641 0.000000 0.000067 0.000000
# 4 0.000000 0.000000 0.000000 0.016594 0.000000 0.046982
# 5 -0.035652 0.011172 0.000067 0.000000 0.035031 0.000000
# 6 0.000000 0.000000 0.000000 0.046982 0.000000 0.020259
#
#
# Mechanical properties :
#
#
# Convention : Reuss Voigt Hill
#
# Bulk Modulus (GPa) = 8.12982 25.68890 16.90936
# Shear Modulus (GPa) = 14.19002 14.17575 14.18289
#
# Velocity S-wave (km/s) = 2.61528 2.61397 2.61463
# Velocity P-wave (km/s) = 3.61085 4.63602 4.15518
#
# Compressibility (1/GPa) = 0.12300398
#
# Stress axis : x y z
#
# Youngs Moduli (GPa) = 10.15274 13.67929 103.72868
#
# Poissons Ratio (x) = 0.18571 0.80660
# Poissons Ratio (y) = 0.13784 0.80549
# Poissons Ratio (z) = 0.07895 0.10623
#
# Static dielectric constant tensor:
#      x y z
#    x 1.815490 0.000000 0.002700 
#    y 0.000000 1.832040 0.000000 
#    z 0.002700 0.000000 1.743880 
# 
# From -- ./inp_files/21951.got.cif
#   From: 2010.05.17/outbox.cif.g08.bks.cpg/sg13_11_cif.got.tgz:21951.got - 2010.06.03 16:44:36.
