data_PCOD9226793
_publ_section_title
;
Structure prediction by ZEFSAII (Michael W. Deem and Ramdas Pophale) SiO2 
 PCOD9226793
Probable space group: P 2/C
;
_chemical_formula_sum "Si O2"
_cell_formula_units_Z 20
_cell_length_a 18.709033
_cell_length_b 9.634944
_cell_length_c 8.697132
_cell_angle_alpha 90.000000
_cell_angle_beta 45.789581
_cell_angle_gamma 90.000000
_cell_volume 1123.737284
_symmetry_space_group_name_H-M "P 2/C"
_symmetry_group_IT_number 13
_symmetry_cell_setting 'monoclinic'
loop_
_space_group_symop_operation_xyz
x,y,z
-x,y,1/2-z
-x,-y,-z
x,-y,1/2+z
loop_
_atom_site_type_symbol
_atom_site_label
_atom_site_fract_x
_atom_site_fract_y
_atom_site_fract_z
Si Si1 0.706198 0.344492 0.125210
Si Si2 0.894307 0.845658 0.974383
Si Si3 0.293802 0.344487 0.743807
Si Si4 0.500000 0.342785 0.566266
Si Si5 0.105693 0.154347 0.657300
O O1 0.718288 0.500003 0.172563
O O2 0.603689 0.282523 0.347945
O O3 0.696928 0.351949 0.954606
O O4 0.801986 0.252669 0.022095
O O5 0.000000 0.794121 0.750000
O O6 0.878829 0.000004 0.931761
O O7 0.801985 0.747338 0.071948
O O8 0.901208 0.853386 0.148190
O O9 0.396313 0.282519 0.659010
O O10 0.500000 0.345776 0.750000
O O11 0.500000 0.500000 0.500000
O O12 0.000000 0.205886 0.750000
#
# Coordination Sequence:
#
# PCOD9226793 Si02
#       5
#     4   4   4   4   4
#     4  10  20  34  53  78 105 135 170 210 253 301
#     4  10  21  36  55  76 102 136 172 210 255 304
#     4  10  20  34  53  78 105 135 170 210 253 301
#     4  10  18  30  51  76 103 136 168 206 254 302
#     4  10  21  36  55  76 102 136 172 210 255 304
#
# _framework density 17.797754999999999
#
# number of rings (size 3 to 8) (size 9 to 14) (size 15 to 20)
#    0.000    2.000    0.000    7.800    0.000    7.200 
#    0.000    5.000    0.000    0.000    0.000    0.000 
#    0.000    0.000    0.000    0.000    0.000    0.000 
#
# Total GULP energy -111608.704868 kJ/mol
# GULP energy per Si atom -5580.435243 kJ/mol
# Density = 1.775725 g / cm^3
# Si number density = 17.797755 Si / 1000 Ang^3
#
#
#
# Elastic Constant Matrix: (Units=GPa)
#
#
# Indices 1 2 3 4 5 6 
#
# 1 154.5902 56.4973 87.8418 0.0000 -34.5851 0.0000
# 2 56.4973 45.7721 54.8479 0.0000 -23.3474 0.0000
# 3 87.8418 54.8479 149.7298 0.0000 -34.1388 0.0000
# 4 0.0000 0.0000 0.0000 -30.6926 0.0000 55.4468
# 5 -34.5851 -23.3474 -34.1388 0.0000 38.4756 0.0000
# 6 0.0000 0.0000 0.0000 55.4468 0.0000 -34.5930
#
#
#
# Elastic Compliance Matrix: (Units=1/GPa)
#
#
# Indices 1 2 3 4 5 6 
#
# 1 0.012607 -0.011065 -0.002871 0.000000 0.002071 0.000000
# 2 -0.011065 0.055476 -0.010559 0.000000 0.014349 0.000000
# 3 -0.002871 -0.010559 0.012764 0.000000 0.002337 0.000000
# 4 0.000000 0.000000 0.000000 0.017188 0.000000 0.027550
# 5 0.002071 0.014349 0.002337 0.000000 0.038633 0.000000
# 6 0.000000 0.000000 0.000000 0.027550 0.000000 0.015250
#
#
# Mechanical properties :
#
#
# Convention : Reuss Voigt Hill
#
# Bulk Modulus (GPa) = 31.38891 83.16290 57.27590
# Shear Modulus (GPa) = 23.63771 4.69834 14.16802
#
# Velocity S-wave (km/s) = 3.64830 1.62652 2.82451
# Velocity P-wave (km/s) = 5.95160 7.09616 6.54893
#
# Compressibility (1/GPa) = 0.03185839
#
# Stress axis : x y z
#
# Youngs Moduli (GPa) = 79.32052 18.02573 78.34766
#
# Poissons Ratio (x) = 0.19945 0.22493
# Poissons Ratio (y) = 0.87766 0.82725
# Poissons Ratio (z) = 0.22772 0.19033
#
# Static dielectric constant tensor:
#      x y z
#    x 1.622730 0.000000 -0.024520 
#    y 0.000000 1.583140 0.000000 
#    z -0.024520 0.000000 1.621000 
# 
# From -- ./inp_files/15605.got.cif
#   From: 2010.05.17/outbox.cif.g08.bks.cpg/sg13_8_cif.got.tgz:15605.got - 2010.06.03 16:44:36.
