data_PCOD9226654
_publ_section_title
;
Structure prediction by ZEFSAII (Michael W. Deem and Ramdas Pophale) SiO2 
 PCOD9226654
Probable space group: P 2/C
;
_chemical_formula_sum "Si O2"
_cell_formula_units_Z 20
_cell_length_a 8.462616
_cell_length_b 13.556880
_cell_length_c 9.962482
_cell_angle_alpha 90.000000
_cell_angle_beta 44.309489
_cell_angle_gamma 90.000000
_cell_volume 798.397861
_symmetry_space_group_name_H-M "P 2/C"
_symmetry_group_IT_number 13
_symmetry_cell_setting 'monoclinic'
loop_
_space_group_symop_operation_xyz
x,y,z
-x,y,1/2-z
-x,-y,-z
x,-y,1/2+z
loop_
_atom_site_type_symbol
_atom_site_label
_atom_site_fract_x
_atom_site_fract_y
_atom_site_fract_z
Si Si1 0.171438 0.388655 0.023062
Si Si2 0.842560 0.391345 0.975014
Si Si3 0.674080 0.812128 0.533209
Si Si4 0.995261 0.885022 0.970796
Si Si5 0.343750 0.811587 0.520819
O O1 0.256514 0.499252 0.942197
O O2 0.336953 0.302619 0.974764
O O3 0.000000 0.397047 0.250000
O O4 0.009967 0.362591 0.995586
O O5 0.000000 0.396137 0.750000
O O6 0.665333 0.306371 0.049211
O O7 0.500000 0.854957 0.750000
O O8 0.918455 0.838502 0.442266
O O9 0.580378 0.840072 0.444962
O O10 0.166254 0.838903 0.751215
O O11 0.754014 0.865508 0.049332
O O12 0.000000 0.000000 0.000000
#
# Coordination Sequence:
#
# PCOD9226654 Si02
#       5
#     4   4   4   4   4
#     4  10  17  36  64  90 127 177 208 237 317 390
#     4  10  21  35  61  97 132 165 209 261 300 365
#     4  10  20  38  64  91 125 168 209 249 315 386
#     4  10  20  37  61  87 116 158 212 263 312 366
#     4  10  19  37  64  86 116 163 207 248 314 382
#
# _framework density 25.050166999999998
#
# number of rings (size 3 to 8) (size 9 to 14) (size 15 to 20)
#    0.000    2.000    4.000    1.200    0.000    1.600 
#    3.600    1.000    0.000    0.000    0.000    0.000 
#    0.000    0.000    0.000    0.000    0.000    0.000 
#
# Total GULP energy -111590.042741 kJ/mol
# GULP energy per Si atom -5579.502137 kJ/mol
# Density = 2.499315 g / cm^3
# Si number density = 25.050167 Si / 1000 Ang^3
#
#
#
# Elastic Constant Matrix: (Units=GPa)
#
#
# Indices 1 2 3 4 5 6 
#
# 1 286.3469 55.3791 48.2035 0.0000 34.1617 0.0000
# 2 55.3791 123.9197 -12.0016 0.0000 6.6625 0.0000
# 3 48.2035 -12.0016 88.7168 0.0000 10.8238 0.0000
# 4 0.0000 0.0000 0.0000 0.8547 0.0000 5.8051
# 5 34.1617 6.6625 10.8238 0.0000 40.1373 0.0000
# 6 0.0000 0.0000 0.0000 5.8051 0.0000 1.9177
#
#
#
# Elastic Compliance Matrix: (Units=1/GPa)
#
#
# Indices 1 2 3 4 5 6 
#
# 1 0.004682 -0.002174 -0.002477 0.000000 -0.002956 0.000000
# 2 -0.002174 0.009301 0.002484 0.000000 -0.000364 0.000000
# 3 -0.002477 0.002484 0.013181 0.000000 -0.001858 0.000000
# 4 0.000000 0.000000 0.000000 -0.059817 0.000000 0.181070
# 5 -0.002956 -0.000364 -0.001858 0.000000 0.027992 0.000000
# 6 0.000000 0.000000 0.000000 0.181070 0.000000 -0.026660
#
#
# Mechanical properties :
#
#
# Convention : Reuss Voigt Hill
#
# Bulk Modulus (GPa) = 43.80323 75.79393 59.79858
# Shear Modulus (GPa) = -258.05409 35.74210 -111.15599
#
# Velocity S-wave (km/s) = -10.16064 3.78143 -6.66856
# Velocity P-wave (km/s) = 10.96026 7.02767 5.94723
#
# Compressibility (1/GPa) = 0.02282937
#
# Stress axis : x y z
#
# Youngs Moduli (GPa) = 213.56647 107.51331 75.86904
#
# Poissons Ratio (x) = 0.23368 0.18796
# Poissons Ratio (y) = 0.46419 -0.18843
# Poissons Ratio (z) = 0.52911 -0.26702
#
# Static dielectric constant tensor:
#      x y z
#    x 1.924820 0.000000 -0.050960 
#    y 0.000000 2.020350 0.000000 
#    z -0.050960 0.000000 2.015810 
# 
# From -- ./inp_files/29806.got.cif
#   From: 2010.05.17/outbox.cif.g08.bks.cpg/sg13_15_cif.got.tgz:29806.got - 2010.06.03 16:44:36.
