data_PCOD9226467
_publ_section_title
;
Structure prediction by ZEFSAII (Michael W. Deem and Ramdas Pophale) SiO2 
 PCOD9226467
Probable space group: P 2/C
;
_chemical_formula_sum "Si O2"
_cell_formula_units_Z 26
_cell_length_a 11.196722
_cell_length_b 20.389176
_cell_length_c 5.602472
_cell_angle_alpha 90.000000
_cell_angle_beta 55.785936
_cell_angle_gamma 90.000000
_cell_volume 1057.658877
_symmetry_space_group_name_H-M "P 2/C"
_symmetry_group_IT_number 13
_symmetry_cell_setting 'monoclinic'
loop_
_space_group_symop_operation_xyz
x,y,z
-x,y,1/2-z
-x,-y,-z
x,-y,1/2+z
loop_
_atom_site_type_symbol
_atom_site_label
_atom_site_fract_x
_atom_site_fract_y
_atom_site_fract_z
Si Si1 0.859335 0.855722 0.251759
Si Si2 0.500000 0.233026 0.750000
Si Si3 0.238008 0.334929 0.106477
Si Si4 0.500000 0.240900 0.250000
Si Si5 0.287757 0.024169 0.525190
Si Si6 0.190410 0.296846 0.658113
Si Si7 0.000000 0.051439 0.250000
Si Si8 0.334274 0.476419 0.150820
O O1 0.729182 0.898213 0.505671
O O2 0.848280 0.778524 0.245971
O O3 0.000000 0.869082 0.250000
O O4 0.888030 0.893378 0.976281
O O5 0.642779 0.278060 0.566891
O O6 0.495027 0.199783 0.499187
O O7 0.139897 0.317491 0.448450
O O8 0.318378 0.401751 0.085360
O O9 0.165553 0.338652 0.925570
O O10 0.363643 0.289859 0.419627
O O11 0.349088 0.991501 0.217541
O O12 0.120491 0.995808 0.739052
O O13 0.271217 0.484894 0.490203
O O14 0.500000 0.500000 0.000000
#
# Coordination Sequence:
#
# PCOD9226467 Si02
#       8
#     4   2   4   2   4   4   2   4
#     4  11  20  32  51  78 109 140 186 219 268 333
#     4   8  14  26  48  57  88 133 164 198 222 288
#     4  10  19  34  45  73 108 136 173 204 261 320
#     4   8  16  32  42  65  88 133 184 194 236 306
#     4  10  17  30  48  73 104 133 166 225 285 315
#     4  10  22  32  52  70 107 154 173 210 261 326
#     4  10  18  32  50  76 110 138 170 238 284 312
#     4  10  19  29  49  77 101 132 171 217 266 310
#
# _framework density 24.582597
#
# number of rings (size 3 to 8) (size 9 to 14) (size 15 to 20)
#    0.000    2.154    2.308    2.769    2.154    6.154 
#    0.000    0.000    0.000    0.000    0.000    4.308 
#    0.000   12.308    0.000    0.000    0.000    0.000 
#
# Total GULP energy -144773.598191 kJ/mol
# GULP energy per Si atom -5568.215315 kJ/mol
# Density = 2.452665 g / cm^3
# Si number density = 24.582597 Si / 1000 Ang^3
#
#
#
# Elastic Constant Matrix: (Units=GPa)
#
#
# Indices 1 2 3 4 5 6 
#
# 1 41.5585 16.2659 54.5084 0.0000 15.8666 0.0000
# 2 16.2659 119.6329 36.5555 0.0000 11.1856 0.0000
# 3 54.5084 36.5555 169.1661 0.0000 60.9197 0.0000
# 4 0.0000 0.0000 0.0000 17.2563 0.0000 3.2727
# 5 15.8666 11.1856 60.9197 0.0000 51.4789 0.0000
# 6 0.0000 0.0000 0.0000 3.2727 0.0000 36.5324
#
#
#
# Elastic Compliance Matrix: (Units=1/GPa)
#
#
# Indices 1 2 3 4 5 6 
#
# 1 0.042818 -0.001625 -0.015370 0.000000 0.005345 0.000000
# 2 -0.001625 0.009022 -0.001569 0.000000 0.000397 0.000000
# 3 -0.015370 -0.001569 0.016336 0.000000 -0.014254 0.000000
# 4 0.000000 0.000000 0.000000 0.058951 0.000000 -0.005281
# 5 0.005345 0.000397 -0.014254 0.000000 0.034559 0.000000
# 6 0.000000 0.000000 0.000000 -0.005281 0.000000 0.027846
#
#
# Mechanical properties :
#
#
# Convention : Reuss Voigt Hill
#
# Bulk Modulus (GPa) = 32.20930 60.55746 46.38338
# Shear Modulus (GPa) = 21.09613 35.92204 28.50908
#
# Velocity S-wave (km/s) = 2.93264 3.82682 3.40917
# Velocity P-wave (km/s) = 4.95964 6.64934 5.86566
#
# Compressibility (1/GPa) = 0.03104694
#
# Stress axis : x y z
#
# Youngs Moduli (GPa) = 23.35487 110.83834 61.21436
#
# Poissons Ratio (x) = 0.18010 0.94089
# Poissons Ratio (y) = 0.03795 0.09605
# Poissons Ratio (z) = 0.35897 0.17392
#
# Static dielectric constant tensor:
#      x y z
#    x 2.061840 0.000000 0.094220 
#    y 0.000000 1.891320 0.000000 
#    z 0.094220 0.000000 2.340960 
# 
# From -- ./inp_files/5199.got.cif
#   From: 2010.05.17/outbox.cif.g08.bks.cpg/sg13_3_cif.got.tgz:5199.got - 2010.06.03 16:44:36.
