data_PCOD9226085
_publ_section_title
;
Structure prediction by ZEFSAII (Michael W. Deem and Ramdas Pophale) SiO2 
 PCOD9226085
Probable space group: P 2/C
;
_chemical_formula_sum "Si O2"
_cell_formula_units_Z 32
_cell_length_a 7.342123
_cell_length_b 35.371997
_cell_length_c 5.392447
_cell_angle_alpha 90.000000
_cell_angle_beta 90.017456
_cell_angle_gamma 90.000000
_cell_volume 1400.448364
_symmetry_space_group_name_H-M "P 2/C"
_symmetry_group_IT_number 13
_symmetry_cell_setting 'monoclinic'
loop_
_space_group_symop_operation_xyz
x,y,z
-x,y,1/2-z
-x,-y,-z
x,-y,1/2+z
loop_
_atom_site_type_symbol
_atom_site_label
_atom_site_fract_x
_atom_site_fract_y
_atom_site_fract_z
Si Si1 0.710384 0.013978 0.453607
Si Si2 0.277170 0.137341 0.737193
Si Si3 0.282064 0.264821 0.241462
Si Si4 0.783360 0.646275 0.758259
Si Si5 0.281917 0.519522 0.243151
Si Si6 0.715819 0.900570 0.764785
Si Si7 0.783108 0.391477 0.757845
Si Si8 0.277855 0.775388 0.239923
O O1 0.728147 0.055631 0.340046
O O2 0.500000 0.000000 0.500000
O O3 0.787226 0.011890 0.731879
O O4 0.500000 0.135145 0.750000
O O5 0.215901 0.111633 0.505542
O O6 0.227571 0.180983 0.701417
O O7 0.210034 0.123086 0.003771
O O8 0.500000 0.259984 0.250000
O O9 0.244570 0.309110 0.215590
O O10 0.215131 0.248986 0.504601
O O11 0.215191 0.241754 0.001834
O O12 0.710157 0.630400 0.498333
O O13 0.000000 0.639386 0.750000
O O14 0.709725 0.624464 0.998333
O O15 0.500000 0.514509 0.250000
O O16 0.211908 0.502781 0.502485
O O17 0.245839 0.563904 0.219812
O O18 0.500000 0.892443 0.750000
O O19 0.000000 0.384782 0.750000
O O20 0.500000 0.774291 0.250000
#
# Coordination Sequence:
#
# PCOD9226085 Si02
#       8
#     4   4   4   4   4   4   4   4
#     4  10  17  22  29  37  58  84 121 173 221 266
#     4   9  17  24  35  49  69  93 125 170 223 278
#     4  10  19  31  51  70  92 122 156 187 235 296
#     4  10  21  36  52  76 104 129 160 201 246 287
#     4  10  21  36  54  78 106 137 172 210 248 283
#     4  10  16  22  31  44  60  90 127 164 225 283
#     4  10  21  36  54  75 103 134 165 203 243 287
#     4   9  17  30  43  63  87 110 143 190 234 281
#
# _framework density 22.849824000000002
#
# number of rings (size 3 to 8) (size 9 to 14) (size 15 to 20)
#    0.000    2.250    1.250    3.000    3.500    4.500 
#    0.000    0.000    0.000    0.000    0.000    0.000 
#    0.000    0.000    0.000    0.000    0.000    0.000 
#
# Total GULP energy -178794.143909 kJ/mol
# GULP energy per Si atom -5587.316997 kJ/mol
# Density = 2.279782 g / cm^3
# Si number density = 22.849824 Si / 1000 Ang^3
#
#
#
# Elastic Constant Matrix: (Units=GPa)
#
#
# Indices 1 2 3 4 5 6 
#
# 1 78.0848 -24.1979 -1.9101 0.0000 -2.6173 0.0000
# 2 -24.1979 121.0361 66.8259 0.0000 -4.8860 0.0000
# 3 -1.9101 66.8259 206.1245 0.0000 -5.1023 0.0000
# 4 0.0000 0.0000 0.0000 53.2238 0.0000 0.2577
# 5 -2.6173 -4.8860 -5.1023 0.0000 -22.1714 0.0000
# 6 0.0000 0.0000 0.0000 0.2577 0.0000 4.2504
#
#
#
# Elastic Compliance Matrix: (Units=1/GPa)
#
#
# Indices 1 2 3 4 5 6 
#
# 1 0.013699 0.003182 -0.000957 0.000000 -0.002098 0.000000
# 2 0.003182 0.010755 -0.003505 0.000000 -0.001939 0.000000
# 3 -0.000957 -0.003505 0.005967 0.000000 -0.000488 0.000000
# 4 0.000000 0.000000 0.000000 0.018794 0.000000 -0.001140
# 5 -0.002098 -0.001939 -0.000488 0.000000 -0.044316 0.000000
# 6 0.000000 0.000000 0.000000 -0.001140 0.000000 0.235340
#
#
# Mechanical properties :
#
#
# Convention : Reuss Voigt Hill
#
# Bulk Modulus (GPa) = 35.89171 54.07568 44.98369
# Shear Modulus (GPa) = 19.83444 31.36241 25.59843
#
# Velocity S-wave (km/s) = 2.94944 3.70881 3.35070
# Velocity P-wave (km/s) = 5.22883 6.48517 5.89059
#
# Compressibility (1/GPa) = 0.02786159
#
# Stress axis : x y z
#
# Youngs Moduli (GPa) = 72.99802 92.97737 167.58971
#
# Poissons Ratio (x) = -0.29588 0.16033
# Poissons Ratio (y) = -0.23230 0.58747
# Poissons Ratio (z) = 0.06984 0.32592
#
# Static dielectric constant tensor:
#      x y z
#    x 1.952770 0.000000 0.034920 
#    y 0.000000 1.798770 0.000000 
#    z 0.034920 0.000000 1.871540 
# 
# From -- ./inp_files/2729.got.cif
#   From: 2010.05.17/outbox.cif.g08.bks.cpg/sg13_2_cif.got.tgz:2729.got - 2010.06.03 16:44:36.
