data_PCOD9226640
_publ_section_title
;
Structure prediction by ZEFSAII (Michael W. Deem and Ramdas Pophale) SiO2 
 PCOD9226640
Probable space group: P 2/C
;
_chemical_formula_sum "Si O2"
_cell_formula_units_Z 30
_cell_length_a 13.207177
_cell_length_b 8.998158
_cell_length_c 19.469813
_cell_angle_alpha 90.000000
_cell_angle_beta 43.288102
_cell_angle_gamma 90.000000
_cell_volume 1586.495242
_symmetry_space_group_name_H-M "P 2/C"
_symmetry_group_IT_number 13
_symmetry_cell_setting 'monoclinic'
loop_
_space_group_symop_operation_xyz
x,y,z
-x,y,1/2-z
-x,-y,-z
x,-y,1/2+z
loop_
_atom_site_type_symbol
_atom_site_label
_atom_site_fract_x
_atom_site_fract_y
_atom_site_fract_z
Si Si1 0.000000 0.996542 0.250000
Si Si2 0.767982 0.088795 0.472369
Si Si3 0.621255 0.353528 0.477731
Si Si4 0.496996 0.120336 0.430264
Si Si5 0.327447 0.529352 0.171355
Si Si6 0.254158 0.874166 0.219750
Si Si7 0.385006 0.690970 0.753403
Si Si8 0.317993 0.998348 0.335639
O O1 0.114661 0.906919 0.240610
O O2 0.090707 0.085255 0.146970
O O3 0.700420 0.251220 0.493622
O O4 0.659920 0.958939 0.496547
O O5 0.763889 0.055148 0.555267
O O6 0.533761 0.234374 0.472827
O O7 0.720945 0.446218 0.374849
O O8 0.505182 0.460276 0.572202
O O9 0.523898 0.215405 0.348452
O O10 0.616472 0.986830 0.369610
O O11 0.282241 0.699056 0.200823
O O12 0.296085 0.429303 0.253306
O O13 0.250888 0.918269 0.301872
O O14 0.500000 0.620879 0.750000
O O15 0.299063 0.823879 0.834110
O O16 0.500000 0.971426 0.250000
#
# Coordination Sequence:
#
# PCOD9226640 Si02
#       8
#     2   4   4   4   4   4   4   4
#     4  12  28  36  62  92 124 170 212 256 298 364
#     4  12  20  37  62  97 119 159 210 262 306 348
#     4  10  19  32  55  93 118 158 196 264 308 358
#     4  10  17  35  66  81 116 151 214 259 293 347
#     4  10  20  31  56  88 128 151 198 254 320 367
#     4  11  21  41  59  92 121 161 208 258 307 362
#     4   9  17  32  54  96 115 150 190 259 317 361
#     4  10  19  37  69  93 115 156 210 264 310 350
#
# _framework density 18.909606
#
# number of rings (size 3 to 8) (size 9 to 14) (size 15 to 20)
#    0.000    1.600    6.667    1.200    0.000    2.133 
#    0.000    0.667    0.000    0.800    0.000    0.000 
#    0.000    0.000    0.000    0.000    0.000    0.000 
#
# Total GULP energy -167076.225611 kJ/mol
# GULP energy per Si atom -5569.207520 kJ/mol
# Density = 1.886657 g / cm^3
# Si number density = 18.909606 Si / 1000 Ang^3
#
#
#
# Elastic Constant Matrix: (Units=GPa)
#
#
# Indices 1 2 3 4 5 6 
#
# 1 82.5499 24.3176 31.2862 0.0000 26.9375 0.0000
# 2 24.3176 99.1547 21.6275 0.0000 11.6572 0.0000
# 3 31.2862 21.6275 75.7592 0.0000 22.7227 0.0000
# 4 0.0000 0.0000 0.0000 -0.3052 0.0000 17.5315
# 5 26.9375 11.6572 22.7227 0.0000 32.3933 0.0000
# 6 0.0000 0.0000 0.0000 17.5315 0.0000 21.9792
#
#
#
# Elastic Compliance Matrix: (Units=1/GPa)
#
#
# Indices 1 2 3 4 5 6 
#
# 1 0.017838 -0.002297 -0.003178 0.000000 -0.011778 0.000000
# 2 -0.002297 0.011173 -0.002036 0.000000 -0.000682 0.000000
# 3 -0.003178 -0.002036 0.017833 0.000000 -0.009133 0.000000
# 4 0.000000 0.000000 0.000000 -0.069984 0.000000 0.055822
# 5 -0.011778 -0.000682 -0.009133 0.000000 0.047317 0.000000
# 6 0.000000 0.000000 0.000000 0.055822 0.000000 0.000972
#
#
# Mechanical properties :
#
#
# Convention : Reuss Voigt Hill
#
# Bulk Modulus (GPa) = 31.42584 45.76958 38.59771
# Shear Modulus (GPa) = 98.46319 22.82896 60.64608
#
# Velocity S-wave (km/s) = 7.22382 3.47835 5.66932
# Velocity P-wave (km/s) = 9.28618 6.35522 7.95682
#
# Compressibility (1/GPa) = 0.03182095
#
# Stress axis : x y z
#
# Youngs Moduli (GPa) = 56.05856 89.50186 56.07572
#
# Poissons Ratio (x) = 0.20558 0.17823
# Poissons Ratio (y) = 0.12876 0.11420
# Poissons Ratio (z) = 0.17818 0.18227
#
# Static dielectric constant tensor:
#      x y z
#    x 1.696350 0.000000 0.022910 
#    y 0.000000 1.654570 0.000000 
#    z 0.022910 0.000000 1.726780 
# 
# From -- ./inp_files/79668.got.cif
#   From: 2010.05.17/outbox.cif.g08.bks.cpg/sg13_40_cif.got.tgz:79668.got - 2010.06.03 16:44:36.
