data_PCOD9226611
_publ_section_title
;
Structure prediction by ZEFSAII (Michael W. Deem and Ramdas Pophale) SiO2 
 PCOD9226611
Probable space group: P 2/C
;
_chemical_formula_sum "Si O2"
_cell_formula_units_Z 28
_cell_length_a 27.495636
_cell_length_b 9.357071
_cell_length_c 8.830411
_cell_angle_alpha 90.000000
_cell_angle_beta 41.104079
_cell_angle_gamma 90.000000
_cell_volume 1493.596882
_symmetry_space_group_name_H-M "P 2/C"
_symmetry_group_IT_number 13
_symmetry_cell_setting 'monoclinic'
loop_
_space_group_symop_operation_xyz
x,y,z
-x,y,1/2-z
-x,-y,-z
x,-y,1/2+z
loop_
_atom_site_type_symbol
_atom_site_label
_atom_site_fract_x
_atom_site_fract_y
_atom_site_fract_z
Si Si1 0.078852 0.708581 0.064118
Si Si2 0.416003 0.324270 0.489377
Si Si3 0.780850 0.641811 0.282121
Si Si4 0.654167 0.438964 0.555638
Si Si5 0.718020 0.115097 0.741596
Si Si6 0.240851 0.174326 0.203910
Si Si7 0.874703 0.499255 0.804658
O O1 0.072003 0.582092 0.205101
O O2 0.000000 0.786941 0.250000
O O3 0.153400 0.795049 0.929289
O O4 0.094963 0.628606 0.867658
O O5 0.500000 0.294231 0.250000
O O6 0.401746 0.363432 0.697575
O O7 0.388469 0.466374 0.466266
O O8 0.362311 0.191919 0.572441
O O9 0.708325 0.556289 0.506065
O O10 0.762499 0.798266 0.267049
O O11 0.841858 0.617059 0.265758
O O12 0.810311 0.562869 0.061707
O O13 0.710964 0.315130 0.372782
O O14 0.747942 0.140862 0.501380
O O15 0.726650 0.952037 0.769965
#
# Coordination Sequence:
#
# PCOD9226611 Si02
#       7
#     4   4   4   4   4   4   4
#     4  11  22  36  57  87 121 148 187 249 298 332
#     4  10  21  38  58  89 119 145 185 239 293 339
#     4  10  17  34  58  85 106 145 195 240 268 339
#     4  10  19  34  61  86 111 149 189 237 282 337
#     4  10  23  37  58  81 114 156 193 234 279 344
#     4  11  22  38  57  82 113 150 204 230 280 350
#     4  10  18  33  60  83 113 143 190 239 289 338
#
# _framework density 18.746691999999999
#
# number of rings (size 3 to 8) (size 9 to 14) (size 15 to 20)
#    0.000    1.714    4.286    2.571    2.000    1.143 
#    0.000    4.286    0.000    0.000    0.000    0.000 
#    0.000    0.000    0.000    0.000    0.000    0.000 
#
# Total GULP energy -156088.545918 kJ/mol
# GULP energy per Si atom -5574.590926 kJ/mol
# Density = 1.870402 g / cm^3
# Si number density = 18.746692 Si / 1000 Ang^3
#
#
#
# Elastic Constant Matrix: (Units=GPa)
#
#
# Indices 1 2 3 4 5 6 
#
# 1 48.0465 25.2500 50.1879 0.0000 -5.4232 0.0000
# 2 25.2500 83.8539 29.9559 0.0000 -5.7836 0.0000
# 3 50.1879 29.9559 102.8470 0.0000 -14.3010 0.0000
# 4 0.0000 0.0000 0.0000 10.7449 0.0000 6.1431
# 5 -5.4232 -5.7836 -14.3010 0.0000 27.0888 0.0000
# 6 0.0000 0.0000 0.0000 6.1431 0.0000 22.1022
#
#
#
# Elastic Compliance Matrix: (Units=1/GPa)
#
#
# Indices 1 2 3 4 5 6 
#
# 1 0.045612 -0.006525 -0.020809 0.000000 -0.003247 0.000000
# 2 -0.006525 0.014262 -0.000786 0.000000 0.001324 0.000000
# 3 -0.020809 -0.000786 0.021049 0.000000 0.006779 0.000000
# 4 0.000000 0.000000 0.000000 0.110651 0.000000 -0.030754
# 5 -0.003247 0.001324 0.006779 0.000000 0.040127 0.000000
# 6 0.000000 0.000000 0.000000 -0.030754 0.000000 0.053792
#
#
# Mechanical properties :
#
#
# Convention : Reuss Voigt Hill
#
# Bulk Modulus (GPa) = 40.51242 49.50388 45.00815
# Shear Modulus (GPa) = 14.28724 20.61074 17.44899
#
# Velocity S-wave (km/s) = 2.76365 3.31937 3.05417
# Velocity P-wave (km/s) = 5.64278 6.41522 6.04136
#
# Compressibility (1/GPa) = 0.02468379
#
# Stress axis : x y z
#
# Youngs Moduli (GPa) = 21.92384 70.11452 47.50738
#
# Poissons Ratio (x) = 0.45749 0.98860
# Poissons Ratio (y) = 0.14305 0.03734
# Poissons Ratio (z) = 0.45622 0.05511
#
# Static dielectric constant tensor:
#      x y z
#    x 1.680450 0.000000 -0.004400 
#    y 0.000000 1.636450 0.000000 
#    z -0.004400 0.000000 1.676470 
# 
# From -- ./inp_files/24523.got.cif
#   From: 2010.05.17/outbox.cif.g08.bks.cpg/sg13_13_cif.got.tgz:24523.got - 2010.06.03 16:44:36.
