data_PCOD9226846
_publ_section_title
;
Structure prediction by ZEFSAII (Michael W. Deem and Ramdas Pophale) SiO2 
 PCOD9226846
Probable space group: P 2/C
;
_chemical_formula_sum "Si O2"
_cell_formula_units_Z 32
_cell_length_a 19.160297
_cell_length_b 14.537240
_cell_length_c 9.493887
_cell_angle_alpha 90.000000
_cell_angle_beta 37.963639
_cell_angle_gamma 90.000000
_cell_volume 1626.736594
_symmetry_space_group_name_H-M "P 2/C"
_symmetry_group_IT_number 13
_symmetry_cell_setting 'monoclinic'
loop_
_space_group_symop_operation_xyz
x,y,z
-x,y,1/2-z
-x,-y,-z
x,-y,1/2+z
loop_
_atom_site_type_symbol
_atom_site_label
_atom_site_fract_x
_atom_site_fract_y
_atom_site_fract_z
Si Si1 0.001799 0.361956 0.087672
Si Si2 0.694028 0.601162 0.682917
Si Si3 0.088166 0.717973 0.198023
Si Si4 0.212064 0.877085 0.893596
Si Si5 0.446642 0.236830 0.991455
Si Si6 0.803980 0.515550 0.785061
Si Si7 0.729797 0.989054 0.427297
Si Si8 0.410222 0.081339 0.612505
O O1 0.000000 0.333826 0.250000
O O2 0.882020 0.407654 0.236200
O O3 0.033784 0.277478 0.936530
O O4 0.101928 0.437989 0.905683
O O5 0.789390 0.673674 0.481946
O O6 0.585921 0.663551 0.892961
O O7 0.743494 0.556331 0.745437
O O8 0.706084 0.524811 0.542778
O O9 0.000000 0.654274 0.250000
O O10 0.113495 0.803237 0.058038
O O11 0.331412 0.825574 0.668719
O O12 0.194177 0.955280 0.805360
O O13 0.220908 0.917562 0.038132
O O14 0.500000 0.243674 0.750000
O O15 0.530482 0.178921 0.958695
O O16 0.675698 0.063816 0.620832
O O17 0.642689 0.938207 0.457367
O O18 0.500000 0.000000 0.500000
#
# Coordination Sequence:
#
# PCOD9226846 Si02
#       8
#     4   4   4   4   4   4   4   4
#     4  10  18  30  57  84 107 134 186 235 282 328
#     4  10  21  34  58  81 114 145 187 236 284 335
#     4  10  20  36  54  84 116 145 179 238 286 333
#     4  10  21  34  55  83 115 145 188 233 280 329
#     4  11  20  34  54  84 114 148 187 230 282 337
#     4  10  18  33  55  83 107 141 184 231 282 337
#     4  10  19  32  56  84 109 145 192 232 272 332
#     4  11  17  30  57  83 110 143 185 237 278 319
#
# _framework density 19.671285999999998
#
# number of rings (size 3 to 8) (size 9 to 14) (size 15 to 20)
#    0.000    1.750    6.250    0.375    0.000    0.000 
#    0.000    5.000    2.750    0.000    0.000    0.000 
#    0.000    0.000    0.000    0.000    0.000    0.000 
#
# Total GULP energy -178170.356695 kJ/mol
# GULP energy per Si atom -5567.823647 kJ/mol
# Density = 1.962651 g / cm^3
# Si number density = 19.671286 Si / 1000 Ang^3
#
#
#
# Elastic Constant Matrix: (Units=GPa)
#
#
# Indices 1 2 3 4 5 6 
#
# 1 44.7062 12.0663 33.5315 0.0000 24.1925 0.0000
# 2 12.0663 55.1916 41.0781 0.0000 4.4166 0.0000
# 3 33.5315 41.0781 98.8514 0.0000 30.4610 0.0000
# 4 0.0000 0.0000 0.0000 341.8953 0.0000 -50.3138
# 5 24.1925 4.4166 30.4610 0.0000 33.5375 0.0000
# 6 0.0000 0.0000 0.0000 -50.3138 0.0000 27.0129
#
#
#
# Elastic Compliance Matrix: (Units=1/GPa)
#
#
# Indices 1 2 3 4 5 6 
#
# 1 0.039768 -0.003223 -0.004779 0.000000 -0.023922 0.000000
# 2 -0.003223 0.028583 -0.014360 0.000000 0.011604 0.000000
# 3 -0.004779 -0.014360 0.022301 0.000000 -0.014917 0.000000
# 4 0.000000 0.000000 0.000000 0.004029 0.000000 0.007505
# 5 -0.023922 0.011604 -0.014917 0.000000 0.059094 0.000000
# 6 0.000000 0.000000 0.000000 0.007505 0.000000 0.050998
#
#
# Mechanical properties :
#
#
# Convention : Reuss Voigt Hill
#
# Bulk Modulus (GPa) = 21.77332 41.34456 31.55894
# Shear Modulus (GPa) = 18.88176 87.96069 53.42123
#
# Velocity S-wave (km/s) = 3.10153 6.69420 5.21689
# Velocity P-wave (km/s) = 4.89066 8.98961 7.23643
#
# Compressibility (1/GPa) = 0.04592776
#
# Stress axis : x y z
#
# Youngs Moduli (GPa) = 25.14613 34.98628 44.84054
#
# Poissons Ratio (x) = 0.11277 0.21428
# Poissons Ratio (y) = 0.08105 0.64391
# Poissons Ratio (z) = 0.12016 0.50240
#
# Static dielectric constant tensor:
#      x y z
#    x 1.699050 0.000000 -0.014580 
#    y 0.000000 1.751280 0.000000 
#    z -0.014580 0.000000 1.742680 
# 
# From -- ./inp_files/23546.got.cif
#   From: 2010.05.17/outbox.cif.g08.bks.cpg/sg13_12_cif.got.tgz:23546.got - 2010.06.03 16:44:36.
