data_PCOD9226286
_publ_section_title
;
Structure prediction by ZEFSAII (Michael W. Deem and Ramdas Pophale) SiO2 
 PCOD9226286
Probable space group: P 2/C
;
_chemical_formula_sum "Si O2"
_cell_formula_units_Z 26
_cell_length_a 12.491054
_cell_length_b 17.263766
_cell_length_c 17.656931
_cell_angle_alpha 90.000000
_cell_angle_beta 22.003156
_cell_angle_gamma 90.000000
_cell_volume 1426.541690
_symmetry_space_group_name_H-M "P 2/C"
_symmetry_group_IT_number 13
_symmetry_cell_setting 'monoclinic'
loop_
_space_group_symop_operation_xyz
x,y,z
-x,y,1/2-z
-x,-y,-z
x,-y,1/2+z
loop_
_atom_site_type_symbol
_atom_site_label
_atom_site_fract_x
_atom_site_fract_y
_atom_site_fract_z
Si Si1 0.419423 0.807236 0.179844
Si Si2 0.405707 0.461482 0.893010
Si Si3 0.034918 0.182886 0.067481
Si Si4 0.000000 0.424981 0.750000
Si Si5 0.336960 0.639183 0.161166
Si Si6 0.277115 0.933616 0.621865
Si Si7 0.926395 0.332544 0.213634
O O1 0.146260 0.829401 0.409911
O O2 0.356875 0.725395 0.181432
O O3 0.684263 0.802424 0.064659
O O4 0.529682 0.870806 0.049028
O O5 0.500000 0.493280 0.750000
O O6 0.664940 0.421630 0.768785
O O7 0.245895 0.520529 0.053256
O O8 0.180204 0.390805 0.026219
O O9 0.861590 0.111542 0.215864
O O10 0.876788 0.264275 0.186490
O O11 0.098401 0.373872 0.755979
O O12 0.633740 0.623373 0.921793
O O13 0.000000 0.955439 0.750000
O O14 0.500000 0.000000 0.500000
O O15 0.000000 0.299448 0.250000
#
# Coordination Sequence:
#
# PCOD9226286 Si02
#       7
#     4   4   4   2   4   4   4
#     4  10  19  34  60  89 110 144 196 239 276 332
#     4  11  22  38  61  84 109 147 196 249 298 332
#     4  10  17  33  62  90 109 139 193 245 276 323
#     4  12  26  40  50  80 124 158 186 234 296 370
#     4  11  21  39  59  81 115 152 193 240 292 339
#     4  10  21  38  59  89 121 152 187 230 289 347
#     4  10  16  32  59  83 106 138 188 240 282 324
#
# _framework density 18.225895000000001
#
# number of rings (size 3 to 8) (size 9 to 14) (size 15 to 20)
#    0.000    1.538    6.923    1.846    0.000    1.231 
#    4.154    0.000    0.000    1.846    0.000    0.000 
#    0.000    0.000    0.000    0.000    0.000    0.000 
#
# Total GULP energy -144903.624413 kJ/mol
# GULP energy per Si atom -5573.216324 kJ/mol
# Density = 1.818441 g / cm^3
# Si number density = 18.225895 Si / 1000 Ang^3
#
#
#
# Elastic Constant Matrix: (Units=GPa)
#
#
# Indices 1 2 3 4 5 6 
#
# 1 85.9490 52.5101 41.4955 0.0000 6.0829 0.0000
# 2 52.5101 83.7940 34.9080 0.0000 0.6539 0.0000
# 3 41.4955 34.9080 72.1268 0.0000 25.3841 0.0000
# 4 0.0000 0.0000 0.0000 9.3329 0.0000 -4.4826
# 5 6.0829 0.6539 25.3841 0.0000 30.7572 0.0000
# 6 0.0000 0.0000 0.0000 -4.4826 0.0000 4.9511
#
#
#
# Elastic Compliance Matrix: (Units=1/GPa)
#
#
# Indices 1 2 3 4 5 6 
#
# 1 0.021768 -0.010000 -0.008799 0.000000 0.003169 0.000000
# 2 -0.010000 0.021069 -0.007021 0.000000 0.007325 0.000000
# 3 -0.008799 -0.007021 0.030526 0.000000 -0.023304 0.000000
# 4 0.000000 0.000000 0.000000 0.189590 0.000000 0.171649
# 5 0.003169 0.007325 -0.023304 0.000000 0.050963 0.000000
# 6 0.000000 0.000000 0.000000 0.171649 0.000000 0.357381
#
#
# Mechanical properties :
#
#
# Convention : Reuss Voigt Hill
#
# Bulk Modulus (GPa) = 46.03614 55.52190 50.77902
# Shear Modulus (GPa) = 6.84763 16.53866 11.69315
#
# Velocity S-wave (km/s) = 1.94042 3.01562 2.53567
# Velocity P-wave (km/s) = 5.50761 6.53105 6.04104
#
# Compressibility (1/GPa) = 0.02172206
#
# Stress axis : x y z
#
# Youngs Moduli (GPa) = 45.93850 47.46388 32.75851
#
# Poissons Ratio (x) = 0.47465 0.28824
# Poissons Ratio (y) = 0.45940 0.23001
# Poissons Ratio (z) = 0.40421 0.33326
#
# Static dielectric constant tensor:
#      x y z
#    x 1.655790 0.000000 -0.002620 
#    y 0.000000 1.633010 0.000000 
#    z -0.002620 0.000000 1.681300 
# 
# From -- ./inp_files/80255.got.cif
#   From: 2010.05.17/outbox.cif.g08.bks.cpg/sg13_41_cif.got.tgz:80255.got - 2010.06.03 16:44:36.
