data_PCOD9226946
_publ_section_title
;
Structure prediction by ZEFSAII (Michael W. Deem and Ramdas Pophale) SiO2 
 PCOD9226946
Probable space group: P 2/C
;
_chemical_formula_sum "Si O2"
_cell_formula_units_Z 30
_cell_length_a 13.578182
_cell_length_b 11.577045
_cell_length_c 26.311807
_cell_angle_alpha 90.000000
_cell_angle_beta 158.093074
_cell_angle_gamma 90.000000
_cell_volume 1543.175071
_symmetry_space_group_name_H-M "P 2/C"
_symmetry_group_IT_number 13
_symmetry_cell_setting 'monoclinic'
loop_
_space_group_symop_operation_xyz
x,y,z
-x,y,1/2-z
-x,-y,-z
x,-y,1/2+z
loop_
_atom_site_type_symbol
_atom_site_label
_atom_site_fract_x
_atom_site_fract_y
_atom_site_fract_z
Si Si1 0.107793 0.066521 0.746954
Si Si2 0.914852 0.298680 0.816873
Si Si3 0.448044 0.791560 0.167875
Si Si4 0.359238 0.994332 0.047606
Si Si5 0.500000 0.631506 0.750000
Si Si6 0.218178 0.545331 0.051457
Si Si7 0.252561 0.533371 0.753402
Si Si8 0.516820 0.254127 0.365145
O O1 0.000000 0.032049 0.750000
O O2 0.077564 0.203007 0.722949
O O3 0.920540 0.011017 0.613966
O O4 0.413247 0.039332 0.883595
O O5 0.703167 0.255500 0.758338
O O6 0.840658 0.423821 0.758775
O O7 0.195237 0.297446 0.979284
O O8 0.500000 0.833681 0.250000
O O9 0.262203 0.679241 0.086283
O O10 0.341799 0.895603 0.082138
O O11 0.463600 0.117397 0.118711
O O12 0.736879 0.544750 0.880717
O O13 0.543144 0.711350 0.721748
O O14 0.472847 0.509818 0.139234
O O15 0.968257 0.534700 0.895910
O O16 0.309260 0.665192 0.797129
#
# Coordination Sequence:
#
# PCOD9226946 Si02
#       8
#     4   4   4   4   2   4   4   4
#     4  10  21  42  68  84 110 146 195 248 296 350
#     4   9  19  38  54  85 111 148 191 233 296 340
#     4  10  21  35  55  81 125 159 193 234 273 338
#     4  10  23  40  57  92 116 152 195 233 295 343
#     4  10  18  32  48  78 112 160 194 222 268 328
#     4  10  20  30  51  78 107 156 203 229 265 328
#     4  10  18  34  52  77 112 147 188 238 279 322
#     4  10  21  33  53  78 120 153 189 236 274 337
#
# _framework density 19.440436999999999
#
# number of rings (size 3 to 8) (size 9 to 14) (size 15 to 20)
#    0.000    2.133    3.333    0.400    2.800    4.267 
#    0.000    2.000    0.000    4.000    0.000    0.000 
#    0.000    0.000    0.000    0.000    0.000    0.000 
#
# Total GULP energy -167066.630277 kJ/mol
# GULP energy per Si atom -5568.887676 kJ/mol
# Density = 1.939619 g / cm^3
# Si number density = 19.440437 Si / 1000 Ang^3
#
#
#
# Elastic Constant Matrix: (Units=GPa)
#
#
# Indices 1 2 3 4 5 6 
#
# 1 31.3100 5.6431 -9.6726 0.0000 -6.3664 0.0000
# 2 5.6431 90.7461 15.7677 0.0000 -15.9266 0.0000
# 3 -9.6726 15.7677 62.2680 0.0000 12.0154 0.0000
# 4 0.0000 0.0000 0.0000 24.5455 0.0000 6.7068
# 5 -6.3664 -15.9266 12.0154 0.0000 14.4276 0.0000
# 6 0.0000 0.0000 0.0000 6.7068 0.0000 8.8023
#
#
#
# Elastic Compliance Matrix: (Units=1/GPa)
#
#
# Indices 1 2 3 4 5 6 
#
# 1 0.035567 -0.000650 0.003336 0.000000 0.012198 0.000000
# 2 -0.000650 0.017544 -0.009800 0.000000 0.027242 0.000000
# 3 0.003336 -0.009800 0.024858 0.000000 -0.030048 0.000000
# 4 0.000000 0.000000 0.000000 0.051453 0.000000 -0.039204
# 5 0.012198 0.027242 -0.030048 0.000000 0.129791 0.000000
# 6 0.000000 0.000000 0.000000 -0.039204 0.000000 0.143477
#
#
# Mechanical properties :
#
#
# Convention : Reuss Voigt Hill
#
# Bulk Modulus (GPa) = 15.68908 23.08894 19.38901
# Shear Modulus (GPa) = 11.41120 21.06080 16.23600
#
# Velocity S-wave (km/s) = 2.42540 3.29500 2.89306
# Velocity P-wave (km/s) = 3.99140 5.13601 4.59945
#
# Compressibility (1/GPa) = 0.06373860
#
# Stress axis : x y z
#
# Youngs Moduli (GPa) = 28.11613 56.99901 40.22906
#
# Poissons Ratio (x) = 0.03707 -0.13419
# Poissons Ratio (y) = 0.01829 0.39426
# Poissons Ratio (z) = -0.09379 0.55861
#
# Static dielectric constant tensor:
#      x y z
#    x 1.724410 0.000000 0.028870 
#    y 0.000000 1.760100 0.000000 
#    z 0.028870 0.000000 1.683840 
# 
# From -- ./inp_files/92956.got.cif
#   From: 2010.05.17/outbox.cif.g08.bks.cpg/sg13_47_cif.got.tgz:92956.got - 2010.06.03 16:44:36.
