data_PCOD9226752
_publ_section_title
;
Structure prediction by ZEFSAII (Michael W. Deem and Ramdas Pophale) SiO2 
 PCOD9226752
Probable space group: P 2/C
;
_chemical_formula_sum "Si O2"
_cell_formula_units_Z 20
_cell_length_a 13.644055
_cell_length_b 14.399688
_cell_length_c 5.370660
_cell_angle_alpha 90.000000
_cell_angle_beta 93.165112
_cell_angle_gamma 90.000000
_cell_volume 1053.564700
_symmetry_space_group_name_H-M "P 2/C"
_symmetry_group_IT_number 13
_symmetry_cell_setting 'monoclinic'
loop_
_space_group_symop_operation_xyz
x,y,z
-x,y,1/2-z
-x,-y,-z
x,-y,1/2+z
loop_
_atom_site_type_symbol
_atom_site_label
_atom_site_fract_x
_atom_site_fract_y
_atom_site_fract_z
Si Si1 0.388625 0.115763 0.671450
Si Si2 0.883336 0.762718 0.209951
Si Si3 0.688410 0.089025 0.338339
Si Si4 0.886637 0.876227 0.710140
Si Si5 0.120088 0.446153 0.761651
O O1 0.500000 0.139160 0.750000
O O2 0.352841 0.148873 0.396967
O O3 0.376289 0.003773 0.642176
O O4 0.321885 0.140381 0.899968
O O5 0.865065 0.833726 0.436122
O O6 0.841772 0.659703 0.240152
O O7 0.000000 0.750730 0.250000
O O8 0.871941 0.800057 0.927088
O O9 0.797558 0.056482 0.273212
O O10 0.000000 0.909983 0.750000
O O11 0.149680 0.502003 0.519091
O O12 0.000000 0.444854 0.750000
#
# Coordination Sequence:
#
# PCOD9226752 Si02
#       5
#     4   4   4   4   4
#     4  10  19  33  50  68  86 104 138 181 227 274
#     4   9  17  28  40  55  81 116 149 182 213 243
#     4  10  18  30  47  66  84 111 145 176 213 263
#     4  10  19  30  42  59  87 121 153 177 204 249
#     4   9  15  23  37  56  75 100 143 190 218 237
#
# _framework density 18.983172
#
# number of rings (size 3 to 8) (size 9 to 14) (size 15 to 20)
#    0.000    2.400    0.000    5.400    0.000    4.800 
#    0.000    4.000    0.000    0.000    0.000    0.000 
#    0.000    0.000    0.000    0.000    0.000  412.000 
#
# Total GULP energy -111363.792374 kJ/mol
# GULP energy per Si atom -5568.189619 kJ/mol
# Density = 1.893997 g / cm^3
# Si number density = 18.983172 Si / 1000 Ang^3
#
#
#
# Elastic Constant Matrix: (Units=GPa)
#
#
# Indices 1 2 3 4 5 6 
#
# 1 71.4411 -5.5621 14.0952 0.0000 -2.2229 0.0000
# 2 -5.5621 28.4164 11.4672 0.0000 -0.7554 0.0000
# 3 14.0952 11.4672 164.8684 0.0000 1.9787 0.0000
# 4 0.0000 0.0000 0.0000 19.7063 0.0000 -2.9450
# 5 -2.2229 -0.7554 1.9787 0.0000 23.0323 0.0000
# 6 0.0000 0.0000 0.0000 -2.9450 0.0000 1.9081
#
#
#
# Elastic Compliance Matrix: (Units=1/GPa)
#
#
# Indices 1 2 3 4 5 6 
#
# 1 0.014622 0.003517 -0.001515 0.000000 0.001657 0.000000
# 2 0.003517 0.037099 -0.002903 0.000000 0.001806 0.000000
# 3 -0.001515 -0.002903 0.006406 0.000000 -0.000792 0.000000
# 4 0.000000 0.000000 0.000000 0.065958 0.000000 0.101799
# 5 0.001657 0.001806 -0.000792 0.000000 0.043704 0.000000
# 6 0.000000 0.000000 0.000000 0.101799 0.000000 0.681186
#
#
# Mechanical properties :
#
#
# Convention : Reuss Voigt Hill
#
# Bulk Modulus (GPa) = 17.75357 33.85849 25.80603
# Shear Modulus (GPa) = 5.75009 25.24438 15.49724
#
# Velocity S-wave (km/s) = 1.74230 3.65064 2.86031
# Velocity P-wave (km/s) = 3.66334 5.97029 4.95300
#
# Compressibility (1/GPa) = 0.05632670
#
# Stress axis : x y z
#
# Youngs Moduli (GPa) = 68.39122 26.95507 156.09570
#
# Poissons Ratio (x) = -0.09481 0.23642
# Poissons Ratio (y) = -0.24055 0.45310
# Poissons Ratio (z) = 0.10358 0.07824
#
# Static dielectric constant tensor:
#      x y z
#    x 1.717860 0.000000 0.039590 
#    y 0.000000 1.688450 0.000000 
#    z 0.039590 0.000000 1.795370 
# 
# From -- ./inp_files/3256.got.cif
#   From: 2010.05.17/outbox.cif.g08.bks.cpg/sg13_2_cif.got.tgz:3256.got - 2010.06.03 16:44:36.
