data_PCOD9226598
_publ_section_title
;
Structure prediction by ZEFSAII (Michael W. Deem and Ramdas Pophale) SiO2 
 PCOD9226598
Probable space group: P 2/C
;
_chemical_formula_sum "Si O2"
_cell_formula_units_Z 20
_cell_length_a 12.568365
_cell_length_b 8.376938
_cell_length_c 12.753268
_cell_angle_alpha 90.000000
_cell_angle_beta 36.483981
_cell_angle_gamma 90.000000
_cell_volume 798.378860
_symmetry_space_group_name_H-M "P 2/C"
_symmetry_group_IT_number 13
_symmetry_cell_setting 'monoclinic'
loop_
_space_group_symop_operation_xyz
x,y,z
-x,y,1/2-z
-x,-y,-z
x,-y,1/2+z
loop_
_atom_site_type_symbol
_atom_site_label
_atom_site_fract_x
_atom_site_fract_y
_atom_site_fract_z
Si Si1 0.204603 0.874789 0.551021
Si Si2 0.372842 0.801150 0.623104
Si Si3 0.823632 0.890442 0.159039
Si Si4 0.079842 0.360600 0.506491
Si Si5 0.331017 0.243365 0.463728
O O1 0.246761 0.065144 0.521666
O O2 0.000000 0.852872 0.750000
O O3 0.330264 0.786876 0.534596
O O4 0.226587 0.820748 0.414351
O O5 0.221784 0.715581 0.812454
O O6 0.563192 0.737470 0.510933
O O7 0.329825 0.987759 0.684178
O O8 0.912331 0.756910 0.161443
O O9 0.000000 0.000000 0.000000
O O10 0.192036 0.370711 0.525566
O O11 0.000000 0.500000 0.500000
O O12 0.500000 0.239070 0.250000
#
# Coordination Sequence:
#
# PCOD9226598 Si02
#       5
#     4   4   4   4   4
#     4  12  18  31  62  90 115 149 202 252 295 354
#     4  10  20  35  61  86 120 155 201 255 308 349
#     4  10  17  34  55  85 115 147 208 248 290 348
#     4  10  19  34  59  81 121 165 198 235 303 371
#     4  10  19  35  57  89 120 150 193 254 309 345
#
# _framework density 25.050764000000001
#
# number of rings (size 3 to 8) (size 9 to 14) (size 15 to 20)
#    0.000    1.600   10.000    0.600    0.000    0.000 
#    0.000    0.000   26.400    1.200    0.000    0.000 
#    0.000    0.000    0.000    0.000    0.000    0.000 
#
# Total GULP energy -111778.504611 kJ/mol
# GULP energy per Si atom -5588.925231 kJ/mol
# Density = 2.499375 g / cm^3
# Si number density = 25.050764 Si / 1000 Ang^3
#
#
#
# Elastic Constant Matrix: (Units=GPa)
#
#
# Indices 1 2 3 4 5 6 
#
# 1 270.1599 39.4924 40.5356 0.0000 -14.5700 0.0000
# 2 39.4924 45.1768 5.8693 0.0000 -25.2853 0.0000
# 3 40.5356 5.8693 98.6155 0.0000 -32.9623 0.0000
# 4 0.0000 0.0000 0.0000 12.5549 0.0000 3.7809
# 5 -14.5700 -25.2853 -32.9623 0.0000 45.6806 0.0000
# 6 0.0000 0.0000 0.0000 3.7809 0.0000 37.4264
#
#
#
# Elastic Compliance Matrix: (Units=1/GPa)
#
#
# Indices 1 2 3 4 5 6 
#
# 1 0.004808 -0.006005 -0.002922 0.000000 -0.003899 0.000000
# 2 -0.006005 0.041826 0.009327 0.000000 0.027966 0.000000
# 3 -0.002922 0.009327 0.016078 0.000000 0.015833 0.000000
# 4 0.000000 0.000000 0.000000 0.082150 0.000000 -0.008299
# 5 -0.003899 0.027966 0.015833 0.000000 0.047552 0.000000
# 6 0.000000 0.000000 0.000000 -0.008299 0.000000 0.027557
#
#
# Mechanical properties :
#
#
# Convention : Reuss Voigt Hill
#
# Bulk Modulus (GPa) = 15.74528 65.08296 40.41412
# Shear Modulus (GPa) = 20.80363 41.00269 30.90316
#
# Velocity S-wave (km/s) = 2.88490 4.05011 3.51611
# Velocity P-wave (km/s) = 4.17083 6.92156 5.71418
#
# Compressibility (1/GPa) = 0.06351111
#
# Stress axis : x y z
#
# Youngs Moduli (GPa) = 208.00717 23.90855 62.19509
#
# Poissons Ratio (x) = 0.14358 0.18174
# Poissons Ratio (y) = 1.24916 -0.58009
# Poissons Ratio (z) = 0.60780 -0.22299
#
# Static dielectric constant tensor:
#      x y z
#    x 2.043360 0.000000 0.050730 
#    y 0.000000 2.013870 0.000000 
#    z 0.050730 0.000000 2.105290 
# 
# From -- ./inp_files/49158.got.cif
#   From: 2010.05.17/outbox.cif.g08.bks.cpg/sg13_25_cif.got.tgz:49158.got - 2010.06.03 16:44:36.
