data_PCOD9226309
_publ_section_title
;
Structure prediction by ZEFSAII (Michael W. Deem and Ramdas Pophale) SiO2 
 PCOD9226309
Probable space group: P 2/C
;
_chemical_formula_sum "Si O2"
_cell_formula_units_Z 26
_cell_length_a 10.579977
_cell_length_b 22.371954
_cell_length_c 5.434914
_cell_angle_alpha 90.000000
_cell_angle_beta 76.835462
_cell_angle_gamma 90.000000
_cell_volume 1252.608718
_symmetry_space_group_name_H-M "P 2/C"
_symmetry_group_IT_number 13
_symmetry_cell_setting 'monoclinic'
loop_
_space_group_symop_operation_xyz
x,y,z
-x,y,1/2-z
-x,-y,-z
x,-y,1/2+z
loop_
_atom_site_type_symbol
_atom_site_label
_atom_site_fract_x
_atom_site_fract_y
_atom_site_fract_z
Si Si1 0.350474 0.975441 0.047871
Si Si2 0.000000 0.750179 0.750000
Si Si3 0.249379 0.748897 0.392165
Si Si4 0.581752 0.840032 0.467449
Si Si5 0.876132 0.658138 0.413412
Si Si6 0.368293 0.651469 0.652989
Si Si7 0.354298 0.475775 0.006300
O O1 0.355072 0.904574 0.011355
O O2 0.290734 0.993568 0.335182
O O3 0.500000 0.000000 0.000000
O O4 0.938341 0.708129 0.566888
O O5 0.127633 0.781540 0.579052
O O6 0.317588 0.789309 0.158371
O O7 0.188347 0.692032 0.284964
O O8 0.346932 0.716454 0.539208
O O9 0.500000 0.848040 0.250000
O O10 0.500000 0.825759 0.750000
O O11 0.755007 0.635245 0.621501
O O12 0.000000 0.622367 0.250000
O O13 0.500000 0.651184 0.750000
O O14 0.368628 0.595314 0.468997
O O15 0.290982 0.495644 0.293356
O O16 0.500000 0.500000 0.000000
#
# Coordination Sequence:
#
# PCOD9226309 Si02
#       7
#     4   2   4   4   4   4   4
#     4  10  16  34  53  73 111 170 207 231 281 370
#     4   8  18  44  58  78 108 164 218 242 292 380
#     4  10  24  36  60  87 123 161 199 253 314 364
#     4  12  24  35  53  89 134 155 196 250 309 367
#     4   9  20  39  59  81 114 158 204 242 303 377
#     4  11  23  37  61  90 125 158 201 250 308 366
#     4  10  21  39  58  84 119 160 203 240 291 363
#
# _framework density 20.756682000000001
#
# number of rings (size 3 to 8) (size 9 to 14) (size 15 to 20)
#    0.000    1.846    4.615    0.000    8.615    0.000 
#    0.000    0.000    0.000    0.923    0.000    1.077 
#    0.000    0.000    0.000    0.000    0.000    0.000 
#
# Total GULP energy -144848.794045 kJ/mol
# GULP energy per Si atom -5571.107463 kJ/mol
# Density = 2.070944 g / cm^3
# Si number density = 20.756682 Si / 1000 Ang^3
#
#
#
# Elastic Constant Matrix: (Units=GPa)
#
#
# Indices 1 2 3 4 5 6 
#
# 1 60.9673 31.9884 34.8584 0.0000 -10.1529 0.0000
# 2 31.9884 89.5477 37.0579 0.0000 -20.4535 0.0000
# 3 34.8584 37.0579 151.9801 0.0000 -8.6182 0.0000
# 4 0.0000 0.0000 0.0000 32.0644 0.0000 4.7068
# 5 -10.1529 -20.4535 -8.6182 0.0000 44.0939 0.0000
# 6 0.0000 0.0000 0.0000 4.7068 0.0000 -24.7208
#
#
#
# Elastic Compliance Matrix: (Units=1/GPa)
#
#
# Indices 1 2 3 4 5 6 
#
# 1 0.021778 -0.005998 -0.003444 0.000000 0.001559 0.000000
# 2 -0.005998 0.015391 -0.002073 0.000000 0.005353 0.000000
# 3 -0.003444 -0.002073 0.007863 0.000000 -0.000218 0.000000
# 4 0.000000 0.000000 0.000000 0.030339 0.000000 0.005777
# 5 0.001559 0.005353 -0.000218 0.000000 0.025478 0.000000
# 6 0.000000 0.000000 0.000000 0.005777 0.000000 -0.039352
#
#
# Mechanical properties :
#
#
# Convention : Reuss Voigt Hill
#
# Bulk Modulus (GPa) = 45.45413 56.70048 51.07731
# Shear Modulus (GPa) = 54.42920 23.52685 38.97803
#
# Velocity S-wave (km/s) = 5.12635 3.37034 4.33812
# Velocity P-wave (km/s) = 7.54886 6.52086 7.05361
#
# Compressibility (1/GPa) = 0.02200020
#
# Stress axis : x y z
#
# Youngs Moduli (GPa) = 45.91741 64.97458 127.17844
#
# Poissons Ratio (x) = 0.38974 0.43801
# Poissons Ratio (y) = 0.27543 0.26370
# Poissons Ratio (z) = 0.15814 0.13472
#
# Static dielectric constant tensor:
#      x y z
#    x 1.779000 0.000000 0.012080 
#    y 0.000000 1.731010 0.000000 
#    z 0.012080 0.000000 1.893580 
# 
# From -- ./inp_files/3904.got.cif
#   From: 2010.05.17/outbox.cif.g08.bks.cpg/sg13_2_cif.got.tgz:3904.got - 2010.06.03 16:44:36.
