data_PCOD9226025
_publ_section_title
;
Structure prediction by ZEFSAII (Michael W. Deem and Ramdas Pophale) SiO2 
 PCOD9226025
Probable space group: P 2/C
;
_chemical_formula_sum "Si O2"
_cell_formula_units_Z 28
_cell_length_a 29.935213
_cell_length_b 8.701389
_cell_length_c 5.467449
_cell_angle_alpha 90.000000
_cell_angle_beta 122.116457
_cell_angle_gamma 90.000000
_cell_volume 1206.211106
_symmetry_space_group_name_H-M "P 2/C"
_symmetry_group_IT_number 13
_symmetry_cell_setting 'monoclinic'
loop_
_space_group_symop_operation_xyz
x,y,z
-x,y,1/2-z
-x,-y,-z
x,-y,1/2+z
loop_
_atom_site_type_symbol
_atom_site_label
_atom_site_fract_x
_atom_site_fract_y
_atom_site_fract_z
Si Si1 0.774260 0.679311 0.600320
Si Si2 0.950911 0.861863 0.733799
Si Si3 0.893252 0.441695 0.934626
Si Si4 0.152908 0.073973 0.339274
Si Si5 0.613504 0.402735 0.033111
Si Si6 0.731112 0.674613 0.974668
Si Si7 0.500000 0.601879 0.250000
Si Si8 0.000000 0.635525 0.250000
O O1 0.829899 0.755453 0.685207
O O2 0.760756 0.743785 0.828336
O O3 0.755845 0.500080 0.563116
O O4 0.739821 0.739967 0.269918
O O5 0.909156 0.738420 0.485673
O O6 0.910872 0.941122 0.813948
O O7 0.000000 0.949314 0.750000
O O8 0.988348 0.741544 0.988212
O O9 0.865911 0.508169 0.101816
O O10 0.947881 0.535280 0.117089
O O11 0.171401 0.975780 0.160931
O O12 0.613944 0.525319 0.260832
O O13 0.669538 0.322868 0.231536
O O14 0.557254 0.317233 0.905337
O O15 0.500000 0.500000 0.500000
#
# Coordination Sequence:
#
# PCOD9226025 Si02
#       8
#     4   4   4   4   4   4   2   2
#     4  10  20  39  59  84 111 140 185 244 297 331
#     4  11  22  40  65  84 108 141 175 213 264 339
#     4  10  17  32  54  86 114 131 152 194 255 304
#     4  12  30  49  61  81 113 154 191 229 280 337
#     4  10  14  25  42  76 121 161 194 222 269 349
#     4  10  17  34  63  92 111 142 192 246 302 330
#     4   8  16  20  34  64 118 178 192 204 260 336
#     4  10  18  36  58  92 116 136 158 208 262 324
#
# _framework density 23.213183000000001
#
# number of rings (size 3 to 8) (size 9 to 14) (size 15 to 20)
#    0.000    1.714    5.000    1.714    2.000    0.571 
#   10.286    0.000    0.000    0.000    0.000    0.000 
#    0.000    0.000    0.000   21.857    0.000    0.000 
#
# Total GULP energy -156006.985735 kJ/mol
# GULP energy per Si atom -5571.678062 kJ/mol
# Density = 2.316035 g / cm^3
# Si number density = 23.213183 Si / 1000 Ang^3
#
#
#
# Elastic Constant Matrix: (Units=GPa)
#
#
# Indices 1 2 3 4 5 6 
#
# 1 113.7096 24.8809 31.9369 0.0000 -5.4121 0.0000
# 2 24.8809 60.9658 18.0953 0.0000 -6.6494 0.0000
# 3 31.9369 18.0953 113.8042 0.0000 -30.1479 0.0000
# 4 0.0000 0.0000 0.0000 8.9618 0.0000 -4.6980
# 5 -5.4121 -6.6494 -30.1479 0.0000 59.5526 0.0000
# 6 0.0000 0.0000 0.0000 -4.6980 0.0000 -9.1461
#
#
#
# Elastic Compliance Matrix: (Units=1/GPa)
#
#
# Indices 1 2 3 4 5 6 
#
# 1 0.010232 -0.003511 -0.002507 0.000000 -0.000731 0.000000
# 2 -0.003511 0.018440 -0.001716 0.000000 0.000871 0.000000
# 3 -0.002507 -0.001716 0.011147 0.000000 0.005224 0.000000
# 4 0.000000 0.000000 0.000000 0.087912 0.000000 -0.045157
# 5 -0.000731 0.000871 0.005224 0.000000 0.019467 0.000000
# 6 0.000000 0.000000 0.000000 -0.045157 0.000000 -0.086141
#
#
# Mechanical properties :
#
#
# Convention : Reuss Voigt Hill
#
# Bulk Modulus (GPa) = 41.06617 48.70065 44.88341
# Shear Modulus (GPa) = 59.07169 26.11143 42.59156
#
# Velocity S-wave (km/s) = 5.05002 3.35752 4.28810
# Velocity P-wave (km/s) = 7.19256 6.00466 6.62529
#
# Compressibility (1/GPa) = 0.02435094
#
# Stress axis : x y z
#
# Youngs Moduli (GPa) = 97.73317 54.22993 89.70913
#
# Poissons Ratio (x) = 0.19043 0.22488
# Poissons Ratio (y) = 0.34319 0.15392
# Poissons Ratio (z) = 0.24499 0.09305
#
# Static dielectric constant tensor:
#      x y z
#    x 2.051970 0.000000 -0.184860 
#    y 0.000000 1.902540 0.000000 
#    z -0.184860 0.000000 2.140690 
# 
# From -- ./inp_files/8120.got.cif
#   From: 2010.05.17/outbox.cif.g08.bks.cpg/sg13_5_cif.got.tgz:8120.got - 2010.06.03 16:44:36.
