data_PCOD9226711
_publ_section_title
;
Structure prediction by ZEFSAII (Michael W. Deem and Ramdas Pophale) SiO2 
 PCOD9226711
Probable space group: P 2/C
;
_chemical_formula_sum "Si O2"
_cell_formula_units_Z 30
_cell_length_a 24.131701
_cell_length_b 7.503923
_cell_length_c 25.599271
_cell_angle_alpha 90.000000
_cell_angle_beta 163.166451
_cell_angle_gamma 90.000000
_cell_volume 1342.427709
_symmetry_space_group_name_H-M "P 2/C"
_symmetry_group_IT_number 13
_symmetry_cell_setting 'monoclinic'
loop_
_space_group_symop_operation_xyz
x,y,z
-x,y,1/2-z
-x,-y,-z
x,-y,1/2+z
loop_
_atom_site_type_symbol
_atom_site_label
_atom_site_fract_x
_atom_site_fract_y
_atom_site_fract_z
Si Si1 0.000000 0.590896 0.750000
Si Si2 0.913947 0.616825 0.782949
Si Si3 0.728826 0.424596 0.226627
Si Si4 0.393460 0.843870 0.435805
Si Si5 0.663315 0.053311 0.016077
Si Si6 0.093881 0.218571 0.587636
Si Si7 0.234097 0.855761 0.110060
Si Si8 0.723051 0.099003 0.960944
O O1 0.070637 0.509224 0.758110
O O2 0.833427 0.722618 0.578240
O O3 0.801881 0.546971 0.732635
O O4 0.805661 0.801556 0.669523
O O5 0.122002 0.675380 0.992664
O O6 0.524113 0.330136 0.044879
O O7 0.770824 0.604113 0.296585
O O8 0.879689 0.284398 0.387901
O O9 0.180728 0.844979 0.220151
O O10 0.500000 0.000000 0.500000
O O11 0.379096 0.895914 0.482660
O O12 0.460159 0.152388 0.823867
O O13 0.736721 0.985534 0.026089
O O14 0.144150 0.091711 0.584403
O O15 0.206154 0.969961 0.031480
O O16 0.500000 0.136961 0.750000
#
# Coordination Sequence:
#
# PCOD9226711 Si02
#       8
#     2   4   4   4   4   4   4   4
#     4   8  14  24  42  68  90 118 160 214 250 284
#     4   9  16  28  46  69  98 125 166 211 256 298
#     4  10  21  35  50  72 106 144 172 209 259 311
#     4  12  21  32  50  77 109 138 168 213 261 312
#     4  10  18  29  44  73 102 125 160 209 259 304
#     4  10  21  35  51  73 105 138 177 210 257 312
#     4   9  16  29  48  70  95 127 165 213 252 295
#     4   8  15  26  43  66  94 121 156 205 254 289
#
# _framework density 22.347573000000001
#
# number of rings (size 3 to 8) (size 9 to 14) (size 15 to 20)
#    0.000    2.400    2.667    0.400    0.000    1.600 
#    0.000    0.000    0.000    0.000    0.000   42.000 
#    0.000    0.000    0.000    0.000    0.000    0.000 
#
# Total GULP energy -167022.570675 kJ/mol
# GULP energy per Si atom -5567.419023 kJ/mol
# Density = 2.229671 g / cm^3
# Si number density = 22.347573 Si / 1000 Ang^3
#
#
#
# Elastic Constant Matrix: (Units=GPa)
#
#
# Indices 1 2 3 4 5 6 
#
# 1 141.7505 25.1943 44.1486 0.0000 -30.3099 0.0000
# 2 25.1943 47.7621 12.6036 0.0000 -1.8463 0.0000
# 3 44.1486 12.6036 118.5944 0.0000 -11.7158 0.0000
# 4 0.0000 0.0000 0.0000 21.0961 0.0000 0.3831
# 5 -30.3099 -1.8463 -11.7158 0.0000 34.9201 0.0000
# 6 0.0000 0.0000 0.0000 0.3831 0.0000 14.3821
#
#
#
# Elastic Compliance Matrix: (Units=1/GPa)
#
#
# Indices 1 2 3 4 5 6 
#
# 1 0.010339 -0.004464 -0.002597 0.000000 0.007867 0.000000
# 2 -0.004464 0.023474 -0.001130 0.000000 -0.003013 0.000000
# 3 -0.002597 -0.001130 0.009609 0.000000 0.000910 0.000000
# 4 0.000000 0.000000 0.000000 0.047425 0.000000 -0.001263
# 5 0.007867 -0.003013 0.000910 0.000000 0.035611 0.000000
# 6 0.000000 0.000000 0.000000 -0.001263 0.000000 0.069564
#
#
# Mechanical properties :
#
#
# Convention : Reuss Voigt Hill
#
# Bulk Modulus (GPa) = 36.98525 52.44445 44.71485
# Shear Modulus (GPa) = 22.58161 29.15704 25.86933
#
# Velocity S-wave (km/s) = 3.18224 3.61599 3.40603
# Velocity P-wave (km/s) = 5.48527 6.39941 5.95989
#
# Compressibility (1/GPa) = 0.02703780
#
# Stress axis : x y z
#
# Youngs Moduli (GPa) = 96.71939 42.60060 104.06921
#
# Poissons Ratio (x) = 0.19019 0.27030
# Poissons Ratio (y) = 0.43179 0.11764
# Poissons Ratio (z) = 0.25121 0.04816
#
# Static dielectric constant tensor:
#      x y z
#    x 1.941600 0.000000 -0.004530 
#    y 0.000000 1.824350 0.000000 
#    z -0.004530 0.000000 1.822420 
# 
# From -- ./inp_files/88915.got.cif
#   From: 2010.05.17/outbox.cif.g08.bks.cpg/sg13_45_cif.got.tgz:88915.got - 2010.06.03 16:44:36.
