data_PCOD9226440
_publ_section_title
;
Structure prediction by ZEFSAII (Michael W. Deem and Ramdas Pophale) SiO2 
 PCOD9226440
Probable space group: P 2/C
;
_chemical_formula_sum "Si O2"
_cell_formula_units_Z 28
_cell_length_a 14.508865
_cell_length_b 14.205387
_cell_length_c 9.748040
_cell_angle_alpha 90.000000
_cell_angle_beta 124.597626
_cell_angle_gamma 90.000000
_cell_volume 1653.819147
_symmetry_space_group_name_H-M "P 2/C"
_symmetry_group_IT_number 13
_symmetry_cell_setting 'monoclinic'
loop_
_space_group_symop_operation_xyz
x,y,z
-x,y,1/2-z
-x,-y,-z
x,-y,1/2+z
loop_
_atom_site_type_symbol
_atom_site_label
_atom_site_fract_x
_atom_site_fract_y
_atom_site_fract_z
Si Si1 0.293043 0.275019 0.058422
Si Si2 0.408269 0.833250 0.281896
Si Si3 0.596601 0.567104 0.711206
Si Si4 0.243487 0.016143 0.715240
Si Si5 0.400293 0.639976 0.374605
Si Si6 0.443855 0.118070 0.333209
Si Si7 0.869022 0.896043 0.110372
O O1 0.300044 0.368478 0.156177
O O2 0.383618 0.206655 0.209301
O O3 0.332943 0.315305 0.945597
O O4 0.186422 0.207469 0.953919
O O5 0.500000 0.861643 0.250000
O O6 0.295676 0.893481 0.181673
O O7 0.390924 0.721504 0.255000
O O8 0.464774 0.852514 0.478519
O O9 0.500000 0.560373 0.750000
O O10 0.527554 0.618745 0.531835
O O11 0.635845 0.463294 0.703673
O O12 0.192046 0.052719 0.813235
O O13 0.350146 0.946894 0.823132
O O14 0.158887 0.958158 0.547698
O O15 0.500000 0.067657 0.250000
O O16 0.000000 0.890232 0.250000
#
# Coordination Sequence:
#
# PCOD9226440 Si02
#       7
#     4   4   4   4   4   4   4
#     4  10  18  35  55  73 104 149 183 214 260 316
#     4  12  20  29  47  82 118 143 169 210 259 325
#     4   9  17  29  49  78 109 143 170 202 252 318
#     4  11  22  35  53  81 106 142 177 224 269 315
#     4  10  17  29  49  77 112 140 170 204 250 319
#     4  11  18  33  51  74 115 154 174 199 255 333
#     4  11  23  40  59  76  99 140 191 236 272 306
#
# _framework density 16.930509000000001
#
# number of rings (size 3 to 8) (size 9 to 14) (size 15 to 20)
#    0.000    1.429    4.286    3.857    0.000    0.000 
#    0.000    0.000    0.000    0.857    0.000    0.000 
#    0.000    0.000    0.000    0.000    0.000    0.000 
#
# Total GULP energy -156094.805809 kJ/mol
# GULP energy per Si atom -5574.814493 kJ/mol
# Density = 1.689197 g / cm^3
# Si number density = 16.930509 Si / 1000 Ang^3
#
#
#
# Elastic Constant Matrix: (Units=GPa)
#
#
# Indices 1 2 3 4 5 6 
#
# 1 46.7384 27.0428 19.5401 0.0000 5.9583 0.0000
# 2 27.0428 135.7881 32.7584 0.0000 10.2841 0.0000
# 3 19.5401 32.7584 53.8450 0.0000 9.4413 0.0000
# 4 0.0000 0.0000 0.0000 5.4657 0.0000 -1.5684
# 5 5.9583 10.2841 9.4413 0.0000 28.8970 0.0000
# 6 0.0000 0.0000 0.0000 -1.5684 0.0000 16.8555
#
#
#
# Elastic Compliance Matrix: (Units=1/GPa)
#
#
# Indices 1 2 3 4 5 6 
#
# 1 0.026648 -0.003411 -0.007261 0.000000 -0.001908 0.000000
# 2 -0.003411 0.009125 -0.004102 0.000000 -0.001204 0.000000
# 3 -0.007261 -0.004102 0.024593 0.000000 -0.005078 0.000000
# 4 0.000000 0.000000 0.000000 0.187978 0.000000 0.017491
# 5 -0.001908 -0.001204 -0.005078 0.000000 0.037087 0.000000
# 6 0.000000 0.000000 0.000000 0.017491 0.000000 0.060955
#
#
# Mechanical properties :
#
#
# Convention : Reuss Voigt Hill
#
# Bulk Modulus (GPa) = 32.44904 43.89490 38.17197
# Shear Modulus (GPa) = 12.94647 20.71230 16.82938
#
# Velocity S-wave (km/s) = 2.76829 3.50147 3.15624
# Velocity P-wave (km/s) = 5.42453 6.50614 5.98980
#
# Compressibility (1/GPa) = 0.03081756
#
# Stress axis : x y z
#
# Youngs Moduli (GPa) = 37.52616 109.59428 40.66216
#
# Poissons Ratio (x) = 0.37382 0.29524
# Poissons Ratio (y) = 0.12800 0.16681
# Poissons Ratio (z) = 0.27247 0.44959
#
# Static dielectric constant tensor:
#      x y z
#    x 1.574750 0.000000 -0.066390 
#    y 0.000000 1.625450 0.000000 
#    z -0.066390 0.000000 1.660570 
# 
# From -- ./inp_files/19446.got.cif
#   From: 2010.05.17/outbox.cif.g08.bks.cpg/sg13_10_cif.got.tgz:19446.got - 2010.06.03 16:44:36.
