data_PCOD9226833
_publ_section_title
;
Structure prediction by ZEFSAII (Michael W. Deem and Ramdas Pophale) SiO2 
 PCOD9226833
Probable space group: P 2/C
;
_chemical_formula_sum "Si O2"
_cell_formula_units_Z 26
_cell_length_a 15.293049
_cell_length_b 14.067030
_cell_length_c 8.727042
_cell_angle_alpha 90.000000
_cell_angle_beta 140.272434
_cell_angle_gamma 90.000000
_cell_volume 1199.936161
_symmetry_space_group_name_H-M "P 2/C"
_symmetry_group_IT_number 13
_symmetry_cell_setting 'monoclinic'
loop_
_space_group_symop_operation_xyz
x,y,z
-x,y,1/2-z
-x,-y,-z
x,-y,1/2+z
loop_
_atom_site_type_symbol
_atom_site_label
_atom_site_fract_x
_atom_site_fract_y
_atom_site_fract_z
Si Si1 0.293876 0.546882 0.969159
Si Si2 0.762488 0.619040 0.910629
Si Si3 0.500000 0.066711 0.750000
Si Si4 0.904260 0.056835 0.985917
Si Si5 0.341318 0.920708 0.753838
Si Si6 0.569389 0.622411 0.049637
Si Si7 0.256607 0.774789 0.398225
O O1 0.212631 0.610251 0.736623
O O2 0.377292 0.470079 0.975159
O O3 0.204615 0.479521 0.959144
O O4 0.384741 0.605893 0.212809
O O5 0.594224 0.630445 0.689752
O O6 0.823746 0.701207 0.099582
O O7 0.397914 0.116328 0.494017
O O8 0.422033 0.000138 0.765207
O O9 0.827488 0.145502 0.805721
O O10 0.798378 0.976802 0.901679
O O11 0.000000 0.093105 0.250000
O O12 0.000000 0.000000 0.000000
O O13 0.339030 0.834671 0.634209
O O14 0.649099 0.712387 0.086994
#
# Coordination Sequence:
#
# PCOD9226833 Si02
#       7
#     4   4   2   4   4   4   4
#     4   9  16  32  51  83 126 179 201 221 304 373
#     4  10  18  30  54  84 129 164 202 246 293 384
#     4  10  22  36  64  84 130 160 178 244 326 430
#     4  12  24  47  70  82 110 164 224 278 311 365
#     4  11  22  41  61  91 119 162 200 246 334 377
#     4  10  18  30  56  85 130 167 199 247 293 382
#     4  11  23  36  55  88 115 152 212 258 309 343
#
# _framework density 21.667819000000001
#
# number of rings (size 3 to 8) (size 9 to 14) (size 15 to 20)
#    0.000    1.538    3.077    5.077    2.154    0.000 
#    8.308    0.000    0.000    0.000    0.000   17.231 
#    0.000    0.000    0.000    0.000    0.000    0.000 
#
# Total GULP energy -144999.273921 kJ/mol
# GULP energy per Si atom -5576.895151 kJ/mol
# Density = 2.161850 g / cm^3
# Si number density = 21.667819 Si / 1000 Ang^3
#
#
#
# Elastic Constant Matrix: (Units=GPa)
#
#
# Indices 1 2 3 4 5 6 
#
# 1 96.3003 27.7020 35.3080 0.0000 -22.0481 0.0000
# 2 27.7020 100.2017 36.2995 0.0000 -11.6636 0.0000
# 3 35.3080 36.2995 91.1857 0.0000 -45.0892 0.0000
# 4 0.0000 0.0000 0.0000 33.9315 0.0000 -23.2945
# 5 -22.0481 -11.6636 -45.0892 0.0000 42.7139 0.0000
# 6 0.0000 0.0000 0.0000 -23.2945 0.0000 33.6970
#
#
#
# Elastic Compliance Matrix: (Units=1/GPa)
#
#
# Indices 1 2 3 4 5 6 
#
# 1 0.012676 -0.002277 -0.002246 0.000000 0.003550 0.000000
# 2 -0.002277 0.012340 -0.006162 0.000000 -0.004311 0.000000
# 3 -0.002246 -0.006162 0.026953 0.000000 0.025609 0.000000
# 4 0.000000 0.000000 0.000000 0.056091 0.000000 0.038775
# 5 0.003550 -0.004311 0.025609 0.000000 0.051100 0.000000
# 6 0.000000 0.000000 0.000000 0.038775 0.000000 0.056482
#
#
# Mechanical properties :
#
#
# Convention : Reuss Voigt Hill
#
# Bulk Modulus (GPa) = 32.68287 54.03407 43.35847
# Shear Modulus (GPa) = 20.22560 34.62702 27.42631
#
# Velocity S-wave (km/s) = 3.05854 4.00194 3.56162
# Velocity P-wave (km/s) = 5.25254 6.80777 6.08009
#
# Compressibility (1/GPa) = 0.03059707
#
# Stress axis : x y z
#
# Youngs Moduli (GPa) = 78.89162 81.03723 37.10220
#
# Poissons Ratio (x) = 0.18455 0.08334
# Poissons Ratio (y) = 0.17967 0.22862
# Poissons Ratio (z) = 0.17720 0.49935
#
# Static dielectric constant tensor:
#      x y z
#    x 1.811800 0.000000 0.028910 
#    y 0.000000 1.873870 0.000000 
#    z 0.028910 0.000000 1.832830 
# 
# From -- ./inp_files/19921.got.cif
#   From: 2010.05.17/outbox.cif.g08.bks.cpg/sg13_10_cif.got.tgz:19921.got - 2010.06.03 16:44:36.
