data_PCOD9226909
_publ_section_title
;
Structure prediction by ZEFSAII (Michael W. Deem and Ramdas Pophale) SiO2 
 PCOD9226909
Probable space group: P 2/C
;
_chemical_formula_sum "Si O2"
_cell_formula_units_Z 32
_cell_length_a 22.528139
_cell_length_b 9.243241
_cell_length_c 12.295485
_cell_angle_alpha 90.000000
_cell_angle_beta 146.872980
_cell_angle_gamma 90.000000
_cell_volume 1399.210344
_symmetry_space_group_name_H-M "P 2/C"
_symmetry_group_IT_number 13
_symmetry_cell_setting 'monoclinic'
loop_
_space_group_symop_operation_xyz
x,y,z
-x,y,1/2-z
-x,-y,-z
x,-y,1/2+z
loop_
_atom_site_type_symbol
_atom_site_label
_atom_site_fract_x
_atom_site_fract_y
_atom_site_fract_z
Si Si1 0.779510 0.417694 0.828001
Si Si2 0.274252 0.733509 0.784777
Si Si3 0.385974 0.890086 0.144750
Si Si4 0.918445 0.414183 0.229338
Si Si5 0.481664 0.619865 0.381237
Si Si6 0.387316 0.632746 0.596963
Si Si7 0.242043 0.847627 0.505826
Si Si8 0.934592 0.288167 0.888823
O O1 0.795875 0.586405 0.821564
O O2 0.663991 0.378639 0.600901
O O3 0.856732 0.320986 0.871771
O O4 0.803830 0.398174 0.991963
O O5 0.232461 0.828024 0.619860
O O6 0.295299 0.824159 0.924555
O O7 0.396201 0.677880 0.947438
O O8 0.500000 0.915222 0.250000
O O9 0.416491 0.770217 0.281985
O O10 0.325646 0.025979 0.104348
O O11 0.928957 0.571047 0.301660
O O12 0.000000 0.411755 0.250000
O O13 0.950628 0.296889 0.370852
O O14 0.500000 0.500000 0.500000
O O15 0.418262 0.523766 0.193133
O O16 0.500000 0.714548 0.750000
O O17 0.304858 0.707720 0.552426
O O18 0.123111 0.841259 0.265720
#
# Coordination Sequence:
#
# PCOD9226909 Si02
#       8
#     4   4   4   4   4   4   4   4
#     4  10  18  31  55  85 121 158 199 252 313 357
#     4  11  20  36  57  78 123 165 216 254 304 365
#     4  10  23  40  54  80 127 180 217 250 306 374
#     4   9  17  33  56  90 122 149 185 261 333 374
#     4  11  20  35  55  81 119 168 213 264 297 343
#     4  11  19  33  53  85 121 158 203 260 294 352
#     4  11  22  36  58  85 122 165 210 254 307 381
#     4   9  19  32  56  92 125 140 202 263 317 375
#
# _framework density 22.870042000000002
#
# number of rings (size 3 to 8) (size 9 to 14) (size 15 to 20)
#    0.000    1.750    5.000    0.750    0.000    2.000 
#    2.250    0.000    2.750    0.000    0.000   21.000 
#    0.000    0.125    0.000    0.000    0.000    0.000 
#
# Total GULP energy -178306.872331 kJ/mol
# GULP energy per Si atom -5572.089760 kJ/mol
# Density = 2.281799 g / cm^3
# Si number density = 22.870042 Si / 1000 Ang^3
#
#
#
# Elastic Constant Matrix: (Units=GPa)
#
#
# Indices 1 2 3 4 5 6 
#
# 1 30.5971 1.9169 21.4380 0.0000 -4.0293 0.0000
# 2 1.9169 74.6258 29.3235 0.0000 -5.5262 0.0000
# 3 21.4380 29.3235 181.7799 0.0000 -34.1260 0.0000
# 4 0.0000 0.0000 0.0000 24.8328 0.0000 1.5358
# 5 -4.0293 -5.5262 -34.1260 0.0000 32.0210 0.0000
# 6 0.0000 0.0000 0.0000 1.5358 0.0000 8.1020
#
#
#
# Elastic Compliance Matrix: (Units=1/GPa)
#
#
# Indices 1 2 3 4 5 6 
#
# 1 0.035670 0.000787 -0.004332 0.000000 0.000007 0.000000
# 2 0.000787 0.014324 -0.002401 0.000000 0.000012 0.000000
# 3 -0.004332 -0.002401 0.007775 0.000000 0.007326 0.000000
# 4 0.000000 0.000000 0.000000 0.040747 0.000000 -0.007724
# 5 0.000007 0.000012 0.007326 0.000000 0.039041 0.000000
# 6 0.000000 0.000000 0.000000 -0.007724 0.000000 0.124891
#
#
# Mechanical properties :
#
#
# Convention : Reuss Voigt Hill
#
# Bulk Modulus (GPa) = 21.79817 43.59549 32.69683
# Shear Modulus (GPa) = 17.26323 28.61280 22.93801
#
# Velocity S-wave (km/s) = 2.75042 3.54093 3.17041
# Velocity P-wave (km/s) = 4.43152 5.98509 5.26591
#
# Compressibility (1/GPa) = 0.04587540
#
# Stress axis : x y z
#
# Youngs Moduli (GPa) = 28.03487 69.81093 128.62024
#
# Poissons Ratio (x) = -0.05491 0.55721
# Poissons Ratio (y) = -0.02205 0.30885
# Poissons Ratio (z) = 0.12145 0.16763
#
# Static dielectric constant tensor:
#      x y z
#    x 1.939190 0.000000 0.049200 
#    y 0.000000 1.843630 0.000000 
#    z 0.049200 0.000000 2.016750 
# 
# From -- ./inp_files/59909.got.cif
#   From: 2010.05.17/outbox.cif.g08.bks.cpg/sg13_30_cif.got.tgz:59909.got - 2010.06.03 16:44:36.
