data_PCOD9226301
_publ_section_title
;
Structure prediction by ZEFSAII (Michael W. Deem and Ramdas Pophale) SiO2 
 PCOD9226301
Probable space group: P 2/C
;
_chemical_formula_sum "Si O2"
_cell_formula_units_Z 22
_cell_length_a 6.655609
_cell_length_b 11.767646
_cell_length_c 14.825144
_cell_angle_alpha 90.000000
_cell_angle_beta 78.560136
_cell_angle_gamma 90.000000
_cell_volume 1138.050442
_symmetry_space_group_name_H-M "P 2/C"
_symmetry_group_IT_number 13
_symmetry_cell_setting 'monoclinic'
loop_
_space_group_symop_operation_xyz
x,y,z
-x,y,1/2-z
-x,-y,-z
x,-y,1/2+z
loop_
_atom_site_type_symbol
_atom_site_label
_atom_site_fract_x
_atom_site_fract_y
_atom_site_fract_z
Si Si1 0.177466 0.850607 0.438755
Si Si2 0.000000 0.779358 0.750000
Si Si3 0.044137 0.352971 0.583459
Si Si4 0.155800 0.595522 0.595416
Si Si5 0.207219 0.893999 0.889166
Si Si6 0.525531 0.727918 0.522328
O O1 0.368187 0.798550 0.475464
O O2 0.093283 0.755119 0.376248
O O3 0.989254 0.871049 0.526620
O O4 0.240953 0.971637 0.393136
O O5 0.094923 0.695040 0.668333
O O6 0.152892 0.857154 0.793107
O O7 0.068808 0.472865 0.631662
O O8 0.275079 0.311084 0.549118
O O9 0.947035 0.381428 0.493200
O O10 0.399875 0.616144 0.565077
O O11 0.388246 0.812718 0.908844
#
# Coordination Sequence:
#
# PCOD9226301 Si02
#       6
#     4   2   4   4   4   4
#     4   9  18  35  55  79 106 143 183 219 264 329
#     4  12  20  38  50  84 110 142 176 228 288 308
#     4   9  18  35  55  79 106 143 183 219 264 329
#     4  10  20  33  53  81 112 139 178 224 273 326
#     4  10  20  33  53  81 112 139 178 224 273 326
#     4  10  16  33  56  82 105 138 186 222 268 319
#
# _framework density 19.331302999999998
#
# number of rings (size 3 to 8) (size 9 to 14) (size 15 to 20)
#    0.000    2.182    5.455    1.091    0.000    0.727 
#    0.000    0.909    0.000    0.000    0.000    0.000 
#    0.000    0.000    0.000    0.000    0.000    0.000 
#
# Total GULP energy -122476.116654 kJ/mol
# GULP energy per Si atom -5567.096212 kJ/mol
# Density = 1.928730 g / cm^3
# Si number density = 19.331303 Si / 1000 Ang^3
#
#
#
# Elastic Constant Matrix: (Units=GPa)
#
#
# Indices 1 2 3 4 5 6 
#
# 1 103.9128 27.1945 11.6663 0.0000 21.6821 0.0000
# 2 27.1945 133.8606 24.3693 0.0000 27.4802 0.0000
# 3 11.6663 24.3693 30.8981 0.0000 13.3334 0.0000
# 4 0.0000 0.0000 0.0000 23.1907 0.0000 6.3701
# 5 21.6821 27.4802 13.3334 0.0000 14.3163 0.0000
# 6 0.0000 0.0000 0.0000 6.3701 0.0000 9.5576
#
#
#
# Elastic Compliance Matrix: (Units=1/GPa)
#
#
# Indices 1 2 3 4 5 6 
#
# 1 0.015536 0.002874 0.007359 0.000000 -0.035899 0.000000
# 2 0.002874 0.012872 0.002179 0.000000 -0.031090 0.000000
# 3 0.007359 0.002179 0.057652 0.000000 -0.069020 0.000000
# 4 0.000000 0.000000 0.000000 0.052784 0.000000 -0.035181
# 5 -0.035899 -0.031090 -0.069020 0.000000 0.248177 0.000000
# 6 0.000000 0.000000 0.000000 -0.035181 0.000000 0.128077
#
#
# Mechanical properties :
#
#
# Convention : Reuss Voigt Hill
#
# Bulk Modulus (GPa) = 9.01857 43.90352 26.46105
# Shear Modulus (GPa) = 9.48340 23.10902 16.29621
#
# Velocity S-wave (km/s) = 2.21729 3.46124 2.90659
# Velocity P-wave (km/s) = 3.35120 6.22366 4.99822
#
# Compressibility (1/GPa) = 0.11088229
#
# Stress axis : x y z
#
# Youngs Moduli (GPa) = 64.36791 77.68513 17.34556
#
# Poissons Ratio (x) = -0.22325 -0.12764
# Poissons Ratio (y) = -0.18498 -0.03779
# Poissons Ratio (z) = -0.47367 -0.16925
#
# Static dielectric constant tensor:
#      x y z
#    x 1.688330 0.000000 -0.039840 
#    y 0.000000 1.751580 0.000000 
#    z -0.039840 0.000000 1.698770 
# 
# From -- ./inp_files/43637.got.cif
#   From: 2010.05.17/outbox.cif.g08.bks.cpg/sg13_22_cif.got.tgz:43637.got - 2010.06.03 16:44:36.
