data_PCOD9226450
_publ_section_title
;
Structure prediction by ZEFSAII (Michael W. Deem and Ramdas Pophale) SiO2 
 PCOD9226450
Probable space group: P 2/C
;
_chemical_formula_sum "Si O2"
_cell_formula_units_Z 32
_cell_length_a 12.509682
_cell_length_b 7.050713
_cell_length_c 28.961200
_cell_angle_alpha 90.000000
_cell_angle_beta 148.692641
_cell_angle_gamma 90.000000
_cell_volume 1327.361197
_symmetry_space_group_name_H-M "P 2/C"
_symmetry_group_IT_number 13
_symmetry_cell_setting 'monoclinic'
loop_
_space_group_symop_operation_xyz
x,y,z
-x,y,1/2-z
-x,-y,-z
x,-y,1/2+z
loop_
_atom_site_type_symbol
_atom_site_label
_atom_site_fract_x
_atom_site_fract_y
_atom_site_fract_z
Si Si1 0.369551 0.084195 0.560087
Si Si2 0.371191 0.510779 0.246443
Si Si3 0.314792 0.035107 0.895699
Si Si4 0.928049 0.419835 0.599535
Si Si5 0.543841 0.536280 0.907943
Si Si6 0.441025 0.967885 0.279383
Si Si7 0.208930 0.517963 0.355166
Si Si8 0.994661 0.994393 0.646051
O O1 0.573488 0.993597 0.611276
O O2 0.407778 0.310547 0.574228
O O3 0.379736 0.012653 0.616324
O O4 0.168022 0.053505 0.454590
O O5 0.500000 0.447436 0.250000
O O6 0.449617 0.425327 0.323485
O O7 0.404063 0.739472 0.261834
O O8 0.127167 0.480219 0.152805
O O9 0.265218 0.258799 0.874671
O O10 0.111981 0.941672 0.844068
O O11 0.500000 0.000000 0.000000
O O12 0.760639 0.370666 0.499547
O O13 0.821161 0.532510 0.602231
O O14 0.000870 0.224504 0.649531
O O15 0.390297 0.579639 0.893580
O O16 0.500000 0.031502 0.250000
O O17 0.226025 0.057164 0.217836
O O18 0.000000 0.490202 0.250000
#
# Coordination Sequence:
#
# PCOD9226450 Si02
#       8
#     4   4   4   4   4   4   4   4
#     4   9  18  32  50  73  99 126 159 199 244 289
#     4   9  18  33  50  72  99 129 170 208 238 291
#     4   8  16  27  46  75  98 119 155 198 237 281
#     4  10  19  32  52  76  99 129 164 206 247 291
#     4  10  19  32  52  76  99 129 164 206 247 291
#     4   9  18  31  50  72  95 127 168 202 234 283
#     4  10  17  29  52  76  98 132 169 200 242 300
#     4   9  18  32  50  73  99 126 159 199 244 289
#
# _framework density 24.107980999999999
#
# number of rings (size 3 to 8) (size 9 to 14) (size 15 to 20)
#    0.000    2.750    1.250    0.375    5.250    1.000 
#    0.000    1.250    0.000    1.500    0.000    0.000 
#    0.000    0.000    0.000    0.000    0.000    0.000 
#
# Total GULP energy -178823.510973 kJ/mol
# GULP energy per Si atom -5588.234718 kJ/mol
# Density = 2.405311 g / cm^3
# Si number density = 24.107981 Si / 1000 Ang^3
#
#
#
# Elastic Constant Matrix: (Units=GPa)
#
#
# Indices 1 2 3 4 5 6 
#
# 1 156.9429 -13.6839 70.5912 0.0000 -4.8048 0.0000
# 2 -13.6839 91.4044 -8.3982 0.0000 1.5941 0.0000
# 3 70.5912 -8.3982 127.0553 0.0000 4.0282 0.0000
# 4 0.0000 0.0000 0.0000 22.0483 0.0000 -9.5984
# 5 -4.8048 1.5941 4.0282 0.0000 26.6970 0.0000
# 6 0.0000 0.0000 0.0000 -9.5984 0.0000 -40.5939
#
#
#
# Elastic Compliance Matrix: (Units=1/GPa)
#
#
# Indices 1 2 3 4 5 6 
#
# 1 0.008692 0.000817 -0.004846 0.000000 0.002247 0.000000
# 2 0.000817 0.011100 0.000298 0.000000 -0.000561 0.000000
# 3 -0.004846 0.000298 0.010662 0.000000 -0.002499 0.000000
# 4 0.000000 0.000000 0.000000 0.041122 0.000000 -0.009723
# 5 0.002247 -0.000561 -0.002499 0.000000 0.038272 0.000000
# 6 0.000000 0.000000 0.000000 -0.009723 0.000000 -0.022335
#
#
# Mechanical properties :
#
#
# Convention : Reuss Voigt Hill
#
# Bulk Modulus (GPa) = 43.49762 52.49118 47.99440
# Shear Modulus (GPa) = 48.71429 23.42317 36.06873
#
# Velocity S-wave (km/s) = 4.50006 3.12042 3.87218
# Velocity P-wave (km/s) = 6.71437 5.89944 6.32005
#
# Compressibility (1/GPa) = 0.02298977
#
# Stress axis : x y z
#
# Youngs Moduli (GPa) = 115.05486 90.09172 93.79093
#
# Poissons Ratio (x) = -0.07358 0.45453
# Poissons Ratio (y) = -0.09397 -0.02792
# Poissons Ratio (z) = 0.55758 -0.02682
#
# Static dielectric constant tensor:
#      x y z
#    x 1.924860 0.000000 0.028560 
#    y 0.000000 1.974460 0.000000 
#    z 0.028560 0.000000 1.894090 
# 
# From -- ./inp_files/96704.got.cif
#   From: 2010.05.17/outbox.cif.g08.bks.cpg/sg13_49_cif.got.tgz:96704.got - 2010.06.03 16:44:36.
