data_PCOD9226452
_publ_section_title
;
Structure prediction by ZEFSAII (Michael W. Deem and Ramdas Pophale) SiO2 
 PCOD9226452
Probable space group: P 2/C
;
_chemical_formula_sum "Si O2"
_cell_formula_units_Z 32
_cell_length_a 26.787664
_cell_length_b 8.831394
_cell_length_c 20.026050
_cell_angle_alpha 90.000000
_cell_angle_beta 16.033420
_cell_angle_gamma 90.000000
_cell_volume 1308.518698
_symmetry_space_group_name_H-M "P 2/C"
_symmetry_group_IT_number 13
_symmetry_cell_setting 'monoclinic'
loop_
_space_group_symop_operation_xyz
x,y,z
-x,y,1/2-z
-x,-y,-z
x,-y,1/2+z
loop_
_atom_site_type_symbol
_atom_site_label
_atom_site_fract_x
_atom_site_fract_y
_atom_site_fract_z
Si Si1 0.408764 0.061857 0.776416
Si Si2 0.708054 0.382880 0.982669
Si Si3 0.427626 0.546009 0.021563
Si Si4 0.193738 0.647221 0.006457
Si Si5 0.711109 0.679008 0.905682
Si Si6 0.157809 0.031938 0.492573
Si Si7 0.098820 0.054077 0.292071
Si Si8 0.287836 0.179817 0.638294
O O1 0.524759 0.907469 0.620917
O O2 0.544602 0.201494 0.614525
O O3 0.315605 0.068469 0.822823
O O4 0.260440 0.049641 0.026748
O O5 0.500000 0.338233 0.250000
O O6 0.708178 0.562012 0.971526
O O7 0.778535 0.312612 0.824865
O O8 0.811216 0.304284 0.910017
O O9 0.618380 0.558013 0.735996
O O10 0.307061 0.420346 0.138656
O O11 0.337418 0.713623 0.137566
O O12 0.500000 0.500000 0.000000
O O13 0.203739 0.789037 0.943239
O O14 0.000000 0.564740 0.250000
O O15 0.887706 0.777631 0.695076
O O16 0.000000 0.010797 0.750000
O O17 0.081240 0.987518 0.518543
O O18 0.156594 0.950236 0.279949
#
# Coordination Sequence:
#
# PCOD9226452 Si02
#       8
#     4   4   4   4   4   4   4   4
#     4  10  17  29  52  87 120 147 180 250 310 355
#     4  11  16  30  54  86 115 147 193 245 291 351
#     4  11  24  40  59  83 121 166 208 244 291 366
#     4  11  21  35  61  91 116 150 203 253 302 346
#     4  10  21  34  54  85 120 151 201 244 304 347
#     4   9  17  31  51  86 123 150 181 235 315 358
#     4  10  19  30  55  89 123 144 192 256 304 360
#     4  10  17  30  57  81 107 152 200 244 285 342
#
# _framework density 24.455133
#
# number of rings (size 3 to 8) (size 9 to 14) (size 15 to 20)
#    0.000    1.750    3.750    5.250    0.000    0.000 
#    2.250    2.500    0.000    7.500    0.000    0.000 
#    0.000    0.000    0.000    0.000    0.000    0.000 
#
# Total GULP energy -178234.076352 kJ/mol
# GULP energy per Si atom -5569.814886 kJ/mol
# Density = 2.439947 g / cm^3
# Si number density = 24.455133 Si / 1000 Ang^3
#
#
#
# Elastic Constant Matrix: (Units=GPa)
#
#
# Indices 1 2 3 4 5 6 
#
# 1 162.7148 49.4168 30.2385 0.0000 -30.2119 0.0000
# 2 49.4168 133.3826 17.3790 0.0000 -9.7027 0.0000
# 3 30.2385 17.3790 38.0295 0.0000 -16.6432 0.0000
# 4 0.0000 0.0000 0.0000 21.5902 0.0000 -10.5854
# 5 -30.2119 -9.7027 -16.6432 0.0000 27.7884 0.0000
# 6 0.0000 0.0000 0.0000 -10.5854 0.0000 38.8315
#
#
#
# Elastic Compliance Matrix: (Units=1/GPa)
#
#
# Indices 1 2 3 4 5 6 
#
# 1 0.008661 -0.002342 -0.002783 0.000000 0.006932 0.000000
# 2 -0.002342 0.008619 -0.002539 0.000000 -0.001058 0.000000
# 3 -0.002783 -0.002539 0.037887 0.000000 0.018780 0.000000
# 4 0.000000 0.000000 0.000000 0.053463 0.000000 0.014574
# 5 0.006932 -0.001058 0.018780 0.000000 0.054401 0.000000
# 6 0.000000 0.000000 0.000000 0.014574 0.000000 0.029725
#
#
# Mechanical properties :
#
#
# Convention : Reuss Voigt Hill
#
# Bulk Modulus (GPa) = 25.10113 58.68839 41.89476
# Shear Modulus (GPa) = 22.58717 33.44819 28.01768
#
# Velocity S-wave (km/s) = 3.04240 3.70230 3.38846
# Velocity P-wave (km/s) = 4.75690 6.50589 5.69889
#
# Compressibility (1/GPa) = 0.03983884
#
# Stress axis : x y z
#
# Youngs Moduli (GPa) = 115.45616 116.02460 26.39415
#
# Poissons Ratio (x) = 0.27174 0.07345
# Poissons Ratio (y) = 0.27041 0.06703
# Poissons Ratio (z) = 0.32129 0.29464
#
# Static dielectric constant tensor:
#      x y z
#    x 2.180040 0.000000 0.153980 
#    y 0.000000 1.987550 0.000000 
#    z 0.153980 0.000000 2.239890 
# 
# From -- ./inp_files/82490.got.cif
#   From: 2010.05.17/outbox.cif.g08.bks.cpg/sg13_42_cif.got.tgz:82490.got - 2010.06.03 16:44:36.
