data_PCOD9226066
_publ_section_title
;
Structure prediction by ZEFSAII (Michael W. Deem and Ramdas Pophale) SiO2 
 PCOD9226066
Probable space group: P 2/C
;
_chemical_formula_sum "Si O2"
_cell_formula_units_Z 20
_cell_length_a 12.960092
_cell_length_b 5.455456
_cell_length_c 13.999893
_cell_angle_alpha 90.000000
_cell_angle_beta 54.476881
_cell_angle_gamma 90.000000
_cell_volume 805.609987
_symmetry_space_group_name_H-M "P 2/C"
_symmetry_group_IT_number 13
_symmetry_cell_setting 'monoclinic'
loop_
_space_group_symop_operation_xyz
x,y,z
-x,y,1/2-z
-x,-y,-z
x,-y,1/2+z
loop_
_atom_site_type_symbol
_atom_site_label
_atom_site_fract_x
_atom_site_fract_y
_atom_site_fract_z
Si Si1 0.136498 0.874880 0.411085
Si Si2 0.395021 0.006355 0.968872
Si Si3 0.861405 0.079007 0.279869
Si Si4 0.768376 0.625205 0.659061
Si Si5 0.505351 0.496782 0.112890
O O1 0.163786 0.600942 0.432072
O O2 0.151841 0.856633 0.288279
O O3 0.226639 0.102317 0.390712
O O4 0.000000 0.000000 0.500000
O O5 0.255899 0.055427 0.085910
O O6 0.412791 0.743524 0.911302
O O7 0.500000 0.000000 0.000000
O O8 0.435272 0.245903 0.888910
O O9 0.841427 0.308168 0.219323
O O10 0.000000 0.082300 0.250000
O O11 0.630442 0.542724 0.767034
O O12 0.500000 0.500000 0.000000
#
# Coordination Sequence:
#
# PCOD9226066 Si02
#       5
#     4   4   4   4   4
#     4  10  20  35  52  75 107 145 179 214 255 316
#     4  10  17  29  48  73 104 132 174 210 265 307
#     4  10  22  33  51  82 113 138 169 224 275 320
#     4  10  19  32  52  77 102 133 179 220 262 304
#     4  10  15  28  48  71  98 127 168 221 254 302
#
# _framework density 24.825908999999999
#
# number of rings (size 3 to 8) (size 9 to 14) (size 15 to 20)
#    1.200    0.800    4.000    4.200    0.000    0.800 
#    0.000    0.000    0.000    0.000    0.000   15.400 
#    0.000    0.000    0.000    0.000    0.000    0.000 
#
# Total GULP energy -111645.529459 kJ/mol
# GULP energy per Si atom -5582.276473 kJ/mol
# Density = 2.476940 g / cm^3
# Si number density = 24.825909 Si / 1000 Ang^3
#
#
#
# Elastic Constant Matrix: (Units=GPa)
#
#
# Indices 1 2 3 4 5 6 
#
# 1 107.0619 17.1656 22.6981 0.0000 -17.5612 0.0000
# 2 17.1656 233.3167 33.8769 0.0000 -14.0385 0.0000
# 3 22.6981 33.8769 126.4496 0.0000 -27.7487 0.0000
# 4 0.0000 0.0000 0.0000 27.0543 0.0000 -1.2083
# 5 -17.5612 -14.0385 -27.7487 0.0000 42.5948 0.0000
# 6 0.0000 0.0000 0.0000 -1.2083 0.0000 14.5661
#
#
#
# Elastic Compliance Matrix: (Units=1/GPa)
#
#
# Indices 1 2 3 4 5 6 
#
# 1 0.010172 -0.000402 -0.000965 0.000000 0.003433 0.000000
# 2 -0.000402 0.004499 -0.000985 0.000000 0.000676 0.000000
# 3 -0.000965 -0.000985 0.009552 0.000000 0.005501 0.000000
# 4 0.000000 0.000000 0.000000 0.037100 0.000000 0.003077
# 5 0.003433 0.000676 0.005501 0.000000 0.028698 0.000000
# 6 0.000000 0.000000 0.000000 0.003077 0.000000 0.068908
#
#
# Mechanical properties :
#
#
# Convention : Reuss Voigt Hill
#
# Bulk Modulus (GPa) = 51.22796 68.25660 59.74228
# Shear Modulus (GPa) = 29.38738 43.04888 36.21813
#
# Velocity S-wave (km/s) = 3.44428 4.16869 3.82368
# Velocity P-wave (km/s) = 6.04128 7.12211 6.60384
#
# Compressibility (1/GPa) = 0.01952059
#
# Stress axis : x y z
#
# Youngs Moduli (GPa) = 98.30437 222.25941 104.68496
#
# Poissons Ratio (x) = 0.08929 0.10103
# Poissons Ratio (y) = 0.03949 0.10312
# Poissons Ratio (z) = 0.09487 0.21893
#
# Static dielectric constant tensor:
#      x y z
#    x 1.509840 0.000000 -0.383120 
#    y 0.000000 1.951870 0.000000 
#    z -0.383120 0.000000 1.693150 
# 
# From -- ./inp_files/68896.got.cif
#   From: 2010.05.17/outbox.cif.g08.bks.cpg/sg13_35_cif.got.tgz:68896.got - 2010.06.03 16:44:36.
