data_PCOD9226878
_publ_section_title
;
Structure prediction by ZEFSAII (Michael W. Deem and Ramdas Pophale) SiO2 
 PCOD9226878
Probable space group: P 2/C
;
_chemical_formula_sum "Si O2"
_cell_formula_units_Z 32
_cell_length_a 9.668700
_cell_length_b 6.939968
_cell_length_c 19.536788
_cell_angle_alpha 90.000000
_cell_angle_beta 122.993830
_cell_angle_gamma 90.000000
_cell_volume 1099.513300
_symmetry_space_group_name_H-M "P 2/C"
_symmetry_group_IT_number 13
_symmetry_cell_setting 'monoclinic'
loop_
_space_group_symop_operation_xyz
x,y,z
-x,y,1/2-z
-x,-y,-z
x,-y,1/2+z
loop_
_atom_site_type_symbol
_atom_site_label
_atom_site_fract_x
_atom_site_fract_y
_atom_site_fract_z
Si Si1 0.601635 0.961087 0.836228
Si Si2 0.093063 0.875291 0.681067
Si Si3 0.799752 0.354624 0.702305
Si Si4 0.145696 0.092043 0.489943
Si Si5 0.678930 0.206545 0.149700
Si Si6 0.434829 0.720759 0.477966
Si Si7 0.851906 0.466859 0.856138
Si Si8 0.186517 0.450656 0.010273
O O1 0.500000 0.073104 0.750000
O O2 0.763183 0.908784 0.835766
O O3 0.464304 0.814678 0.830610
O O4 0.683937 0.051197 0.925325
O O5 0.170331 0.913574 0.776035
O O6 0.078608 0.643439 0.669857
O O7 0.927448 0.962346 0.604739
O O8 0.749272 0.574749 0.666710
O O9 0.662354 0.243361 0.619035
O O10 0.772561 0.336274 0.776934
O O11 0.000000 0.323022 0.750000
O O12 0.172818 0.324328 0.488803
O O13 0.000000 0.000000 0.500000
O O14 0.586962 0.163599 0.053172
O O15 0.500000 0.500000 0.500000
O O16 0.293701 0.697298 0.496817
O O17 0.753332 0.546653 0.894842
O O18 0.003616 0.379637 0.939856
#
# Coordination Sequence:
#
# PCOD9226878 Si02
#       8
#     4   4   4   4   4   4   4   4
#     4   9  16  30  49  77 111 146 184 234 284 327
#     4   8  15  29  50  75 106 139 178 224 270 334
#     4  10  18  33  50  79 117 151 181 225 286 358
#     4   9  18  32  51  79 114 148 189 237 282 327
#     4   9  18  30  52  78 102 143 186 225 272 342
#     4  10  20  33  52  82 117 147 181 227 295 350
#     4   9  17  29  52  83 105 136 183 231 279 336
#     4  10  18  31  52  81 110 142 184 233 276 342
#
# _framework density 29.103784999999998
#
# number of rings (size 3 to 8) (size 9 to 14) (size 15 to 20)
#    0.000    2.750    1.250    0.750    0.000    2.000 
#    0.000    5.625    0.000    3.000    0.000   12.250 
#    0.000    0.000    0.000    0.000    0.000    0.000 
#
# Total GULP energy -178320.811255 kJ/mol
# GULP energy per Si atom -5572.525352 kJ/mol
# Density = 2.903754 g / cm^3
# Si number density = 29.103785 Si / 1000 Ang^3
#
#
#
# Elastic Constant Matrix: (Units=GPa)
#
#
# Indices 1 2 3 4 5 6 
#
# 1 118.7201 15.5861 76.6784 0.0000 21.6353 0.0000
# 2 15.5861 100.6991 57.2663 0.0000 16.8423 0.0000
# 3 76.6784 57.2663 399.9258 0.0000 12.0710 0.0000
# 4 0.0000 0.0000 0.0000 47.9968 0.0000 8.7753
# 5 21.6353 16.8423 12.0710 0.0000 58.4929 0.0000
# 6 0.0000 0.0000 0.0000 8.7753 0.0000 27.1101
#
#
#
# Elastic Compliance Matrix: (Units=1/GPa)
#
#
# Indices 1 2 3 4 5 6 
#
# 1 0.010246 0.000048 -0.001868 0.000000 -0.003418 0.000000
# 2 0.000048 0.011291 -0.001537 0.000000 -0.002952 0.000000
# 3 -0.001868 -0.001537 0.003064 0.000000 0.000501 0.000000
# 4 0.000000 0.000000 0.000000 0.022145 0.000000 -0.007168
# 5 -0.003418 -0.002952 0.000501 0.000000 0.019107 0.000000
# 6 0.000000 0.000000 0.000000 -0.007168 0.000000 0.039207
#
#
# Mechanical properties :
#
#
# Convention : Reuss Voigt Hill
#
# Bulk Modulus (GPa) = 55.90655 102.04519 78.97587
# Shear Modulus (GPa) = 42.46774 58.04088 50.25431
#
# Velocity S-wave (km/s) = 3.82407 4.47057 4.15990
# Velocity P-wave (km/s) = 6.22488 7.86045 7.08998
#
# Compressibility (1/GPa) = 0.01788699
#
# Stress axis : x y z
#
# Youngs Moduli (GPa) = 97.59449 88.56753 326.41118
#
# Poissons Ratio (x) = -0.00427 0.60984
# Poissons Ratio (y) = -0.00471 0.50167
# Poissons Ratio (z) = 0.18234 0.13612
#
# Static dielectric constant tensor:
#      x y z
#    x 1.936850 0.000000 -0.065960 
#    y 0.000000 2.169840 0.000000 
#    z -0.065960 0.000000 2.273580 
# 
# From -- ./inp_files/78288.got.cif
#   From: 2010.05.17/outbox.cif.g08.bks.cpg/sg13_40_cif.got.tgz:78288.got - 2010.06.03 16:44:36.
