data_PCOD9226785
_publ_section_title
;
Structure prediction by ZEFSAII (Michael W. Deem and Ramdas Pophale) SiO2 
 PCOD9226785
Probable space group: P 2/C
;
_chemical_formula_sum "Si O2"
_cell_formula_units_Z 24
_cell_length_a 7.484514
_cell_length_b 16.789226
_cell_length_c 18.381470
_cell_angle_alpha 90.000000
_cell_angle_beta 31.403347
_cell_angle_gamma 90.000000
_cell_volume 1203.543611
_symmetry_space_group_name_H-M "P 2/C"
_symmetry_group_IT_number 13
_symmetry_cell_setting 'monoclinic'
loop_
_space_group_symop_operation_xyz
x,y,z
-x,y,1/2-z
-x,-y,-z
x,-y,1/2+z
loop_
_atom_site_type_symbol
_atom_site_label
_atom_site_fract_x
_atom_site_fract_y
_atom_site_fract_z
Si Si1 0.508934 0.312749 0.826920
Si Si2 0.624844 0.579023 0.416997
Si Si3 0.679277 0.152568 0.304381
Si Si4 0.599783 0.980776 0.382203
Si Si5 0.283603 0.258771 0.547222
Si Si6 0.229316 0.177941 0.999600
O O1 0.500000 0.348553 0.750000
O O2 0.439700 0.379119 0.912246
O O3 0.244534 0.241105 0.929953
O O4 0.879786 0.268220 0.703789
O O5 0.500000 0.500000 0.500000
O O6 0.610908 0.648745 0.482466
O O7 0.000000 0.566923 0.250000
O O8 0.404851 0.213502 0.432831
O O9 0.000000 0.153920 0.250000
O O10 0.556224 0.061417 0.351241
O O11 0.861299 0.173172 0.165665
O O12 0.369319 0.909246 0.432971
O O13 0.000000 0.957907 0.250000
O O14 0.500000 0.000000 0.500000
O O15 0.494775 0.212663 0.537068
#
# Coordination Sequence:
#
# PCOD9226785 Si02
#       6
#     4   4   4   4   4   4
#     4  10  21  36  54  76 107 141 175 211 262 321
#     4   9  19  35  57  82 106 134 170 213 258 311
#     4   9  17  27  45  78 104 130 176 229 270 306
#     4  11  16  25  43  78 109 130 176 235 275 301
#     4   9  17  33  52  75 102 135 176 216 260 312
#     4  10  18  30  50  76 102 137 179 224 268 311
#
# _framework density 19.941113000000001
#
# number of rings (size 3 to 8) (size 9 to 14) (size 15 to 20)
#    0.000    2.333    5.000    2.500    0.000    3.333 
#    0.000    4.167    0.000    4.000    0.000    0.000 
#    0.000    0.000    0.000    0.000    0.000    0.000 
#
# Total GULP energy -133698.168499 kJ/mol
# GULP energy per Si atom -5570.757021 kJ/mol
# Density = 1.989573 g / cm^3
# Si number density = 19.941113 Si / 1000 Ang^3
#
#
#
# Elastic Constant Matrix: (Units=GPa)
#
#
# Indices 1 2 3 4 5 6 
#
# 1 38.8196 21.6822 17.2683 0.0000 -5.2693 0.0000
# 2 21.6822 166.1358 69.4029 0.0000 9.8027 0.0000
# 3 17.2683 69.4029 105.4132 0.0000 6.3221 0.0000
# 4 0.0000 0.0000 0.0000 43.8113 0.0000 2.2200
# 5 -5.2693 9.8027 6.3221 0.0000 19.7860 0.0000
# 6 0.0000 0.0000 0.0000 2.2200 0.0000 3.1648
#
#
#
# Elastic Compliance Matrix: (Units=1/GPa)
#
#
# Indices 1 2 3 4 5 6 
#
# 1 0.030580 -0.003126 -0.003602 0.000000 0.010844 0.000000
# 2 -0.003126 0.008737 -0.005027 0.000000 -0.003555 0.000000
# 3 -0.003602 -0.005027 0.013554 0.000000 -0.002799 0.000000
# 4 0.000000 0.000000 0.000000 0.023666 0.000000 -0.016601
# 5 0.010844 -0.003555 -0.002799 0.000000 0.056084 0.000000
# 6 0.000000 0.000000 0.000000 -0.016601 0.000000 0.327621
#
#
# Mechanical properties :
#
#
# Convention : Reuss Voigt Hill
#
# Bulk Modulus (GPa) = 34.05795 58.56393 46.31094
# Shear Modulus (GPa) = 10.13089 26.82011 18.47550
#
# Velocity S-wave (km/s) = 2.25642 3.67136 3.04715
# Velocity P-wave (km/s) = 4.88927 6.88506 5.97114
#
# Compressibility (1/GPa) = 0.02936172
#
# Stress axis : x y z
#
# Youngs Moduli (GPa) = 32.70076 114.45656 73.77862
#
# Poissons Ratio (x) = 0.35782 0.26572
# Poissons Ratio (y) = 0.10223 0.37088
# Poissons Ratio (z) = 0.11777 0.57537
#
# Static dielectric constant tensor:
#      x y z
#    x 1.778040 0.000000 -0.000010 
#    y 0.000000 1.692330 0.000000 
#    z -0.000010 0.000000 1.802340 
# 
# From -- ./inp_files/64722.got.cif
#   From: 2010.05.17/outbox.cif.g08.bks.cpg/sg13_33_cif.got.tgz:64722.got - 2010.06.03 16:44:36.
