data_PCOD9226743
_publ_section_title
;
Structure prediction by ZEFSAII (Michael W. Deem and Ramdas Pophale) SiO2 
 PCOD9226743
Probable space group: P 2/C
;
_chemical_formula_sum "Si O2"
_cell_formula_units_Z 30
_cell_length_a 21.591144
_cell_length_b 7.442018
_cell_length_c 9.090456
_cell_angle_alpha 90.000000
_cell_angle_beta 61.513323
_cell_angle_gamma 90.000000
_cell_volume 1283.823616
_symmetry_space_group_name_H-M "P 2/C"
_symmetry_group_IT_number 13
_symmetry_cell_setting 'monoclinic'
loop_
_space_group_symop_operation_xyz
x,y,z
-x,y,1/2-z
-x,-y,-z
x,-y,1/2+z
loop_
_atom_site_type_symbol
_atom_site_label
_atom_site_fract_x
_atom_site_fract_y
_atom_site_fract_z
Si Si1 0.947293 0.468719 0.194069
Si Si2 0.156659 0.822163 0.586745
Si Si3 0.500000 0.803268 0.750000
Si Si4 0.319998 0.763806 0.445631
Si Si5 0.382849 0.788324 0.677700
Si Si6 0.130594 0.191494 0.766524
Si Si7 0.400346 0.368087 0.608057
Si Si8 0.281844 0.344629 0.534049
O O1 0.876628 0.346779 0.283937
O O2 0.923940 0.673099 0.246970
O O3 0.000000 0.382312 0.250000
O O4 0.000000 0.500000 0.000000
O O5 0.242623 0.842574 0.493605
O O6 0.132254 0.808985 0.443515
O O7 0.126120 0.995436 0.703603
O O8 0.445707 0.887852 0.692923
O O9 0.550163 0.692334 0.581430
O O10 0.349505 0.852584 0.563090
O O11 0.392765 0.737683 0.268823
O O12 0.296309 0.554856 0.491211
O O13 0.408880 0.581473 0.620784
O O14 0.319627 0.766053 0.863480
O O15 0.204048 0.280428 0.637197
O O16 0.322038 0.319419 0.640836
#
# Coordination Sequence:
#
# PCOD9226743 Si02
#       8
#     4   4   2   4   4   4   4   4
#     4  12  28  51  78 107 148 198 234 285 355 428
#     4  12  28  45  74 111 144 189 240 301 357 423
#     4  10  18  30  44  86 142 180 226 290 366 418
#     4  10  19  36  62  93 129 176 246 291 358 415
#     4   9  19  28  53  87 127 182 223 288 358 422
#     4  12  27  46  73 108 146 187 242 296 356 428
#     4   9  17  30  51  84 126 180 226 288 351 423
#     4   9  18  36  61  87 129 179 224 287 354 408
#
# _framework density 23.367695999999999
#
# number of rings (size 3 to 8) (size 9 to 14) (size 15 to 20)
#    0.000    1.600    4.000    1.200    3.733    1.600 
#    0.000    0.000    0.000    0.000    0.000   14.933 
#    0.000    0.000    0.000    0.000    0.000    0.000 
#
# Total GULP energy -167130.987677 kJ/mol
# GULP energy per Si atom -5571.032923 kJ/mol
# Density = 2.331451 g / cm^3
# Si number density = 23.367696 Si / 1000 Ang^3
#
#
#
# Elastic Constant Matrix: (Units=GPa)
#
#
# Indices 1 2 3 4 5 6 
#
# 1 83.3099 12.9995 9.0531 0.0000 -6.2948 0.0000
# 2 12.9995 109.2460 27.5793 0.0000 -12.5924 0.0000
# 3 9.0531 27.5793 109.3057 0.0000 -15.9516 0.0000
# 4 0.0000 0.0000 0.0000 23.5796 0.0000 1.2268
# 5 -6.2948 -12.5924 -15.9516 0.0000 23.4367 0.0000
# 6 0.0000 0.0000 0.0000 1.2268 0.0000 -23.7387
#
#
#
# Elastic Compliance Matrix: (Units=1/GPa)
#
#
# Indices 1 2 3 4 5 6 
#
# 1 0.012403 -0.001092 -0.000390 0.000000 0.002479 0.000000
# 2 -0.001092 0.010217 -0.001920 0.000000 0.003889 0.000000
# 3 -0.000390 -0.001920 0.010547 0.000000 0.006042 0.000000
# 4 0.000000 0.000000 0.000000 0.042296 0.000000 0.002186
# 5 0.002479 0.003889 0.006042 0.000000 0.049537 0.000000
# 6 0.000000 0.000000 0.000000 0.002186 0.000000 -0.042012
#
#
# Mechanical properties :
#
#
# Convention : Reuss Voigt Hill
#
# Bulk Modulus (GPa) = 37.93013 44.56947 41.24980
# Shear Modulus (GPa) = 50.72120 21.47082 36.09601
#
# Velocity S-wave (km/s) = 4.66399 3.03450 3.93453
# Velocity P-wave (km/s) = 6.72836 5.60287 6.19124
#
# Compressibility (1/GPa) = 0.02636426
#
# Stress axis : x y z
#
# Youngs Moduli (GPa) = 80.62274 97.88069 94.81238
#
# Poissons Ratio (x) = 0.10685 0.03698
# Poissons Ratio (y) = 0.08801 0.18201
# Poissons Ratio (z) = 0.03144 0.18791
#
# Static dielectric constant tensor:
#      x y z
#    x 1.991990 0.000000 0.032520 
#    y 0.000000 1.892940 0.000000 
#    z 0.032520 0.000000 1.901260 
# 
# From -- ./inp_files/23954.got.cif
#   From: 2010.05.17/outbox.cif.g08.bks.cpg/sg13_12_cif.got.tgz:23954.got - 2010.06.03 16:44:36.
