data_PCOD9226022
_publ_section_title
;
Structure prediction by ZEFSAII (Michael W. Deem and Ramdas Pophale) SiO2 
 PCOD9226022
Probable space group: P 2/C
;
_chemical_formula_sum "Si O2"
_cell_formula_units_Z 30
_cell_length_a 30.177709
_cell_length_b 9.300575
_cell_length_c 5.468310
_cell_angle_alpha 90.000000
_cell_angle_beta 100.386142
_cell_angle_gamma 90.000000
_cell_volume 1509.643430
_symmetry_space_group_name_H-M "P 2/C"
_symmetry_group_IT_number 13
_symmetry_cell_setting 'monoclinic'
loop_
_space_group_symop_operation_xyz
x,y,z
-x,y,1/2-z
-x,-y,-z
x,-y,1/2+z
loop_
_atom_site_type_symbol
_atom_site_label
_atom_site_fract_x
_atom_site_fract_y
_atom_site_fract_z
Si Si1 0.769638 0.350067 0.960912
Si Si2 0.669761 0.683759 0.523119
Si Si3 0.551923 0.909780 0.788865
Si Si4 0.098592 0.404579 0.845814
Si Si5 0.195485 0.677326 0.505390
Si Si6 0.637418 0.731645 0.991302
Si Si7 0.292751 0.997802 0.401927
Si Si8 0.000000 0.405615 0.750000
O O1 0.717964 0.374244 0.982287
O O2 0.793981 0.504864 0.962565
O O3 0.790744 0.268147 0.213801
O O4 0.775420 0.278046 0.701557
O O5 0.636140 0.666990 0.262165
O O6 0.677923 0.855996 0.564246
O O7 0.656407 0.638768 0.783686
O O8 0.500000 0.860357 0.750000
O O9 0.558437 0.985723 0.531489
O O10 0.589236 0.788761 0.859801
O O11 0.101286 0.498424 0.597317
O O12 0.142832 0.306527 0.898045
O O13 0.049101 0.331753 0.798396
O O14 0.672354 0.865485 0.057235
O O15 0.266092 0.000708 0.625497
O O16 0.000000 0.500000 0.500000
#
# Coordination Sequence:
#
# PCOD9226022 Si02
#       8
#     4   4   4   4   4   4   4   2
#     4  10  18  27  38  54  69  97 131 160 189 226
#     4  10  18  26  39  55  72  95 129 160 182 213
#     4  10  18  27  41  60  80 105 133 150 170 216
#     4  10  14  25  36  53  68  98 125 154 193 218
#     4  10  17  28  40  50  75 103 124 158 200 229
#     4  10  17  28  40  55  77 102 122 151 182 210
#     4   8  14  23  36  49  67  92 116 143 174 202
#     4   8  16  20  34  52  72  84 124 166 172 214
#
# _framework density 19.872242
#
# number of rings (size 3 to 8) (size 9 to 14) (size 15 to 20)
#    0.000    2.400    2.667    4.000    0.000    0.000 
#    0.000    0.000    0.000    0.000    0.000    0.000 
#    0.000    0.000    0.000   48.000    0.000    3.200 
#
# Total GULP energy -167081.867673 kJ/mol
# GULP energy per Si atom -5569.395589 kJ/mol
# Density = 1.982701 g / cm^3
# Si number density = 19.872242 Si / 1000 Ang^3
#
#
#
# Elastic Constant Matrix: (Units=GPa)
#
#
# Indices 1 2 3 4 5 6 
#
# 1 91.0636 -0.4102 10.5836 0.0000 16.6094 0.0000
# 2 -0.4102 40.5624 0.7162 0.0000 -0.4398 0.0000
# 3 10.5836 0.7162 175.2581 0.0000 -11.2085 0.0000
# 4 0.0000 0.0000 0.0000 -6.4926 0.0000 -6.2831
# 5 16.6094 -0.4398 -11.2085 0.0000 36.5927 0.0000
# 6 0.0000 0.0000 0.0000 -6.2831 0.0000 8.6631
#
#
#
# Elastic Compliance Matrix: (Units=1/GPa)
#
#
# Indices 1 2 3 4 5 6 
#
# 1 0.012181 0.000079 -0.001111 0.000000 -0.005868 0.000000
# 2 0.000079 0.024658 -0.000091 0.000000 0.000233 0.000000
# 3 -0.001111 -0.000091 0.005922 0.000000 0.002317 0.000000
# 4 0.000000 0.000000 0.000000 -0.090502 0.000000 -0.065638
# 5 -0.005868 0.000233 0.002317 0.000000 0.030704 0.000000
# 6 0.000000 0.000000 0.000000 -0.065638 0.000000 0.067827
#
#
# Mechanical properties :
#
#
# Convention : Reuss Voigt Hill
#
# Bulk Modulus (GPa) = 24.68186 36.51814 30.60000
# Shear Modulus (GPa) = 75.14158 27.48560 51.31359
#
# Velocity S-wave (km/s) = 6.15584 3.72306 5.08702
# Velocity P-wave (km/s) = 7.93556 6.07437 7.06651
#
# Compressibility (1/GPa) = 0.04051559
#
# Stress axis : x y z
#
# Youngs Moduli (GPa) = 82.09359 40.55429 168.87512
#
# Poissons Ratio (x) = -0.00321 0.18766
# Poissons Ratio (y) = -0.00650 0.01531
# Poissons Ratio (z) = 0.09123 0.00368
#
# Static dielectric constant tensor:
#      x y z
#    x 1.711900 0.000000 -0.030030 
#    y 0.000000 1.752490 0.000000 
#    z -0.030030 0.000000 1.823250 
# 
# From -- ./inp_files/7876.got.cif
#   From: 2010.05.17/outbox.cif.g08.bks.cpg/sg13_4_cif.got.tgz:7876.got - 2010.06.03 16:44:36.
