data_PCOD9226559
_publ_section_title
;
Structure prediction by ZEFSAII (Michael W. Deem and Ramdas Pophale) SiO2 
 PCOD9226559
Probable space group: P 2/C
;
_chemical_formula_sum "Si O2"
_cell_formula_units_Z 26
_cell_length_a 10.438853
_cell_length_b 9.088403
_cell_length_c 12.734182
_cell_angle_alpha 90.000000
_cell_angle_beta 64.921525
_cell_angle_gamma 90.000000
_cell_volume 1094.231600
_symmetry_space_group_name_H-M "P 2/C"
_symmetry_group_IT_number 13
_symmetry_cell_setting 'monoclinic'
loop_
_space_group_symop_operation_xyz
x,y,z
-x,y,1/2-z
-x,-y,-z
x,-y,1/2+z
loop_
_atom_site_type_symbol
_atom_site_label
_atom_site_fract_x
_atom_site_fract_y
_atom_site_fract_z
Si Si1 0.344144 0.116315 0.273718
Si Si2 0.286589 0.212276 0.075828
Si Si3 0.500000 0.440112 0.750000
Si Si4 0.594703 0.183813 0.872223
Si Si5 0.989415 0.670568 0.131785
Si Si6 0.775437 0.523985 0.054833
Si Si7 0.826050 0.912636 0.454810
O O1 0.500000 0.168086 0.250000
O O2 0.283290 0.216581 0.201979
O O3 0.241460 0.103733 0.407486
O O4 0.371925 0.953458 0.215088
O O5 0.184065 0.082196 0.073943
O O6 0.445229 0.163764 0.984726
O O7 0.251198 0.362474 0.030491
O O8 0.569705 0.330093 0.812356
O O9 0.375994 0.527211 0.850699
O O10 0.723094 0.177723 0.910138
O O11 0.018774 0.844007 0.110097
O O12 0.000000 0.629232 0.250000
O O13 0.850985 0.613624 0.122294
O O14 0.117924 0.597994 0.022293
#
# Coordination Sequence:
#
# PCOD9226559 Si02
#       7
#     4   4   2   4   4   4   4
#     4  11  16  31  57  98 135 165 197 262 321 369
#     4  10  20  35  63  97 131 166 212 265 319 373
#     4  10  18  38  68  96 118 160 216 268 312 382
#     4  10  17  32  58  94 137 169 195 258 336 372
#     4  11  26  48  65  84 131 182 212 251 326 393
#     4  10  24  46  67  92 126 170 212 265 326 379
#     4  11  21  35  61  95 123 170 216 256 310 378
#
# _framework density 23.760964999999999
#
# number of rings (size 3 to 8) (size 9 to 14) (size 15 to 20)
#    0.000    1.538    3.846    2.769    0.000    4.308 
#    1.385    7.692    0.000    0.000    0.000    0.000 
#    0.000    0.000    0.000    0.000    0.000    0.000 
#
# Total GULP energy -145655.467942 kJ/mol
# GULP energy per Si atom -5602.133382 kJ/mol
# Density = 2.370688 g / cm^3
# Si number density = 23.760965 Si / 1000 Ang^3
#
#
#
# Elastic Constant Matrix: (Units=GPa)
#
#
# Indices 1 2 3 4 5 6 
#
# 1 63.4840 17.3696 36.7448 0.0000 8.8950 0.0000
# 2 17.3696 31.0384 6.6649 0.0000 -9.9136 0.0000
# 3 36.7448 6.6649 107.0359 0.0000 23.5088 0.0000
# 4 0.0000 0.0000 0.0000 15.9211 0.0000 -4.9125
# 5 8.8950 -9.9136 23.5088 0.0000 45.4671 0.0000
# 6 0.0000 0.0000 0.0000 -4.9125 0.0000 20.7931
#
#
#
# Elastic Compliance Matrix: (Units=1/GPa)
#
#
# Indices 1 2 3 4 5 6 
#
# 1 0.023642 -0.013209 -0.006369 0.000000 -0.004212 0.000000
# 2 -0.013209 0.043860 -0.000975 0.000000 0.012652 0.000000
# 3 -0.006369 -0.000975 0.012818 0.000000 -0.005595 0.000000
# 4 0.000000 0.000000 0.000000 0.067748 0.000000 0.016006
# 5 -0.004212 0.012652 -0.005595 0.000000 0.028469 0.000000
# 6 0.000000 0.000000 0.000000 0.016006 0.000000 0.051874
#
#
# Mechanical properties :
#
#
# Convention : Reuss Voigt Hill
#
# Bulk Modulus (GPa) = 25.49984 35.90185 30.70085
# Shear Modulus (GPa) = 17.69346 25.82151 21.75749
#
# Velocity S-wave (km/s) = 2.73178 3.30012 3.02931
# Velocity P-wave (km/s) = 4.55030 5.44642 5.01840
#
# Compressibility (1/GPa) = 0.03921593
#
# Stress axis : x y z
#
# Youngs Moduli (GPa) = 42.29700 22.79968 78.01250
#
# Poissons Ratio (x) = 0.30115 0.49683
# Poissons Ratio (y) = 0.55868 0.07609
# Poissons Ratio (z) = 0.26937 0.02224
#
# Static dielectric constant tensor:
#      x y z
#    x 1.901170 0.000000 0.012510 
#    y 0.000000 1.898820 0.000000 
#    z 0.012510 0.000000 1.860820 
# 
# From -- ./inp_files/49931.got.cif
#   From: 2010.05.17/outbox.cif.g08.bks.cpg/sg13_25_cif.got.tgz:49931.got - 2010.06.03 16:44:36.
