data_PCOD9226406
_publ_section_title
;
Structure prediction by ZEFSAII (Michael W. Deem and Ramdas Pophale) SiO2 
 PCOD9226406
Probable space group: P 2/C
;
_chemical_formula_sum "Si O2"
_cell_formula_units_Z 28
_cell_length_a 29.642130
_cell_length_b 8.763071
_cell_length_c 31.733694
_cell_angle_alpha 90.000000
_cell_angle_beta 9.067156
_cell_angle_gamma 90.000000
_cell_volume 1299.034217
_symmetry_space_group_name_H-M "P 2/C"
_symmetry_group_IT_number 13
_symmetry_cell_setting 'monoclinic'
loop_
_space_group_symop_operation_xyz
x,y,z
-x,y,1/2-z
-x,-y,-z
x,-y,1/2+z
loop_
_atom_site_type_symbol
_atom_site_label
_atom_site_fract_x
_atom_site_fract_y
_atom_site_fract_z
Si Si1 0.304162 0.057195 0.891210
Si Si2 0.356723 0.058848 0.004654
Si Si3 0.566216 0.606745 0.978834
Si Si4 0.703303 0.570724 0.100383
Si Si5 0.665280 0.953260 0.804896
Si Si6 0.973907 0.672806 0.540388
Si Si7 0.648047 0.430333 0.494988
O O1 0.500000 0.007862 0.750000
O O2 0.451566 0.009141 0.711707
O O3 0.302318 0.243422 0.894039
O O4 0.972651 0.009660 0.197853
O O5 0.357058 0.244621 0.003587
O O6 0.492785 0.000391 0.922556
O O7 0.873998 0.677254 0.681568
O O8 0.584896 0.520572 0.005634
O O9 0.500000 0.500000 0.000000
O O10 0.300428 0.722726 0.229997
O O11 0.500000 0.520155 0.250000
O O12 0.573943 0.520986 0.264578
O O13 0.028840 0.523641 0.792396
O O14 0.725853 0.770460 0.747864
O O15 0.000000 0.000000 0.500000
O O16 0.500000 0.000000 0.000000
O O17 0.000000 0.500000 0.500000
#
# Coordination Sequence:
#
# PCOD9226406 Si02
#       7
#     4   4   4   4   4   4   4
#     4   9  17  30  46  67  99 137 175 215 264 329
#     4  10  19  29  46  72 101 138 177 216 271 328
#     4  10  20  34  52  73  99 138 185 227 269 327
#     4   9  17  27  42  65  95 132 169 206 260 330
#     4  12  23  35  53  80 115 152 189 234 286 342
#     4  10  21  37  54  73 106 146 185 226 271 325
#     4  10  17  28  45  66  98 133 168 214 266 319
#
# _framework density 21.554473000000002
#
# number of rings (size 3 to 8) (size 9 to 14) (size 15 to 20)
#    0.000    2.000    0.000    5.143    0.000    5.714 
#    0.000    0.000    0.000    0.000    0.000    0.000 
#    0.000   68.571    0.000    4.286    0.000    0.000 
#
# Total GULP energy -156152.073664 kJ/mol
# GULP energy per Si atom -5576.859774 kJ/mol
# Density = 2.150541 g / cm^3
# Si number density = 21.554473 Si / 1000 Ang^3
#
#
#
# Elastic Constant Matrix: (Units=GPa)
#
#
# Indices 1 2 3 4 5 6 
#
# 1 103.2313 9.1582 30.4158 0.0000 2.2048 0.0000
# 2 9.1582 32.1139 18.2030 0.0000 -3.2105 0.0000
# 3 30.4158 18.2030 138.8864 0.0000 18.0588 0.0000
# 4 0.0000 0.0000 0.0000 17.4959 0.0000 -0.7886
# 5 2.2048 -3.2105 18.0588 0.0000 51.4074 0.0000
# 6 0.0000 0.0000 0.0000 -0.7886 0.0000 19.3207
#
#
#
# Elastic Compliance Matrix: (Units=1/GPa)
#
#
# Indices 1 2 3 4 5 6 
#
# 1 0.010454 -0.001787 -0.002077 0.000000 0.000170 0.000000
# 2 -0.001787 0.034677 -0.004658 0.000000 0.003878 0.000000
# 3 -0.002077 -0.004658 0.008689 0.000000 -0.003254 0.000000
# 4 0.000000 0.000000 0.000000 0.057262 0.000000 0.002337
# 5 0.000170 0.003878 -0.003254 0.000000 0.020830 0.000000
# 6 0.000000 0.000000 0.000000 0.002337 0.000000 0.051853
#
#
# Mechanical properties :
#
#
# Convention : Reuss Voigt Hill
#
# Bulk Modulus (GPa) = 27.19211 43.30950 35.25081
# Shear Modulus (GPa) = 23.46678 32.07510 27.77094
#
# Velocity S-wave (km/s) = 3.30315 3.86177 3.59333
# Velocity P-wave (km/s) = 5.21447 6.32622 5.79706
#
# Compressibility (1/GPa) = 0.03677537
#
# Stress axis : x y z
#
# Youngs Moduli (GPa) = 95.65795 28.83782 115.09302
#
# Poissons Ratio (x) = 0.05153 0.23908
# Poissons Ratio (y) = 0.17092 0.53609
# Poissons Ratio (z) = 0.19871 0.13432
#
# Static dielectric constant tensor:
#      x y z
#    x 1.789340 0.000000 0.036260 
#    y 0.000000 2.048680 0.000000 
#    z 0.036260 0.000000 1.918580 
# 
# From -- ./inp_files/97871.got.cif
#   From: 2010.05.17/outbox.cif.g08.bks.cpg/sg13_49_cif.got.tgz:97871.got - 2010.06.03 16:44:36.
