data_PCOD9226323
_publ_section_title
;
Structure prediction by ZEFSAII (Michael W. Deem and Ramdas Pophale) SiO2 
 PCOD9226323
Probable space group: P 2/C
;
_chemical_formula_sum "Si O2"
_cell_formula_units_Z 30
_cell_length_a 15.999535
_cell_length_b 17.429438
_cell_length_c 5.188643
_cell_angle_alpha 90.000000
_cell_angle_beta 110.171131
_cell_angle_gamma 90.000000
_cell_volume 1358.175938
_symmetry_space_group_name_H-M "P 2/C"
_symmetry_group_IT_number 13
_symmetry_cell_setting 'monoclinic'
loop_
_space_group_symop_operation_xyz
x,y,z
-x,y,1/2-z
-x,-y,-z
x,-y,1/2+z
loop_
_atom_site_type_symbol
_atom_site_label
_atom_site_fract_x
_atom_site_fract_y
_atom_site_fract_z
Si Si1 0.500000 0.777623 0.250000
Si Si2 0.040970 0.584744 0.536267
Si Si3 0.055155 0.145066 0.553407
Si Si4 0.222909 0.048918 0.942636
Si Si5 0.783924 0.363905 0.467965
Si Si6 0.653603 0.821112 0.110923
Si Si7 0.811039 0.733782 0.503431
Si Si8 0.405061 0.327558 0.269678
O O1 0.557267 0.832425 0.130874
O O2 0.568851 0.716313 0.443070
O O3 0.144394 0.576075 0.568292
O O4 0.000000 0.621137 0.750000
O O5 0.000000 0.500000 0.500000
O O6 0.000000 0.628577 0.250000
O O7 0.132783 0.091496 0.755571
O O8 0.102513 0.218872 0.480026
O O9 0.000000 0.165238 0.750000
O O10 0.000000 0.110186 0.250000
O O11 0.304490 0.107754 0.990144
O O12 0.226969 0.979930 0.739716
O O13 0.798984 0.334895 0.777711
O O14 0.679536 0.383746 0.313238
O O15 0.807511 0.295697 0.291097
O O16 0.730234 0.793778 0.387224
O O17 0.634260 0.744104 0.930122
O O18 0.500000 0.354173 0.250000
#
# Coordination Sequence:
#
# PCOD9226323 Si02
#       8
#     2   4   4   4   4   4   4   4
#     4  10  16  34  60  78 112 142 178 222 298 364
#     4  10  22  39  57  83 120 164 208 236 266 322
#     4  11  23  38  56  79 107 140 183 240 298 347
#     4  11  25  40  57  75 102 142 191 241 283 346
#     4  11  20  35  58  87 120 156 190 236 286 337
#     4   9  20  35  55  78 110 146 177 225 297 354
#     4  10  21  34  54  84 117 144 182 229 295 348
#     4   9  19  33  57  89 117 148 183 236 300 366
#
# _framework density 22.088450999999999
#
# number of rings (size 3 to 8) (size 9 to 14) (size 15 to 20)
#    0.000    1.867    1.333    2.400    1.867    6.933 
#    0.000    0.667    0.000    0.000    0.000    3.733 
#    0.000    0.000    0.000    0.000    0.000    0.000 
#
# Total GULP energy -167159.534404 kJ/mol
# GULP energy per Si atom -5571.984480 kJ/mol
# Density = 2.203818 g / cm^3
# Si number density = 22.088451 Si / 1000 Ang^3
#
#
#
# Elastic Constant Matrix: (Units=GPa)
#
#
# Indices 1 2 3 4 5 6 
#
# 1 143.3784 22.3303 26.5736 0.0000 8.9729 0.0000
# 2 22.3303 26.2948 -15.8915 0.0000 7.4807 0.0000
# 3 26.5736 -15.8915 68.8056 0.0000 -11.4138 0.0000
# 4 0.0000 0.0000 0.0000 13.9372 0.0000 1.0487
# 5 8.9729 7.4807 -11.4138 0.0000 36.4560 0.0000
# 6 0.0000 0.0000 0.0000 1.0487 0.0000 23.5475
#
#
#
# Elastic Compliance Matrix: (Units=1/GPa)
#
#
# Indices 1 2 3 4 5 6 
#
# 1 0.010448 -0.012660 -0.007336 0.000000 -0.002270 0.000000
# 2 -0.012660 0.060909 0.018354 0.000000 -0.003636 0.000000
# 3 -0.007336 0.018354 0.022446 0.000000 0.005067 0.000000
# 4 0.000000 0.000000 0.000000 0.071992 0.000000 -0.003206
# 5 -0.002270 -0.003636 0.005067 0.000000 0.030322 0.000000
# 6 0.000000 0.000000 0.000000 -0.003206 0.000000 0.042610
#
#
# Mechanical properties :
#
#
# Convention : Reuss Voigt Hill
#
# Bulk Modulus (GPa) = 11.04744 33.83373 22.44058
# Shear Modulus (GPa) = 18.36995 28.48591 23.42793
#
# Velocity S-wave (km/s) = 2.88697 3.59504 3.26028
# Velocity P-wave (km/s) = 4.01561 5.70815 4.93498
#
# Compressibility (1/GPa) = 0.09051875
#
# Stress axis : x y z
#
# Youngs Moduli (GPa) = 95.71210 16.41806 44.55043
#
# Poissons Ratio (x) = 0.20786 0.32681
# Poissons Ratio (y) = 1.21174 -0.81768
# Poissons Ratio (z) = 0.70213 -0.30134
#
# Static dielectric constant tensor:
#      x y z
#    x 2.022380 0.000000 0.047700 
#    y 0.000000 2.299740 0.000000 
#    z 0.047700 0.000000 1.957860 
# 
# From -- ./inp_files/5377.got.cif
#   From: 2010.05.17/outbox.cif.g08.bks.cpg/sg13_3_cif.got.tgz:5377.got - 2010.06.03 16:44:36.
