data_PCOD9226183
_publ_section_title
;
Structure prediction by ZEFSAII (Michael W. Deem and Ramdas Pophale) SiO2 
 PCOD9226183
Probable space group: P 2/C
;
_chemical_formula_sum "Si O2"
_cell_formula_units_Z 26
_cell_length_a 20.557896
_cell_length_b 5.612005
_cell_length_c 11.393996
_cell_angle_alpha 90.000000
_cell_angle_beta 42.731450
_cell_angle_gamma 90.000000
_cell_volume 891.996049
_symmetry_space_group_name_H-M "P 2/C"
_symmetry_group_IT_number 13
_symmetry_cell_setting 'monoclinic'
loop_
_space_group_symop_operation_xyz
x,y,z
-x,y,1/2-z
-x,-y,-z
x,-y,1/2+z
loop_
_atom_site_type_symbol
_atom_site_label
_atom_site_fract_x
_atom_site_fract_y
_atom_site_fract_z
Si Si1 0.614223 0.785494 0.425671
Si Si2 0.272391 0.346025 0.413660
Si Si3 0.917607 0.235134 0.610449
Si Si4 0.230336 0.148014 0.975719
Si Si5 0.000000 0.180589 0.250000
Si Si6 0.566915 0.710268 0.996860
Si Si7 0.115294 0.275223 0.422696
O O1 0.715698 0.819532 0.223904
O O2 0.538113 0.750094 0.418369
O O3 0.590598 0.541841 0.527919
O O4 0.591146 0.034334 0.519634
O O5 0.264496 0.601665 0.482891
O O6 0.362505 0.317012 0.208876
O O7 0.178953 0.324365 0.451968
O O8 0.266620 0.095453 0.486813
O O9 0.865844 0.486988 0.678301
O O10 0.981322 0.273791 0.407367
O O11 0.000755 0.232710 0.599824
O O12 0.867192 0.980668 0.661829
O O13 0.115866 0.124711 0.112661
#
# Coordination Sequence:
#
# PCOD9226183 Si02
#       7
#     4   4   4   4   2   4   4
#     4   8  14  26  34  60  83 111 133 180 216 264
#     4  10  16  30  44  65  83 117 145 189 215 267
#     4  10  22  30  50  60  94 117 159 178 233 253
#     4  10  20  26  44  62  93 114 149 178 224 256
#     4  12  20  34  44  74  86 132 148 192 212 284
#     4   8  14  22  42  56  82 106 142 172 226 253
#     4  10  18  36  44  67  85 125 146 197 214 273
#
# _framework density 29.148109999999999
#
# number of rings (size 3 to 8) (size 9 to 14) (size 15 to 20)
#    0.000    2.462    3.077    0.000    0.000    2.462 
#    0.000    0.000    0.000    0.000    0.000    1.077 
#    0.000    0.000    0.000   56.615    0.000    0.000 
#
# Total GULP energy -144852.947406 kJ/mol
# GULP energy per Si atom -5571.267208 kJ/mol
# Density = 2.908177 g / cm^3
# Si number density = 29.148110 Si / 1000 Ang^3
#
#
#
# Elastic Constant Matrix: (Units=GPa)
#
#
# Indices 1 2 3 4 5 6 
#
# 1 85.7850 18.1548 -0.1049 0.0000 -32.2686 0.0000
# 2 18.1548 356.9447 13.4397 0.0000 -20.9770 0.0000
# 3 -0.1049 13.4397 107.3726 0.0000 -14.2698 0.0000
# 4 0.0000 0.0000 0.0000 11.7083 0.0000 -26.2092
# 5 -32.2686 -20.9770 -14.2698 0.0000 31.1405 0.0000
# 6 0.0000 0.0000 0.0000 -26.2092 0.0000 7.8093
#
#
#
# Elastic Compliance Matrix: (Units=1/GPa)
#
#
# Indices 1 2 3 4 5 6 
#
# 1 0.019952 0.000176 0.002940 0.000000 0.022140 0.000000
# 2 0.000176 0.002920 -0.000085 0.000000 0.002110 0.000000
# 3 0.002940 -0.000085 0.010355 0.000000 0.007734 0.000000
# 4 0.000000 0.000000 0.000000 -0.013114 0.000000 -0.044013
# 5 0.022140 0.002110 0.007734 0.000000 0.060020 0.000000
# 6 0.000000 0.000000 0.000000 -0.044013 0.000000 -0.019662
#
#
# Mechanical properties :
#
#
# Convention : Reuss Voigt Hill
#
# Bulk Modulus (GPa) = 25.45346 68.12015 46.78680
# Shear Modulus (GPa) = 74.06892 44.70580 59.38736
#
# Velocity S-wave (km/s) = 5.04642 3.92056 4.51869
# Velocity P-wave (km/s) = 6.53503 6.62687 6.58111
#
# Compressibility (1/GPa) = 0.03928739
#
# Stress axis : x y z
#
# Youngs Moduli (GPa) = 50.12150 342.48723 96.57426
#
# Poissons Ratio (x) = -0.06016 -0.28392
# Poissons Ratio (y) = -0.00880 0.00820
# Poissons Ratio (z) = -0.14735 0.02907
#
# Static dielectric constant tensor:
#      x y z
#    x 2.276680 0.000000 -0.017970 
#    y 0.000000 2.561400 0.000000 
#    z -0.017970 0.000000 2.218000 
# 
# From -- ./inp_files/68907.got.cif
#   From: 2010.05.17/outbox.cif.g08.bks.cpg/sg13_35_cif.got.tgz:68907.got - 2010.06.03 16:44:36.
