data_PCOD9226111
_publ_section_title
;
Structure prediction by ZEFSAII (Michael W. Deem and Ramdas Pophale) SiO2 
 PCOD9226111
Probable space group: P 2/C
;
_chemical_formula_sum "Si O2"
_cell_formula_units_Z 28
_cell_length_a 27.458944
_cell_length_b 9.292164
_cell_length_c 5.480391
_cell_angle_alpha 90.000000
_cell_angle_beta 101.252546
_cell_angle_gamma 90.000000
_cell_volume 1371.457463
_symmetry_space_group_name_H-M "P 2/C"
_symmetry_group_IT_number 13
_symmetry_cell_setting 'monoclinic'
loop_
_space_group_symop_operation_xyz
x,y,z
-x,y,1/2-z
-x,-y,-z
x,-y,1/2+z
loop_
_atom_site_type_symbol
_atom_site_label
_atom_site_fract_x
_atom_site_fract_y
_atom_site_fract_z
Si Si1 0.714608 0.496596 0.097083
Si Si2 0.242373 0.813361 0.400345
Si Si3 0.207351 0.765993 0.865536
Si Si4 0.352675 0.151962 0.166837
Si Si5 0.500000 0.094913 0.750000
Si Si6 0.608721 0.824891 0.294630
Si Si7 0.109254 0.405943 0.366256
Si Si8 0.000000 0.593332 0.750000
O O1 0.685381 0.498943 0.318442
O O2 0.748127 0.641118 0.124834
O O3 0.752385 0.362948 0.127600
O O4 0.205546 0.830965 0.592061
O O5 0.295635 0.871628 0.538847
O O6 0.226810 0.859319 0.113375
O O7 0.154741 0.702491 0.891707
O O8 0.359615 0.222773 0.439034
O O9 0.378959 0.996588 0.216358
O O10 0.376331 0.231735 0.956971
O O11 0.449351 0.185374 0.707006
O O12 0.500000 0.000000 0.500000
O O13 0.113190 0.493040 0.626865
O O14 0.054293 0.334428 0.304889
O O15 0.000000 0.500000 0.500000
#
# Coordination Sequence:
#
# PCOD9226111 Si02
#       8
#     4   4   4   4   2   4   4   2
#     4   8  14  23  34  49  68  94 126 158 191 214
#     4  10  18  26  38  55  76 104 135 166 191 229
#     4  10  17  26  38  54  74 105 138 169 201 227
#     4  10  18  29  40  58  83 107 134 156 190 231
#     4  12  16  30  48  68  80 106 138 156 178 234
#     4  10  19  30  45  62  83 111 128 152 190 229
#     4  10  16  25  38  53  74 101 137 175 208 242
#     4   8  16  24  34  52  72  96 130 174 210 238
#
# _framework density 20.416236000000001
#
# number of rings (size 3 to 8) (size 9 to 14) (size 15 to 20)
#    0.000    2.286    2.857    4.286    0.000    0.000 
#    0.000    0.000    0.000    0.000    0.000    0.000 
#    0.000    0.000    0.000  196.714    0.000   57.143 
#
# Total GULP energy -156001.171644 kJ/mol
# GULP energy per Si atom -5571.470416 kJ/mol
# Density = 2.036977 g / cm^3
# Si number density = 20.416236 Si / 1000 Ang^3
#
#
#
# Elastic Constant Matrix: (Units=GPa)
#
#
# Indices 1 2 3 4 5 6 
#
# 1 113.0982 -2.2657 10.1624 0.0000 -0.7876 0.0000
# 2 -2.2657 43.2892 2.6673 0.0000 -0.7361 0.0000
# 3 10.1624 2.6673 176.7137 0.0000 -30.3863 0.0000
# 4 0.0000 0.0000 0.0000 -12.8859 0.0000 8.4350
# 5 -0.7876 -0.7361 -30.3863 0.0000 39.4381 0.0000
# 6 0.0000 0.0000 0.0000 8.4350 0.0000 6.1603
#
#
#
# Elastic Compliance Matrix: (Units=1/GPa)
#
#
# Indices 1 2 3 4 5 6 
#
# 1 0.008901 0.000496 -0.000562 0.000000 -0.000246 0.000000
# 2 0.000496 0.023151 -0.000348 0.000000 0.000174 0.000000
# 3 -0.000562 -0.000348 0.006563 0.000000 0.005039 0.000000
# 4 0.000000 0.000000 0.000000 -0.040924 0.000000 0.056035
# 5 -0.000246 0.000174 0.005039 0.000000 0.029237 0.000000
# 6 0.000000 0.000000 0.000000 0.056035 0.000000 0.085603
#
#
# Mechanical properties :
#
#
# Convention : Reuss Voigt Hill
#
# Bulk Modulus (GPa) = 26.46383 39.35879 32.91131
# Shear Modulus (GPa) = 39.69752 28.04500 33.87126
#
# Velocity S-wave (km/s) = 4.41433 3.71031 4.07754
# Velocity P-wave (km/s) = 6.24276 6.13802 6.19061
#
# Compressibility (1/GPa) = 0.03778743
#
# Stress axis : x y z
#
# Youngs Moduli (GPa) = 112.35241 43.19500 152.37250
#
# Poissons Ratio (x) = -0.02144 0.08557
# Poissons Ratio (y) = -0.05576 0.05304
# Poissons Ratio (z) = 0.06310 0.01504
#
# Static dielectric constant tensor:
#      x y z
#    x 1.717060 0.000000 -0.023840 
#    y 0.000000 1.827640 0.000000 
#    z -0.023840 0.000000 1.862180 
# 
# From -- ./inp_files/7013.got.cif
#   From: 2010.05.17/outbox.cif.g08.bks.cpg/sg13_4_cif.got.tgz:7013.got - 2010.06.03 16:44:36.
