data_PCOD9226703
_publ_section_title
;
Structure prediction by ZEFSAII (Michael W. Deem and Ramdas Pophale) SiO2 
 PCOD9226703
Probable space group: P 2/C
;
_chemical_formula_sum "Si O2"
_cell_formula_units_Z 28
_cell_length_a 24.889114
_cell_length_b 7.825335
_cell_length_c 8.988857
_cell_angle_alpha 90.000000
_cell_angle_beta 136.308683
_cell_angle_gamma 90.000000
_cell_volume 1209.350254
_symmetry_space_group_name_H-M "P 2/C"
_symmetry_group_IT_number 13
_symmetry_cell_setting 'monoclinic'
loop_
_space_group_symop_operation_xyz
x,y,z
-x,y,1/2-z
-x,-y,-z
x,-y,1/2+z
loop_
_atom_site_type_symbol
_atom_site_label
_atom_site_fract_x
_atom_site_fract_y
_atom_site_fract_z
Si Si1 0.681802 0.810853 0.940396
Si Si2 0.420267 0.691782 0.515305
Si Si3 0.423805 0.304058 0.513627
Si Si4 0.841554 0.819339 0.107874
Si Si5 0.153441 0.799223 0.742456
Si Si6 0.319976 0.799497 0.057201
Si Si7 0.997684 0.806835 0.565373
O O1 0.651036 0.695954 0.011823
O O2 0.608285 0.807436 0.683158
O O3 0.694393 0.004705 0.021291
O O4 0.759302 0.753874 0.008391
O O5 0.500000 0.754219 0.750000
O O6 0.436835 0.499697 0.493638
O O7 0.386778 0.798880 0.313477
O O8 0.500000 0.239556 0.750000
O O9 0.354165 0.304349 0.490959
O O10 0.916223 0.736591 0.338765
O O11 0.842016 0.017045 0.164265
O O12 0.850280 0.813075 0.945838
O O13 0.074893 0.719494 0.652142
O O14 0.238123 0.722332 0.946359
O O15 0.000000 0.813022 0.750000
O O16 0.000000 0.000000 0.500000
#
# Coordination Sequence:
#
# PCOD9226703 Si02
#       7
#     4   4   4   4   4   4   4
#     4  11  23  37  61  91 121 154 198 252 305 348
#     4  11  25  41  61  84 117 162 202 249 301 363
#     4  11  23  43  61  84 119 158 204 245 297 367
#     4  10  19  32  52  82 120 155 193 244 298 353
#     4  10  19  32  52  82 120 155 193 244 298 353
#     4  11  23  37  61  91 121 154 198 252 305 348
#     4  10  18  28  50  80 119 160 191 233 294 360
#
# _framework density 23.152926999999998
#
# number of rings (size 3 to 8) (size 9 to 14) (size 15 to 20)
#    0.000    1.429    1.429    6.429    8.000    5.714 
#    0.000    0.000    0.000    0.000    0.000    6.000 
#    0.000    0.000    0.000    0.000    0.000    0.000 
#
# Total GULP energy -156268.399503 kJ/mol
# GULP energy per Si atom -5581.014268 kJ/mol
# Density = 2.310023 g / cm^3
# Si number density = 23.152927 Si / 1000 Ang^3
#
#
#
# Elastic Constant Matrix: (Units=GPa)
#
#
# Indices 1 2 3 4 5 6 
#
# 1 175.3581 17.2034 51.6671 0.0000 3.6906 0.0000
# 2 17.2034 37.5539 14.3637 0.0000 -2.4077 0.0000
# 3 51.6671 14.3637 131.8533 0.0000 8.0858 0.0000
# 4 0.0000 0.0000 0.0000 -110.1204 0.0000 -11.9141
# 5 3.6906 -2.4077 8.0858 0.0000 49.4044 0.0000
# 6 0.0000 0.0000 0.0000 -11.9141 0.0000 21.8902
#
#
#
# Elastic Compliance Matrix: (Units=1/GPa)
#
#
# Indices 1 2 3 4 5 6 
#
# 1 0.006608 -0.002145 -0.002342 0.000000 -0.000215 0.000000
# 2 -0.002145 0.028654 -0.002401 0.000000 0.001950 0.000000
# 3 -0.002342 -0.002401 0.008849 0.000000 -0.001390 0.000000
# 4 0.000000 0.000000 0.000000 -0.008576 0.000000 -0.004668
# 5 -0.000215 0.001950 -0.001390 0.000000 0.020580 0.000000
# 6 0.000000 0.000000 0.000000 -0.004668 0.000000 0.043142
#
#
# Mechanical properties :
#
#
# Convention : Reuss Voigt Hill
#
# Bulk Modulus (GPa) = 32.96521 56.80374 44.88447
# Shear Modulus (GPa) = 40.60288 9.67022 25.13655
#
# Velocity S-wave (km/s) = 4.19224 2.04591 3.29853
# Velocity P-wave (km/s) = 6.14021 5.49258 5.82540
#
# Compressibility (1/GPa) = 0.03033501
#
# Stress axis : x y z
#
# Youngs Moduli (GPa) = 151.33800 34.89897 113.00905
#
# Poissons Ratio (x) = 0.07485 0.26472
# Poissons Ratio (y) = 0.32459 0.27129
# Poissons Ratio (z) = 0.35450 0.08378
#
# Static dielectric constant tensor:
#      x y z
#    x 1.938320 0.000000 0.039540 
#    y 0.000000 1.816510 0.000000 
#    z 0.039540 0.000000 1.910630 
# 
# From -- ./inp_files/24607.got.cif
#   From: 2010.05.17/outbox.cif.g08.bks.cpg/sg13_13_cif.got.tgz:24607.got - 2010.06.03 16:44:36.
