data_PCOD9226447
_publ_section_title
;
Structure prediction by ZEFSAII (Michael W. Deem and Ramdas Pophale) SiO2 
 PCOD9226447
Probable space group: P 2/C
;
_chemical_formula_sum "Si O2"
_cell_formula_units_Z 24
_cell_length_a 9.051379
_cell_length_b 8.430236
_cell_length_c 19.338953
_cell_angle_alpha 90.000000
_cell_angle_beta 62.179723
_cell_angle_gamma 90.000000
_cell_volume 1305.100528
_symmetry_space_group_name_H-M "P 2/C"
_symmetry_group_IT_number 13
_symmetry_cell_setting 'monoclinic'
loop_
_space_group_symop_operation_xyz
x,y,z
-x,y,1/2-z
-x,-y,-z
x,-y,1/2+z
loop_
_atom_site_type_symbol
_atom_site_label
_atom_site_fract_x
_atom_site_fract_y
_atom_site_fract_z
Si Si1 0.599745 0.743758 0.400830
Si Si2 0.245654 0.069928 0.505171
Si Si3 0.587614 0.030762 0.662710
Si Si4 0.097223 0.745252 0.400910
Si Si5 0.238634 0.689186 0.511257
Si Si6 0.912686 0.477899 0.837074
O O1 0.653097 0.851355 0.454474
O O2 0.541905 0.856237 0.350559
O O3 0.433551 0.648719 0.459164
O O4 0.755273 0.631890 0.350618
O O5 0.063616 0.148024 0.545238
O O6 0.339664 0.088287 0.411120
O O7 0.231984 0.880657 0.518820
O O8 0.500000 0.963925 0.750000
O O9 0.745069 0.141750 0.649244
O O10 0.147510 0.650111 0.459067
O O11 0.042227 0.633264 0.350584
O O12 0.155587 0.605746 0.594020
O O13 0.000000 0.544920 0.750000
#
# Coordination Sequence:
#
# PCOD9226447 Si02
#       6
#     4   4   4   4   4   4
#     4   9  19  35  53  70  98 136 167 193 242 305
#     4   9  18  35  54  73  98 132 166 197 242 301
#     4  10  17  29  51  78  98 122 164 212 245 281
#     4   9  19  35  53  70  98 136 167 193 242 305
#     4  10  18  33  54  74  96 130 166 202 242 295
#     4  11  21  33  49  75 102 128 164 209 245 281
#
# _framework density 18.389389999999999
#
# number of rings (size 3 to 8) (size 9 to 14) (size 15 to 20)
#    0.000    2.667    0.000    6.000    0.000    0.000 
#    0.000   10.000    0.000    0.000    0.000    2.333 
#    0.000    0.000    0.000    0.000    0.000    0.000 
#
# Total GULP energy -133857.178617 kJ/mol
# GULP energy per Si atom -5577.382442 kJ/mol
# Density = 1.834753 g / cm^3
# Si number density = 18.389390 Si / 1000 Ang^3
#
#
#
# Elastic Constant Matrix: (Units=GPa)
#
#
# Indices 1 2 3 4 5 6 
#
# 1 119.7939 7.5722 27.7246 0.0000 -5.1668 0.0000
# 2 7.5722 8.7505 9.5940 0.0000 -0.4526 0.0000
# 3 27.7246 9.5940 114.5552 0.0000 1.9054 0.0000
# 4 0.0000 0.0000 0.0000 24.9059 0.0000 0.4936
# 5 -5.1668 -0.4526 1.9054 0.0000 1.5823 0.0000
# 6 0.0000 0.0000 0.0000 0.4936 0.0000 7.8893
#
#
#
# Elastic Compliance Matrix: (Units=1/GPa)
#
#
# Indices 1 2 3 4 5 6 
#
# 1 0.010933 -0.004297 -0.002918 0.000000 0.037985 0.000000
# 2 -0.004297 0.131470 -0.010574 0.000000 0.036306 0.000000
# 3 -0.002918 -0.010574 0.010745 0.000000 -0.025492 0.000000
# 4 0.000000 0.000000 0.000000 0.040201 0.000000 -0.002515
# 5 0.037985 0.036306 -0.025492 0.000000 0.797102 0.000000
# 6 0.000000 0.000000 0.000000 -0.002515 0.000000 0.126911
#
#
# Mechanical properties :
#
#
# Convention : Reuss Voigt Hill
#
# Bulk Modulus (GPa) = 8.50564 36.98679 22.74622
# Shear Modulus (GPa) = 4.19417 20.08942 12.14180
#
# Velocity S-wave (km/s) = 1.51186 3.30880 2.57234
# Velocity P-wave (km/s) = 2.77181 5.89528 4.60637
#
# Compressibility (1/GPa) = 0.11756898
#
# Stress axis : x y z
#
# Youngs Moduli (GPa) = 91.46712 7.60632 93.06439
#
# Poissons Ratio (x) = 0.03268 0.27155
# Poissons Ratio (y) = 0.39303 0.98411
# Poissons Ratio (z) = 0.26689 0.08043
#
# Static dielectric constant tensor:
#      x y z
#    x 1.657680 0.000000 -0.001270 
#    y 0.000000 1.622960 0.000000 
#    z -0.001270 0.000000 1.629020 
# 
# From -- ./inp_files/75196.got.cif
#   From: 2010.05.17/outbox.cif.g08.bks.cpg/sg13_38_cif.got.tgz:75196.got - 2010.06.03 16:44:36.
