data_PCOD9226455
_publ_section_title
;
Structure prediction by ZEFSAII (Michael W. Deem and Ramdas Pophale) SiO2 
 PCOD9226455
Probable space group: P 2/C
;
_chemical_formula_sum "Si O2"
_cell_formula_units_Z 30
_cell_length_a 9.380068
_cell_length_b 12.762871
_cell_length_c 21.838529
_cell_angle_alpha 90.000000
_cell_angle_beta 40.929750
_cell_angle_gamma 90.000000
_cell_volume 1712.802748
_symmetry_space_group_name_H-M "P 2/C"
_symmetry_group_IT_number 13
_symmetry_cell_setting 'monoclinic'
loop_
_space_group_symop_operation_xyz
x,y,z
-x,y,1/2-z
-x,-y,-z
x,-y,1/2+z
loop_
_atom_site_type_symbol
_atom_site_label
_atom_site_fract_x
_atom_site_fract_y
_atom_site_fract_z
Si Si1 0.542746 0.298215 0.561639
Si Si2 0.500000 0.405414 0.750000
Si Si3 0.856069 0.009971 0.734015
Si Si4 0.707874 0.689396 0.480657
Si Si5 0.767460 0.093077 0.452240
Si Si6 0.813149 0.251705 0.719766
Si Si7 0.527171 0.903235 0.575254
Si Si8 0.753417 0.494199 0.556323
O O1 0.463574 0.324040 0.518890
O O2 0.690995 0.194210 0.513672
O O3 0.325798 0.278808 0.673438
O O4 0.691325 0.390433 0.538872
O O5 0.685527 0.324009 0.712228
O O6 0.594013 0.479705 0.666313
O O7 0.814848 0.124256 0.717615
O O8 0.000000 0.029934 0.750000
O O9 0.635757 0.950841 0.822679
O O10 0.992409 0.927345 0.649842
O O11 0.631156 0.789449 0.545325
O O12 0.717936 0.591424 0.522525
O O13 0.936539 0.714736 0.372259
O O14 0.613388 0.096803 0.442056
O O15 0.712784 0.988581 0.506598
O O16 0.000000 0.500000 0.500000
#
# Coordination Sequence:
#
# PCOD9226455 Si02
#       8
#     4   2   4   4   4   4   4   4
#     4  10  21  35  59  91 115 145 194 246 281 335
#     4  10  24  42  58  80 104 160 196 236 282 350
#     4  10  17  29  53  85 118 151 181 226 290 346
#     4  11  20  36  61  90 115 145 192 244 289 334
#     4   9  16  29  49  81 120 144 174 225 292 340
#     4  11  19  33  61  84 116 146 196 234 280 338
#     4   9  17  28  49  83 117 145 174 227 290 340
#     4  11  23  43  62  77 112 155 195 238 291 347
#
# _framework density 17.515152
#
# number of rings (size 3 to 8) (size 9 to 14) (size 15 to 20)
#    0.000    1.867    4.000    1.600    0.000    0.000 
#    2.400    0.000    2.933    3.200    0.000    0.000 
#    0.000    0.000    0.000    0.000    0.000    0.000 
#
# Total GULP energy -167009.934066 kJ/mol
# GULP energy per Si atom -5566.997802 kJ/mol
# Density = 1.747529 g / cm^3
# Si number density = 17.515152 Si / 1000 Ang^3
#
#
#
# Elastic Constant Matrix: (Units=GPa)
#
#
# Indices 1 2 3 4 5 6 
#
# 1 37.3405 27.1749 8.4872 0.0000 0.9394 0.0000
# 2 27.1749 119.4619 35.0602 0.0000 13.8900 0.0000
# 3 8.4872 35.0602 72.0001 0.0000 5.5719 0.0000
# 4 0.0000 0.0000 0.0000 31.6058 0.0000 -3.2500
# 5 0.9394 13.8900 5.5719 0.0000 19.2693 0.0000
# 6 0.0000 0.0000 0.0000 -3.2500 0.0000 6.6689
#
#
#
# Elastic Compliance Matrix: (Units=1/GPa)
#
#
# Indices 1 2 3 4 5 6 
#
# 1 0.032392 -0.007738 -0.000368 0.000000 0.004105 0.000000
# 2 -0.007738 0.012291 -0.004518 0.000000 -0.007176 0.000000
# 3 -0.000368 -0.004518 0.016242 0.000000 -0.001422 0.000000
# 4 0.000000 0.000000 0.000000 0.033309 0.000000 0.016233
# 5 0.004105 -0.007176 -0.001422 0.000000 0.057280 0.000000
# 6 0.000000 0.000000 0.000000 0.016233 0.000000 0.157860
#
#
# Mechanical properties :
#
#
# Convention : Reuss Voigt Hill
#
# Bulk Modulus (GPa) = 28.02809 41.13857 34.58333
# Shear Modulus (GPa) = 14.42938 22.04748 18.23843
#
# Velocity S-wave (km/s) = 2.87335 3.55176 3.23041
# Velocity P-wave (km/s) = 5.20049 6.35283 5.80532
#
# Compressibility (1/GPa) = 0.03567849
#
# Stress axis : x y z
#
# Youngs Moduli (GPa) = 30.87169 81.35824 61.56793
#
# Poissons Ratio (x) = 0.62953 0.02267
# Poissons Ratio (y) = 0.23888 0.27815
# Poissons Ratio (z) = 0.01137 0.36756
#
# Static dielectric constant tensor:
#      x y z
#    x 1.614880 0.000000 0.029340 
#    y 0.000000 1.572930 0.000000 
#    z 0.029340 0.000000 1.624550 
# 
# From -- ./inp_files/85209.got.cif
#   From: 2010.05.17/outbox.cif.g08.bks.cpg/sg13_43_cif.got.tgz:85209.got - 2010.06.03 16:44:36.
