data_PCOD9226667
_publ_section_title
;
Structure prediction by ZEFSAII (Michael W. Deem and Ramdas Pophale) SiO2 
 PCOD9226667
Probable space group: P 2/C
;
_chemical_formula_sum "Si O2"
_cell_formula_units_Z 24
_cell_length_a 16.985503
_cell_length_b 8.770201
_cell_length_c 16.942639
_cell_angle_alpha 90.000000
_cell_angle_beta 151.228390
_cell_angle_gamma 90.000000
_cell_volume 1214.793302
_symmetry_space_group_name_H-M "P 2/C"
_symmetry_group_IT_number 13
_symmetry_cell_setting 'monoclinic'
loop_
_space_group_symop_operation_xyz
x,y,z
-x,y,1/2-z
-x,-y,-z
x,-y,1/2+z
loop_
_atom_site_type_symbol
_atom_site_label
_atom_site_fract_x
_atom_site_fract_y
_atom_site_fract_z
Si Si1 0.513716 0.299923 0.351372
Si Si2 0.631594 0.539798 0.183926
Si Si3 0.345888 0.097972 0.336933
Si Si4 0.130299 0.345706 0.201044
Si Si5 0.888786 0.345795 0.727786
Si Si6 0.147335 0.192951 0.639401
O O1 0.500000 0.249982 0.250000
O O2 0.438879 0.469140 0.298664
O O3 0.410069 0.193661 0.318701
O O4 0.701220 0.307309 0.542584
O O5 0.797368 0.449773 0.306608
O O6 0.683559 0.713369 0.225181
O O7 0.500000 0.500000 0.000000
O O8 0.272198 0.218354 0.335601
O O9 0.500000 0.000000 0.500000
O O10 0.199183 0.982479 0.186046
O O11 0.100632 0.473563 0.241082
O O12 0.972967 0.253771 0.033879
O O13 0.923625 0.248358 0.837950
O O14 0.000000 0.311691 0.750000
#
# Coordination Sequence:
#
# PCOD9226667 Si02
#       6
#     4   4   4   4   4   4
#     4  11  24  39  62  93 123 158 210 264 313 368
#     4  10  17  37  63  87 115 158 207 249 294 362
#     4  11  22  42  65  87 123 170 213 249 304 380
#     4  10  22  37  61  91 120 156 209 248 305 369
#     4  11  23  39  60  92 127 156 199 263 322 355
#     4  11  21  39  65  92 119 165 206 254 300 380
#
# _framework density 19.756447999999999
#
# number of rings (size 3 to 8) (size 9 to 14) (size 15 to 20)
#    0.000    1.333    5.000    3.500    7.000    0.000 
#    0.000    3.333    0.000    0.000    0.000    0.000 
#    0.000    0.000    0.000    0.000    0.000    0.000 
#
# Total GULP energy -133885.720117 kJ/mol
# GULP energy per Si atom -5578.571672 kJ/mol
# Density = 1.971148 g / cm^3
# Si number density = 19.756448 Si / 1000 Ang^3
#
#
#
# Elastic Constant Matrix: (Units=GPa)
#
#
# Indices 1 2 3 4 5 6 
#
# 1 103.3188 29.2944 15.4777 0.0000 4.3843 0.0000
# 2 29.2944 99.2584 19.1506 0.0000 5.2784 0.0000
# 3 15.4777 19.1506 76.3632 0.0000 4.4359 0.0000
# 4 0.0000 0.0000 0.0000 36.1962 0.0000 6.9913
# 5 4.3843 5.2784 4.4359 0.0000 25.6838 0.0000
# 6 0.0000 0.0000 0.0000 6.9913 0.0000 23.4987
#
#
#
# Elastic Compliance Matrix: (Units=1/GPa)
#
#
# Indices 1 2 3 4 5 6 
#
# 1 0.010738 -0.002845 -0.001405 0.000000 -0.001006 0.000000
# 2 -0.002845 0.011418 -0.002201 0.000000 -0.001481 0.000000
# 3 -0.001405 -0.002201 0.014033 0.000000 -0.001732 0.000000
# 4 0.000000 0.000000 0.000000 0.029312 0.000000 -0.008721
# 5 -0.001006 -0.001481 -0.001732 0.000000 0.039710 0.000000
# 6 0.000000 0.000000 0.000000 -0.008721 0.000000 0.045150
#
#
# Mechanical properties :
#
#
# Convention : Reuss Voigt Hill
#
# Bulk Modulus (GPa) = 42.94010 45.19841 44.06926
# Shear Modulus (GPa) = 29.23570 31.41024 30.32297
#
# Velocity S-wave (km/s) = 3.85100 3.99165 3.92195
# Velocity P-wave (km/s) = 6.44635 6.64619 6.54703
#
# Compressibility (1/GPa) = 0.02328826
#
# Stress axis : x y z
#
# Youngs Moduli (GPa) = 93.12308 87.58372 71.26304
#
# Poissons Ratio (x) = 0.24916 0.10010
# Poissons Ratio (y) = 0.26491 0.15683
# Poissons Ratio (z) = 0.13081 0.19275
#
# Static dielectric constant tensor:
#      x y z
#    x 1.677510 0.000000 0.013910 
#    y 0.000000 1.777130 0.000000 
#    z 0.013910 0.000000 1.756280 
# 
# From -- ./inp_files/69531.got.cif
#   From: 2010.05.17/outbox.cif.g08.bks.cpg/sg13_35_cif.got.tgz:69531.got - 2010.06.03 16:44:36.
