data_PCOD9226764
_publ_section_title
;
Structure prediction by ZEFSAII (Michael W. Deem and Ramdas Pophale) SiO2 
 PCOD9226764
Probable space group: P 2/C
;
_chemical_formula_sum "Si O2"
_cell_formula_units_Z 26
_cell_length_a 5.581582
_cell_length_b 12.026156
_cell_length_c 20.506456
_cell_angle_alpha 90.000000
_cell_angle_beta 79.315146
_cell_angle_gamma 90.000000
_cell_volume 1352.629471
_symmetry_space_group_name_H-M "P 2/C"
_symmetry_group_IT_number 13
_symmetry_cell_setting 'monoclinic'
loop_
_space_group_symop_operation_xyz
x,y,z
-x,y,1/2-z
-x,-y,-z
x,-y,1/2+z
loop_
_atom_site_type_symbol
_atom_site_label
_atom_site_fract_x
_atom_site_fract_y
_atom_site_fract_z
Si Si1 0.706743 0.114492 0.534663
Si Si2 0.224501 0.247339 0.289649
Si Si3 0.876010 0.276014 0.641793
Si Si4 0.777666 0.509640 0.209919
Si Si5 0.500000 0.847909 0.250000
Si Si6 0.044969 0.080907 0.403530
Si Si7 0.741779 0.891761 0.364735
O O1 0.802649 0.210966 0.579278
O O2 0.823835 0.129366 0.458239
O O3 0.419773 0.110958 0.561963
O O4 0.792050 0.993939 0.556835
O O5 0.500000 0.225685 0.250000
O O6 0.210615 0.378847 0.306166
O O7 0.000000 0.224846 0.250000
O O8 0.178754 0.173594 0.355663
O O9 0.833389 0.406779 0.647476
O O10 0.709534 0.227136 0.708192
O O11 0.143206 0.230633 0.645547
O O12 0.500000 0.529731 0.250000
O O13 0.000000 0.531679 0.250000
O O14 0.592150 0.916051 0.307233
O O15 0.941158 0.986552 0.360648
#
# Coordination Sequence:
#
# PCOD9226764 Si02
#       7
#     4   4   4   4   2   4   4
#     4   9  21  37  57  83 110 156 196 231 297 350
#     4  10  24  42  61  89 114 157 200 240 292 346
#     4  10  19  33  54  85 114 144 189 242 290 346
#     4  10  20  37  61  84 119 154 192 240 300 348
#     4  10  18  30  48  82 116 144 182 240 292 342
#     4  10  21  40  57  77 118 156 193 241 284 352
#     4  10  20  32  52  83 115 150 191 233 296 348
#
# _framework density 19.221819
#
# number of rings (size 3 to 8) (size 9 to 14) (size 15 to 20)
#    0.000    2.154    0.769    1.846    4.308    3.692 
#    5.538    0.769    0.000    0.923    0.000    0.000 
#    0.000    0.000    0.000    0.000    0.000    0.000 
#
# Total GULP energy -144948.435134 kJ/mol
# GULP energy per Si atom -5574.939813 kJ/mol
# Density = 1.917807 g / cm^3
# Si number density = 19.221819 Si / 1000 Ang^3
#
#
#
# Elastic Constant Matrix: (Units=GPa)
#
#
# Indices 1 2 3 4 5 6 
#
# 1 81.9953 28.8453 26.8100 0.0000 -12.9137 0.0000
# 2 28.8453 94.8524 54.8328 0.0000 -8.1083 0.0000
# 3 26.8100 54.8328 93.5998 0.0000 -16.7359 0.0000
# 4 0.0000 0.0000 0.0000 20.8539 0.0000 -4.9507
# 5 -12.9137 -8.1083 -16.7359 0.0000 33.0384 0.0000
# 6 0.0000 0.0000 0.0000 -4.9507 0.0000 12.2144
#
#
#
# Elastic Compliance Matrix: (Units=1/GPa)
#
#
# Indices 1 2 3 4 5 6 
#
# 1 0.014457 -0.003139 -0.001572 0.000000 0.004084 0.000000
# 2 -0.003139 0.016647 -0.009173 0.000000 -0.001788 0.000000
# 3 -0.001572 -0.009173 0.017588 0.000000 0.006044 0.000000
# 4 0.000000 0.000000 0.000000 0.053058 0.000000 0.021505
# 5 0.004084 -0.001788 0.006044 0.000000 0.034487 0.000000
# 6 0.000000 0.000000 0.000000 0.021505 0.000000 0.090587
#
#
# Mechanical properties :
#
#
# Convention : Reuss Voigt Hill
#
# Bulk Modulus (GPa) = 47.78843 54.60264 51.19553
# Shear Modulus (GPa) = 19.11553 23.88529 21.50041
#
# Velocity S-wave (km/s) = 3.15694 3.52890 3.34809
# Velocity P-wave (km/s) = 6.18093 6.71360 6.45276
#
# Compressibility (1/GPa) = 0.02092557
#
# Stress axis : x y z
#
# Youngs Moduli (GPa) = 69.16955 60.07070 56.85556
#
# Poissons Ratio (x) = 0.18854 0.08938
# Poissons Ratio (y) = 0.21710 0.52153
# Poissons Ratio (z) = 0.10874 0.55102
#
# Static dielectric constant tensor:
#      x y z
#    x 1.768560 0.000000 -0.005180 
#    y 0.000000 1.670650 0.000000 
#    z -0.005180 0.000000 1.679780 
# 
# From -- ./inp_files/73515.got.cif
#   From: 2010.05.17/outbox.cif.g08.bks.cpg/sg13_37_cif.got.tgz:73515.got - 2010.06.03 16:44:36.
