data_PCOD9226919
_publ_section_title
;
Structure prediction by ZEFSAII (Michael W. Deem and Ramdas Pophale) SiO2 
 PCOD9226919
Probable space group: P 2/C
;
_chemical_formula_sum "Si O2"
_cell_formula_units_Z 20
_cell_length_a 9.286839
_cell_length_b 15.060522
_cell_length_c 14.783843
_cell_angle_alpha 90.000000
_cell_angle_beta 153.472328
_cell_angle_gamma 90.000000
_cell_volume 923.513312
_symmetry_space_group_name_H-M "P 2/C"
_symmetry_group_IT_number 13
_symmetry_cell_setting 'monoclinic'
loop_
_space_group_symop_operation_xyz
x,y,z
-x,y,1/2-z
-x,-y,-z
x,-y,1/2+z
loop_
_atom_site_type_symbol
_atom_site_label
_atom_site_fract_x
_atom_site_fract_y
_atom_site_fract_z
Si Si1 0.374551 0.900130 0.936332
Si Si2 0.696996 0.781078 0.270537
Si Si3 0.586982 0.407730 0.929358
Si Si4 0.692213 0.405364 0.205643
Si Si5 0.728212 0.232967 0.514605
O O1 0.000000 0.899189 0.750000
O O2 0.543341 0.847032 0.111682
O O3 0.484526 0.843357 0.910912
O O4 0.500000 0.000000 0.000000
O O5 0.500000 0.799884 0.250000
O O6 0.077208 0.791114 0.466820
O O7 0.627016 0.678036 0.208683
O O8 0.649990 0.409851 0.072710
O O9 0.925283 0.394295 0.067876
O O10 0.426571 0.502222 0.819144
O O11 0.470278 0.323388 0.109123
O O12 0.000000 0.243683 0.750000
#
# Coordination Sequence:
#
# PCOD9226919 Si02
#       5
#     4   4   4   4   4
#     4  11  22  42  68  93 117 153 205 245 288 362
#     4  11  23  40  60  92 128 156 191 252 312 351
#     4  10  19  31  54  85 121 156 206 250 289 346
#     4  10  18  31  56  85 114 161 213 249 280 342
#     4  10  19  35  58  85 119 159 203 242 289 355
#
# _framework density 21.656427999999998
#
# number of rings (size 3 to 8) (size 9 to 14) (size 15 to 20)
#    0.000    1.600    4.000    4.200    2.800    0.000 
#    0.000   12.000    0.000    0.000    0.000    0.000 
#    0.000    0.000    0.000    0.000    0.000    0.000 
#
# Total GULP energy -111758.444602 kJ/mol
# GULP energy per Si atom -5587.922230 kJ/mol
# Density = 2.160714 g / cm^3
# Si number density = 21.656428 Si / 1000 Ang^3
#
#
#
# Elastic Constant Matrix: (Units=GPa)
#
#
# Indices 1 2 3 4 5 6 
#
# 1 134.6537 56.1159 45.5390 0.0000 44.6043 0.0000
# 2 56.1159 176.7991 57.5094 0.0000 29.3212 0.0000
# 3 45.5390 57.5094 86.5190 0.0000 55.2818 0.0000
# 4 0.0000 0.0000 0.0000 35.9555 0.0000 15.2513
# 5 44.6043 29.3212 55.2818 0.0000 52.7951 0.0000
# 6 0.0000 0.0000 0.0000 15.2513 0.0000 27.3862
#
#
#
# Elastic Compliance Matrix: (Units=1/GPa)
#
#
# Indices 1 2 3 4 5 6 
#
# 1 0.011217 -0.002687 0.002972 0.000000 -0.011097 0.000000
# 2 -0.002687 0.008028 -0.007625 0.000000 0.005796 0.000000
# 3 0.002972 -0.007625 0.042184 0.000000 -0.042447 0.000000
# 4 0.000000 0.000000 0.000000 0.036414 0.000000 -0.020279
# 5 -0.011097 0.005796 -0.042447 0.000000 0.069544 0.000000
# 6 0.000000 0.000000 0.000000 -0.020279 0.000000 0.047808
#
#
# Mechanical properties :
#
#
# Convention : Reuss Voigt Hill
#
# Bulk Modulus (GPa) = 21.39076 79.58894 50.48985
# Shear Modulus (GPa) = 20.37013 39.14787 29.75900
#
# Velocity S-wave (km/s) = 3.07025 4.25629 3.71096
# Velocity P-wave (km/s) = 4.73998 7.80930 6.45959
#
# Compressibility (1/GPa) = 0.04674915
#
# Stress axis : x y z
#
# Youngs Moduli (GPa) = 89.15290 124.56261 23.70545
#
# Poissons Ratio (x) = 0.33466 -0.07046
# Poissons Ratio (y) = 0.23952 0.18077
# Poissons Ratio (z) = -0.26497 0.94985
#
# Static dielectric constant tensor:
#      x y z
#    x 1.868690 0.000000 -0.010880 
#    y 0.000000 1.717210 0.000000 
#    z -0.010880 0.000000 1.818040 
# 
# From -- ./inp_files/64573.got.cif
#   From: 2010.05.17/outbox.cif.g08.bks.cpg/sg13_33_cif.got.tgz:64573.got - 2010.06.03 16:44:36.
