data_PCOD9226801
_publ_section_title
;
Structure prediction by ZEFSAII (Michael W. Deem and Ramdas Pophale) SiO2 
 PCOD9226801
Probable space group: P 2/C
;
_chemical_formula_sum "Si O2"
_cell_formula_units_Z 18
_cell_length_a 12.491383
_cell_length_b 9.241407
_cell_length_c 9.769838
_cell_angle_alpha 90.000000
_cell_angle_beta 128.856907
_cell_angle_gamma 90.000000
_cell_volume 878.242910
_symmetry_space_group_name_H-M "P 2/C"
_symmetry_group_IT_number 13
_symmetry_cell_setting 'monoclinic'
loop_
_space_group_symop_operation_xyz
x,y,z
-x,y,1/2-z
-x,-y,-z
x,-y,1/2+z
loop_
_atom_site_type_symbol
_atom_site_label
_atom_site_fract_x
_atom_site_fract_y
_atom_site_fract_z
Si Si1 0.500000 0.129938 0.250000
Si Si2 0.190553 0.919343 0.540342
Si Si3 0.130805 0.333240 0.779422
Si Si4 0.014770 0.787732 0.915438
Si Si5 0.571045 0.586716 0.941364
O O1 0.644731 0.055522 0.329443
O O2 0.466238 0.242412 0.099026
O O3 0.156052 0.820278 0.379624
O O4 0.128572 0.831576 0.622014
O O5 0.105110 0.066435 0.469677
O O6 0.094667 0.308000 0.592215
O O7 0.000000 0.397815 0.750000
O O8 0.266669 0.423394 0.915693
O O9 0.000000 0.729560 0.750000
O O10 0.500000 0.525455 0.750000
O O11 0.500000 0.500000 0.000000
#
# Coordination Sequence:
#
# PCOD9226801 Si02
#       5
#     2   4   4   4   4
#     4   8  18  34  58  72 106 148 180 204 284 330
#     4   9  16  32  54  75 111 151 177 208 264 327
#     4   9  18  35  58  78 108 150 177 209 274 329
#     4  10  18  30  51  85 112 140 183 219 250 307
#     4   9  19  39  60  77 103 138 179 232 284 315
#
# _framework density 20.495467999999999
#
# number of rings (size 3 to 8) (size 9 to 14) (size 15 to 20)
#    0.667    2.222    0.000    3.333    0.000    0.000 
#    4.000   11.111    0.000    0.000    0.000    0.000 
#    0.000    0.000    0.000    0.000    0.000    0.000 
#
# Total GULP energy -100247.157582 kJ/mol
# GULP energy per Si atom -5569.286532 kJ/mol
# Density = 2.044882 g / cm^3
# Si number density = 20.495468 Si / 1000 Ang^3
#
#
#
# Elastic Constant Matrix: (Units=GPa)
#
#
# Indices 1 2 3 4 5 6 
#
# 1 163.3207 34.4077 105.4938 0.0000 32.2125 0.0000
# 2 34.4077 32.0988 23.8312 0.0000 -0.1920 0.0000
# 3 105.4938 23.8312 170.4325 0.0000 -15.1556 0.0000
# 4 0.0000 0.0000 0.0000 -122.6287 0.0000 -44.6659
# 5 32.2125 -0.1920 -15.1556 0.0000 51.3592 0.0000
# 6 0.0000 0.0000 0.0000 -44.6659 0.0000 2.4969
#
#
#
# Elastic Compliance Matrix: (Units=1/GPa)
#
#
# Indices 1 2 3 4 5 6 
#
# 1 0.019205 -0.012084 -0.011577 0.000000 -0.015507 0.000000
# 2 -0.012084 0.042456 0.002292 0.000000 0.008414 0.000000
# 3 -0.011577 0.002292 0.013719 0.000000 0.011318 0.000000
# 4 0.000000 0.000000 0.000000 -0.001085 0.000000 -0.019410
# 5 -0.015507 0.008414 0.011318 0.000000 0.032568 0.000000
# 6 0.000000 0.000000 0.000000 -0.019410 0.000000 0.053288
#
#
# Mechanical properties :
#
#
# Convention : Reuss Voigt Hill
#
# Bulk Modulus (GPa) = 30.63572 77.03527 53.83549
# Shear Modulus (GPa) = 23.38957 -0.27990 11.55484
#
# Velocity S-wave (km/s) = 3.38184 -0.36995 2.37697
# Velocity P-wave (km/s) = 5.49810 6.12255 5.81871
#
# Compressibility (1/GPa) = 0.03264164
#
# Stress axis : x y z
#
# Youngs Moduli (GPa) = 52.06990 23.55363 72.89107
#
# Poissons Ratio (x) = 0.28463 0.84383
# Poissons Ratio (y) = 0.62923 -0.16704
# Poissons Ratio (z) = 0.60279 -0.05397
#
# Static dielectric constant tensor:
#      x y z
#    x 1.689930 0.000000 -0.001160 
#    y 0.000000 1.736710 0.000000 
#    z -0.001160 0.000000 1.735540 
# 
# From -- ./inp_files/15647.got.cif
#   From: 2010.05.17/outbox.cif.g08.bks.cpg/sg13_8_cif.got.tgz:15647.got - 2010.06.03 16:44:36.
