data_PCOD9226165
_publ_section_title
;
Structure prediction by ZEFSAII (Michael W. Deem and Ramdas Pophale) SiO2 
 PCOD9226165
Probable space group: P 2/C
;
_chemical_formula_sum "Si O2"
_cell_formula_units_Z 30
_cell_length_a 8.485547
_cell_length_b 10.311052
_cell_length_c 30.857128
_cell_angle_alpha 90.000000
_cell_angle_beta 148.455551
_cell_angle_gamma 90.000000
_cell_volume 1412.448902
_symmetry_space_group_name_H-M "P 2/C"
_symmetry_group_IT_number 13
_symmetry_cell_setting 'monoclinic'
loop_
_space_group_symop_operation_xyz
x,y,z
-x,y,1/2-z
-x,-y,-z
x,-y,1/2+z
loop_
_atom_site_type_symbol
_atom_site_label
_atom_site_fract_x
_atom_site_fract_y
_atom_site_fract_z
Si Si1 0.899204 0.639535 0.115597
Si Si2 0.765000 0.998903 0.156493
Si Si3 0.122042 0.910096 0.490895
Si Si4 0.789343 0.623377 0.996202
Si Si5 0.500000 0.463694 0.250000
Si Si6 0.367516 0.532065 0.625935
Si Si7 0.328261 0.703482 0.347113
Si Si8 0.142624 0.070076 0.663343
O O1 0.702868 0.635240 0.113141
O O2 0.185378 0.543624 0.180127
O O3 0.061697 0.779240 0.152286
O O4 0.696740 0.630758 0.024676
O O5 0.611042 0.856400 0.130309
O O6 0.000000 0.028422 0.250000
O O7 0.966068 0.997764 0.160605
O O8 0.482260 0.089393 0.080510
O O9 0.035987 0.758658 0.471959
O O10 0.997202 0.963495 0.416073
O O11 0.000000 0.000000 0.500000
O O12 0.573694 0.609192 0.904471
O O13 0.012300 0.499230 0.046983
O O14 0.525913 0.403693 0.304326
O O15 0.504701 0.389851 0.647846
O O16 0.000000 0.710011 0.250000
O O17 0.500000 0.050195 0.750000
#
# Coordination Sequence:
#
# PCOD9226165 Si02
#       8
#     4   4   4   4   2   4   4   4
#     4   9  17  29  51  81 105 136 170 224 280 320
#     4  10  21  34  55  83 116 147 188 235 276 335
#     4  11  21  36  58  81 112 154 190 228 283 336
#     4   9  21  35  52  76 110 143 180 224 277 332
#     4  10  16  28  54  72 104 136 176 216 270 326
#     4  10  19  34  53  78 107 139 179 229 278 329
#     4  10  18  30  53  85 107 131 183 234 271 319
#     4  10  19  33  56  85 113 139 185 239 285 326
#
# _framework density 21.239706999999999
#
# number of rings (size 3 to 8) (size 9 to 14) (size 15 to 20)
#    0.000    2.133    2.000    2.000    0.000    0.533 
#    0.000    0.667    4.400    0.000    0.000    0.000 
#    0.000    0.000    0.000    0.000    0.000    0.000 
#
# Total GULP energy -167043.542114 kJ/mol
# GULP energy per Si atom -5568.118070 kJ/mol
# Density = 2.119136 g / cm^3
# Si number density = 21.239707 Si / 1000 Ang^3
#
#
#
# Elastic Constant Matrix: (Units=GPa)
#
#
# Indices 1 2 3 4 5 6 
#
# 1 62.8397 11.6970 53.3627 0.0000 -25.6472 0.0000
# 2 11.6970 20.0462 12.8171 0.0000 -5.8209 0.0000
# 3 53.3627 12.8171 121.0846 0.0000 -36.9251 0.0000
# 4 0.0000 0.0000 0.0000 51.4858 0.0000 -1.9218
# 5 -25.6472 -5.8209 -36.9251 0.0000 54.2882 0.0000
# 6 0.0000 0.0000 0.0000 -1.9218 0.0000 13.9252
#
#
#
# Elastic Compliance Matrix: (Units=1/GPa)
#
#
# Indices 1 2 3 4 5 6 
#
# 1 0.028109 -0.008509 -0.009735 0.000000 0.005746 0.000000
# 2 -0.008509 0.056326 -0.002014 0.000000 0.000650 0.000000
# 3 -0.009735 -0.002014 0.014249 0.000000 0.004877 0.000000
# 4 0.000000 0.000000 0.000000 0.019523 0.000000 0.002694
# 5 0.005746 0.000650 0.004877 0.000000 0.024521 0.000000
# 6 0.000000 0.000000 0.000000 0.002694 0.000000 0.072184
#
#
# Mechanical properties :
#
#
# Convention : Reuss Voigt Hill
#
# Bulk Modulus (GPa) = 17.19146 39.96934 28.58040
# Shear Modulus (GPa) = 18.19374 32.34611 25.26992
#
# Velocity S-wave (km/s) = 2.92993 3.90668 3.45302
# Velocity P-wave (km/s) = 4.42240 6.26168 5.42062
#
# Compressibility (1/GPa) = 0.05816841
#
# Stress axis : x y z
#
# Youngs Moduli (GPa) = 35.57542 17.75369 70.17837
#
# Poissons Ratio (x) = 0.15107 0.68319
# Poissons Ratio (y) = 0.30271 0.14135
# Poissons Ratio (z) = 0.34633 0.03576
#
# Static dielectric constant tensor:
#      x y z
#    x 1.714590 0.000000 0.000990 
#    y 0.000000 1.816420 0.000000 
#    z 0.000990 0.000000 1.787980 
# 
# From -- ./inp_files/96096.got.cif
#   From: 2010.05.17/outbox.cif.g08.bks.cpg/sg13_49_cif.got.tgz:96096.got - 2010.06.03 16:44:36.
