data_PCOD9226283
_publ_section_title
;
Structure prediction by ZEFSAII (Michael W. Deem and Ramdas Pophale) SiO2 
 PCOD9226283
Probable space group: P 2/C
;
_chemical_formula_sum "Si O2"
_cell_formula_units_Z 18
_cell_length_a 11.588800
_cell_length_b 13.282203
_cell_length_c 5.185407
_cell_angle_alpha 90.000000
_cell_angle_beta 84.943857
_cell_angle_gamma 90.000000
_cell_volume 795.056908
_symmetry_space_group_name_H-M "P 2/C"
_symmetry_group_IT_number 13
_symmetry_cell_setting 'monoclinic'
loop_
_space_group_symop_operation_xyz
x,y,z
-x,y,1/2-z
-x,-y,-z
x,-y,1/2+z
loop_
_atom_site_type_symbol
_atom_site_label
_atom_site_fract_x
_atom_site_fract_y
_atom_site_fract_z
Si Si1 0.244342 0.059852 0.653009
Si Si2 0.052719 0.614051 0.989841
Si Si3 0.573200 0.220969 0.994228
Si Si4 0.000000 0.000000 0.000000
Si Si5 0.323822 0.434425 0.417785
O O1 0.307232 0.161335 0.566222
O O2 0.104203 0.057455 0.673017
O O3 0.277600 0.022127 0.929630
O O4 0.189678 0.600322 0.961218
O O5 0.000000 0.664044 0.750000
O O6 0.000000 0.665105 0.250000
O O7 0.000000 0.500000 0.000000
O O8 0.500000 0.209392 0.750000
O O9 0.500000 0.180188 0.250000
O O10 0.600641 0.337059 0.041075
O O11 0.000000 0.080711 0.250000
O O12 0.343777 0.517574 0.634283
#
# Coordination Sequence:
#
# PCOD9226283 Si02
#       5
#     4   4   4   2   4
#     4  10  21  42  72  96 131 166 210 268 339 396
#     4  10  16  32  58  86 117 155 203 272 318 388
#     4  12  28  45  62  97 133 171 233 271 318 395
#     4   8  16  34  64  94 130 154 196 256 324 396
#     4  12  23  40  66  89 130 179 225 270 320 380
#
# _framework density 22.639889
#
# number of rings (size 3 to 8) (size 9 to 14) (size 15 to 20)
#    0.000    1.333    4.444    2.667    0.000    5.333 
#    0.000    6.667    0.000    0.000    0.000    0.000 
#    0.000    0.000    0.000    0.000    0.000    0.000 
#
# Total GULP energy -100207.453762 kJ/mol
# GULP energy per Si atom -5567.080765 kJ/mol
# Density = 2.258836 g / cm^3
# Si number density = 22.639889 Si / 1000 Ang^3
#
#
#
# Elastic Constant Matrix: (Units=GPa)
#
#
# Indices 1 2 3 4 5 6 
#
# 1 104.8530 42.4696 9.2607 0.0000 -5.7414 0.0000
# 2 42.4696 52.3757 -2.8739 0.0000 -5.1320 0.0000
# 3 9.2607 -2.8739 97.8860 0.0000 20.5567 0.0000
# 4 0.0000 0.0000 0.0000 -3.8946 0.0000 22.4396
# 5 -5.7414 -5.1320 20.5567 0.0000 29.9156 0.0000
# 6 0.0000 0.0000 0.0000 22.4396 0.0000 -36.3674
#
#
#
# Elastic Compliance Matrix: (Units=1/GPa)
#
#
# Indices 1 2 3 4 5 6 
#
# 1 0.014617 -0.011748 -0.002213 0.000000 0.002311 0.000000
# 2 -0.011748 0.028863 0.001627 0.000000 0.001579 0.000000
# 3 -0.002213 0.001627 0.012275 0.000000 -0.008580 0.000000
# 4 0.000000 0.000000 0.000000 0.100491 0.000000 0.062005
# 5 0.002311 0.001579 -0.008580 0.000000 0.040038 0.000000
# 6 0.000000 0.000000 0.000000 0.062005 0.000000 0.010762
#
#
# Mechanical properties :
#
#
# Convention : Reuss Voigt Hill
#
# Bulk Modulus (GPa) = 32.16672 39.20306 35.68489
# Shear Modulus (GPa) = 20.65474 11.68127 16.16801
#
# Velocity S-wave (km/s) = 3.02373 2.27394 2.67524
# Velocity P-wave (km/s) = 5.14096 4.92422 5.03375
#
# Compressibility (1/GPa) = 0.03108803
#
# Stress axis : x y z
#
# Youngs Moduli (GPa) = 68.41119 34.64679 81.46592
#
# Poissons Ratio (x) = 0.40702 0.18029
# Poissons Ratio (y) = 0.80368 -0.13257
# Poissons Ratio (z) = 0.15140 -0.05638
#
# Static dielectric constant tensor:
#      x y z
#    x 1.499740 0.000000 0.322190 
#    y 0.000000 1.694660 0.000000 
#    z 0.322190 0.000000 1.429170 
# 
# From -- ./inp_files/3040.got.cif
#   From: 2010.05.17/outbox.cif.g08.bks.cpg/sg13_2_cif.got.tgz:3040.got - 2010.06.03 16:44:36.
