data_PCOD9226500
_publ_section_title
;
Structure prediction by ZEFSAII (Michael W. Deem and Ramdas Pophale) SiO2 
 PCOD9226500
Probable space group: P 2/C
;
_chemical_formula_sum "Si O2"
_cell_formula_units_Z 28
_cell_length_a 8.108858
_cell_length_b 8.588045
_cell_length_c 27.490661
_cell_angle_alpha 90.000000
_cell_angle_beta 139.756312
_cell_angle_gamma 90.000000
_cell_volume 1236.797294
_symmetry_space_group_name_H-M "P 2/C"
_symmetry_group_IT_number 13
_symmetry_cell_setting 'monoclinic'
loop_
_space_group_symop_operation_xyz
x,y,z
-x,y,1/2-z
-x,-y,-z
x,-y,1/2+z
loop_
_atom_site_type_symbol
_atom_site_label
_atom_site_fract_x
_atom_site_fract_y
_atom_site_fract_z
Si Si1 0.386660 0.323096 0.516313
Si Si2 0.874630 0.913404 0.657185
Si Si3 0.798961 0.433670 0.123523
Si Si4 0.239671 0.346142 0.711877
Si Si5 0.152960 0.858406 0.434743
Si Si6 0.657600 0.034690 0.933671
Si Si7 0.580277 0.973526 0.212839
O O1 0.200820 0.400621 0.435006
O O2 0.552814 0.460119 0.577961
O O3 0.593442 0.226443 0.529849
O O4 0.273114 0.203787 0.529764
O O5 0.793800 0.736129 0.644766
O O6 0.649643 0.020448 0.627470
O O7 0.881611 0.981116 0.603424
O O8 0.162528 0.931702 0.740260
O O9 0.049896 0.531063 0.192496
O O10 0.500000 0.417313 0.750000
O O11 0.328427 0.206722 0.767073
O O12 0.076847 0.255045 0.633179
O O13 0.208925 0.905673 0.502682
O O14 0.658927 0.006199 0.876685
O O15 0.500000 0.007662 0.250000
#
# Coordination Sequence:
#
# PCOD9226500 Si02
#       7
#     4   4   4   4   4   4   4
#     4   9  17  30  56  94 116 137 176 240 300 332
#     4  10  18  33  57  92 116 143 184 241 287 334
#     4  10  17  30  58  86 119 141 177 229 292 339
#     4   9  20  37  54  76 114 163 187 215 280 351
#     4   9  16  32  59  85 112 141 186 241 284 325
#     4  11  18  35  61  88 113 143 194 246 283 329
#     4  10  23  40  55  76 116 162 197 232 283 336
#
# _framework density 22.639118
#
# number of rings (size 3 to 8) (size 9 to 14) (size 15 to 20)
#    0.000    2.286    2.857    2.143    0.000    0.571 
#    0.000    9.286    0.000    3.429    0.000    0.000 
#    0.000    0.000    0.000    0.000    0.000    0.000 
#
# Total GULP energy -156304.308412 kJ/mol
# GULP energy per Si atom -5582.296729 kJ/mol
# Density = 2.258759 g / cm^3
# Si number density = 22.639118 Si / 1000 Ang^3
#
#
#
# Elastic Constant Matrix: (Units=GPa)
#
#
# Indices 1 2 3 4 5 6 
#
# 1 41.6372 0.9529 19.2457 0.0000 -0.9687 0.0000
# 2 0.9529 77.3707 -0.8412 0.0000 -4.2464 0.0000
# 3 19.2457 -0.8412 101.3418 0.0000 -12.2020 0.0000
# 4 0.0000 0.0000 0.0000 34.0046 0.0000 1.1539
# 5 -0.9687 -4.2464 -12.2020 0.0000 37.9730 0.0000
# 6 0.0000 0.0000 0.0000 1.1539 0.0000 7.3834
#
#
#
# Elastic Compliance Matrix: (Units=1/GPa)
#
#
# Indices 1 2 3 4 5 6 
#
# 1 0.026377 -0.000437 -0.005137 0.000000 -0.001027 0.000000
# 2 -0.000437 0.013020 0.000380 0.000000 0.001567 0.000000
# 3 -0.005137 0.000380 0.011272 0.000000 0.003533 0.000000
# 4 0.000000 0.000000 0.000000 0.029565 0.000000 -0.004620
# 5 -0.001027 0.001567 0.003533 0.000000 0.027619 0.000000
# 6 0.000000 0.000000 0.000000 -0.004620 0.000000 0.136162
#
#
# Mechanical properties :
#
#
# Convention : Reuss Voigt Hill
#
# Bulk Modulus (GPa) = 24.82519 28.78493 26.80506
# Shear Modulus (GPa) = 18.66860 29.27169 23.97014
#
# Velocity S-wave (km/s) = 2.87473 3.59969 3.25744
# Velocity P-wave (km/s) = 4.69129 5.47899 5.10037
#
# Compressibility (1/GPa) = 0.04028167
#
# Stress axis : x y z
#
# Youngs Moduli (GPa) = 37.91133 76.80316 88.71816
#
# Poissons Ratio (x) = 0.03357 0.45570
# Poissons Ratio (y) = 0.01657 -0.03369
# Poissons Ratio (z) = 0.19473 -0.02917
#
# Static dielectric constant tensor:
#      x y z
#    x 1.946100 0.000000 -0.057410 
#    y 0.000000 1.814170 0.000000 
#    z -0.057410 0.000000 1.942640 
# 
# From -- ./inp_files/95967.got.cif
#   From: 2010.05.17/outbox.cif.g08.bks.cpg/sg13_48_cif.got.tgz:95967.got - 2010.06.03 16:44:36.
