data_PCOD9226562
_publ_section_title
;
Structure prediction by ZEFSAII (Michael W. Deem and Ramdas Pophale) SiO2 
 PCOD9226562
Probable space group: P 2/C
;
_chemical_formula_sum "Si O2"
_cell_formula_units_Z 26
_cell_length_a 8.960937
_cell_length_b 10.195744
_cell_length_c 17.577904
_cell_angle_alpha 90.000000
_cell_angle_beta 49.908972
_cell_angle_gamma 90.000000
_cell_volume 1228.608468
_symmetry_space_group_name_H-M "P 2/C"
_symmetry_group_IT_number 13
_symmetry_cell_setting 'monoclinic'
loop_
_space_group_symop_operation_xyz
x,y,z
-x,y,1/2-z
-x,-y,-z
x,-y,1/2+z
loop_
_atom_site_type_symbol
_atom_site_label
_atom_site_fract_x
_atom_site_fract_y
_atom_site_fract_z
Si Si1 0.058028 0.576678 0.568571
Si Si2 0.804415 0.306559 0.040233
Si Si3 0.350846 0.202054 0.965463
Si Si4 0.000000 0.348436 0.250000
Si Si5 0.408132 0.777359 0.624245
Si Si6 0.300505 0.056330 0.693589
Si Si7 0.899646 0.949472 0.409166
O O1 0.872843 0.664577 0.603430
O O2 0.061776 0.569819 0.657634
O O3 0.080031 0.428457 0.534698
O O4 0.238909 0.665643 0.481436
O O5 0.572777 0.314533 0.105067
O O6 0.862183 0.171744 0.978784
O O7 0.430588 0.218381 0.025595
O O8 0.193237 0.082568 0.024949
O O9 0.535844 0.167784 0.853131
O O10 0.184895 0.260907 0.209792
O O11 0.424831 0.922724 0.651635
O O12 0.205431 0.066295 0.639502
O O13 0.128084 0.048036 0.811499
#
# Coordination Sequence:
#
# PCOD9226562 Si02
#       7
#     4   4   4   2   4   4   4
#     4  10  25  41  60  86 126 159 211 251 311 363
#     4  11  22  42  60  87 126 170 191 259 322 367
#     4  10  18  37  59  89 120 163 204 259 296 372
#     4  10  22  40  62  92 114 158 212 260 286 386
#     4  10  18  37  64  88 125 159 204 247 318 363
#     4  10  17  32  61  96 120 161 204 260 299 374
#     4  10  19  34  61  90 126 156 212 251 310 364
#
# _framework density 21.162151999999999
#
# number of rings (size 3 to 8) (size 9 to 14) (size 15 to 20)
#    0.000    1.846    3.077    3.692    0.000    4.923 
#    2.769    0.769    0.000    0.000    0.000    0.000 
#    0.000    0.000    0.000    0.000    0.000    0.000 
#
# Total GULP energy -144986.329423 kJ/mol
# GULP energy per Si atom -5576.397286 kJ/mol
# Density = 2.111399 g / cm^3
# Si number density = 21.162152 Si / 1000 Ang^3
#
#
#
# Elastic Constant Matrix: (Units=GPa)
#
#
# Indices 1 2 3 4 5 6 
#
# 1 68.6540 25.1782 22.4983 0.0000 -19.2050 0.0000
# 2 25.1782 55.6602 3.5566 0.0000 9.7407 0.0000
# 3 22.4983 3.5566 57.5989 0.0000 -15.9827 0.0000
# 4 0.0000 0.0000 0.0000 -5.1178 0.0000 -0.5682
# 5 -19.2050 9.7407 -15.9827 0.0000 30.9298 0.0000
# 6 0.0000 0.0000 0.0000 -0.5682 0.0000 22.1060
#
#
#
# Elastic Compliance Matrix: (Units=1/GPa)
#
#
# Indices 1 2 3 4 5 6 
#
# 1 0.027010 -0.015349 -0.004211 0.000000 0.019429 0.000000
# 2 -0.015349 0.028293 -0.001014 0.000000 -0.018965 0.000000
# 3 -0.004211 -0.001014 0.021517 0.000000 0.008823 0.000000
# 4 0.000000 0.000000 0.000000 -0.194840 0.000000 -0.005008
# 5 0.019429 -0.018965 0.008823 0.000000 0.054927 0.000000
# 6 0.000000 0.000000 0.000000 -0.005008 0.000000 0.045108
#
#
# Mechanical properties :
#
#
# Convention : Reuss Voigt Hill
#
# Bulk Modulus (GPa) = 28.03353 31.59770 29.81561
# Shear Modulus (GPa) = 142.63429 18.29561 80.46495
#
# Velocity S-wave (km/s) = 8.21870 2.94350 6.17297
# Velocity P-wave (km/s) = 10.16555 5.14936 8.05774
#
# Compressibility (1/GPa) = 0.03567157
#
# Stress axis : x y z
#
# Youngs Moduli (GPa) = 37.02340 35.34424 46.47423
#
# Poissons Ratio (x) = 0.54250 0.19571
# Poissons Ratio (y) = 0.56828 0.04713
# Poissons Ratio (z) = 0.15591 0.03584
#
# Static dielectric constant tensor:
#      x y z
#    x 1.876540 0.000000 0.016550 
#    y 0.000000 1.771730 0.000000 
#    z 0.016550 0.000000 1.792960 
# 
# From -- ./inp_files/75631.got.cif
#   From: 2010.05.17/outbox.cif.g08.bks.cpg/sg13_38_cif.got.tgz:75631.got - 2010.06.03 16:44:36.
