data_PCOD9226727
_publ_section_title
;
Structure prediction by ZEFSAII (Michael W. Deem and Ramdas Pophale) SiO2 
 PCOD9226727
Probable space group: P 2/C
;
_chemical_formula_sum "Si O2"
_cell_formula_units_Z 28
_cell_length_a 22.361921
_cell_length_b 15.370767
_cell_length_c 24.970418
_cell_angle_alpha 90.000000
_cell_angle_beta 10.893378
_cell_angle_gamma 90.000000
_cell_volume 1621.999773
_symmetry_space_group_name_H-M "P 2/C"
_symmetry_group_IT_number 13
_symmetry_cell_setting 'monoclinic'
loop_
_space_group_symop_operation_xyz
x,y,z
-x,y,1/2-z
-x,-y,-z
x,-y,1/2+z
loop_
_atom_site_type_symbol
_atom_site_label
_atom_site_fract_x
_atom_site_fract_y
_atom_site_fract_z
Si Si1 0.514413 0.493904 0.896117
Si Si2 0.728858 0.344795 0.944728
Si Si3 0.144681 0.601978 0.809741
Si Si4 0.968364 0.221759 0.038503
Si Si5 0.637258 0.894349 0.436664
Si Si6 0.944232 0.257644 0.943244
Si Si7 0.317810 0.942416 0.225799
O O1 0.650140 0.559966 0.822278
O O2 0.802530 0.440727 0.618116
O O3 0.362536 0.555089 0.984824
O O4 0.289800 0.428834 0.126226
O O5 0.000000 0.333680 0.750000
O O6 0.869052 0.313308 0.764633
O O7 0.416152 0.290715 0.236967
O O8 0.118441 0.704478 0.843244
O O9 0.654001 0.170167 0.295149
O O10 0.079104 0.267068 0.885402
O O11 0.211182 0.148318 0.846090
O O12 0.596224 0.913245 0.409700
O O13 0.964742 0.841706 0.153861
O O14 0.578784 0.987850 0.515990
O O15 0.000000 0.000000 0.500000
#
# Coordination Sequence:
#
# PCOD9226727 Si02
#       7
#     4   4   4   4   4   4   4
#     4  10  21  33  47  71  94 133 173 207 268 296
#     4  12  24  38  52  70  99 138 183 222 260 310
#     4  10  20  30  51  70 101 130 166 212 249 325
#     4  10  18  29  50  73 107 138 170 205 254 318
#     4   9  16  29  47  69 107 136 170 194 241 313
#     4  11  20  33  52  72  97 136 180 207 259 301
#     4   8  16  26  43  73 102 144 161 190 241 300
#
# _framework density 17.262640999999999
#
# number of rings (size 3 to 8) (size 9 to 14) (size 15 to 20)
#    0.000    2.000    2.857    1.286    8.000    0.000 
#    0.000    0.000    0.000    0.000    0.000    0.000 
#    0.000    1.143   26.000    0.000    0.000    0.000 
#
# Total GULP energy -155898.035320 kJ/mol
# GULP energy per Si atom -5567.786976 kJ/mol
# Density = 1.722335 g / cm^3
# Si number density = 17.262641 Si / 1000 Ang^3
#
#
#
# Elastic Constant Matrix: (Units=GPa)
#
#
# Indices 1 2 3 4 5 6 
#
# 1 24.9003 27.0721 34.6974 0.0000 8.0063 0.0000
# 2 27.0721 126.2879 54.5421 0.0000 -2.2537 0.0000
# 3 34.6974 54.5421 105.9252 0.0000 13.6524 0.0000
# 4 0.0000 0.0000 0.0000 31.5636 0.0000 11.5334
# 5 8.0063 -2.2537 13.6524 0.0000 19.9255 0.0000
# 6 0.0000 0.0000 0.0000 11.5334 0.0000 13.6370
#
#
#
# Elastic Compliance Matrix: (Units=1/GPa)
#
#
# Indices 1 2 3 4 5 6 
#
# 1 0.086584 -0.010202 -0.020266 0.000000 -0.022059 0.000000
# 2 -0.010202 0.011902 -0.003826 0.000000 0.008067 0.000000
# 3 -0.020266 -0.003826 0.018708 0.000000 -0.005108 0.000000
# 4 0.000000 0.000000 0.000000 0.045852 0.000000 -0.038779
# 5 -0.022059 0.008067 -0.005108 0.000000 0.063463 0.000000
# 6 0.000000 0.000000 0.000000 -0.038779 0.000000 0.106127
#
#
# Mechanical properties :
#
#
# Convention : Reuss Voigt Hill
#
# Bulk Modulus (GPa) = 20.57383 54.41520 37.49451
# Shear Modulus (GPa) = 11.97820 22.41202 17.19511
#
# Velocity S-wave (km/s) = 2.63702 3.60710 3.15951
# Velocity P-wave (km/s) = 4.60606 6.99561 5.92260
#
# Compressibility (1/GPa) = 0.04860544
#
# Stress axis : x y z
#
# Youngs Moduli (GPa) = 11.54943 84.01987 53.45447
#
# Poissons Ratio (x) = 0.85718 1.08329
# Poissons Ratio (y) = 0.11783 0.20454
# Poissons Ratio (z) = 0.23406 0.32149
#
# Static dielectric constant tensor:
#      x y z
#    x 1.599570 0.000000 0.085290 
#    y 0.000000 1.718150 0.000000 
#    z 0.085290 0.000000 1.707890 
# 
# From -- ./inp_files/90509.got.cif
#   From: 2010.05.17/outbox.cif.g08.bks.cpg/sg13_46_cif.got.tgz:90509.got - 2010.06.03 16:44:36.
