data_PCOD9226360
_publ_section_title
;
Structure prediction by ZEFSAII (Michael W. Deem and Ramdas Pophale) SiO2 
 PCOD9226360
Probable space group: P 2/C
;
_chemical_formula_sum "Si O2"
_cell_formula_units_Z 20
_cell_length_a 5.602906
_cell_length_b 11.480506
_cell_length_c 11.605971
_cell_angle_alpha 90.000000
_cell_angle_beta 106.006591
_cell_angle_gamma 90.000000
_cell_volume 717.601199
_symmetry_space_group_name_H-M "P 2/C"
_symmetry_group_IT_number 13
_symmetry_cell_setting 'monoclinic'
loop_
_space_group_symop_operation_xyz
x,y,z
-x,y,1/2-z
-x,-y,-z
x,-y,1/2+z
loop_
_atom_site_type_symbol
_atom_site_label
_atom_site_fract_x
_atom_site_fract_y
_atom_site_fract_z
Si Si1 0.971656 0.294115 0.944271
Si Si2 0.199522 0.074827 0.881638
Si Si3 0.000000 0.448056 0.750000
Si Si4 0.701862 0.835346 0.678391
Si Si5 0.500000 0.219329 0.750000
Si Si6 0.668570 0.589931 0.593005
O O1 0.109568 0.371324 0.868401
O O2 0.717212 0.290299 0.836753
O O3 0.084290 0.163461 0.960562
O O4 0.906858 0.369760 0.046183
O O5 0.414348 0.141081 0.844291
O O6 0.000000 0.067031 0.750000
O O7 0.278164 0.941873 0.909913
O O8 0.767567 0.535966 0.725628
O O9 0.500000 0.872341 0.750000
O O10 0.574268 0.719353 0.610163
O O11 0.000000 0.813750 0.750000
O O12 0.500000 0.500000 0.500000
#
# Coordination Sequence:
#
# PCOD9226360 Si02
#       6
#     4   4   2   4   2   4
#     4  11  23  42  73 106 145 201 262 320 391 464
#     4   9  19  39  75 104 146 197 253 319 393 466
#     4  12  24  48  70 100 156 200 256 328 390 472
#     4  11  25  49  77 113 158 209 258 330 410 473
#     4  10  16  40  66 106 138 186 244 308 382 456
#     4  12  29  45  75 112 152 211 266 322 394 481
#
# _framework density 27.870633000000002
#
# number of rings (size 3 to 8) (size 9 to 14) (size 15 to 20)
#    0.000    1.200    5.000    1.800    2.800    2.400 
#    0.000    1.000    0.000    0.000    0.000    0.000 
#    0.000    0.000    0.000    0.000    0.000    0.000 
#
# Total GULP energy -111563.409648 kJ/mol
# GULP energy per Si atom -5578.170482 kJ/mol
# Density = 2.780720 g / cm^3
# Si number density = 27.870633 Si / 1000 Ang^3
#
#
#
# Elastic Constant Matrix: (Units=GPa)
#
#
# Indices 1 2 3 4 5 6 
#
# 1 109.5335 46.3196 41.1968 0.0000 -5.5590 0.0000
# 2 46.3196 209.4470 54.7025 0.0000 8.1032 0.0000
# 3 41.1968 54.7025 97.2902 0.0000 8.7316 0.0000
# 4 0.0000 0.0000 0.0000 19.4464 0.0000 -4.5936
# 5 -5.5590 8.1032 8.7316 0.0000 55.0242 0.0000
# 6 0.0000 0.0000 0.0000 -4.5936 0.0000 42.7707
#
#
#
# Elastic Compliance Matrix: (Units=1/GPa)
#
#
# Indices 1 2 3 4 5 6 
#
# 1 0.011447 -0.001520 -0.004176 0.000000 0.002043 0.000000
# 2 -0.001520 0.005804 -0.002566 0.000000 -0.000601 0.000000
# 3 -0.004176 -0.002566 0.013688 0.000000 -0.002216 0.000000
# 4 0.000000 0.000000 0.000000 0.052762 0.000000 0.005667
# 5 0.002043 -0.000601 -0.002216 0.000000 0.018820 0.000000
# 6 0.000000 0.000000 0.000000 0.005667 0.000000 0.023989
#
#
# Mechanical properties :
#
#
# Convention : Reuss Voigt Hill
#
# Bulk Modulus (GPa) = 69.36762 77.85650 73.61206
# Shear Modulus (GPa) = 33.82066 41.71837 37.76952
#
# Velocity S-wave (km/s) = 3.48729 3.87312 3.68526
# Velocity P-wave (km/s) = 6.41546 6.92799 6.67664
#
# Compressibility (1/GPa) = 0.01441595
#
# Stress axis : x y z
#
# Youngs Moduli (GPa) = 87.36239 172.29533 73.05521
#
# Poissons Ratio (x) = 0.26186 0.30506
# Poissons Ratio (y) = 0.13278 0.18745
# Poissons Ratio (z) = 0.36480 0.44208
#
# Static dielectric constant tensor:
#      x y z
#    x 2.888350 0.000000 0.004170 
#    y 0.000000 2.259180 0.000000 
#    z 0.004170 0.000000 2.191890 
# 
# From -- ./inp_files/43540.got.cif
#   From: 2010.05.17/outbox.cif.g08.bks.cpg/sg13_22_cif.got.tgz:43540.got - 2010.06.03 16:44:36.
