data_PCOD9226589
_publ_section_title
;
Structure prediction by ZEFSAII (Michael W. Deem and Ramdas Pophale) SiO2 
 PCOD9226589
Probable space group: P 2/C
;
_chemical_formula_sum "Si O2"
_cell_formula_units_Z 26
_cell_length_a 10.434360
_cell_length_b 22.331431
_cell_length_c 5.683075
_cell_angle_alpha 90.000000
_cell_angle_beta 65.820390
_cell_angle_gamma 90.000000
_cell_volume 1208.056419
_symmetry_space_group_name_H-M "P 2/C"
_symmetry_group_IT_number 13
_symmetry_cell_setting 'monoclinic'
loop_
_space_group_symop_operation_xyz
x,y,z
-x,y,1/2-z
-x,-y,-z
x,-y,1/2+z
loop_
_atom_site_type_symbol
_atom_site_label
_atom_site_fract_x
_atom_site_fract_y
_atom_site_fract_z
Si Si1 0.000000 0.536184 0.750000
Si Si2 0.644273 0.859783 0.022107
Si Si3 0.775140 0.980302 0.010192
Si Si4 0.342208 0.522856 0.148631
Si Si5 0.157336 0.749863 0.742796
Si Si6 0.500000 0.943790 0.750000
Si Si7 0.793297 0.368861 0.548738
Si Si8 0.000000 0.308084 0.750000
O O1 0.000000 0.500000 0.500000
O O2 0.130346 0.582282 0.669494
O O3 0.500000 0.836911 0.250000
O O4 0.738338 0.910372 0.084945
O O5 0.746435 0.807040 0.867095
O O6 0.579350 0.899299 0.863711
O O7 0.841757 0.009280 0.198000
O O8 0.625247 0.013344 0.071765
O O9 0.285807 0.487902 0.425410
O O10 0.325547 0.592781 0.230038
O O11 0.500000 0.500000 0.000000
O O12 0.234146 0.691980 0.570947
O O13 0.000000 0.756903 0.750000
O O14 0.116999 0.733002 0.038238
O O15 0.914031 0.349507 0.639475
#
# Coordination Sequence:
#
# PCOD9226589 Si02
#       8
#     2   4   4   4   4   2   4   2
#     4  12  23  34  66 100 112 143 208 272 310 366
#     4  11  20  37  63  97 129 165 229 273 333 402
#     4  10  17  33  59  96 132 170 211 282 338 382
#     4  10  23  42  64  92 129 165 199 252 332 404
#     4  10  24  43  65  88 129 180 223 275 331 396
#     4  10  18  32  60  98 130 172 210 286 332 382
#     4  11  22  41  64  90 124 160 212 271 320 384
#     4  10  21  44  64  88 120 177 228 260 326 376
#
# _framework density 21.522172999999999
#
# number of rings (size 3 to 8) (size 9 to 14) (size 15 to 20)
#    0.000    1.538    4.615    2.308    2.154    2.462 
#    2.769    0.000    0.000    3.692    0.000    0.000 
#    0.000    0.000    0.000    0.000    0.000    0.000 
#
# Total GULP energy -144746.200813 kJ/mol
# GULP energy per Si atom -5567.161570 kJ/mol
# Density = 2.147319 g / cm^3
# Si number density = 21.522173 Si / 1000 Ang^3
#
#
#
# Elastic Constant Matrix: (Units=GPa)
#
#
# Indices 1 2 3 4 5 6 
#
# 1 47.1126 33.7422 36.5115 0.0000 -6.1497 0.0000
# 2 33.7422 160.4186 79.2148 0.0000 -20.5313 0.0000
# 3 36.5115 79.2148 138.5110 0.0000 6.0053 0.0000
# 4 0.0000 0.0000 0.0000 35.7258 0.0000 -12.4722
# 5 -6.1497 -20.5313 6.0053 0.0000 37.4282 0.0000
# 6 0.0000 0.0000 0.0000 -12.4722 0.0000 26.4703
#
#
#
# Elastic Compliance Matrix: (Units=1/GPa)
#
#
# Indices 1 2 3 4 5 6 
#
# 1 0.028363 -0.002241 -0.006388 0.000000 0.004456 0.000000
# 2 -0.002241 0.010211 -0.005514 0.000000 0.006118 0.000000
# 3 -0.006388 -0.005514 0.012319 0.000000 -0.006051 0.000000
# 4 0.000000 0.000000 0.000000 0.033502 0.000000 0.015785
# 5 0.004456 0.006118 -0.006051 0.000000 0.031777 0.000000
# 6 0.000000 0.000000 0.000000 0.015785 0.000000 0.045216
#
#
# Mechanical properties :
#
#
# Convention : Reuss Voigt Hill
#
# Bulk Modulus (GPa) = 44.23434 71.66436 57.94935
# Shear Modulus (GPa) = 25.35368 33.02976 29.19172
#
# Velocity S-wave (km/s) = 3.43596 3.92176 3.68687
# Velocity P-wave (km/s) = 6.02815 7.34010 6.71624
#
# Compressibility (1/GPa) = 0.02260687
#
# Stress axis : x y z
#
# Youngs Moduli (GPa) = 35.25713 97.93389 81.17279
#
# Poissons Ratio (x) = 0.21949 0.51853
# Poissons Ratio (y) = 0.07902 0.44760
# Poissons Ratio (z) = 0.22522 0.54002
#
# Static dielectric constant tensor:
#      x y z
#    x 1.809270 0.000000 0.007870 
#    y 0.000000 1.760320 0.000000 
#    z 0.007870 0.000000 1.994010 
# 
# From -- ./inp_files/3879.got.cif
#   From: 2010.05.17/outbox.cif.g08.bks.cpg/sg13_2_cif.got.tgz:3879.got - 2010.06.03 16:44:36.
