data_PCOD9226379
_publ_section_title
;
Structure prediction by ZEFSAII (Michael W. Deem and Ramdas Pophale) SiO2 
 PCOD9226379
Probable space group: P 2/C
;
_chemical_formula_sum "Si O2"
_cell_formula_units_Z 32
_cell_length_a 24.318706
_cell_length_b 16.336267
_cell_length_c 24.206294
_cell_angle_alpha 90.000000
_cell_angle_beta 167.716143
_cell_angle_gamma 90.000000
_cell_volume 2045.980837
_symmetry_space_group_name_H-M "P 2/C"
_symmetry_group_IT_number 13
_symmetry_cell_setting 'monoclinic'
loop_
_space_group_symop_operation_xyz
x,y,z
-x,y,1/2-z
-x,-y,-z
x,-y,1/2+z
loop_
_atom_site_type_symbol
_atom_site_label
_atom_site_fract_x
_atom_site_fract_y
_atom_site_fract_z
Si Si1 0.444608 0.217362 0.466643
Si Si2 0.467463 0.298530 0.279141
Si Si3 0.276162 0.392486 0.264280
Si Si4 0.197540 0.450463 0.765436
Si Si5 0.928045 0.880399 0.472524
Si Si6 0.495203 0.847760 0.891852
Si Si7 0.978227 0.944728 0.395965
Si Si8 0.964474 0.587157 0.277031
O O1 0.369722 0.312711 0.389284
O O2 0.687069 0.182062 0.739003
O O3 0.498431 0.191254 0.456174
O O4 0.190569 0.169565 0.235962
O O5 0.500000 0.261994 0.250000
O O6 0.496894 0.227207 0.351861
O O7 0.704374 0.360253 0.518313
O O8 0.203543 0.351003 0.022558
O O9 0.513796 0.413518 0.456170
O O10 0.224035 0.466604 0.255799
O O11 0.009066 0.389357 0.967281
O O12 0.086536 0.465819 0.717834
O O13 0.921440 0.918757 0.404004
O O14 0.950188 0.959524 0.533452
O O15 0.227966 0.895077 0.622807
O O16 0.730711 0.911985 0.119798
O O17 0.000000 0.549791 0.250000
#
# Coordination Sequence:
#
# PCOD9226379 Si02
#       8
#     4   4   4   4   4   4   4   4
#     4  10  17  26  41  60  81 111 145 173 211 255
#     4  10  20  31  44  65  89 115 149 187 219 252
#     4  10  20  30  45  65  89 121 149 184 226 268
#     4  10  19  32  45  63  91 118 151 186 221 271
#     4   9  17  27  39  57  84 107 136 176 203 246
#     4  10  17  26  42  58  81 113 142 172 207 257
#     4   9  17  27  39  58  80 110 140 167 208 245
#     4  10  19  31  47  64  87 119 151 185 223 262
#
# _framework density 15.640421
#
# number of rings (size 3 to 8) (size 9 to 14) (size 15 to 20)
#    0.000    2.250    0.000    4.500    0.000    5.000 
#    0.000    0.000    0.000    0.000    0.000    0.000 
#    0.000    4.000    0.000    1.250    0.000    0.750 
#
# Total GULP energy -178175.839599 kJ/mol
# GULP energy per Si atom -5567.994987 kJ/mol
# Density = 1.560482 g / cm^3
# Si number density = 15.640421 Si / 1000 Ang^3
#
#
#
# Elastic Constant Matrix: (Units=GPa)
#
#
# Indices 1 2 3 4 5 6 
#
# 1 1210.2235 334.2720 220.8723 0.0000 -793.1206 0.0000
# 2 334.2720 149.0654 59.3253 0.0000 -225.4942 0.0000
# 3 220.8723 59.3253 215.3199 0.0000 -101.3096 0.0000
# 4 0.0000 0.0000 0.0000 26.5494 0.0000 -0.0218
# 5 -793.1206 -225.4942 -101.3096 0.0000 588.9241 0.0000
# 6 0.0000 0.0000 0.0000 -0.0218 0.0000 -0.3107
#
#
#
# Elastic Compliance Matrix: (Units=1/GPa)
#
#
# Indices 1 2 3 4 5 6 
#
# 1 0.010182 -0.003668 -0.003964 0.000000 0.011626 0.000000
# 2 -0.003668 0.017825 -0.000284 0.000000 0.001836 0.000000
# 3 -0.003964 -0.000284 0.006774 0.000000 -0.004282 0.000000
# 4 0.000000 0.000000 0.000000 0.037664 0.000000 -0.002638
# 5 0.011626 0.001836 -0.004282 0.000000 0.017321 0.000000
# 6 0.000000 0.000000 0.000000 -0.002638 0.000000 -3.218030
#
#
# Mechanical properties :
#
#
# Convention : Reuss Voigt Hill
#
# Bulk Modulus (GPa) = 52.77699 311.50534 182.14117
# Shear Modulus (GPa) = -1.60973 187.04183 92.71605
#
# Velocity S-wave (km/s) = -1.01560 10.94753 7.70769
# Velocity P-wave (km/s) = 5.69579 18.95777 13.99712
#
# Compressibility (1/GPa) = 0.01894765
#
# Stress axis : x y z
#
# Youngs Moduli (GPa) = 98.21376 56.10192 147.62339
#
# Poissons Ratio (x) = 0.20580 0.58514
# Poissons Ratio (y) = 0.36028 0.04199
# Poissons Ratio (z) = 0.38929 0.01596
#
# Static dielectric constant tensor:
#      x y z
#    x 1.531550 0.000000 -0.009530 
#    y 0.000000 1.580260 0.000000 
#    z -0.009530 0.000000 1.541720 
# 
# From -- ./inp_files/94264.got.cif
#   From: 2010.05.17/outbox.cif.g08.bks.cpg/sg13_48_cif.got.tgz:94264.got - 2010.06.03 16:44:36.
