data_PCOD9226758
_publ_section_title
;
Structure prediction by ZEFSAII (Michael W. Deem and Ramdas Pophale) SiO2 
 PCOD9226758
Probable space group: P 2/C
;
_chemical_formula_sum "Si O2"
_cell_formula_units_Z 26
_cell_length_a 19.179382
_cell_length_b 12.675665
_cell_length_c 10.174782
_cell_angle_alpha 90.000000
_cell_angle_beta 27.226359
_cell_angle_gamma 90.000000
_cell_volume 1131.692067
_symmetry_space_group_name_H-M "P 2/C"
_symmetry_group_IT_number 13
_symmetry_cell_setting 'monoclinic'
loop_
_space_group_symop_operation_xyz
x,y,z
-x,y,1/2-z
-x,-y,-z
x,-y,1/2+z
loop_
_atom_site_type_symbol
_atom_site_label
_atom_site_fract_x
_atom_site_fract_y
_atom_site_fract_z
Si Si1 0.758497 0.014015 0.261676
Si Si2 0.500000 0.147902 0.750000
Si Si3 0.682585 0.817156 0.561919
Si Si4 0.000000 0.874071 0.750000
Si Si5 0.731794 0.672499 0.945827
Si Si6 0.500000 0.503054 0.750000
Si Si7 0.010603 0.804743 0.031425
Si Si8 0.611819 0.695968 0.415185
O O1 0.605485 0.075174 0.479865
O O2 0.891093 0.094522 0.086313
O O3 0.700275 0.935183 0.474944
O O4 0.844592 0.943323 0.010550
O O5 0.375174 0.225959 0.900396
O O6 0.679649 0.742839 0.435694
O O7 0.525328 0.777926 0.890187
O O8 0.840474 0.799468 0.374073
O O9 0.005634 0.818738 0.599375
O O10 0.642699 0.571668 0.042205
O O11 0.735364 0.674597 0.097398
O O12 0.891366 0.699841 0.612694
O O13 0.535833 0.583111 0.571945
#
# Coordination Sequence:
#
# PCOD9226758 Si02
#       8
#     4   2   4   2   4   2   4   4
#     4  10  19  32  47  72 106 137 165 199 233 277
#     4   9  20  31  46  74 104 131 164 201 238 280
#     4   9  18  33  49  74 104 130 165 200 232 284
#     4  10  18  30  48  70 100 140 172 192 232 288
#     4  10  19  34  54  73  97 127 162 203 249 296
#     4   9  20  37  54  74  96 121 160 209 254 298
#     4  10  20  32  50  75 103 133 162 201 243 280
#     4  10  20  34  55  74  93 129 165 202 248 293
#
# _framework density 22.974447000000001
#
# number of rings (size 3 to 8) (size 9 to 14) (size 15 to 20)
#    0.000    2.462    0.000    5.077    0.000    2.462 
#    0.000    6.923    0.000    3.692    0.000    0.000 
#    0.000    0.000    0.000    0.000    0.000    0.000 
#
# Total GULP energy -145050.962068 kJ/mol
# GULP energy per Si atom -5578.883156 kJ/mol
# Density = 2.292216 g / cm^3
# Si number density = 22.974447 Si / 1000 Ang^3
#
#
#
# Elastic Constant Matrix: (Units=GPa)
#
#
# Indices 1 2 3 4 5 6 
#
# 1 34.1202 9.4767 -1.3070 0.0000 -4.9067 0.0000
# 2 9.4767 92.5510 33.5025 0.0000 -17.7420 0.0000
# 3 -1.3070 33.5025 99.9803 0.0000 -16.3084 0.0000
# 4 0.0000 0.0000 0.0000 16.4070 0.0000 -7.2765
# 5 -4.9067 -17.7420 -16.3084 0.0000 27.1669 0.0000
# 6 0.0000 0.0000 0.0000 -7.2765 0.0000 1.3379
#
#
#
# Elastic Compliance Matrix: (Units=1/GPa)
#
#
# Indices 1 2 3 4 5 6 
#
# 1 0.030945 -0.003026 0.002226 0.000000 0.004949 0.000000
# 2 -0.003026 0.013598 -0.003588 0.000000 0.006180 0.000000
# 3 0.002226 -0.003588 0.012102 0.000000 0.005323 0.000000
# 4 0.000000 0.000000 0.000000 -0.043163 0.000000 -0.234753
# 5 0.004949 0.006180 0.005323 0.000000 0.044935 0.000000
# 6 0.000000 0.000000 0.000000 -0.234753 0.000000 -0.529317
#
#
# Mechanical properties :
#
#
# Convention : Reuss Voigt Hill
#
# Bulk Modulus (GPa) = 20.89010 34.44398 27.66704
# Shear Modulus (GPa) = -11.20656 21.31431 5.05388
#
# Velocity S-wave (km/s) = -2.21098 3.04919 1.48478
# Velocity P-wave (km/s) = 1.61077 5.23656 3.87403
#
# Compressibility (1/GPa) = 0.04786956
#
# Stress axis : x y z
#
# Youngs Moduli (GPa) = 32.31494 73.53880 82.63265
#
# Poissons Ratio (x) = 0.22249 -0.18391
# Poissons Ratio (y) = 0.09777 0.29649
# Poissons Ratio (z) = -0.07192 0.26387
#
# Static dielectric constant tensor:
#      x y z
#    x 1.920690 0.000000 0.023520 
#    y 0.000000 1.865380 0.000000 
#    z 0.023520 0.000000 1.998050 
# 
# From -- ./inp_files/59579.got.cif
#   From: 2010.05.17/outbox.cif.g08.bks.cpg/sg13_30_cif.got.tgz:59579.got - 2010.06.03 16:44:36.
