data_PCOD9226489
_publ_section_title
;
Structure prediction by ZEFSAII (Michael W. Deem and Ramdas Pophale) SiO2 
 PCOD9226489
Probable space group: P 2/C
;
_chemical_formula_sum "Si O2"
_cell_formula_units_Z 32
_cell_length_a 18.147006
_cell_length_b 10.459395
_cell_length_c 9.010351
_cell_angle_alpha 90.000000
_cell_angle_beta 97.178503
_cell_angle_gamma 90.000000
_cell_volume 1696.819691
_symmetry_space_group_name_H-M "P 2/C"
_symmetry_group_IT_number 13
_symmetry_cell_setting 'monoclinic'
loop_
_space_group_symop_operation_xyz
x,y,z
-x,y,1/2-z
-x,-y,-z
x,-y,1/2+z
loop_
_atom_site_type_symbol
_atom_site_label
_atom_site_fract_x
_atom_site_fract_y
_atom_site_fract_z
Si Si1 0.715362 0.304352 0.751637
Si Si2 0.178273 0.582431 0.424015
Si Si3 0.347224 0.902466 0.855143
Si Si4 0.840318 0.297843 0.023663
Si Si5 0.414363 0.858921 0.186577
Si Si6 0.213424 0.929839 0.413822
Si Si7 0.775374 0.230838 0.310303
Si Si8 0.085810 0.804553 0.238093
O O1 0.749240 0.423434 0.667291
O O2 0.761974 0.298930 0.914984
O O3 0.631636 0.264840 0.766392
O O4 0.743883 0.187533 0.656086
O O5 0.141939 0.446945 0.448475
O O6 0.206391 0.648786 0.581307
O O7 0.120085 0.678908 0.330460
O O8 0.311706 0.784991 0.754173
O O9 0.381610 0.012104 0.757700
O O10 0.271136 0.957339 0.908895
O O11 0.400294 0.870865 0.006177
O O12 0.895174 0.221365 0.929412
O O13 0.827427 0.240704 0.181252
O O14 0.500000 0.849570 0.250000
O O15 0.206740 0.892551 0.583624
O O16 0.133720 0.922278 0.315998
O O17 0.000000 0.817542 0.250000
#
# Coordination Sequence:
#
# PCOD9226489 Si02
#       8
#     4   4   4   4   4   4   4   4
#     4   8  17  32  48  71 101 139 167 212 252 305
#     4   9  19  33  51  77 101 132 180 227 255 301
#     4  11  19  33  53  79 104 140 171 213 259 311
#     4  10  17  31  55  78  95 137 188 214 256 310
#     4  11  21  33  51  81 111 135 165 211 275 320
#     4   8  18  32  49  71 104 138 174 209 254 311
#     4  10  17  30  53  76  99 128 183 220 249 298
#     4   9  19  34  50  75 111 141 162 215 277 311
#
# _framework density 18.858810999999999
#
# number of rings (size 3 to 8) (size 9 to 14) (size 15 to 20)
#    0.000    3.000    2.500    1.875    0.000    0.500 
#    0.000    2.500    0.000    7.500    0.000    0.000 
#    0.000    0.000    0.000    0.000    0.000    0.000 
#
# Total GULP energy -178178.206192 kJ/mol
# GULP energy per Si atom -5568.068943 kJ/mol
# Density = 1.881589 g / cm^3
# Si number density = 18.858811 Si / 1000 Ang^3
#
#
#
# Elastic Constant Matrix: (Units=GPa)
#
#
# Indices 1 2 3 4 5 6 
#
# 1 84.6548 -0.1478 10.4212 0.0000 -4.2529 0.0000
# 2 -0.1478 14.9003 -0.0384 0.0000 3.1501 0.0000
# 3 10.4212 -0.0384 101.3846 0.0000 -7.2806 0.0000
# 4 0.0000 0.0000 0.0000 20.8793 0.0000 -0.2906
# 5 -4.2529 3.1501 -7.2806 0.0000 16.7100 0.0000
# 6 0.0000 0.0000 0.0000 -0.2906 0.0000 10.8140
#
#
#
# Elastic Compliance Matrix: (Units=1/GPa)
#
#
# Indices 1 2 3 4 5 6 
#
# 1 0.012077 -0.000454 -0.001047 0.000000 0.002703 0.000000
# 2 -0.000454 0.070005 -0.000911 0.000000 -0.013710 0.000000
# 3 -0.001047 -0.000911 0.010286 0.000000 0.004387 0.000000
# 4 0.000000 0.000000 0.000000 0.047912 0.000000 0.001288
# 5 0.002703 -0.013710 0.004387 0.000000 0.065028 0.000000
# 6 0.000000 0.000000 0.000000 0.001288 0.000000 0.092507
#
#
# Mechanical properties :
#
#
# Convention : Reuss Voigt Hill
#
# Bulk Modulus (GPa) = 11.42325 24.60106 18.01215
# Shear Modulus (GPa) = 15.06838 22.39431 18.73134
#
# Velocity S-wave (km/s) = 2.82974 3.44971 3.15499
# Velocity P-wave (km/s) = 4.09231 5.37964 4.77951
#
# Compressibility (1/GPa) = 0.08754079
#
# Stress axis : x y z
#
# Youngs Moduli (GPa) = 82.80465 14.28479 97.22169
#
# Poissons Ratio (x) = 0.00649 0.10183
# Poissons Ratio (y) = 0.03762 0.08860
# Poissons Ratio (z) = 0.08673 0.01302
#
# Static dielectric constant tensor:
#      x y z
#    x 1.638330 0.000000 -0.006490 
#    y 0.000000 1.754970 0.000000 
#    z -0.006490 0.000000 1.729240 
# 
# From -- ./inp_files/21579.got.cif
#   From: 2010.05.17/outbox.cif.g08.bks.cpg/sg13_11_cif.got.tgz:21579.got - 2010.06.03 16:44:36.
