data_PCOD9226844
_publ_section_title
;
Structure prediction by ZEFSAII (Michael W. Deem and Ramdas Pophale) SiO2 
 PCOD9226844
Probable space group: P 2/C
;
_chemical_formula_sum "Si O2"
_cell_formula_units_Z 18
_cell_length_a 6.975205
_cell_length_b 18.715987
_cell_length_c 5.623613
_cell_angle_alpha 90.000000
_cell_angle_beta 76.530545
_cell_angle_gamma 90.000000
_cell_volume 713.957191
_symmetry_space_group_name_H-M "P 2/C"
_symmetry_group_IT_number 13
_symmetry_cell_setting 'monoclinic'
loop_
_space_group_symop_operation_xyz
x,y,z
-x,y,1/2-z
-x,-y,-z
x,-y,1/2+z
loop_
_atom_site_type_symbol
_atom_site_label
_atom_site_fract_x
_atom_site_fract_y
_atom_site_fract_z
Si Si1 0.671352 0.319535 0.510087
Si Si2 0.789673 0.808870 0.678779
Si Si3 0.000000 0.282187 0.750000
Si Si4 0.768786 0.972945 0.575596
Si Si5 0.762396 0.535960 0.796487
O O1 0.500000 0.329391 0.750000
O O2 0.662133 0.242185 0.385843
O O3 0.879842 0.325231 0.590297
O O4 0.688315 0.382701 0.317381
O O5 0.736188 0.889564 0.638657
O O6 0.000000 0.814031 0.750000
O O7 0.837763 0.767034 0.423645
O O8 0.691713 0.988219 0.333957
O O9 0.000000 0.000000 0.500000
O O10 0.699740 0.499100 0.567351
O O11 0.000000 0.533885 0.750000
#
# Coordination Sequence:
#
# PCOD9226844 Si02
#       5
#     4   4   2   4   4
#     4  11  26  43  65 101 137 178 230 279 338 415
#     4  10  20  36  61  94 130 174 226 277 340 399
#     4  10  22  40  68  90 132 176 226 284 334 398
#     4  10  18  30  56  93 128 167 223 281 332 405
#     4  10  23  43  72 100 136 179 228 285 345 405
#
# _framework density 25.211594999999999
#
# number of rings (size 3 to 8) (size 9 to 14) (size 15 to 20)
#    0.000    1.778    2.222    3.333   10.889    1.778 
#    0.000    0.000    0.000    1.333    0.000    0.000 
#    0.000    0.000    0.000    0.000    0.000    0.000 
#
# Total GULP energy -100807.681513 kJ/mol
# GULP energy per Si atom -5600.426751 kJ/mol
# Density = 2.515421 g / cm^3
# Si number density = 25.211595 Si / 1000 Ang^3
#
#
#
# Elastic Constant Matrix: (Units=GPa)
#
#
# Indices 1 2 3 4 5 6 
#
# 1 109.9845 21.1690 38.7803 0.0000 15.4663 0.0000
# 2 21.1690 150.2166 61.0081 0.0000 4.1925 0.0000
# 3 38.7803 61.0081 174.1241 0.0000 2.4463 0.0000
# 4 0.0000 0.0000 0.0000 29.6284 0.0000 0.8237
# 5 15.4663 4.1925 2.4463 0.0000 56.1713 0.0000
# 6 0.0000 0.0000 0.0000 0.8237 0.0000 -16.5610
#
#
#
# Elastic Compliance Matrix: (Units=1/GPa)
#
#
# Indices 1 2 3 4 5 6 
#
# 1 0.010306 -0.000536 -0.002069 0.000000 -0.002707 0.000000
# 2 -0.000536 0.007801 -0.002609 0.000000 -0.000321 0.000000
# 3 -0.002069 -0.002609 0.007112 0.000000 0.000455 0.000000
# 4 0.000000 0.000000 0.000000 0.033705 0.000000 0.001676
# 5 -0.002707 -0.000321 0.000455 0.000000 0.018552 0.000000
# 6 0.000000 0.000000 0.000000 0.001676 0.000000 -0.060300
#
#
# Mechanical properties :
#
#
# Convention : Reuss Voigt Hill
#
# Bulk Modulus (GPa) = 67.61875 75.13776 71.37825
# Shear Modulus (GPa) = 153.67450 34.73892 94.20671
#
# Velocity S-wave (km/s) = 7.81577 3.71603 6.11944
# Velocity P-wave (km/s) = 10.40803 6.94834 8.84891
#
# Compressibility (1/GPa) = 0.01478880
#
# Stress axis : x y z
#
# Youngs Moduli (GPa) = 97.03288 128.18264 140.61184
#
# Poissons Ratio (x) = 0.06875 0.29097
# Poissons Ratio (y) = 0.05204 0.36691
# Poissons Ratio (z) = 0.20079 0.33448
#
# Static dielectric constant tensor:
#      x y z
#    x 2.086970 0.000000 -0.014800 
#    y 0.000000 1.931010 0.000000 
#    z -0.014800 0.000000 1.988320 
# 
# From -- ./inp_files/1488.got.cif
#   From: 2010.05.17/outbox.cif.g08.bks.cpg/sg13_1_cif.got.tgz:1488.got - 2010.06.03 16:44:36.
