data_PCOD9226501
_publ_section_title
;
Structure prediction by ZEFSAII (Michael W. Deem and Ramdas Pophale) SiO2 
 PCOD9226501
Probable space group: P 2/C
;
_chemical_formula_sum "Si O2"
_cell_formula_units_Z 30
_cell_length_a 15.773966
_cell_length_b 5.563337
_cell_length_c 17.218142
_cell_angle_alpha 90.000000
_cell_angle_beta 111.460938
_cell_angle_gamma 90.000000
_cell_volume 1406.231980
_symmetry_space_group_name_H-M "P 2/C"
_symmetry_group_IT_number 13
_symmetry_cell_setting 'monoclinic'
loop_
_space_group_symop_operation_xyz
x,y,z
-x,y,1/2-z
-x,-y,-z
x,-y,1/2+z
loop_
_atom_site_type_symbol
_atom_site_label
_atom_site_fract_x
_atom_site_fract_y
_atom_site_fract_z
Si Si1 0.494205 0.290643 0.933217
Si Si2 0.500000 0.030416 0.750000
Si Si3 0.348099 0.083563 0.970181
Si Si4 0.593766 0.372289 0.370000
Si Si5 0.293096 0.890239 0.218237
Si Si6 0.810473 0.912283 0.487138
Si Si7 0.753110 0.606381 0.796060
Si Si8 0.103152 0.413131 0.024108
O O1 0.528326 0.404353 0.864445
O O2 0.572846 0.104933 0.981364
O O3 0.500000 0.500000 0.000000
O O4 0.392290 0.187531 0.906408
O O5 0.472884 0.845704 0.671707
O O6 0.599370 0.126528 0.760312
O O7 0.352137 0.300723 0.034334
O O8 0.254120 0.958106 0.960201
O O9 0.668412 0.402995 0.328999
O O10 0.247873 0.912114 0.114623
O O11 0.253405 0.652664 0.244953
O O12 0.264576 0.139296 0.250234
O O13 0.851175 0.643669 0.503465
O O14 0.878061 0.145324 0.504750
O O15 0.845897 0.607432 0.875830
O O16 0.000000 0.500000 0.000000
#
# Coordination Sequence:
#
# PCOD9226501 Si02
#       8
#     4   2   4   4   4   4   4   4
#     4   9  19  28  46  62  85 118 173 201 223 265
#     4  10  18  28  42  64  88 122 166 192 218 278
#     4  10  17  31  44  63  86 125 167 198 231 272
#     4  10  18  30  42  64  90 125 164 191 227 272
#     4   9  17  27  39  59  81 118 153 183 217 258
#     4  10  18  30  45  61  92 121 157 188 229 284
#     4   9  17  29  42  56  88 117 151 184 220 274
#     4  10  18  28  44  65  86 117 155 189 230 282
#
# _framework density 21.333607000000001
#
# number of rings (size 3 to 8) (size 9 to 14) (size 15 to 20)
#    0.000    2.400    4.000    2.000    1.867    2.133 
#    0.000    0.000    0.000    0.000    0.000    0.000 
#    0.000    0.000    0.000   10.800   89.600    3.600 
#
# Total GULP energy -167132.303700 kJ/mol
# GULP energy per Si atom -5571.076790 kJ/mol
# Density = 2.128505 g / cm^3
# Si number density = 21.333607 Si / 1000 Ang^3
#
#
#
# Elastic Constant Matrix: (Units=GPa)
#
#
# Indices 1 2 3 4 5 6 
#
# 1 74.6462 18.5385 13.5842 0.0000 14.5915 0.0000
# 2 18.5385 136.9258 8.5217 0.0000 13.1801 0.0000
# 3 13.5842 8.5217 29.8334 0.0000 12.7813 0.0000
# 4 0.0000 0.0000 0.0000 20.6416 0.0000 3.2828
# 5 14.5915 13.1801 12.7813 0.0000 28.3814 0.0000
# 6 0.0000 0.0000 0.0000 3.2828 0.0000 34.1461
#
#
#
# Elastic Compliance Matrix: (Units=1/GPa)
#
#
# Indices 1 2 3 4 5 6 
#
# 1 0.015583 -0.001314 -0.004398 0.000000 -0.005421 0.000000
# 2 -0.001314 0.007772 -0.000452 0.000000 -0.002730 0.000000
# 3 -0.004398 -0.000452 0.042862 0.000000 -0.016832 0.000000
# 4 0.000000 0.000000 0.000000 0.049198 0.000000 -0.004730
# 5 -0.005421 -0.002730 -0.016832 0.000000 0.046869 0.000000
# 6 0.000000 0.000000 0.000000 -0.004730 0.000000 0.029741
#
#
# Mechanical properties :
#
#
# Convention : Reuss Voigt Hill
#
# Bulk Modulus (GPa) = 18.55663 35.85493 27.20578
# Shear Modulus (GPa) = 22.49054 30.01790 26.25422
#
# Velocity S-wave (km/s) = 3.25041 3.75516 3.51187
# Velocity P-wave (km/s) = 4.77537 5.97034 5.40597
#
# Compressibility (1/GPa) = 0.05388911
#
# Stress axis : x y z
#
# Youngs Moduli (GPa) = 64.17320 128.66562 23.33063
#
# Poissons Ratio (x) = 0.16910 0.10260
# Poissons Ratio (y) = 0.08434 0.01055
# Poissons Ratio (z) = 0.28221 0.05816
#
# Static dielectric constant tensor:
#      x y z
#    x 1.756860 0.000000 -0.037810 
#    y 0.000000 1.937500 0.000000 
#    z -0.037810 0.000000 1.856780 
# 
# From -- ./inp_files/86864.got.cif
#   From: 2010.05.17/outbox.cif.g08.bks.cpg/sg13_44_cif.got.tgz:86864.got - 2010.06.03 16:44:36.
