data_PCOD9226023
_publ_section_title
;
Structure prediction by ZEFSAII (Michael W. Deem and Ramdas Pophale) SiO2 
 PCOD9226023
Probable space group: P 2/C
;
_chemical_formula_sum "Si O2"
_cell_formula_units_Z 20
_cell_length_a 26.947339
_cell_length_b 6.552770
_cell_length_c 5.204920
_cell_angle_alpha 90.000000
_cell_angle_beta 113.085289
_cell_angle_gamma 90.000000
_cell_volume 845.485122
_symmetry_space_group_name_H-M "P 2/C"
_symmetry_group_IT_number 13
_symmetry_cell_setting 'monoclinic'
loop_
_space_group_symop_operation_xyz
x,y,z
-x,y,1/2-z
-x,-y,-z
x,-y,1/2+z
loop_
_atom_site_type_symbol
_atom_site_label
_atom_site_fract_x
_atom_site_fract_y
_atom_site_fract_z
Si Si1 0.229384 0.247734 0.827228
Si Si2 0.500000 0.144488 0.750000
Si Si3 0.000000 0.645005 0.750000
Si Si4 0.727271 0.294387 0.086978
Si Si5 0.884215 0.358652 0.066851
Si Si6 0.616725 0.856821 0.521143
O O1 0.272283 0.194711 0.693309
O O2 0.245724 0.486885 0.905035
O O3 0.169467 0.231499 0.595827
O O4 0.235027 0.178105 0.131714
O O5 0.441764 0.251965 0.623846
O O6 0.500000 0.000000 0.500000
O O7 0.941823 0.753139 0.644461
O O8 0.000000 0.500000 0.500000
O O9 0.667531 0.290496 0.081160
O O10 0.882500 0.536552 0.843772
O O11 0.619387 0.026393 0.298782
#
# Coordination Sequence:
#
# PCOD9226023 Si02
#       6
#     4   2   2   4   4   4
#     4  10  17  28  43  62  88 123 144 165 203 258
#     4   8  16  30  48  64  82 106 138 174 218 256
#     4   8  16  20  34  52  78 112 138 176 206 238
#     4  10  18  28  44  63  86 114 146 171 203 256
#     4  10  14  25  36  56  82 114 147 168 206 247
#     4  10  19  32  48  68  87 109 139 180 220 253
#
# _framework density 23.655059999999999
#
# number of rings (size 3 to 8) (size 9 to 14) (size 15 to 20)
#    0.000    2.400    4.000    1.200    0.000    0.000 
#    0.000    0.000    0.000    4.800    0.000    0.000 
#    0.000    0.000    0.000   30.600    0.000    0.000 
#
# Total GULP energy -111442.356062 kJ/mol
# GULP energy per Si atom -5572.117803 kJ/mol
# Density = 2.360122 g / cm^3
# Si number density = 23.655060 Si / 1000 Ang^3
#
#
#
# Elastic Constant Matrix: (Units=GPa)
#
#
# Indices 1 2 3 4 5 6 
#
# 1 145.2565 -12.0436 23.7449 0.0000 42.4601 0.0000
# 2 -12.0436 41.9300 -20.5595 0.0000 7.0983 0.0000
# 3 23.7449 -20.5595 119.7397 0.0000 -18.0962 0.0000
# 4 0.0000 0.0000 0.0000 -38.3260 0.0000 28.0262
# 5 42.4601 7.0983 -18.0962 0.0000 79.9351 0.0000
# 6 0.0000 0.0000 0.0000 28.0262 0.0000 6.2322
#
#
#
# Elastic Compliance Matrix: (Units=1/GPa)
#
#
# Indices 1 2 3 4 5 6 
#
# 1 0.009068 0.002457 -0.002213 0.000000 -0.005536 0.000000
# 2 0.002457 0.026848 0.003691 0.000000 -0.002853 0.000000
# 3 -0.002213 0.003691 0.009891 0.000000 0.003087 0.000000
# 4 0.000000 0.000000 0.000000 -0.006084 0.000000 0.027361
# 5 -0.005536 -0.002853 0.003087 0.000000 0.016403 0.000000
# 6 0.000000 0.000000 0.000000 0.027361 0.000000 0.037416
#
#
# Mechanical properties :
#
#
# Convention : Reuss Voigt Hill
#
# Bulk Modulus (GPa) = 18.63004 32.13442 25.38223
# Shear Modulus (GPa) = 48.27960 30.62058 39.45009
#
# Velocity S-wave (km/s) = 4.52263 3.60177 4.08821
# Velocity P-wave (km/s) = 5.93001 5.55977 5.74787
#
# Compressibility (1/GPa) = 0.05367674
#
# Stress axis : x y z
#
# Youngs Moduli (GPa) = 110.27728 37.24680 101.10567
#
# Poissons Ratio (x) = -0.09150 0.22375
# Poissons Ratio (y) = -0.27092 -0.37322
# Poissons Ratio (z) = 0.24405 -0.13749
#
# Static dielectric constant tensor:
#      x y z
#    x 1.947540 0.000000 0.008330 
#    y 0.000000 2.940020 0.000000 
#    z 0.008330 0.000000 1.987030 
# 
# From -- ./inp_files/5966.got.cif
#   From: 2010.05.17/outbox.cif.g08.bks.cpg/sg13_3_cif.got.tgz:5966.got - 2010.06.03 16:44:36.
