data_PCOD9226352
_publ_section_title
;
Structure prediction by ZEFSAII (Michael W. Deem and Ramdas Pophale) SiO2 
 PCOD9226352
Probable space group: P 2/C
;
_chemical_formula_sum "Si O2"
_cell_formula_units_Z 30
_cell_length_a 17.999126
_cell_length_b 15.399273
_cell_length_c 11.887898
_cell_angle_alpha 90.000000
_cell_angle_beta 151.300337
_cell_angle_gamma 90.000000
_cell_volume 1582.324112
_symmetry_space_group_name_H-M "P 2/C"
_symmetry_group_IT_number 13
_symmetry_cell_setting 'monoclinic'
loop_
_space_group_symop_operation_xyz
x,y,z
-x,y,1/2-z
-x,-y,-z
x,-y,1/2+z
loop_
_atom_site_type_symbol
_atom_site_label
_atom_site_fract_x
_atom_site_fract_y
_atom_site_fract_z
Si Si1 0.760642 0.126677 0.438741
Si Si2 0.022369 0.228986 0.400057
Si Si3 0.347901 0.294040 0.905402
Si Si4 0.139051 0.381800 0.205232
Si Si5 0.970385 0.089013 0.524703
Si Si6 0.500000 0.145328 0.250000
Si Si7 0.310966 0.675606 0.721086
Si Si8 0.183108 0.573456 0.344958
O O1 0.812941 0.086585 0.389152
O O2 0.601757 0.098378 0.289746
O O3 0.750131 0.229970 0.400023
O O4 0.894593 0.107115 0.706016
O O5 0.197072 0.264884 0.637740
O O6 0.000000 0.185189 0.250000
O O7 0.912449 0.312151 0.270846
O O8 0.981276 0.165756 0.448148
O O9 0.300154 0.374375 0.920108
O O10 0.385952 0.210975 0.033722
O O11 0.504452 0.319209 0.049708
O O12 0.265672 0.344705 0.288212
O O13 0.188287 0.471260 0.328810
O O14 0.987451 0.397479 0.924106
O O15 0.000000 0.000000 0.500000
O O16 0.230056 0.604902 0.531588
#
# Coordination Sequence:
#
# PCOD9226352 Si02
#       8
#     4   4   4   4   4   2   4   4
#     4  10  20  37  68  92 122 157 206 258 300 374
#     4  11  23  41  59  82 129 168 195 251 330 382
#     4  10  19  35  60  90 115 160 212 255 302 357
#     4  10  22  34  53  85 119 160 206 246 305 368
#     4  11  23  38  63  98 120 152 214 259 308 372
#     4  10  16  36  68  96 118 156 212 256 296 366
#     4  11  19  36  64  86 116 160 213 257 301 366
#     4  10  19  32  53  86 120 151 204 261 296 338
#
# _framework density 18.959453
#
# number of rings (size 3 to 8) (size 9 to 14) (size 15 to 20)
#    0.000    1.600    5.333    1.200    3.733    3.733 
#    0.000    2.667    0.000    0.000    0.000    0.000 
#    0.000    0.000    0.000    0.000    0.000    0.000 
#
# Total GULP energy -167374.269084 kJ/mol
# GULP energy per Si atom -5579.142303 kJ/mol
# Density = 1.891630 g / cm^3
# Si number density = 18.959453 Si / 1000 Ang^3
#
#
#
# Elastic Constant Matrix: (Units=GPa)
#
#
# Indices 1 2 3 4 5 6 
#
# 1 145.7080 41.7631 43.1819 0.0000 16.3162 0.0000
# 2 41.7631 56.6612 15.6808 0.0000 10.4853 0.0000
# 3 43.1819 15.6808 37.1778 0.0000 4.5644 0.0000
# 4 0.0000 0.0000 0.0000 11.5672 0.0000 1.2196
# 5 16.3162 10.4853 4.5644 0.0000 31.5150 0.0000
# 6 0.0000 0.0000 0.0000 1.2196 0.0000 29.5434
#
#
#
# Elastic Compliance Matrix: (Units=1/GPa)
#
#
# Indices 1 2 3 4 5 6 
#
# 1 0.012075 -0.005193 -0.011484 0.000000 -0.002861 0.000000
# 2 -0.005193 0.023206 -0.003196 0.000000 -0.004570 0.000000
# 3 -0.011484 -0.003196 0.041461 0.000000 0.001004 0.000000
# 4 0.000000 0.000000 0.000000 0.086829 0.000000 -0.003584
# 5 -0.002861 -0.004570 0.001004 0.000000 0.034587 0.000000
# 6 0.000000 0.000000 0.000000 -0.003584 0.000000 0.033996
#
#
# Mechanical properties :
#
#
# Convention : Reuss Voigt Hill
#
# Bulk Modulus (GPa) = 27.02858 48.97762 38.00310
# Shear Modulus (GPa) = 17.59132 23.78654 20.68893
#
# Velocity S-wave (km/s) = 3.04935 3.54588 3.30695
# Velocity P-wave (km/s) = 5.16575 6.53094 5.88805
#
# Compressibility (1/GPa) = 0.03699788
#
# Stress axis : x y z
#
# Youngs Moduli (GPa) = 82.81573 43.09219 24.11924
#
# Poissons Ratio (x) = 0.22376 0.27698
# Poissons Ratio (y) = 0.43003 0.07708
# Poissons Ratio (z) = 0.95103 0.13771
#
# Static dielectric constant tensor:
#      x y z
#    x 1.704670 0.000000 0.013220 
#    y 0.000000 1.638240 0.000000 
#    z 0.013220 0.000000 1.684200 
# 
# From -- ./inp_files/34615.got.cif
#   From: 2010.05.17/outbox.cif.g08.bks.cpg/sg13_18_cif.got.tgz:34615.got - 2010.06.03 16:44:36.
