data_PCOD9226048
_publ_section_title
;
Structure prediction by ZEFSAII (Michael W. Deem and Ramdas Pophale) SiO2 
 PCOD9226048
Probable space group: P 2/C
;
_chemical_formula_sum "Si O2"
_cell_formula_units_Z 28
_cell_length_a 14.588509
_cell_length_b 5.232329
_cell_length_c 14.527131
_cell_angle_alpha 90.000000
_cell_angle_beta 99.180536
_cell_angle_gamma 90.000000
_cell_volume 1094.678986
_symmetry_space_group_name_H-M "P 2/C"
_symmetry_group_IT_number 13
_symmetry_cell_setting 'monoclinic'
loop_
_space_group_symop_operation_xyz
x,y,z
-x,y,1/2-z
-x,-y,-z
x,-y,1/2+z
loop_
_atom_site_type_symbol
_atom_site_label
_atom_site_fract_x
_atom_site_fract_y
_atom_site_fract_z
Si Si1 0.322900 0.909682 0.541571
Si Si2 0.259718 0.413849 0.638959
Si Si3 0.411912 0.529712 0.806571
Si Si4 0.171039 0.206736 0.892120
Si Si5 0.477814 0.964411 0.357955
Si Si6 0.925841 0.732638 0.670556
Si Si7 0.925294 0.681183 0.939967
O O1 0.273932 0.141527 0.592027
O O2 0.430438 0.970019 0.571521
O O3 0.308132 0.636250 0.587510
O O4 0.274932 0.869400 0.435523
O O5 0.318571 0.430438 0.742324
O O6 0.153243 0.511472 0.624483
O O7 0.500000 0.560487 0.750000
O O8 0.444853 0.313866 0.880864
O O9 0.405054 0.805807 0.849948
O O10 0.144397 0.502264 0.867271
O O11 0.130853 0.990878 0.817398
O O12 0.125422 0.170769 0.986869
O O13 0.500000 0.936582 0.250000
O O14 0.000000 0.603173 0.750000
O O15 0.006761 0.837522 0.614207
O O16 0.000000 0.500000 0.000000
#
# Coordination Sequence:
#
# PCOD9226048 Si02
#       7
#     4   4   4   4   4   4   4
#     4  11  17  27  44  68  99 135 159 200 245 309
#     4  11  18  26  43  66  97 137 160 197 247 304
#     4  10  15  24  36  59  94 132 158 187 240 302
#     4  10  21  35  54  79 102 133 170 211 262 304
#     4  10  15  24  37  59  97 134 155 187 245 298
#     4  11  22  39  56  73 101 137 175 214 255 306
#     4   9  20  35  52  76 105 134 167 211 261 305
#
# _framework density 25.578272999999999
#
# number of rings (size 3 to 8) (size 9 to 14) (size 15 to 20)
#    0.000    1.714    5.714    3.429    0.000    3.429 
#    0.000    0.000    0.000    0.000    0.000    0.000 
#    0.000    6.857    0.000    0.000    0.000    0.000 
#
# Total GULP energy -156190.319295 kJ/mol
# GULP energy per Si atom -5578.225689 kJ/mol
# Density = 2.552006 g / cm^3
# Si number density = 25.578273 Si / 1000 Ang^3
#
#
#
# Elastic Constant Matrix: (Units=GPa)
#
#
# Indices 1 2 3 4 5 6 
#
# 1 80.9929 -0.1405 21.5870 0.0000 11.7222 0.0000
# 2 -0.1405 133.2824 17.1573 0.0000 -0.7359 0.0000
# 3 21.5870 17.1573 101.8312 0.0000 40.8110 0.0000
# 4 0.0000 0.0000 0.0000 42.2820 0.0000 19.9560
# 5 11.7222 -0.7359 40.8110 0.0000 24.7747 0.0000
# 6 0.0000 0.0000 0.0000 19.9560 0.0000 25.2917
#
#
#
# Elastic Compliance Matrix: (Units=1/GPa)
#
#
# Indices 1 2 3 4 5 6 
#
# 1 0.013282 0.000108 -0.000931 0.000000 -0.004747 0.000000
# 2 0.000108 0.008097 -0.004306 0.000000 0.007282 0.000000
# 3 -0.000931 -0.004306 0.031245 0.000000 -0.051157 0.000000
# 4 0.000000 0.000000 0.000000 0.037685 0.000000 -0.029734
# 5 -0.004747 0.007282 -0.051157 0.000000 0.127097 0.000000
# 6 0.000000 0.000000 0.000000 -0.029734 0.000000 0.063000
#
#
# Mechanical properties :
#
#
# Convention : Reuss Voigt Hill
#
# Bulk Modulus (GPa) = 23.60344 43.70158 33.65251
# Shear Modulus (GPa) = 16.40489 36.96986 26.68738
#
# Velocity S-wave (km/s) = 2.53526 3.80592 3.23361
# Velocity P-wave (km/s) = 4.22114 6.03621 5.20835
#
# Compressibility (1/GPa) = 0.04236671
#
# Stress axis : x y z
#
# Youngs Moduli (GPa) = 75.28853 123.49574 32.00475
#
# Poissons Ratio (x) = -0.01330 0.02980
# Poissons Ratio (y) = -0.00811 0.13780
# Poissons Ratio (z) = 0.07011 0.53173
#
# Static dielectric constant tensor:
#      x y z
#    x 2.907270 0.000000 -0.273070 
#    y 0.000000 1.962850 0.000000 
#    z -0.273070 0.000000 2.253370 
# 
# From -- ./inp_files/81275.got.cif
#   From: 2010.05.17/outbox.cif.g08.bks.cpg/sg13_41_cif.got.tgz:81275.got - 2010.06.03 16:44:36.
