data_PCOD9226135
_publ_section_title
;
Structure prediction by ZEFSAII (Michael W. Deem and Ramdas Pophale) SiO2 
 PCOD9226135
Probable space group: P 2/C
;
_chemical_formula_sum "Si O2"
_cell_formula_units_Z 14
_cell_length_a 6.943603
_cell_length_b 16.342481
_cell_length_c 5.559813
_cell_angle_alpha 90.000000
_cell_angle_beta 78.127715
_cell_angle_gamma 90.000000
_cell_volume 617.407769
_symmetry_space_group_name_H-M "P 2/C"
_symmetry_group_IT_number 13
_symmetry_cell_setting 'monoclinic'
loop_
_space_group_symop_operation_xyz
x,y,z
-x,y,1/2-z
-x,-y,-z
x,-y,1/2+z
loop_
_atom_site_type_symbol
_atom_site_label
_atom_site_fract_x
_atom_site_fract_y
_atom_site_fract_z
Si Si1 0.775336 0.968878 0.581277
Si Si2 0.274686 0.290597 0.810768
Si Si3 0.500000 0.450145 0.750000
Si Si4 0.735902 0.222705 0.184797
O O1 0.768600 0.873534 0.645805
O O2 0.690914 0.984899 0.336824
O O3 0.000000 0.000000 0.500000
O O4 0.500000 0.255173 0.750000
O O5 0.314265 0.387757 0.809199
O O6 0.188932 0.266447 0.575822
O O7 0.188725 0.254918 0.078199
O O8 0.500000 0.500000 0.500000
O O9 0.500000 0.239342 0.250000
#
# Coordination Sequence:
#
# PCOD9226135 Si02
#       4
#     4   4   2   4
#     4  10  21  34  47  66  91 124 163 218 258 274
#     4   8  17  27  42  67  93 127 166 182 241 285
#     4  10  16  26  44  68 100 134 158 188 236 290
#     4  10  17  31  47  64  93 128 168 203 233 296
#
# _framework density 22.675450999999999
#
# number of rings (size 3 to 8) (size 9 to 14) (size 15 to 20)
#    0.857    1.714    0.000    3.429    0.000    1.143 
#    0.000    0.000    0.000    0.000    0.000    0.000 
#    0.000    0.000    0.000  360.000    0.000    0.000 
#
# Total GULP energy -78114.616972 kJ/mol
# GULP energy per Si atom -5579.615498 kJ/mol
# Density = 2.262384 g / cm^3
# Si number density = 22.675451 Si / 1000 Ang^3
#
#
#
# Elastic Constant Matrix: (Units=GPa)
#
#
# Indices 1 2 3 4 5 6 
#
# 1 75.3488 -4.0655 59.3279 0.0000 9.6050 0.0000
# 2 -4.0655 158.6289 132.8824 0.0000 18.0010 0.0000
# 3 59.3279 132.8824 326.8900 0.0000 25.9708 0.0000
# 4 0.0000 0.0000 0.0000 57.4222 0.0000 7.6056
# 5 9.6050 18.0010 25.9708 0.0000 50.7914 0.0000
# 6 0.0000 0.0000 0.0000 7.6056 0.0000 9.1420
#
#
#
# Elastic Compliance Matrix: (Units=1/GPa)
#
#
# Indices 1 2 3 4 5 6 
#
# 1 0.017857 0.004992 -0.005067 0.000000 -0.002555 0.000000
# 2 0.004992 0.011060 -0.005228 0.000000 -0.002191 0.000000
# 3 -0.005067 -0.005228 0.006130 0.000000 -0.000323 0.000000
# 4 0.000000 0.000000 0.000000 0.019571 0.000000 -0.016282
# 5 -0.002555 -0.002191 -0.000323 0.000000 0.021113 0.000000
# 6 0.000000 0.000000 0.000000 -0.016282 0.000000 0.122931
#
#
# Mechanical properties :
#
#
# Convention : Reuss Voigt Hill
#
# Bulk Modulus (GPa) = 40.91563 104.12861 72.52212
# Shear Modulus (GPa) = 22.99752 48.31930 35.65841
#
# Velocity S-wave (km/s) = 3.18811 4.62118 3.96985
# Velocity P-wave (km/s) = 5.62452 8.63104 7.28457
#
# Compressibility (1/GPa) = 0.02444054
#
# Stress axis : x y z
#
# Youngs Moduli (GPa) = 56.00194 90.41574 163.14072
#
# Poissons Ratio (x) = -0.45139 0.82668
# Poissons Ratio (y) = -0.27958 0.85290
# Poissons Ratio (z) = 0.28378 0.47269
#
# Static dielectric constant tensor:
#      x y z
#    x 1.893900 0.000000 -0.038700 
#    y 0.000000 1.770370 0.000000 
#    z -0.038700 0.000000 1.849470 
# 
# From -- ./inp_files/1184.got.cif
#   From: 2010.05.17/outbox.cif.g08.bks.cpg/sg13_1_cif.got.tgz:1184.got - 2010.06.03 16:44:36.
