data_PCOD9226063
_publ_section_title
;
Structure prediction by ZEFSAII (Michael W. Deem and Ramdas Pophale) SiO2 
 PCOD9226063
Probable space group: P 2/C
;
_chemical_formula_sum "Si O2"
_cell_formula_units_Z 22
_cell_length_a 9.628107
_cell_length_b 14.357526
_cell_length_c 8.354939
_cell_angle_alpha 90.000000
_cell_angle_beta 65.194587
_cell_angle_gamma 90.000000
_cell_volume 1048.393322
_symmetry_space_group_name_H-M "P 2/C"
_symmetry_group_IT_number 13
_symmetry_cell_setting 'monoclinic'
loop_
_space_group_symop_operation_xyz
x,y,z
-x,y,1/2-z
-x,-y,-z
x,-y,1/2+z
loop_
_atom_site_type_symbol
_atom_site_label
_atom_site_fract_x
_atom_site_fract_y
_atom_site_fract_z
Si Si1 0.500000 0.551204 0.750000
Si Si2 0.627696 0.296982 0.414160
Si Si3 0.313300 0.864785 0.827761
Si Si4 0.329438 0.964184 0.134040
Si Si5 0.000000 0.559799 0.250000
Si Si6 0.202376 0.575738 0.434250
Si Si7 0.500000 0.168976 0.750000
O O1 0.475639 0.621289 0.612195
O O2 0.646877 0.484551 0.678499
O O3 0.706628 0.238222 0.233239
O O4 0.750419 0.341894 0.472010
O O5 0.531376 0.229418 0.576894
O O6 0.500000 0.869418 0.750000
O O7 0.253254 0.940818 0.729805
O O8 0.260824 0.901906 0.025645
O O9 0.359607 0.898299 0.272312
O O10 0.500000 0.000000 0.000000
O O11 0.884451 0.609437 0.183376
O O12 0.900404 0.493901 0.412305
#
# Coordination Sequence:
#
# PCOD9226063 Si02
#       7
#     2   4   4   4   2   4   2
#     4  12  23  41  58  88 126 152 196 257 313 348
#     4  12  22  32  53  86 116 149 199 249 300 342
#     4  10  16  29  44  72 113 160 184 227 283 372
#     4  10  15  28  44  67 116 170 180 210 298 370
#     4  10  24  46  64  76 112 166 210 240 310 366
#     4  11  24  43  62  85 113 164 200 255 302 366
#     4  12  19  27  48  80 120 158 188 239 291 364
#
# _framework density 20.984490999999998
#
# number of rings (size 3 to 8) (size 9 to 14) (size 15 to 20)
#    0.000    1.091    9.091    1.091    2.545    0.000 
#    0.000    0.000    0.000    0.000    0.000    0.000 
#    0.000   17.455    0.000    0.000    0.000    0.000 
#
# Total GULP energy -122670.765345 kJ/mol
# GULP energy per Si atom -5575.943879 kJ/mol
# Density = 2.093673 g / cm^3
# Si number density = 20.984491 Si / 1000 Ang^3
#
#
#
# Elastic Constant Matrix: (Units=GPa)
#
#
# Indices 1 2 3 4 5 6 
#
# 1 74.4014 34.0194 35.6999 0.0000 31.3216 0.0000
# 2 34.0194 83.1955 23.2134 0.0000 25.3734 0.0000
# 3 35.6999 23.2134 75.6407 0.0000 34.1622 0.0000
# 4 0.0000 0.0000 0.0000 48.9823 0.0000 31.9811
# 5 31.3216 25.3734 34.1622 0.0000 44.5834 0.0000
# 6 0.0000 0.0000 0.0000 31.9811 0.0000 16.2427
#
#
#
# Elastic Compliance Matrix: (Units=1/GPa)
#
#
# Indices 1 2 3 4 5 6 
#
# 1 0.021640 -0.004836 -0.004750 0.000000 -0.008811 0.000000
# 2 -0.004836 0.015686 -0.000052 0.000000 -0.005490 0.000000
# 3 -0.004750 -0.000052 0.021344 0.000000 -0.012989 0.000000
# 4 0.000000 0.000000 0.000000 -0.071495 0.000000 0.140770
# 5 -0.008811 -0.005490 -0.012989 0.000000 0.041697 0.000000
# 6 0.000000 0.000000 0.000000 0.140770 0.000000 -0.215603
#
#
# Mechanical properties :
#
#
# Convention : Reuss Voigt Hill
#
# Bulk Modulus (GPa) = 25.38408 46.56699 35.97554
# Shear Modulus (GPa) = -32.39977 31.31535 -0.54221
#
# Velocity S-wave (km/s) = -3.93362 3.86723 -0.50887
# Velocity P-wave (km/s) = 2.91690 6.49461 4.10315
#
# Compressibility (1/GPa) = 0.03939477
#
# Stress axis : x y z
#
# Youngs Moduli (GPa) = 46.20969 63.74965 46.85105
#
# Poissons Ratio (x) = 0.30832 0.22254
# Poissons Ratio (y) = 0.22349 0.00243
# Poissons Ratio (z) = 0.21949 0.00331
#
# Static dielectric constant tensor:
#      x y z
#    x 1.772670 0.000000 0.024380 
#    y 0.000000 1.798900 0.000000 
#    z 0.024380 0.000000 1.811330 
# 
# From -- ./inp_files/12287.got.cif
#   From: 2010.05.17/outbox.cif.g08.bks.cpg/sg13_7_cif.got.tgz:12287.got - 2010.06.03 16:44:36.
