data_PCOD9226198
_publ_section_title
;
Structure prediction by ZEFSAII (Michael W. Deem and Ramdas Pophale) SiO2 
 PCOD9226198
Probable space group: P 2/C
;
_chemical_formula_sum "Si O2"
_cell_formula_units_Z 26
_cell_length_a 35.002310
_cell_length_b 7.057174
_cell_length_c 5.400990
_cell_angle_alpha 90.000000
_cell_angle_beta 112.611080
_cell_angle_gamma 90.000000
_cell_volume 1231.591091
_symmetry_space_group_name_H-M "P 2/C"
_symmetry_group_IT_number 13
_symmetry_cell_setting 'monoclinic'
loop_
_space_group_symop_operation_xyz
x,y,z
-x,y,1/2-z
-x,-y,-z
x,-y,1/2+z
loop_
_atom_site_type_symbol
_atom_site_label
_atom_site_fract_x
_atom_site_fract_y
_atom_site_fract_z
Si Si1 0.605061 0.627047 0.774264
Si Si2 0.822844 0.296974 0.305546
Si Si3 0.908948 0.870184 0.023736
Si Si4 0.000000 0.874215 0.250000
Si Si5 0.787488 0.270701 0.717416
Si Si6 0.303135 0.375140 0.027276
Si Si7 0.517854 0.212698 0.044545
O O1 0.601687 0.490985 0.523328
O O2 0.567200 0.772478 0.669312
O O3 0.651198 0.714314 0.877716
O O4 0.872274 0.283076 0.431201
O O5 0.806243 0.200136 0.510320
O O6 0.802314 0.506399 0.253213
O O7 0.806777 0.200470 0.017870
O O8 0.905313 0.000612 0.765187
O O9 0.954908 0.778088 0.137766
O O10 0.000000 0.000000 0.500000
O O11 0.738141 0.252586 0.594778
O O12 0.300784 0.517802 0.785997
O O13 0.500000 0.299895 0.250000
O O14 0.500000 0.299661 0.750000
O O15 0.500000 0.000000 0.000000
#
# Coordination Sequence:
#
# PCOD9226198 Si02
#       7
#     4   4   4   2   4   4   4
#     4  10  21  32  53  85 108 127 171 227 259 289
#     4  10  18  28  49  73  99 125 166 204 243 304
#     4  10  19  32  48  73  96 130 166 213 256 297
#     4   8  16  30  48  64  92 124 170 210 252 292
#     4  10  17  30  48  74  97 132 162 199 249 295
#     4  10  16  30  48  75 105 126 164 208 255 283
#     4  10  21  37  55  77 106 145 172 204 257 324
#
# _framework density 21.110900999999998
#
# number of rings (size 3 to 8) (size 9 to 14) (size 15 to 20)
#    0.000    2.154    3.077    1.846    0.000    1.846 
#    0.000    0.000    0.000    3.692   24.000    0.000 
#    0.000    0.000    0.000    0.000    0.000    0.000 
#
# Total GULP energy -144875.830345 kJ/mol
# GULP energy per Si atom -5572.147321 kJ/mol
# Density = 2.106285 g / cm^3
# Si number density = 21.110901 Si / 1000 Ang^3
#
#
#
# Elastic Constant Matrix: (Units=GPa)
#
#
# Indices 1 2 3 4 5 6 
#
# 1 180.8892 18.7603 71.2403 0.0000 39.8332 0.0000
# 2 18.7603 67.2348 13.0337 0.0000 4.8027 0.0000
# 3 71.2403 13.0337 159.1256 0.0000 -9.2664 0.0000
# 4 0.0000 0.0000 0.0000 31.1518 0.0000 84.8633
# 5 39.8332 4.8027 -9.2664 0.0000 76.3741 0.0000
# 6 0.0000 0.0000 0.0000 84.8633 0.0000 110.4948
#
#
#
# Elastic Compliance Matrix: (Units=1/GPa)
#
#
# Indices 1 2 3 4 5 6 
#
# 1 0.008193 -0.001208 -0.003841 0.000000 -0.004663 0.000000
# 2 -0.001208 0.015385 -0.000744 0.000000 -0.000427 0.000000
# 3 -0.003841 -0.000744 0.008242 0.000000 0.003050 0.000000
# 4 0.000000 0.000000 0.000000 -0.029390 0.000000 0.022572
# 5 -0.004663 -0.000427 0.003050 0.000000 0.015922 0.000000
# 6 0.000000 0.000000 0.000000 0.022572 0.000000 -0.008286
#
#
# Mechanical properties :
#
#
# Convention : Reuss Voigt Hill
#
# Bulk Modulus (GPa) = 49.42086 68.14648 58.78367
# Shear Modulus (GPa) = 176.06678 63.88516 119.97597
#
# Velocity S-wave (km/s) = 9.14232 5.50703 7.54683
# Velocity P-wave (km/s) = 11.61480 8.53152 10.19045
#
# Compressibility (1/GPa) = 0.02023437
#
# Stress axis : x y z
#
# Youngs Moduli (GPa) = 122.05621 64.99749 121.32551
#
# Poissons Ratio (x) = 0.07855 0.46595
# Poissons Ratio (y) = 0.14750 0.09027
# Poissons Ratio (z) = 0.46876 0.04836
#
# Static dielectric constant tensor:
#      x y z
#    x 1.781950 0.000000 -0.009860 
#    y 0.000000 1.738290 0.000000 
#    z -0.009860 0.000000 1.787570 
# 
# From -- ./inp_files/8074.got.cif
#   From: 2010.05.17/outbox.cif.g08.bks.cpg/sg13_5_cif.got.tgz:8074.got - 2010.06.03 16:44:36.
