data_PCOD9226849
_publ_section_title
;
Structure prediction by ZEFSAII (Michael W. Deem and Ramdas Pophale) SiO2 
 PCOD9226849
Probable space group: P 2/C
;
_chemical_formula_sum "Si O2"
_cell_formula_units_Z 26
_cell_length_a 12.811847
_cell_length_b 9.374810
_cell_length_c 20.736821
_cell_angle_alpha 90.000000
_cell_angle_beta 147.497830
_cell_angle_gamma 90.000000
_cell_volume 1338.316211
_symmetry_space_group_name_H-M "P 2/C"
_symmetry_group_IT_number 13
_symmetry_cell_setting 'monoclinic'
loop_
_space_group_symop_operation_xyz
x,y,z
-x,y,1/2-z
-x,-y,-z
x,-y,1/2+z
loop_
_atom_site_type_symbol
_atom_site_label
_atom_site_fract_x
_atom_site_fract_y
_atom_site_fract_z
Si Si1 0.211668 0.446821 0.987798
Si Si2 0.287904 0.421031 0.660026
Si Si3 0.031725 0.799105 0.080367
Si Si4 0.500000 0.068109 0.250000
Si Si5 0.376282 0.310917 0.287848
Si Si6 0.993858 0.295473 0.173082
Si Si7 0.121442 0.910332 0.991891
O O1 0.187924 0.544953 0.039886
O O2 0.432584 0.399069 0.087978
O O3 0.119595 0.297419 0.961035
O O4 0.097051 0.544353 0.877581
O O5 0.500000 0.375229 0.750000
O O6 0.289788 0.574815 0.693065
O O7 0.215388 0.304038 0.672272
O O8 0.014387 0.956668 0.098869
O O9 0.010741 0.829197 0.992510
O O10 0.436566 0.172769 0.276353
O O11 0.679883 0.973535 0.372273
O O12 0.209412 0.287006 0.253752
O O13 0.859907 0.191991 0.059225
O O14 0.000000 0.248979 0.250000
#
# Coordination Sequence:
#
# PCOD9226849 Si02
#       7
#     4   4   4   2   4   4   4
#     4  11  20  38  67  92 128 161 219 268 325 381
#     4  10  18  30  61 101 125 147 194 276 343 376
#     4  11  19  36  62  95 128 155 207 281 333 386
#     4  12  22  38  68 104 132 160 208 284 344 384
#     4  11  21  39  69 103 127 162 207 281 344 367
#     4  12  27  46  63  88 137 186 221 257 309 396
#     4  11  24  37  62  98 136 169 206 262 338 396
#
# _framework density 19.427396999999999
#
# number of rings (size 3 to 8) (size 9 to 14) (size 15 to 20)
#    0.000    0.923    6.923    3.231    1.077    0.615 
#    0.000    1.538    0.000    0.000    0.000    0.000 
#    0.000    0.000    0.000    0.000    0.000    0.000 
#
# Total GULP energy -144771.053636 kJ/mol
# GULP energy per Si atom -5568.117448 kJ/mol
# Density = 1.938318 g / cm^3
# Si number density = 19.427397 Si / 1000 Ang^3
#
#
#
# Elastic Constant Matrix: (Units=GPa)
#
#
# Indices 1 2 3 4 5 6 
#
# 1 85.0081 25.4667 45.5935 0.0000 8.4846 0.0000
# 2 25.4667 109.6617 35.0447 0.0000 -0.8124 0.0000
# 3 45.5935 35.0447 56.8630 0.0000 8.1083 0.0000
# 4 0.0000 0.0000 0.0000 25.0502 0.0000 8.9955
# 5 8.4846 -0.8124 8.1083 0.0000 34.3218 0.0000
# 6 0.0000 0.0000 0.0000 8.9955 0.0000 24.3259
#
#
#
# Elastic Compliance Matrix: (Units=1/GPa)
#
#
# Indices 1 2 3 4 5 6 
#
# 1 0.020716 0.000544 -0.016782 0.000000 -0.001144 0.000000
# 2 0.000544 0.011502 -0.007808 0.000000 0.001982 0.000000
# 3 -0.016782 -0.007808 0.036519 0.000000 -0.004663 0.000000
# 4 0.000000 0.000000 0.000000 0.046033 0.000000 -0.017023
# 5 -0.001144 0.001982 -0.004663 0.000000 0.030567 0.000000
# 6 0.000000 0.000000 0.000000 -0.017023 0.000000 0.047403
#
#
# Mechanical properties :
#
#
# Convention : Reuss Voigt Hill
#
# Bulk Modulus (GPa) = 48.43737 51.52693 49.98215
# Shear Modulus (GPa) = 20.18447 26.43478 23.30963
#
# Velocity S-wave (km/s) = 3.22680 3.69276 3.46762
# Velocity P-wave (km/s) = 6.23455 6.69047 6.46653
#
# Compressibility (1/GPa) = 0.02064522
#
# Stress axis : x y z
#
# Youngs Moduli (GPa) = 48.27205 86.93791 27.38273
#
# Poissons Ratio (x) = -0.04728 0.45955
# Poissons Ratio (y) = -0.02625 0.21380
# Poissons Ratio (z) = 0.81012 0.67879
#
# Static dielectric constant tensor:
#      x y z
#    x 1.635050 0.000000 0.093110 
#    y 0.000000 1.744570 0.000000 
#    z 0.093110 0.000000 1.735310 
# 
# From -- ./inp_files/78167.got.cif
#   From: 2010.05.17/outbox.cif.g08.bks.cpg/sg13_40_cif.got.tgz:78167.got - 2010.06.03 16:44:36.
