data_PCOD9226383
_publ_section_title
;
Structure prediction by ZEFSAII (Michael W. Deem and Ramdas Pophale) SiO2 
 PCOD9226383
Probable space group: P 2/C
;
_chemical_formula_sum "Si O2"
_cell_formula_units_Z 30
_cell_length_a 21.179375
_cell_length_b 17.306590
_cell_length_c 8.814880
_cell_angle_alpha 90.000000
_cell_angle_beta 145.847869
_cell_angle_gamma 90.000000
_cell_volume 1813.875221
_symmetry_space_group_name_H-M "P 2/C"
_symmetry_group_IT_number 13
_symmetry_cell_setting 'monoclinic'
loop_
_space_group_symop_operation_xyz
x,y,z
-x,y,1/2-z
-x,-y,-z
x,-y,1/2+z
loop_
_atom_site_type_symbol
_atom_site_label
_atom_site_fract_x
_atom_site_fract_y
_atom_site_fract_z
Si Si1 0.616815 0.961380 0.170507
Si Si2 0.679319 0.275640 0.120885
Si Si3 0.500000 0.835407 0.750000
Si Si4 0.131327 0.397809 0.989719
Si Si5 0.603605 0.557844 0.034827
Si Si6 0.501628 0.295321 0.500218
Si Si7 0.638524 0.895200 0.527482
Si Si8 0.239680 0.470360 0.916158
O O1 0.670495 0.920687 0.421650
O O2 0.672758 0.034895 0.204457
O O3 0.592279 0.895492 0.996954
O O4 0.500000 0.000000 0.000000
O O5 0.792020 0.323382 0.324733
O O6 0.690950 0.185451 0.180191
O O7 0.601691 0.276312 0.816596
O O8 0.605981 0.313651 0.110033
O O9 0.525381 0.777924 0.660754
O O10 0.172400 0.464544 0.187857
O O11 0.160798 0.424986 0.876609
O O12 0.000000 0.384334 0.750000
O O13 0.546700 0.633058 0.993560
O O14 0.667104 0.510851 0.291057
O O15 0.693726 0.576220 0.082006
O O16 0.500000 0.512182 0.750000
O O17 0.500000 0.886210 0.250000
#
# Coordination Sequence:
#
# PCOD9226383 Si02
#       8
#     4   4   2   4   4   4   4   4
#     4  10  17  26  43  70 104 145 178 201 244 308
#     4  11  21  35  51  76 108 145 174 212 274 316
#     4  12  18  28  48  72 114 150 174 202 250 320
#     4  11  23  41  60  78 101 138 188 232 269 308
#     4  11  20  35  51  81 112 143 171 207 270 333
#     4  11  21  31  49  77 116 145 164 215 263 332
#     4  10  17  29  45  72 108 141 174 208 257 317
#     4  10  23  38  57  78 103 137 183 227 265 316
#
# _framework density 16.539176000000001
#
# number of rings (size 3 to 8) (size 9 to 14) (size 15 to 20)
#    0.000    1.333    6.667    2.400    0.000    1.067 
#    0.000    0.000    0.000    0.000    0.000    0.933 
#    0.000    0.000    0.000    0.000    0.000    0.000 
#
# Total GULP energy -167325.524599 kJ/mol
# GULP energy per Si atom -5577.517487 kJ/mol
# Density = 1.650153 g / cm^3
# Si number density = 16.539176 Si / 1000 Ang^3
#
#
#
# Elastic Constant Matrix: (Units=GPa)
#
#
# Indices 1 2 3 4 5 6 
#
# 1 104.2162 46.4339 44.3078 0.0000 -7.7539 0.0000
# 2 46.4339 88.5221 27.9309 0.0000 4.3491 0.0000
# 3 44.3078 27.9309 61.4118 0.0000 6.5839 0.0000
# 4 0.0000 0.0000 0.0000 9.1441 0.0000 -12.5831
# 5 -7.7539 4.3491 6.5839 0.0000 25.8858 0.0000
# 6 0.0000 0.0000 0.0000 -12.5831 0.0000 24.2716
#
#
#
# Elastic Compliance Matrix: (Units=1/GPa)
#
#
# Indices 1 2 3 4 5 6 
#
# 1 0.017716 -0.006304 -0.010894 0.000000 0.009137 0.000000
# 2 -0.006304 0.015445 -0.002052 0.000000 -0.003962 0.000000
# 3 -0.010894 -0.002052 0.026101 0.000000 -0.009557 0.000000
# 4 0.000000 0.000000 0.000000 0.381588 0.000000 0.197826
# 5 0.009137 -0.003962 -0.009557 0.000000 0.044464 0.000000
# 6 0.000000 0.000000 0.000000 0.197826 0.000000 0.143759
#
#
# Mechanical properties :
#
#
# Convention : Reuss Voigt Hill
#
# Bulk Modulus (GPa) = 48.16354 54.61058 51.38706
# Shear Modulus (GPa) = 7.41296 20.89214 14.15255
#
# Velocity S-wave (km/s) = 2.11939 3.55800 2.92841
# Velocity P-wave (km/s) = 5.93070 7.06893 6.52468
#
# Compressibility (1/GPa) = 0.02076259
#
# Stress axis : x y z
#
# Youngs Moduli (GPa) = 56.44717 64.74385 38.31263
#
# Poissons Ratio (x) = 0.40816 0.41737
# Poissons Ratio (y) = 0.35586 0.07860
# Poissons Ratio (z) = 0.61493 0.13283
#
# Static dielectric constant tensor:
#      x y z
#    x 1.599080 0.000000 -0.038390 
#    y 0.000000 1.590820 0.000000 
#    z -0.038390 0.000000 1.556190 
# 
# From -- ./inp_files/23657.got.cif
#   From: 2010.05.17/outbox.cif.g08.bks.cpg/sg13_12_cif.got.tgz:23657.got - 2010.06.03 16:44:36.
