data_PCOD9226258
_publ_section_title
;
Structure prediction by ZEFSAII (Michael W. Deem and Ramdas Pophale) SiO2 
 PCOD9226258
Probable space group: P 2/C
;
_chemical_formula_sum "Si O2"
_cell_formula_units_Z 28
_cell_length_a 16.834842
_cell_length_b 15.808146
_cell_length_c 5.239182
_cell_angle_alpha 90.000000
_cell_angle_beta 67.395695
_cell_angle_gamma 90.000000
_cell_volume 1287.183565
_symmetry_space_group_name_H-M "P 2/C"
_symmetry_group_IT_number 13
_symmetry_cell_setting 'monoclinic'
loop_
_space_group_symop_operation_xyz
x,y,z
-x,y,1/2-z
-x,-y,-z
x,-y,1/2+z
loop_
_atom_site_type_symbol
_atom_site_label
_atom_site_fract_x
_atom_site_fract_y
_atom_site_fract_z
Si Si1 0.659281 0.777965 0.440126
Si Si2 0.055033 0.772701 0.922819
Si Si3 0.269862 0.461140 0.910625
Si Si4 0.555121 0.607530 0.435921
Si Si5 0.097982 0.034735 0.349460
Si Si6 0.755710 0.274996 0.337706
Si Si7 0.402170 0.963627 0.082967
O O1 0.599151 0.697534 0.452357
O O2 0.701747 0.759697 0.663450
O O3 0.607424 0.866070 0.485784
O O4 0.730392 0.776948 0.125052
O O5 0.086468 0.867260 0.814083
O O6 0.144054 0.725570 0.852648
O O7 0.000000 0.740696 0.750000
O O8 0.000000 0.776195 0.250000
O O9 0.234149 0.473487 0.666875
O O10 0.370809 0.460463 0.714521
O O11 0.262551 0.371530 0.060902
O O12 0.500000 0.620179 0.250000
O O13 0.500000 0.583761 0.750000
O O14 0.140638 0.014894 0.565907
O O15 0.000000 0.000000 0.500000
O O16 0.361725 0.980310 0.408762
O O17 0.500000 0.000000 0.000000
#
# Coordination Sequence:
#
# PCOD9226258 Si02
#       7
#     4   4   4   4   4   4   4
#     4  11  23  43  62  86 138 172 220 270 311 386
#     4  12  22  38  66  93 123 163 208 270 311 387
#     4  11  23  43  67  90 131 170 200 254 327 403
#     4  11  23  36  63  99 124 166 212 264 319 369
#     4  10  16  31  53  83 117 149 192 232 305 369
#     4  11  25  44  65  96 125 169 218 256 334 397
#     4  10  22  37  61  88 118 173 233 272 305 362
#
# _framework density 21.752918000000001
#
# number of rings (size 3 to 8) (size 9 to 14) (size 15 to 20)
#    0.000    1.143    2.857    6.000    4.000    1.714 
#    0.000    4.286    0.000    2.571    0.000    0.000 
#    0.000    0.000    0.000    0.000    0.000    0.000 
#
# Total GULP energy -156276.353390 kJ/mol
# GULP energy per Si atom -5581.298335 kJ/mol
# Density = 2.170341 g / cm^3
# Si number density = 21.752918 Si / 1000 Ang^3
#
#
#
# Elastic Constant Matrix: (Units=GPa)
#
#
# Indices 1 2 3 4 5 6 
#
# 1 58.0519 17.6815 42.5409 0.0000 11.5707 0.0000
# 2 17.6815 71.2290 28.4188 0.0000 7.8826 0.0000
# 3 42.5409 28.4188 107.6017 0.0000 34.5844 0.0000
# 4 0.0000 0.0000 0.0000 25.2080 0.0000 4.6954
# 5 11.5707 7.8826 34.5844 0.0000 40.7560 0.0000
# 6 0.0000 0.0000 0.0000 4.6954 0.0000 8.9590
#
#
#
# Elastic Compliance Matrix: (Units=1/GPa)
#
#
# Indices 1 2 3 4 5 6 
#
# 1 0.024722 -0.002468 -0.009652 0.000000 0.001649 0.000000
# 2 -0.002468 0.015952 -0.003398 0.000000 0.000498 0.000000
# 3 -0.009652 -0.003398 0.017758 0.000000 -0.011672 0.000000
# 4 0.000000 0.000000 0.000000 0.043962 0.000000 -0.023040
# 5 0.001649 0.000498 -0.011672 0.000000 0.033876 0.000000
# 6 0.000000 0.000000 0.000000 -0.023040 0.000000 0.123695
#
#
# Mechanical properties :
#
#
# Convention : Reuss Voigt Hill
#
# Bulk Modulus (GPa) = 36.50082 46.01833 41.25958
# Shear Modulus (GPa) = 16.65919 24.86735 20.76327
#
# Velocity S-wave (km/s) = 2.77038 3.38475 3.09286
# Velocity P-wave (km/s) = 5.20091 6.03956 5.63586
#
# Compressibility (1/GPa) = 0.02739664
#
# Stress axis : x y z
#
# Youngs Moduli (GPa) = 40.44928 62.68671 56.31128
#
# Poissons Ratio (x) = 0.15474 0.54353
# Poissons Ratio (y) = 0.09985 0.19132
# Poissons Ratio (z) = 0.39043 0.21298
#
# Static dielectric constant tensor:
#      x y z
#    x 2.070910 0.000000 -0.922240 
#    y 0.000000 1.823290 0.000000 
#    z -0.922240 0.000000 5.758300 
# 
# From -- ./inp_files/6246.got.cif
#   From: 2010.05.17/outbox.cif.g08.bks.cpg/sg13_4_cif.got.tgz:6246.got - 2010.06.03 16:44:36.
