data_PCOD9226558
_publ_section_title
;
Structure prediction by ZEFSAII (Michael W. Deem and Ramdas Pophale) SiO2 
 PCOD9226558
Probable space group: P 2/C
;
_chemical_formula_sum "Si O2"
_cell_formula_units_Z 30
_cell_length_a 23.451930
_cell_length_b 8.709210
_cell_length_c 20.042043
_cell_angle_alpha 90.000000
_cell_angle_beta 157.541948
_cell_angle_gamma 90.000000
_cell_volume 1563.761736
_symmetry_space_group_name_H-M "P 2/C"
_symmetry_group_IT_number 13
_symmetry_cell_setting 'monoclinic'
loop_
_space_group_symop_operation_xyz
x,y,z
-x,y,1/2-z
-x,-y,-z
x,-y,1/2+z
loop_
_atom_site_type_symbol
_atom_site_label
_atom_site_fract_x
_atom_site_fract_y
_atom_site_fract_z
Si Si1 0.734866 0.755291 0.328772
Si Si2 0.450022 0.060746 0.517312
Si Si3 0.500000 0.706366 0.750000
Si Si4 0.762913 0.279451 0.287630
Si Si5 0.736445 0.160238 0.594758
Si Si6 0.269846 0.426465 0.813319
Si Si7 0.970692 0.011220 0.548539
Si Si8 0.409561 0.461276 0.287488
O O1 0.597532 0.859713 0.204656
O O2 0.707937 0.689462 0.224744
O O3 0.711067 0.599264 0.345299
O O4 0.880033 0.863676 0.478075
O O5 0.319806 0.179944 0.358372
O O6 0.500000 0.000000 0.500000
O O7 0.385607 0.924932 0.491408
O O8 0.354470 0.801928 0.569982
O O9 0.552100 0.607566 0.742760
O O10 0.825841 0.431039 0.318442
O O11 0.871890 0.164655 0.443371
O O12 0.653249 0.341375 0.226378
O O13 0.781086 0.319346 0.680675
O O14 0.878442 0.049000 0.748644
O O15 0.428362 0.501802 0.005866
O O16 0.000000 0.000000 0.500000
#
# Coordination Sequence:
#
# PCOD9226558 Si02
#       8
#     4   4   2   4   4   4   4   4
#     4  11  19  32  60  95 126 150 192 252 320 370
#     4  12  16  31  59  92 123 151 191 248 315 362
#     4  10  24  44  66  80 116 166 236 250 290 366
#     4  11  19  30  60  93 124 154 188 252 320 364
#     4  11  23  39  59  89 123 164 206 251 303 371
#     4  10  17  32  57  91 125 152 197 243 305 365
#     4  12  22  35  56 100 137 152 182 255 336 376
#     4  10  20  37  60  91 115 165 210 257 289 359
#
# _framework density 19.184508999999998
#
# number of rings (size 3 to 8) (size 9 to 14) (size 15 to 20)
#    0.000    1.067    8.000    1.600    0.000    0.533 
#    0.000    1.333    0.000    0.000    6.933    0.000 
#    0.000    0.000    0.000    0.000    0.000    0.000 
#
# Total GULP energy -167147.500766 kJ/mol
# GULP energy per Si atom -5571.583359 kJ/mol
# Density = 1.914084 g / cm^3
# Si number density = 19.184509 Si / 1000 Ang^3
#
#
#
# Elastic Constant Matrix: (Units=GPa)
#
#
# Indices 1 2 3 4 5 6 
#
# 1 45.5092 21.4440 25.4979 0.0000 -10.1608 0.0000
# 2 21.4440 88.9981 37.0679 0.0000 -0.3934 0.0000
# 3 25.4979 37.0679 88.7112 0.0000 -2.3920 0.0000
# 4 0.0000 0.0000 0.0000 26.9288 0.0000 4.3834
# 5 -10.1608 -0.3934 -2.3920 0.0000 21.0328 0.0000
# 6 0.0000 0.0000 0.0000 4.3834 0.0000 19.4969
#
#
#
# Elastic Compliance Matrix: (Units=1/GPa)
#
#
# Indices 1 2 3 4 5 6 
#
# 1 0.031022 -0.004670 -0.006584 0.000000 0.014151 0.000000
# 2 -0.004670 0.014310 -0.004705 0.000000 -0.002524 0.000000
# 3 -0.006584 -0.004705 0.015089 0.000000 -0.001552 0.000000
# 4 0.000000 0.000000 0.000000 0.038546 0.000000 -0.008666
# 5 0.014151 -0.002524 -0.001552 0.000000 0.054157 0.000000
# 6 0.000000 0.000000 0.000000 -0.008666 0.000000 0.053239
#
#
# Mechanical properties :
#
#
# Convention : Reuss Voigt Hill
#
# Bulk Modulus (GPa) = 35.08350 43.47089 39.27720
# Shear Modulus (GPa) = 20.17907 22.77228 21.47568
#
# Velocity S-wave (km/s) = 3.24673 3.44904 3.34942
# Velocity P-wave (km/s) = 5.69053 6.21046 5.95617
#
# Compressibility (1/GPa) = 0.02850343
#
# Stress axis : x y z
#
# Youngs Moduli (GPa) = 32.23497 69.88112 66.27338
#
# Poissons Ratio (x) = 0.32636 0.43632
# Poissons Ratio (y) = 0.15054 0.31183
# Poissons Ratio (z) = 0.21222 0.32880
#
# Static dielectric constant tensor:
#      x y z
#    x 1.639710 0.000000 -0.024760 
#    y 0.000000 1.728420 0.000000 
#    z -0.024760 0.000000 1.355470 
# 
# From -- ./inp_files/82266.got.cif
#   From: 2010.05.17/outbox.cif.g08.bks.cpg/sg13_42_cif.got.tgz:82266.got - 2010.06.03 16:44:36.
