data_PCOD9226889
_publ_section_title
;
Structure prediction by ZEFSAII (Michael W. Deem and Ramdas Pophale) SiO2 
 PCOD9226889
Probable space group: P 2/C
;
_chemical_formula_sum "Si O2"
_cell_formula_units_Z 30
_cell_length_a 12.842063
_cell_length_b 7.970228
_cell_length_c 13.482898
_cell_angle_alpha 90.000000
_cell_angle_beta 93.114162
_cell_angle_gamma 90.000000
_cell_volume 1377.992907
_symmetry_space_group_name_H-M "P 2/C"
_symmetry_group_IT_number 13
_symmetry_cell_setting 'monoclinic'
loop_
_space_group_symop_operation_xyz
x,y,z
-x,y,1/2-z
-x,-y,-z
x,-y,1/2+z
loop_
_atom_site_type_symbol
_atom_site_label
_atom_site_fract_x
_atom_site_fract_y
_atom_site_fract_z
Si Si1 0.615341 0.223578 0.787298
Si Si2 0.746109 0.907128 0.569345
Si Si3 0.442822 0.276353 0.503718
Si Si4 0.000000 0.917842 0.750000
Si Si5 0.219271 0.933555 0.707413
Si Si6 0.175803 0.258624 0.003497
Si Si7 0.644577 0.599530 0.086022
Si Si8 0.959416 0.185422 0.031961
O O1 0.500000 0.158292 0.750000
O O2 0.596928 0.323382 0.887749
O O3 0.653640 0.336375 0.698187
O O4 0.694840 0.072812 0.810045
O O5 0.628203 0.881110 0.528241
O O6 0.749923 0.856419 0.684861
O O7 0.835065 0.807275 0.510706
O O8 0.787329 0.097811 0.560776
O O9 0.411537 0.421656 0.426327
O O10 0.566703 0.273102 0.522840
O O11 0.895659 0.013587 0.777741
O O12 0.028857 0.810917 0.848190
O O13 0.203968 0.803758 0.616442
O O14 0.052371 0.295115 0.991231
O O15 0.246657 0.405278 0.965330
O O16 0.000000 0.000000 0.000000
#
# Coordination Sequence:
#
# PCOD9226889 Si02
#       8
#     4   4   4   2   4   4   4   4
#     4  10  20  35  54  75 103 135 173 219 264 305
#     4  10  18  32  54  79 106 134 174 214 258 304
#     4  10  22  38  54  74 106 143 176 214 262 315
#     4   8  16  28  46  74 112 136 164 204 260 312
#     4  10  18  31  53  84 106 136 172 218 259 303
#     4  10  18  32  54  79 106 134 174 214 258 304
#     4  10  22  38  54  74 106 143 176 214 262 315
#     4   8  16  28  47  76 105 133 163 211 257 303
#
# _framework density 21.770793000000001
#
# number of rings (size 3 to 8) (size 9 to 14) (size 15 to 20)
#    0.000    2.400    2.667    0.000    0.000    2.667 
#    0.000    2.000    0.000    0.000    0.000    0.000 
#    0.000    0.000    0.000    0.000    0.000    0.000 
#
# Total GULP energy -167070.063785 kJ/mol
# GULP energy per Si atom -5569.002126 kJ/mol
# Density = 2.172124 g / cm^3
# Si number density = 21.770793 Si / 1000 Ang^3
#
#
#
# Elastic Constant Matrix: (Units=GPa)
#
#
# Indices 1 2 3 4 5 6 
#
# 1 70.2470 6.3881 -9.8333 0.0000 -14.8027 0.0000
# 2 6.3881 25.2530 -9.2924 0.0000 -2.5899 0.0000
# 3 -9.8333 -9.2924 58.2474 0.0000 -3.4039 0.0000
# 4 0.0000 0.0000 0.0000 10.1154 0.0000 -1.4320
# 5 -14.8027 -2.5899 -3.4039 0.0000 30.8076 0.0000
# 6 0.0000 0.0000 0.0000 -1.4320 0.0000 16.1727
#
#
#
# Elastic Compliance Matrix: (Units=1/GPa)
#
#
# Indices 1 2 3 4 5 6 
#
# 1 0.016553 -0.002291 0.002901 0.000000 0.008081 0.000000
# 2 -0.002291 0.042961 0.006657 0.000000 0.003246 0.000000
# 3 0.002901 0.006657 0.018956 0.000000 0.004048 0.000000
# 4 0.000000 0.000000 0.000000 0.100114 0.000000 0.008864
# 5 0.008081 0.003246 0.004048 0.000000 0.037063 0.000000
# 6 0.000000 0.000000 0.000000 0.008864 0.000000 0.062617
#
#
# Mechanical properties :
#
#
# Convention : Reuss Voigt Hill
#
# Bulk Modulus (GPa) = 10.75216 14.25246 12.50231
# Shear Modulus (GPa) = 16.96456 22.51814 19.74135
#
# Velocity S-wave (km/s) = 2.79451 3.21959 3.01455
# Velocity P-wave (km/s) = 3.91942 4.51462 4.22751
#
# Compressibility (1/GPa) = 0.09300456
#
# Stress axis : x y z
#
# Youngs Moduli (GPa) = 60.41244 23.27684 52.75246
#
# Poissons Ratio (x) = 0.05332 -0.15305
# Poissons Ratio (y) = 0.13840 -0.35116
# Poissons Ratio (z) = -0.17527 -0.15495
#
# Static dielectric constant tensor:
#      x y z
#    x 1.879350 0.000000 0.013590 
#    y 0.000000 1.826650 0.000000 
#    z 0.013590 0.000000 1.827410 
# 
# From -- ./inp_files/50032.got.cif
#   From: 2010.05.17/outbox.cif.g08.bks.cpg/sg13_26_cif.got.tgz:50032.got - 2010.06.03 16:44:36.
