data_PCOD9226951
_publ_section_title
;
Structure prediction by ZEFSAII (Michael W. Deem and Ramdas Pophale) SiO2 
 PCOD9226951
Probable space group: P 2/C
;
_chemical_formula_sum "Si O2"
_cell_formula_units_Z 18
_cell_length_a 12.228982
_cell_length_b 8.937975
_cell_length_c 9.517587
_cell_angle_alpha 90.000000
_cell_angle_beta 47.132862
_cell_angle_gamma 90.000000
_cell_volume 762.466373
_symmetry_space_group_name_H-M "P 2/C"
_symmetry_group_IT_number 13
_symmetry_cell_setting 'monoclinic'
loop_
_space_group_symop_operation_xyz
x,y,z
-x,y,1/2-z
-x,-y,-z
x,-y,1/2+z
loop_
_atom_site_type_symbol
_atom_site_label
_atom_site_fract_x
_atom_site_fract_y
_atom_site_fract_z
Si Si1 0.914154 0.824785 0.014903
Si Si2 0.294857 0.615430 0.415143
Si Si3 0.461358 0.218924 0.985847
Si Si4 0.801602 0.025665 0.334982
Si Si5 0.500000 0.660060 0.750000
O O1 0.865970 0.662449 0.000289
O O2 0.852148 0.869544 0.221896
O O3 0.840391 0.939540 0.963030
O O4 0.087958 0.860916 0.846552
O O5 0.335829 0.663075 0.537842
O O6 0.359322 0.450547 0.348055
O O7 0.398086 0.729732 0.231148
O O8 0.369952 0.066782 0.041443
O O9 0.506896 0.244533 0.104588
#
# Coordination Sequence:
#
# PCOD9226951 Si02
#       5
#     4   4   4   4   2
#     4   9  18  32  51  70  97 124 153 190 235 282
#     4   9  17  32  50  69  93 126 155 191 237 276
#     4   9  18  31  50  69  94 124 158 193 232 274
#     4   9  18  33  49  71  96 125 154 190 234 280
#     4  10  18  32  50  70  94 124 160 198 228 270
#
# _framework density 23.607600000000001
#
# number of rings (size 3 to 8) (size 9 to 14) (size 15 to 20)
#    0.000    3.111    0.000    2.667    0.000    2.667 
#    0.000    4.444    0.000    5.333    0.000    1.556 
#    0.000    0.000    0.000    0.000    0.000    0.000 
#
# Total GULP energy -100275.052226 kJ/mol
# GULP energy per Si atom -5570.836235 kJ/mol
# Density = 2.355387 g / cm^3
# Si number density = 23.607600 Si / 1000 Ang^3
#
#
#
# Elastic Constant Matrix: (Units=GPa)
#
#
# Indices 1 2 3 4 5 6 
#
# 1 78.7417 27.3335 41.6865 0.0000 7.2404 0.0000
# 2 27.3335 63.5009 20.8222 0.0000 -2.2236 0.0000
# 3 41.6865 20.8222 63.3067 0.0000 27.2978 0.0000
# 4 0.0000 0.0000 0.0000 23.5163 0.0000 -1.8751
# 5 7.2404 -2.2236 27.2978 0.0000 44.7232 0.0000
# 6 0.0000 0.0000 0.0000 -1.8751 0.0000 23.0523
#
#
#
# Elastic Compliance Matrix: (Units=1/GPa)
#
#
# Indices 1 2 3 4 5 6 
#
# 1 0.021781 -0.004111 -0.015447 0.000000 0.005698 0.000000
# 2 -0.004111 0.019699 -0.006083 0.000000 0.005358 0.000000
# 3 -0.015447 -0.006083 0.036672 0.000000 -0.020185 0.000000
# 4 0.000000 0.000000 0.000000 0.042801 0.000000 0.003482
# 5 0.005698 0.005358 -0.020185 0.000000 0.034024 0.000000
# 6 0.000000 0.000000 0.000000 0.003482 0.000000 0.043663
#
#
# Mechanical properties :
#
#
# Convention : Reuss Voigt Hill
#
# Bulk Modulus (GPa) = 37.21428 42.80374 40.00901
# Shear Modulus (GPa) = 19.31404 25.97216 22.64310
#
# Velocity S-wave (km/s) = 2.86340 3.32047 3.10037
# Velocity P-wave (km/s) = 5.17010 5.73336 5.45900
#
# Compressibility (1/GPa) = 0.02687141
#
# Stress axis : x y z
#
# Youngs Moduli (GPa) = 45.91249 50.76307 27.26841
#
# Poissons Ratio (x) = 0.20867 0.42122
# Poissons Ratio (y) = 0.18873 0.16587
# Poissons Ratio (z) = 0.70922 0.30878
#
# Static dielectric constant tensor:
#      x y z
#    x 1.937860 0.000000 -0.084130 
#    y 0.000000 1.914980 0.000000 
#    z -0.084130 0.000000 2.000830 
# 
# From -- ./inp_files/15735.got.cif
#   From: 2010.05.17/outbox.cif.g08.bks.cpg/sg13_8_cif.got.tgz:15735.got - 2010.06.03 16:44:36.
