data_PCOD9226572
_publ_section_title
;
Structure prediction by ZEFSAII (Michael W. Deem and Ramdas Pophale) SiO2 
 PCOD9226572
Probable space group: P 2/C
;
_chemical_formula_sum "Si O2"
_cell_formula_units_Z 24
_cell_length_a 7.858798
_cell_length_b 12.038619
_cell_length_c 20.832024
_cell_angle_alpha 90.000000
_cell_angle_beta 143.946567
_cell_angle_gamma 90.000000
_cell_volume 1159.951572
_symmetry_space_group_name_H-M "P 2/C"
_symmetry_group_IT_number 13
_symmetry_cell_setting 'monoclinic'
loop_
_space_group_symop_operation_xyz
x,y,z
-x,y,1/2-z
-x,-y,-z
x,-y,1/2+z
loop_
_atom_site_type_symbol
_atom_site_label
_atom_site_fract_x
_atom_site_fract_y
_atom_site_fract_z
Si Si1 0.000000 0.758731 0.250000
Si Si2 0.500000 0.110750 0.250000
Si Si3 0.709165 0.856371 0.619028
Si Si4 0.329208 0.619100 0.874105
Si Si5 0.430999 0.053139 0.841139
Si Si6 0.097234 0.193252 0.468615
Si Si7 0.549298 0.392715 0.941397
O O1 0.802618 0.847244 0.229265
O O2 0.754276 0.676459 0.146518
O O3 0.757261 0.181606 0.358605
O O4 0.624498 0.029292 0.233974
O O5 0.546914 0.744144 0.593454
O O6 0.777303 0.835801 0.564940
O O7 0.000000 0.856051 0.750000
O O8 0.578418 0.974375 0.598617
O O9 0.492794 0.513609 0.894597
O O10 0.000000 0.619882 0.750000
O O11 0.325990 0.594166 0.949082
O O12 0.748173 0.107154 0.936700
O O13 0.222345 0.313578 0.524026
#
# Coordination Sequence:
#
# PCOD9226572 Si02
#       7
#     2   2   4   4   4   4   4
#     4  10  18  34  54  80 110 136 174 222 266 310
#     4  12  22  36  48  74 112 150 178 216 256 318
#     4  10  17  33  55  83 104 134 171 221 267 312
#     4   9  17  29  53  82 110 127 167 219 271 318
#     4  11  21  34  54  79 108 143 178 217 265 315
#     4  10  21  34  54  76 108 141 181 215 265 315
#     4   9  18  32  52  83 106 136 166 221 274 312
#
# _framework density 20.690519999999999
#
# number of rings (size 3 to 8) (size 9 to 14) (size 15 to 20)
#    0.000    2.000    3.333    1.000    0.000    2.667 
#    0.000    0.000    0.000    1.000    0.000   22.167 
#    0.000    0.000    0.000    0.000    0.000    0.000 
#
# Total GULP energy -133638.019548 kJ/mol
# GULP energy per Si atom -5568.250814 kJ/mol
# Density = 2.064343 g / cm^3
# Si number density = 20.690520 Si / 1000 Ang^3
#
#
#
# Elastic Constant Matrix: (Units=GPa)
#
#
# Indices 1 2 3 4 5 6 
#
# 1 21.1452 -1.6657 -6.2477 0.0000 -3.7764 0.0000
# 2 -1.6657 108.8688 21.1718 0.0000 14.2231 0.0000
# 3 -6.2477 21.1718 100.9641 0.0000 17.8843 0.0000
# 4 0.0000 0.0000 0.0000 14.1947 0.0000 -6.5203
# 5 -3.7764 14.2231 17.8843 0.0000 25.2381 0.0000
# 6 0.0000 0.0000 0.0000 -6.5203 0.0000 7.1457
#
#
#
# Elastic Compliance Matrix: (Units=1/GPa)
#
#
# Indices 1 2 3 4 5 6 
#
# 1 0.048954 -0.000449 0.002037 0.000000 0.006134 0.000000
# 2 -0.000449 0.010058 -0.001282 0.000000 -0.004827 0.000000
# 3 0.002037 -0.001282 0.011570 0.000000 -0.007171 0.000000
# 4 0.000000 0.000000 0.000000 0.121285 0.000000 0.110670
# 5 0.006134 -0.004827 -0.007171 0.000000 0.048343 0.000000
# 6 0.000000 0.000000 0.000000 0.110670 0.000000 0.240927
#
#
# Mechanical properties :
#
#
# Convention : Reuss Voigt Hill
#
# Bulk Modulus (GPa) = 14.04598 28.61056 21.32827
# Shear Modulus (GPa) = 9.91559 23.83034 16.87296
#
# Velocity S-wave (km/s) = 2.19152 3.39743 2.85878
# Velocity P-wave (km/s) = 3.63414 5.40813 4.60733
#
# Compressibility (1/GPa) = 0.07119477
#
# Stress axis : x y z
#
# Youngs Moduli (GPa) = 20.42729 99.41887 86.43302
#
# Poissons Ratio (x) = 0.04459 -0.17604
# Poissons Ratio (y) = 0.00916 0.11080
# Poissons Ratio (z) = -0.04160 0.12745
#
# Static dielectric constant tensor:
#      x y z
#    x 1.797490 0.000000 0.003470 
#    y 0.000000 1.841380 0.000000 
#    z 0.003470 0.000000 1.732610 
# 
# From -- ./inp_files/42393.got.cif
#   From: 2010.05.17/outbox.cif.g08.bks.cpg/sg13_22_cif.got.tgz:42393.got - 2010.06.03 16:44:36.
