data_PCOD9226547
_publ_section_title
;
Structure prediction by ZEFSAII (Michael W. Deem and Ramdas Pophale) SiO2 
 PCOD9226547
Probable space group: P 2/C
;
_chemical_formula_sum "Si O2"
_cell_formula_units_Z 30
_cell_length_a 19.673408
_cell_length_b 5.979453
_cell_length_c 17.629401
_cell_angle_alpha 90.000000
_cell_angle_beta 36.587419
_cell_angle_gamma 90.000000
_cell_volume 1236.118960
_symmetry_space_group_name_H-M "P 2/C"
_symmetry_group_IT_number 13
_symmetry_cell_setting 'monoclinic'
loop_
_space_group_symop_operation_xyz
x,y,z
-x,y,1/2-z
-x,-y,-z
x,-y,1/2+z
loop_
_atom_site_type_symbol
_atom_site_label
_atom_site_fract_x
_atom_site_fract_y
_atom_site_fract_z
Si Si1 0.659712 0.037132 0.929082
Si Si2 0.175842 0.572416 0.255092
Si Si3 0.619297 0.483658 0.689410
Si Si4 0.207213 0.306859 0.082248
Si Si5 0.000591 0.915091 0.409177
Si Si6 0.437919 0.980014 0.722133
Si Si7 0.000000 0.045241 0.250000
Si Si8 0.807029 0.171158 0.173751
O O1 0.720648 0.275550 0.868400
O O2 0.716380 0.880698 0.943588
O O3 0.700135 0.942037 0.810959
O O4 0.530394 0.040975 0.071747
O O5 0.149697 0.429759 0.204272
O O6 0.214302 0.429233 0.292703
O O7 0.064102 0.697352 0.382850
O O8 0.500000 0.488852 0.750000
O O9 0.718746 0.459873 0.538396
O O10 0.626534 0.734595 0.720708
O O11 0.616884 0.234108 0.732734
O O12 0.105672 0.191948 0.128333
O O13 0.865698 0.909499 0.544228
O O14 0.033271 0.905511 0.292283
O O15 0.080012 0.106218 0.375208
O O16 0.500000 0.982044 0.750000
#
# Coordination Sequence:
#
# PCOD9226547 Si02
#       8
#     4   4   4   4   4   4   2   4
#     4  10  18  32  52  79 110 140 183 238 295 339
#     4  10  17  32  54  72 106 146 189 234 279 341
#     4  10  19  31  51  76 115 144 187 239 296 339
#     4  11  21  34  48  81 115 152 186 230 293 351
#     4  10  20  35  51  76 107 152 194 232 282 339
#     4  10  18  29  51  80 108 140 180 245 299 337
#     4  12  22  38  52  78 122 158 186 232 290 358
#     4   9  19  34  53  76 109 145 193 240 278 343
#
# _framework density 24.269508999999999
#
# number of rings (size 3 to 8) (size 9 to 14) (size 15 to 20)
#    0.000    1.867    6.667    2.000    1.867    0.533 
#    0.000    0.000    0.000    0.000    0.000    1.867 
#    0.000    0.000    0.000    0.000    0.000    0.000 
#
# Total GULP energy -167078.520285 kJ/mol
# GULP energy per Si atom -5569.284009 kJ/mol
# Density = 2.421427 g / cm^3
# Si number density = 24.269509 Si / 1000 Ang^3
#
#
#
# Elastic Constant Matrix: (Units=GPa)
#
#
# Indices 1 2 3 4 5 6 
#
# 1 25.1263 9.2673 12.0498 0.0000 -13.5896 0.0000
# 2 9.2673 129.5057 40.6124 0.0000 -1.8410 0.0000
# 3 12.0498 40.6124 184.1101 0.0000 3.4445 0.0000
# 4 0.0000 0.0000 0.0000 -13.4244 0.0000 16.3246
# 5 -13.5896 -1.8410 3.4445 0.0000 18.7396 0.0000
# 6 0.0000 0.0000 0.0000 16.3246 0.0000 -2.9822
#
#
#
# Elastic Compliance Matrix: (Units=1/GPa)
#
#
# Indices 1 2 3 4 5 6 
#
# 1 0.071760 -0.002798 -0.005065 0.000000 0.052695 0.000000
# 2 -0.002798 0.008430 -0.001660 0.000000 -0.000896 0.000000
# 3 -0.005065 -0.001660 0.006222 0.000000 -0.004980 0.000000
# 4 0.000000 0.000000 0.000000 0.013169 0.000000 0.072087
# 5 0.052695 -0.000896 -0.004980 0.000000 0.092404 0.000000
# 6 0.000000 0.000000 0.000000 0.072087 0.000000 0.059280
#
#
# Mechanical properties :
#
#
# Convention : Reuss Voigt Hill
#
# Bulk Modulus (GPa) = 14.84403 51.40013 33.12208
# Shear Modulus (GPa) = 17.07848 18.92076 17.99962
#
# Velocity S-wave (km/s) = 2.65561 2.79518 2.72629
# Velocity P-wave (km/s) = 3.94115 5.62514 4.85669
#
# Compressibility (1/GPa) = 0.06736714
#
# Stress axis : x y z
#
# Youngs Moduli (GPa) = 13.93527 118.62999 160.71171
#
# Poissons Ratio (x) = 0.33187 0.81407
# Poissons Ratio (y) = 0.03898 0.26672
# Poissons Ratio (z) = 0.07059 0.19688
#
# Static dielectric constant tensor:
#      x y z
#    x 2.065350 0.000000 0.043100 
#    y 0.000000 2.059450 0.000000 
#    z 0.043100 0.000000 1.943510 
# 
# From -- ./inp_files/82351.got.cif
#   From: 2010.05.17/outbox.cif.g08.bks.cpg/sg13_42_cif.got.tgz:82351.got - 2010.06.03 16:44:36.
