data_PCOD9226517
_publ_section_title
;
Structure prediction by ZEFSAII (Michael W. Deem and Ramdas Pophale) SiO2 
 PCOD9226517
Probable space group: P 2/C
;
_chemical_formula_sum "Si O2"
_cell_formula_units_Z 24
_cell_length_a 8.335024
_cell_length_b 9.508974
_cell_length_c 17.940303
_cell_angle_alpha 90.000000
_cell_angle_beta 141.354314
_cell_angle_gamma 90.000000
_cell_volume 887.982714
_symmetry_space_group_name_H-M "P 2/C"
_symmetry_group_IT_number 13
_symmetry_cell_setting 'monoclinic'
loop_
_space_group_symop_operation_xyz
x,y,z
-x,y,1/2-z
-x,-y,-z
x,-y,1/2+z
loop_
_atom_site_type_symbol
_atom_site_label
_atom_site_fract_x
_atom_site_fract_y
_atom_site_fract_z
Si Si1 0.113935 0.758219 0.877374
Si Si2 0.358674 0.637210 0.418884
Si Si3 0.731541 0.476292 0.265459
Si Si4 0.593451 0.193644 0.364626
Si Si5 0.928527 0.266367 0.882137
Si Si6 0.812135 0.987124 0.250514
O O1 0.000000 0.747444 0.750000
O O2 0.980867 0.622245 0.864127
O O3 0.414129 0.750886 0.000945
O O4 0.995842 0.903657 0.860772
O O5 0.500000 0.500000 0.500000
O O6 0.267214 0.577467 0.306429
O O7 0.152007 0.690459 0.403227
O O8 0.515579 0.355887 0.173971
O O9 0.768633 0.593505 0.343280
O O10 0.500000 0.143834 0.250000
O O11 0.893665 0.202729 0.488739
O O12 0.435729 0.083337 0.359136
O O13 0.759059 0.147288 0.781345
O O14 0.000000 0.943973 0.250000
#
# Coordination Sequence:
#
# PCOD9226517 Si02
#       6
#     4   4   4   4   4   4
#     4  10  17  31  52  82 125 165 194 238 309 371
#     4  12  18  30  59  94 124 159 197 263 313 373
#     4  11  20  36  60  90 122 159 212 258 315 369
#     4  11  26  46  64  88 128 176 216 255 314 383
#     4  12  23  38  65  96 129 165 209 266 321 377
#     4  10  23  40  63  95 128 161 208 266 318 383
#
# _framework density 27.027552
#
# number of rings (size 3 to 8) (size 9 to 14) (size 15 to 20)
#    0.000    1.000    5.000    3.500    0.000    5.333 
#    0.000    0.833    0.000    0.000    0.000    0.000 
#    0.000    0.000    0.000    0.000    0.000    0.000 
#
# Total GULP energy -134097.622462 kJ/mol
# GULP energy per Si atom -5587.400936 kJ/mol
# Density = 2.696604 g / cm^3
# Si number density = 27.027552 Si / 1000 Ang^3
#
#
#
# Elastic Constant Matrix: (Units=GPa)
#
#
# Indices 1 2 3 4 5 6 
#
# 1 49.4300 1.8704 7.5949 0.0000 -2.6630 0.0000
# 2 1.8704 157.6081 14.2885 0.0000 0.2426 0.0000
# 3 7.5949 14.2885 93.7912 0.0000 5.5715 0.0000
# 4 0.0000 0.0000 0.0000 36.4846 0.0000 2.8377
# 5 -2.6630 0.2426 5.5715 0.0000 38.0716 0.0000
# 6 0.0000 0.0000 0.0000 2.8377 0.0000 20.6269
#
#
#
# Elastic Compliance Matrix: (Units=1/GPa)
#
#
# Indices 1 2 3 4 5 6 
#
# 1 0.020595 -0.000088 -0.001755 0.000000 0.001698 0.000000
# 2 -0.000088 0.006434 -0.000979 0.000000 0.000096 0.000000
# 3 -0.001755 -0.000979 0.011056 0.000000 -0.001735 0.000000
# 4 0.000000 0.000000 0.000000 0.027705 0.000000 -0.003811
# 5 0.001698 0.000096 -0.001735 0.000000 0.026638 0.000000
# 6 0.000000 0.000000 0.000000 -0.003811 0.000000 0.049005
#
#
# Mechanical properties :
#
#
# Convention : Reuss Voigt Hill
#
# Bulk Modulus (GPa) = 30.82425 38.70411 34.76418
# Shear Modulus (GPa) = 31.66720 37.50831 34.58776
#
# Velocity S-wave (km/s) = 3.42667 3.72933 3.58120
# Velocity P-wave (km/s) = 5.20438 5.73544 5.47635
#
# Compressibility (1/GPa) = 0.03244199
#
# Stress axis : x y z
#
# Youngs Moduli (GPa) = 48.55516 155.41253 90.44647
#
# Poissons Ratio (x) = 0.01366 0.15875
# Poissons Ratio (y) = 0.00427 0.08853
# Poissons Ratio (z) = 0.08522 0.15212
#
# Static dielectric constant tensor:
#      x y z
#    x 2.286590 0.000000 -0.267920 
#    y 0.000000 2.089540 0.000000 
#    z -0.267920 0.000000 1.116840 
# 
# From -- ./inp_files/86423.got.cif
#   From: 2010.05.17/outbox.cif.g08.bks.cpg/sg13_44_cif.got.tgz:86423.got - 2010.06.03 16:44:36.
