data_PCOD9226356
_publ_section_title
;
Structure prediction by ZEFSAII (Michael W. Deem and Ramdas Pophale) SiO2 
 PCOD9226356
Probable space group: P 2/C
;
_chemical_formula_sum "Si O2"
_cell_formula_units_Z 28
_cell_length_a 15.675729
_cell_length_b 8.310235
_cell_length_c 21.704886
_cell_angle_alpha 90.000000
_cell_angle_beta 26.625709
_cell_angle_gamma 90.000000
_cell_volume 1267.161299
_symmetry_space_group_name_H-M "P 2/C"
_symmetry_group_IT_number 13
_symmetry_cell_setting 'monoclinic'
loop_
_space_group_symop_operation_xyz
x,y,z
-x,y,1/2-z
-x,-y,-z
x,-y,1/2+z
loop_
_atom_site_type_symbol
_atom_site_label
_atom_site_fract_x
_atom_site_fract_y
_atom_site_fract_z
Si Si1 0.000000 0.752641 0.250000
Si Si2 0.333243 0.776918 0.110397
Si Si3 0.110975 0.720585 0.372206
Si Si4 0.177143 0.225383 0.053032
Si Si5 0.746610 0.838949 0.854153
Si Si6 0.500000 0.337879 0.250000
Si Si7 0.822604 0.437970 0.552131
Si Si8 0.204860 0.110578 0.497560
O O1 0.820049 0.675180 0.330732
O O2 0.898324 0.849199 0.371032
O O3 0.285087 0.744700 0.213059
O O4 0.286476 0.967331 0.128388
O O5 0.554761 0.757340 0.952594
O O6 0.155706 0.710581 0.415358
O O7 0.010783 0.546832 0.425998
O O8 0.951434 0.848717 0.453850
O O9 0.229616 0.214085 0.090276
O O10 0.947880 0.204131 0.193851
O O11 0.267216 0.071958 0.961308
O O12 0.231920 0.383351 0.981011
O O13 0.345326 0.447774 0.315963
O O14 0.380901 0.226747 0.372793
#
# Coordination Sequence:
#
# PCOD9226356 Si02
#       8
#     2   4   4   4   4   2   4   4
#     4  10  16  38  66  92 120 160 202 276 314 374
#     4  10  18  36  65  91 124 166 207 266 323 375
#     4   9  20  42  60  84 126 176 205 257 325 393
#     4  11  20  40  64  93 131 164 207 279 325 372
#     4  10  20  36  61  99 126 155 212 277 319 373
#     4  10  24  42  58  86 126 176 210 264 320 402
#     4  10  23  40  61  87 132 168 210 266 326 383
#     4  10  19  40  66  90 121 166 217 258 330 384
#
# _framework density 22.096634999999999
#
# number of rings (size 3 to 8) (size 9 to 14) (size 15 to 20)
#    0.000    2.000    4.286    0.000    2.000    1.143 
#    7.714   13.571    0.000    0.000    0.000    0.000 
#    0.000    0.000    0.000    0.000    0.000    0.000 
#
# Total GULP energy -156168.019328 kJ/mol
# GULP energy per Si atom -5577.429262 kJ/mol
# Density = 2.204634 g / cm^3
# Si number density = 22.096635 Si / 1000 Ang^3
#
#
#
# Elastic Constant Matrix: (Units=GPa)
#
#
# Indices 1 2 3 4 5 6 
#
# 1 62.5966 14.0078 25.7842 0.0000 4.2677 0.0000
# 2 14.0078 26.7591 17.0463 0.0000 6.0246 0.0000
# 3 25.7842 17.0463 93.7395 0.0000 -18.5036 0.0000
# 4 0.0000 0.0000 0.0000 19.9283 0.0000 -0.5790
# 5 4.2677 6.0246 -18.5036 0.0000 30.9951 0.0000
# 6 0.0000 0.0000 0.0000 -0.5790 0.0000 17.1382
#
#
#
# Elastic Compliance Matrix: (Units=1/GPa)
#
#
# Indices 1 2 3 4 5 6 
#
# 1 0.019811 -0.005919 -0.005310 0.000000 -0.004747 0.000000
# 2 -0.005919 0.050704 -0.010629 0.000000 -0.015386 0.000000
# 3 -0.005310 -0.010629 0.016566 0.000000 0.012687 0.000000
# 4 0.000000 0.000000 0.000000 0.050229 0.000000 0.001697
# 5 -0.004747 -0.015386 0.012687 0.000000 0.043481 0.000000
# 6 0.000000 0.000000 0.000000 0.001697 0.000000 0.058407
#
#
# Mechanical properties :
#
#
# Convention : Reuss Voigt Hill
#
# Bulk Modulus (GPa) = 23.06074 32.97463 28.01769
# Shear Modulus (GPa) = 16.81412 22.02945 19.42178
#
# Velocity S-wave (km/s) = 2.76150 3.16089 2.96792
# Velocity P-wave (km/s) = 4.54167 5.31761 4.94488
#
# Compressibility (1/GPa) = 0.04336374
#
# Stress axis : x y z
#
# Youngs Moduli (GPa) = 50.47771 19.72216 60.36615
#
# Poissons Ratio (x) = 0.11674 0.32053
# Poissons Ratio (y) = 0.29879 0.64166
# Poissons Ratio (z) = 0.26803 0.20964
#
# Static dielectric constant tensor:
#      x y z
#    x 1.867120 0.000000 -0.030450 
#    y 0.000000 1.825730 0.000000 
#    z -0.030450 0.000000 1.797640 
# 
# From -- ./inp_files/79782.got.cif
#   From: 2010.05.17/outbox.cif.g08.bks.cpg/sg13_40_cif.got.tgz:79782.got - 2010.06.03 16:44:36.
