data_PCOD9226159
_publ_section_title
;
Structure prediction by ZEFSAII (Michael W. Deem and Ramdas Pophale) SiO2 
 PCOD9226159
Probable space group: P 2/C
;
_chemical_formula_sum "Si O2"
_cell_formula_units_Z 24
_cell_length_a 13.201229
_cell_length_b 9.281481
_cell_length_c 16.361154
_cell_angle_alpha 90.000000
_cell_angle_beta 36.706431
_cell_angle_gamma 90.000000
_cell_volume 1198.229013
_symmetry_space_group_name_H-M "P 2/C"
_symmetry_group_IT_number 13
_symmetry_cell_setting 'monoclinic'
loop_
_space_group_symop_operation_xyz
x,y,z
-x,y,1/2-z
-x,-y,-z
x,-y,1/2+z
loop_
_atom_site_type_symbol
_atom_site_label
_atom_site_fract_x
_atom_site_fract_y
_atom_site_fract_z
Si Si1 0.692388 0.887171 0.298479
Si Si2 0.056752 0.627154 0.577906
Si Si3 0.002594 0.692148 0.075069
Si Si4 0.799403 0.026224 0.056737
Si Si5 0.102032 0.890917 0.766245
Si Si6 0.605622 0.205619 0.600757
O O1 0.519286 0.801476 0.395128
O O2 0.842518 0.773617 0.217742
O O3 0.728970 0.963935 0.186945
O O4 0.725941 0.018926 0.338560
O O5 0.043788 0.456334 0.593500
O O6 0.902519 0.719936 0.716327
O O7 0.227720 0.694534 0.506324
O O8 0.051467 0.657999 0.483649
O O9 0.158607 0.805434 0.972205
O O10 0.671776 0.957695 0.073697
O O11 0.978317 0.950337 0.918461
O O12 0.000000 0.923935 0.750000
O O13 0.500000 0.250124 0.750000
#
# Coordination Sequence:
#
# PCOD9226159 Si02
#       6
#     4   4   4   4   4   4
#     4  10  16  32  52  73  95 124 163 209 236 279
#     4  10  18  29  44  72 100 128 153 198 241 292
#     4  10  16  28  50  68  96 126 161 192 242 281
#     4   9  16  31  48  71  94 122 160 206 235 280
#     4  10  18  31  50  72  94 128 167 200 238 285
#     4   9  16  28  47  70 101 122 153 202 252 269
#
# _framework density 20.029561999999999
#
# number of rings (size 3 to 8) (size 9 to 14) (size 15 to 20)
#    0.000    2.333    6.667    1.000    0.000    0.000 
#    0.000   10.833    0.000    0.000    0.000   10.500 
#    0.000    0.000    0.000    0.000    0.000    0.000 
#
# Total GULP energy -133629.417379 kJ/mol
# GULP energy per Si atom -5567.892391 kJ/mol
# Density = 1.998397 g / cm^3
# Si number density = 20.029562 Si / 1000 Ang^3
#
#
#
# Elastic Constant Matrix: (Units=GPa)
#
#
# Indices 1 2 3 4 5 6 
#
# 1 81.4113 43.0171 14.4061 0.0000 -18.5080 0.0000
# 2 43.0171 167.1984 17.9488 0.0000 -20.2206 0.0000
# 3 14.4061 17.9488 37.3067 0.0000 -3.1751 0.0000
# 4 0.0000 0.0000 0.0000 12.4749 0.0000 -7.0300
# 5 -18.5080 -20.2206 -3.1751 0.0000 29.5636 0.0000
# 6 0.0000 0.0000 0.0000 -7.0300 0.0000 17.8499
#
#
#
# Elastic Compliance Matrix: (Units=1/GPa)
#
#
# Indices 1 2 3 4 5 6 
#
# 1 0.016294 -0.002785 -0.004286 0.000000 0.007836 0.000000
# 2 -0.002785 0.007296 -0.002178 0.000000 0.003013 0.000000
# 3 -0.004286 -0.002178 0.029421 0.000000 -0.001013 0.000000
# 4 0.000000 0.000000 0.000000 0.103028 0.000000 0.040577
# 5 0.007836 0.003013 -0.001013 0.000000 0.040683 0.000000
# 6 0.000000 0.000000 0.000000 0.040577 0.000000 0.072004
#
#
# Mechanical properties :
#
#
# Convention : Reuss Voigt Hill
#
# Bulk Modulus (GPa) = 28.97317 48.51784 38.74551
# Shear Modulus (GPa) = 16.73768 26.01397 21.37582
#
# Velocity S-wave (km/s) = 2.89390 3.60777 3.27037
# Velocity P-wave (km/s) = 5.06584 6.45216 5.80057
#
# Compressibility (1/GPa) = 0.03451469
#
# Stress axis : x y z
#
# Youngs Moduli (GPa) = 61.37056 137.07043 33.98877
#
# Poissons Ratio (x) = 0.38168 0.14566
# Poissons Ratio (y) = 0.17089 0.07404
# Poissons Ratio (z) = 0.26301 0.29858
#
# Static dielectric constant tensor:
#      x y z
#    x 1.756690 0.000000 -0.006310 
#    y 0.000000 1.739780 0.000000 
#    z -0.006310 0.000000 1.801000 
# 
# From -- ./inp_files/65739.got.cif
#   From: 2010.05.17/outbox.cif.g08.bks.cpg/sg13_33_cif.got.tgz:65739.got - 2010.06.03 16:44:36.
