data_PCOD9226184
_publ_section_title
;
Structure prediction by ZEFSAII (Michael W. Deem and Ramdas Pophale) SiO2 
 PCOD9226184
Probable space group: P 2/C
;
_chemical_formula_sum "Si O2"
_cell_formula_units_Z 28
_cell_length_a 20.457860
_cell_length_b 13.884460
_cell_length_c 5.305985
_cell_angle_alpha 90.000000
_cell_angle_beta 82.438881
_cell_angle_gamma 90.000000
_cell_volume 1494.041075
_symmetry_space_group_name_H-M "P 2/C"
_symmetry_group_IT_number 13
_symmetry_cell_setting 'monoclinic'
loop_
_space_group_symop_operation_xyz
x,y,z
-x,y,1/2-z
-x,-y,-z
x,-y,1/2+z
loop_
_atom_site_type_symbol
_atom_site_label
_atom_site_fract_x
_atom_site_fract_y
_atom_site_fract_z
Si Si1 0.420394 0.958851 0.441192
Si Si2 0.573831 0.459122 0.464262
Si Si3 0.068211 0.562156 0.277332
Si Si4 0.268746 0.963620 0.042562
Si Si5 0.308351 0.749888 0.157770
Si Si6 0.783920 0.565658 0.358177
Si Si7 0.391639 0.247954 0.118142
O O1 0.426977 0.852868 0.550709
O O2 0.444330 0.967671 0.143476
O O3 0.341999 0.988259 0.462684
O O4 0.500000 0.500000 0.500000
O O5 0.607599 0.496814 0.700280
O O6 0.568861 0.345064 0.453311
O O7 0.066230 0.522957 0.565056
O O8 0.140542 0.604779 0.196530
O O9 0.000000 0.617320 0.250000
O O10 0.274636 0.852369 0.114970
O O11 0.236623 0.021498 0.287479
O O12 0.264183 0.656304 0.136927
O O13 0.334984 0.750671 0.430700
O O14 0.365903 0.747148 0.916832
O O15 0.775698 0.506587 0.623517
#
# Coordination Sequence:
#
# PCOD9226184 Si02
#       7
#     4   4   4   4   4   4   4
#     4  10  16  30  48  73 101 117 151 198 233 277
#     4  10  23  42  57  73  96 127 165 203 225 267
#     4   8  14  27  46  61  80 122 174 207 238 273
#     4  10  16  30  46  66 100 127 154 194 228 280
#     4  12  21  30  49  75 105 134 157 188 244 301
#     4  10  21  33  42  65 105 138 159 203 240 278
#     4  12  21  32  55  77  95 133 162 188 239 293
#
# _framework density 18.741116999999999
#
# number of rings (size 3 to 8) (size 9 to 14) (size 15 to 20)
#    0.000    1.714    5.714    1.714    0.000    3.429 
#    0.000    0.000    0.000    0.000    0.000   12.000 
#    0.000    1.143    0.000    0.000    0.000    2.571 
#
# Total GULP energy -156153.592816 kJ/mol
# GULP energy per Si atom -5576.914029 kJ/mol
# Density = 1.869846 g / cm^3
# Si number density = 18.741117 Si / 1000 Ang^3
#
#
#
# Elastic Constant Matrix: (Units=GPa)
#
#
# Indices 1 2 3 4 5 6 
#
# 1 35.7323 15.3278 -3.2475 0.0000 -1.4144 0.0000
# 2 15.3278 89.6351 -6.0036 0.0000 -8.6200 0.0000
# 3 -3.2475 -6.0036 112.0025 0.0000 0.7764 0.0000
# 4 0.0000 0.0000 0.0000 19.6328 0.0000 0.5445
# 5 -1.4144 -8.6200 0.7764 0.0000 14.5129 0.0000
# 6 0.0000 0.0000 0.0000 0.5445 0.0000 4.9468
#
#
#
# Elastic Compliance Matrix: (Units=1/GPa)
#
#
# Indices 1 2 3 4 5 6 
#
# 1 0.030242 -0.005145 0.000602 0.000000 -0.000140 0.000000
# 2 -0.005145 0.012746 0.000485 0.000000 0.007043 0.000000
# 3 0.000602 0.000485 0.008973 0.000000 -0.000133 0.000000
# 4 0.000000 0.000000 0.000000 0.051091 0.000000 -0.005624
# 5 -0.000140 0.007043 -0.000133 0.000000 0.073081 0.000000
# 6 0.000000 0.000000 0.000000 -0.005624 0.000000 0.202771
#
#
# Mechanical properties :
#
#
# Convention : Reuss Voigt Hill
#
# Bulk Modulus (GPa) = 22.80713 27.72479 25.26596
# Shear Modulus (GPa) = 12.44915 23.23804 17.84360
#
# Velocity S-wave (km/s) = 2.58014 3.52511 3.08897
# Velocity P-wave (km/s) = 4.59044 5.60306 5.12183
#
# Compressibility (1/GPa) = 0.04384594
#
# Stress axis : x y z
#
# Youngs Moduli (GPa) = 33.06669 78.45663 111.44841
#
# Poissons Ratio (x) = 0.40363 -0.06710
# Poissons Ratio (y) = 0.17012 -0.05408
# Poissons Ratio (z) = -0.01991 -0.03807
#
# Static dielectric constant tensor:
#      x y z
#    x 1.714210 0.000000 -0.009430 
#    y 0.000000 1.635300 0.000000 
#    z -0.009430 0.000000 1.714250 
# 
# From -- ./inp_files/6864.got.cif
#   From: 2010.05.17/outbox.cif.g08.bks.cpg/sg13_4_cif.got.tgz:6864.got - 2010.06.03 16:44:36.
