data_PCOD9226313
_publ_section_title
;
Structure prediction by ZEFSAII (Michael W. Deem and Ramdas Pophale) SiO2 
 PCOD9226313
Probable space group: P 2/C
;
_chemical_formula_sum "Si O2"
_cell_formula_units_Z 30
_cell_length_a 11.694093
_cell_length_b 10.096390
_cell_length_c 28.989600
_cell_angle_alpha 90.000000
_cell_angle_beta 24.351640
_cell_angle_gamma 90.000000
_cell_volume 1411.320813
_symmetry_space_group_name_H-M "P 2/C"
_symmetry_group_IT_number 13
_symmetry_cell_setting 'monoclinic'
loop_
_space_group_symop_operation_xyz
x,y,z
-x,y,1/2-z
-x,-y,-z
x,-y,1/2+z
loop_
_atom_site_type_symbol
_atom_site_label
_atom_site_fract_x
_atom_site_fract_y
_atom_site_fract_z
Si Si1 0.607467 0.168760 0.492397
Si Si2 0.302572 0.281480 0.729767
Si Si3 0.163436 0.370353 0.022149
Si Si4 0.987141 0.327364 0.928044
Si Si5 0.589555 0.886755 0.531651
Si Si6 0.090924 0.183596 0.444900
Si Si7 0.000000 0.759852 0.250000
Si Si8 0.455321 0.995440 0.358394
O O1 0.755381 0.295903 0.460234
O O2 0.597592 0.165143 0.441119
O O3 0.288002 0.168545 0.629552
O O4 0.721491 0.026207 0.466353
O O5 0.587316 0.332443 0.603764
O O6 0.086350 0.309283 0.767047
O O7 0.258077 0.339924 0.796656
O O8 0.335007 0.123709 0.725989
O O9 0.900947 0.293997 0.097333
O O10 0.137605 0.526508 0.028408
O O11 0.989583 0.258795 0.977296
O O12 0.807277 0.226296 0.963348
O O13 0.452016 0.924065 0.630728
O O14 0.368872 0.100008 0.351455
O O15 0.842952 0.079784 0.523657
#
# Coordination Sequence:
#
# PCOD9226313 Si02
#       8
#     4   4   4   4   4   4   2   4
#     4  10  19  33  60  82 117 149 191 240 298 345
#     4  10  20  37  57  87 115 156 198 237 294 349
#     4  10  21  38  58  84 124 158 190 248 290 353
#     4  11  22  34  63  85 115 160 203 231 294 361
#     4  10  18  33  56  87 106 147 196 240 287 352
#     4   9  18  35  58  85 113 153 190 243 298 335
#     4  10  16  34  56  86 112 148 186 244 282 356
#     4   9  17  33  59  83 116 139 195 248 283 343
#
# _framework density 21.256684
#
# number of rings (size 3 to 8) (size 9 to 14) (size 15 to 20)
#    0.000    2.133    5.333    0.400    0.000    2.667 
#    0.000    0.000   11.733    3.200    0.000    0.000 
#    0.000    0.000    0.000    0.000    0.000    0.000 
#
# Total GULP energy -167054.972346 kJ/mol
# GULP energy per Si atom -5568.499078 kJ/mol
# Density = 2.120830 g / cm^3
# Si number density = 21.256684 Si / 1000 Ang^3
#
#
#
# Elastic Constant Matrix: (Units=GPa)
#
#
# Indices 1 2 3 4 5 6 
#
# 1 144.4077 45.9304 18.4202 0.0000 7.0467 0.0000
# 2 45.9304 93.8485 22.7591 0.0000 4.6161 0.0000
# 3 18.4202 22.7591 26.8504 0.0000 9.5342 0.0000
# 4 0.0000 0.0000 0.0000 15.4585 0.0000 -5.8975
# 5 7.0467 4.6161 9.5342 0.0000 12.0067 0.0000
# 6 0.0000 0.0000 0.0000 -5.8975 0.0000 9.3228
#
#
#
# Elastic Compliance Matrix: (Units=1/GPa)
#
#
# Indices 1 2 3 4 5 6 
#
# 1 0.008403 -0.003505 -0.002118 0.000000 -0.001902 0.000000
# 2 -0.003505 0.015130 -0.012652 0.000000 0.006287 0.000000
# 3 -0.002118 -0.012652 0.065807 0.000000 -0.046148 0.000000
# 4 0.000000 0.000000 0.000000 0.085267 0.000000 0.053939
# 5 -0.001902 0.006287 -0.046148 0.000000 0.118630 0.000000
# 6 0.000000 0.000000 0.000000 0.053939 0.000000 0.141385
#
#
# Mechanical properties :
#
#
# Convention : Reuss Voigt Hill
#
# Bulk Modulus (GPa) = 18.94343 48.81400 33.87872
# Shear Modulus (GPa) = 10.22977 19.22407 14.72692
#
# Velocity S-wave (km/s) = 2.19612 3.01055 2.63499
# Velocity P-wave (km/s) = 3.91940 5.92440 5.02296
#
# Compressibility (1/GPa) = 0.05278875
#
# Stress axis : x y z
#
# Youngs Moduli (GPa) = 119.00969 66.09386 15.19592
#
# Poissons Ratio (x) = 0.23167 0.03219
# Poissons Ratio (y) = 0.41715 0.19226
# Poissons Ratio (z) = 0.25207 0.83624
#
# Static dielectric constant tensor:
#      x y z
#    x 1.836010 0.000000 -0.002340 
#    y 0.000000 1.781220 0.000000 
#    z -0.002340 0.000000 1.845730 
# 
# From -- ./inp_files/96593.got.cif
#   From: 2010.05.17/outbox.cif.g08.bks.cpg/sg13_49_cif.got.tgz:96593.got - 2010.06.03 16:44:36.
