data_PCOD9226791
_publ_section_title
;
Structure prediction by ZEFSAII (Michael W. Deem and Ramdas Pophale) SiO2 
 PCOD9226791
Probable space group: P 2/C
;
_chemical_formula_sum "Si O2"
_cell_formula_units_Z 26
_cell_length_a 13.567387
_cell_length_b 10.931564
_cell_length_c 18.982501
_cell_angle_alpha 90.000000
_cell_angle_beta 149.234430
_cell_angle_gamma 90.000000
_cell_volume 1440.124956
_symmetry_space_group_name_H-M "P 2/C"
_symmetry_group_IT_number 13
_symmetry_cell_setting 'monoclinic'
loop_
_space_group_symop_operation_xyz
x,y,z
-x,y,1/2-z
-x,-y,-z
x,-y,1/2+z
loop_
_atom_site_type_symbol
_atom_site_label
_atom_site_fract_x
_atom_site_fract_y
_atom_site_fract_z
Si Si1 0.269953 0.044119 0.276052
Si Si2 0.211737 0.790079 0.604599
Si Si3 0.401416 0.353940 0.597636
Si Si4 0.815155 0.005902 0.006931
Si Si5 0.500000 0.578181 0.750000
Si Si6 0.783277 0.769013 0.395759
Si Si7 0.405845 0.856272 0.006086
O O1 0.283851 0.126438 0.214386
O O2 0.353185 0.118287 0.393475
O O3 0.386055 0.916302 0.348765
O O4 0.045232 0.017320 0.149267
O O5 0.238027 0.870073 0.549835
O O6 0.327605 0.665502 0.668344
O O7 0.985121 0.765916 0.479941
O O8 0.437520 0.491669 0.645686
O O9 0.220789 0.308300 0.533877
O O10 0.598886 0.286171 0.743839
O O11 0.378039 0.286635 0.508617
O O12 0.728263 0.060945 0.024723
O O13 0.748275 0.094105 0.901838
#
# Coordination Sequence:
#
# PCOD9226791 Si02
#       7
#     4   4   4   4   2   4   4
#     4  10  20  32  51  79 101 127 164 207 270 316
#     4  11  19  31  49  76 103 129 166 215 250 292
#     4   9  18  33  48  70  96 132 171 203 240 296
#     4  10  18  30  51  76 101 126 159 208 262 306
#     4  10  22  32  48  74 102 136 180 208 242 290
#     4   8  16  29  50  71  95 123 162 210 256 292
#     4  10  19  33  51  72 104 134 160 206 259 310
#
# _framework density 18.053989999999999
#
# number of rings (size 3 to 8) (size 9 to 14) (size 15 to 20)
#    0.000    2.462    0.000    5.077    0.000    4.923 
#    0.000    0.769    0.000    0.000    0.000   36.615 
#    0.000    0.000    0.000    0.000    0.000    0.000 
#
# Total GULP energy -144769.435399 kJ/mol
# GULP energy per Si atom -5568.055208 kJ/mol
# Density = 1.801290 g / cm^3
# Si number density = 18.053990 Si / 1000 Ang^3
#
#
#
# Elastic Constant Matrix: (Units=GPa)
#
#
# Indices 1 2 3 4 5 6 
#
# 1 34.6303 2.4050 16.1569 0.0000 14.5263 0.0000
# 2 2.4050 78.6153 11.7446 0.0000 5.9650 0.0000
# 3 16.1569 11.7446 47.0306 0.0000 3.5524 0.0000
# 4 0.0000 0.0000 0.0000 21.8121 0.0000 3.0547
# 5 14.5263 5.9650 3.5524 0.0000 28.8157 0.0000
# 6 0.0000 0.0000 0.0000 3.0547 0.0000 20.2175
#
#
#
# Elastic Compliance Matrix: (Units=1/GPa)
#
#
# Indices 1 2 3 4 5 6 
#
# 1 0.044122 0.002358 -0.014162 0.000000 -0.020985 0.000000
# 2 0.002358 0.013499 -0.003917 0.000000 -0.003500 0.000000
# 3 -0.014162 -0.003917 0.026755 0.000000 0.004651 0.000000
# 4 0.000000 0.000000 0.000000 0.046837 0.000000 -0.007077
# 5 -0.020985 -0.003500 0.004651 0.000000 0.045433 0.000000
# 6 0.000000 0.000000 0.000000 -0.007077 0.000000 0.050531
#
#
# Mechanical properties :
#
#
# Convention : Reuss Voigt Hill
#
# Bulk Modulus (GPa) = 18.89098 24.54323 21.71711
# Shear Modulus (GPa) = 18.09872 22.83370 20.46621
#
# Velocity S-wave (km/s) = 3.16963 3.56018 3.37057
# Velocity P-wave (km/s) = 4.88689 5.52483 5.21562
#
# Compressibility (1/GPa) = 0.05293531
#
# Stress axis : x y z
#
# Youngs Moduli (GPa) = 22.66432 74.08107 37.37687
#
# Poissons Ratio (x) = -0.17469 0.52931
# Poissons Ratio (y) = -0.05344 0.14639
# Poissons Ratio (z) = 0.32096 0.29015
#
# Static dielectric constant tensor:
#      x y z
#    x 1.646570 0.000000 -0.014910 
#    y 0.000000 1.636740 0.000000 
#    z -0.014910 0.000000 1.645470 
# 
# From -- ./inp_files/59570.got.cif
#   From: 2010.05.17/outbox.cif.g08.bks.cpg/sg13_30_cif.got.tgz:59570.got - 2010.06.03 16:44:36.
