data_PCOD9226806
_publ_section_title
;
Structure prediction by ZEFSAII (Michael W. Deem and Ramdas Pophale) SiO2 
 PCOD9226806
Probable space group: P 2/C
;
_chemical_formula_sum "Si O2"
_cell_formula_units_Z 28
_cell_length_a 16.681770
_cell_length_b 8.131674
_cell_length_c 12.441555
_cell_angle_alpha 90.000000
_cell_angle_beta 128.907248
_cell_angle_gamma 90.000000
_cell_volume 1313.311425
_symmetry_space_group_name_H-M "P 2/C"
_symmetry_group_IT_number 13
_symmetry_cell_setting 'monoclinic'
loop_
_space_group_symop_operation_xyz
x,y,z
-x,y,1/2-z
-x,-y,-z
x,-y,1/2+z
loop_
_atom_site_type_symbol
_atom_site_label
_atom_site_fract_x
_atom_site_fract_y
_atom_site_fract_z
Si Si1 0.658807 0.790437 0.718832
Si Si2 0.150707 0.372488 0.213618
Si Si3 0.000000 0.503924 0.250000
Si Si4 0.808897 0.257330 0.811231
Si Si5 0.653085 0.944154 0.047806
Si Si6 0.200975 0.024932 0.511510
Si Si7 0.500000 0.219141 0.250000
Si Si8 0.028043 0.199008 0.930273
O O1 0.732036 0.683440 0.704676
O O2 0.578975 0.698466 0.731067
O O3 0.611111 0.927026 0.599515
O O4 0.732832 0.894399 0.860918
O O5 0.156247 0.555445 0.167677
O O6 0.093000 0.399629 0.277890
O O7 0.080023 0.246795 0.087081
O O8 0.959520 0.632730 0.127068
O O9 0.709144 0.206681 0.657388
O O10 0.793914 0.193503 0.918867
O O11 0.908398 0.162294 0.847337
O O12 0.570612 0.886625 0.890665
O O13 0.745530 0.028766 0.058050
O O14 0.088245 0.945923 0.421671
#
# Coordination Sequence:
#
# PCOD9226806 Si02
#       8
#     4   4   2   4   4   4   2   4
#     4   9  20  36  57  80 104 136 180 224 271 327
#     4  10  21  35  52  81 115 148 182 214 259 323
#     4  10  18  30  52  76 112 160 184 212 258 308
#     4  10  19  33  53  79 113 148 181 220 261 318
#     4  10  20  35  57  82 102 133 180 227 279 326
#     4   9  18  32  52  80 110 141 177 221 264 309
#     4  10  20  40  62  76 100 138 178 236 288 324
#     4  10  19  33  51  78 114 153 186 211 255 317
#
# _framework density 21.320153000000001
#
# number of rings (size 3 to 8) (size 9 to 14) (size 15 to 20)
#    0.000    2.286    0.000    4.286    0.000    2.286 
#    0.000    0.714    0.000    9.429    0.000    0.000 
#    0.000    0.000    0.000    0.000    0.000    0.000 
#
# Total GULP energy -156113.356600 kJ/mol
# GULP energy per Si atom -5575.477021 kJ/mol
# Density = 2.127163 g / cm^3
# Si number density = 21.320153 Si / 1000 Ang^3
#
#
#
# Elastic Constant Matrix: (Units=GPa)
#
#
# Indices 1 2 3 4 5 6 
#
# 1 110.6811 30.6006 11.2796 0.0000 -10.2885 0.0000
# 2 30.6006 41.5570 7.8914 0.0000 -3.2800 0.0000
# 3 11.2796 7.8914 73.0928 0.0000 6.2736 0.0000
# 4 0.0000 0.0000 0.0000 15.6500 0.0000 -1.2660
# 5 -10.2885 -3.2800 6.2736 0.0000 30.6176 0.0000
# 6 0.0000 0.0000 0.0000 -1.2660 0.0000 -6.4067
#
#
#
# Elastic Compliance Matrix: (Units=1/GPa)
#
#
# Indices 1 2 3 4 5 6 
#
# 1 0.011716 -0.008135 -0.001214 0.000000 0.003314 0.000000
# 2 -0.008135 0.030534 -0.002125 0.000000 0.000973 0.000000
# 3 -0.001214 -0.002125 0.014406 0.000000 -0.003587 0.000000
# 4 0.000000 0.000000 0.000000 0.062892 0.000000 -0.012428
# 5 0.003314 0.000973 -0.003587 0.000000 0.034614 0.000000
# 6 0.000000 0.000000 0.000000 -0.012428 0.000000 -0.153631
#
#
# Mechanical properties :
#
#
# Convention : Reuss Voigt Hill
#
# Bulk Modulus (GPa) = 29.66648 36.09710 32.88179
# Shear Modulus (GPa) = 144.03586 19.67615 81.85601
#
# Velocity S-wave (km/s) = 8.22832 3.04121 6.20299
# Velocity P-wave (km/s) = 10.20875 5.41291 8.17063
#
# Compressibility (1/GPa) = 0.03370808
#
# Stress axis : x y z
#
# Youngs Moduli (GPa) = 85.35434 32.75068 69.41599
#
# Poissons Ratio (x) = 0.26642 0.08428
# Poissons Ratio (y) = 0.69435 0.14749
# Poissons Ratio (z) = 0.10363 0.06958
#
# Static dielectric constant tensor:
#      x y z
#    x 1.833830 0.000000 0.005960 
#    y 0.000000 1.763170 0.000000 
#    z 0.005960 0.000000 1.797570 
# 
# From -- ./inp_files/36536.got.cif
#   From: 2010.05.17/outbox.cif.g08.bks.cpg/sg13_19_cif.got.tgz:36536.got - 2010.06.03 16:44:36.
