data_PCOD9226380
_publ_section_title
;
Structure prediction by ZEFSAII (Michael W. Deem and Ramdas Pophale) SiO2 
 PCOD9226380
Probable space group: P 2/C
;
_chemical_formula_sum "Si O2"
_cell_formula_units_Z 32
_cell_length_a 12.373189
_cell_length_b 16.860776
_cell_length_c 8.960524
_cell_angle_alpha 90.000000
_cell_angle_beta 92.002802
_cell_angle_gamma 90.000000
_cell_volume 1868.216613
_symmetry_space_group_name_H-M "P 2/C"
_symmetry_group_IT_number 13
_symmetry_cell_setting 'monoclinic'
loop_
_space_group_symop_operation_xyz
x,y,z
-x,y,1/2-z
-x,-y,-z
x,-y,1/2+z
loop_
_atom_site_type_symbol
_atom_site_label
_atom_site_fract_x
_atom_site_fract_y
_atom_site_fract_z
Si Si1 0.780116 0.561989 0.128223
Si Si2 0.703630 0.108829 0.531265
Si Si3 0.324783 0.000794 0.714354
Si Si4 0.443239 0.897386 0.964746
Si Si5 0.666327 0.727044 0.151656
Si Si6 0.077425 0.530433 0.635408
Si Si7 0.424836 0.723877 0.024949
Si Si8 0.424340 0.553962 0.890234
O O1 0.734520 0.647948 0.158624
O O2 0.868599 0.535858 0.255437
O O3 0.683463 0.497914 0.138683
O O4 0.826472 0.565461 0.961240
O O5 0.741563 0.062953 0.385909
O O6 0.571438 0.103026 0.505967
O O7 0.723606 0.199864 0.571301
O O8 0.738041 0.056449 0.673984
O O9 0.386287 0.061069 0.604816
O O10 0.403221 0.949289 0.824369
O O11 0.412041 0.805719 0.934246
O O12 0.552378 0.712539 0.063339
O O13 0.632403 0.743726 0.320639
O O14 0.000000 0.577028 0.750000
O O15 0.000000 0.500000 0.500000
O O16 0.390772 0.639659 0.955204
O O17 0.500000 0.567714 0.750000
O O18 0.500000 0.500000 0.000000
#
# Coordination Sequence:
#
# PCOD9226380 Si02
#       8
#     4   4   4   4   4   4   4   4
#     4  11  20  35  56  75 103 135 173 209 262 308
#     4  10  17  26  42  59  85 122 173 218 256 284
#     4  10  17  27  42  59  81 126 183 229 255 286
#     4  10  17  27  41  58  83 121 180 230 254 275
#     4  10  19  30  46  68  98 137 173 212 249 295
#     4   9  20  38  60  80  93 121 166 220 276 322
#     4  10  20  31  42  65 102 138 183 216 239 277
#     4  12  23  35  50  72 106 149 183 206 236 297
#
# _framework density 17.128634000000002
#
# number of rings (size 3 to 8) (size 9 to 14) (size 15 to 20)
#    0.000    1.750    2.500    5.250    0.000    2.000 
#    0.000    0.000    0.000    0.000    0.000    0.000 
#    0.000    0.000    0.000   14.625    8.250    1.750 
#
# Total GULP energy -178144.664778 kJ/mol
# GULP energy per Si atom -5567.020774 kJ/mol
# Density = 1.708965 g / cm^3
# Si number density = 17.128634 Si / 1000 Ang^3
#
#
#
# Elastic Constant Matrix: (Units=GPa)
#
#
# Indices 1 2 3 4 5 6 
#
# 1 36.6334 15.5760 12.5024 0.0000 0.8391 0.0000
# 2 15.5760 129.9982 22.5555 0.0000 14.4719 0.0000
# 3 12.5024 22.5555 79.5752 0.0000 4.8411 0.0000
# 4 0.0000 0.0000 0.0000 16.9594 0.0000 12.6609
# 5 0.8391 14.4719 4.8411 0.0000 16.6123 0.0000
# 6 0.0000 0.0000 0.0000 12.6609 0.0000 -19.9015
#
#
#
# Elastic Compliance Matrix: (Units=1/GPa)
#
#
# Indices 1 2 3 4 5 6 
#
# 1 0.029938 -0.003169 -0.003952 0.000000 0.002400 0.000000
# 2 -0.003169 0.009178 -0.001656 0.000000 -0.007353 0.000000
# 3 -0.003952 -0.001656 0.013802 0.000000 -0.002380 0.000000
# 4 0.000000 0.000000 0.000000 0.039978 0.000000 0.025433
# 5 0.002400 -0.007353 -0.002380 0.000000 0.067174 0.000000
# 6 0.000000 0.000000 0.000000 0.025433 0.000000 -0.034068
#
#
# Mechanical properties :
#
#
# Convention : Reuss Voigt Hill
#
# Bulk Modulus (GPa) = 28.27650 38.60828 33.44239
# Shear Modulus (GPa) = 32.18668 15.77224 23.97946
#
# Velocity S-wave (km/s) = 4.33958 3.03778 3.74567
# Velocity P-wave (km/s) = 6.45395 5.90705 6.18655
#
# Compressibility (1/GPa) = 0.03536505
#
# Stress axis : x y z
#
# Youngs Moduli (GPa) = 33.40195 108.95632 72.45418
#
# Poissons Ratio (x) = 0.34525 0.28631
# Poissons Ratio (y) = 0.10584 0.12001
# Poissons Ratio (z) = 0.13199 0.18047
#
# Static dielectric constant tensor:
#      x y z
#    x 1.608450 0.000000 -0.044510 
#    y 0.000000 1.607670 0.000000 
#    z -0.044510 0.000000 1.653100 
# 
# From -- ./inp_files/17080.got.cif
#   From: 2010.05.17/outbox.cif.g08.bks.cpg/sg13_9_cif.got.tgz:17080.got - 2010.06.03 16:44:36.
