data_PCOD9226432
_publ_section_title
;
Structure prediction by ZEFSAII (Michael W. Deem and Ramdas Pophale) SiO2 
 PCOD9226432
Probable space group: P 2/C
;
_chemical_formula_sum "Si O2"
_cell_formula_units_Z 28
_cell_length_a 18.950339
_cell_length_b 8.758454
_cell_length_c 20.693366
_cell_angle_alpha 90.000000
_cell_angle_beta 19.531795
_cell_angle_gamma 90.000000
_cell_volume 1148.287934
_symmetry_space_group_name_H-M "P 2/C"
_symmetry_group_IT_number 13
_symmetry_cell_setting 'monoclinic'
loop_
_space_group_symop_operation_xyz
x,y,z
-x,y,1/2-z
-x,-y,-z
x,-y,1/2+z
loop_
_atom_site_type_symbol
_atom_site_label
_atom_site_fract_x
_atom_site_fract_y
_atom_site_fract_z
Si Si1 0.849192 0.039319 0.323573
Si Si2 0.266924 0.928813 0.209932
Si Si3 0.355789 0.610677 0.081492
Si Si4 0.339527 0.011383 0.785965
Si Si5 0.603364 0.653075 0.230705
Si Si6 0.145257 0.609385 0.683058
Si Si7 0.603663 0.321766 0.232566
O O1 0.600760 0.021223 0.557292
O O2 0.916453 0.215483 0.255855
O O3 0.000000 0.975980 0.250000
O O4 0.866567 0.971418 0.237341
O O5 0.293089 0.748004 0.182679
O O6 0.222444 0.992785 0.318489
O O7 0.500000 0.000000 0.000000
O O8 0.157537 0.512177 0.228930
O O9 0.500000 0.500000 0.000000
O O10 0.462996 0.678000 0.921830
O O11 0.289360 0.183667 0.852510
O O12 0.296898 0.847189 0.854551
O O13 0.500000 0.663410 0.250000
O O14 0.394797 0.631458 0.453903
O O15 0.715116 0.488679 0.141473
O O16 0.000000 0.549576 0.750000
O O17 0.500000 0.332291 0.250000
#
# Coordination Sequence:
#
# PCOD9226432 Si02
#       7
#     4   4   4   4   4   4   4
#     4   9  17  30  46  70 103 133 164 214 276 317
#     4  10  17  29  46  72 102 126 167 219 266 308
#     4  11  19  31  51  77 106 136 175 226 271 316
#     4  10  18  32  50  76 104 132 172 220 266 312
#     4   9  18  32  50  76 105 136 176 216 261 318
#     4   9  19  32  49  77 105 133 172 220 276 314
#     4  10  19  31  49  77 102 133 175 217 262 316
#
# _framework density 24.384126999999999
#
# number of rings (size 3 to 8) (size 9 to 14) (size 15 to 20)
#    0.000    2.286    2.857    3.857    0.000    0.571 
#    0.000    0.000    0.000    0.000    3.714   13.000 
#    0.000    0.000    0.000    0.000    0.000    0.000 
#
# Total GULP energy -155948.237876 kJ/mol
# GULP energy per Si atom -5569.579924 kJ/mol
# Density = 2.432863 g / cm^3
# Si number density = 24.384127 Si / 1000 Ang^3
#
#
#
# Elastic Constant Matrix: (Units=GPa)
#
#
# Indices 1 2 3 4 5 6 
#
# 1 149.3329 49.3432 31.7417 0.0000 -33.5783 0.0000
# 2 49.3432 194.1115 6.2696 0.0000 -26.6301 0.0000
# 3 31.7417 6.2696 106.4650 0.0000 -13.5381 0.0000
# 4 0.0000 0.0000 0.0000 -13.4679 0.0000 -11.3193
# 5 -33.5783 -26.6301 -13.5381 0.0000 34.3937 0.0000
# 6 0.0000 0.0000 0.0000 -11.3193 0.0000 54.9035
#
#
#
# Elastic Compliance Matrix: (Units=1/GPa)
#
#
# Indices 1 2 3 4 5 6 
#
# 1 0.009107 -0.001267 -0.001721 0.000000 0.007233 0.000000
# 2 -0.001267 0.005946 0.000480 0.000000 0.003556 0.000000
# 3 -0.001721 0.000480 0.010223 0.000000 0.002715 0.000000
# 4 0.000000 0.000000 0.000000 -0.063285 0.000000 -0.013047
# 5 0.007233 0.003556 0.002715 0.000000 0.039958 0.000000
# 6 0.000000 0.000000 0.000000 -0.013047 0.000000 0.015524
#
#
# Mechanical properties :
#
#
# Convention : Reuss Voigt Hill
#
# Bulk Modulus (GPa) = 49.35950 69.40203 59.38077
# Shear Modulus (GPa) = 170.97944 39.33619 105.15781
#
# Velocity S-wave (km/s) = 8.38280 4.02081 6.57413
# Velocity P-wave (km/s) = 10.67622 7.07670 9.05708
#
# Compressibility (1/GPa) = 0.02025952
#
# Stress axis : x y z
#
# Youngs Moduli (GPa) = 109.80204 168.17751 97.81995
#
# Poissons Ratio (x) = 0.21312 0.16834
# Poissons Ratio (y) = 0.13914 -0.04693
# Poissons Ratio (z) = 0.18896 -0.08069
#
# Static dielectric constant tensor:
#      x y z
#    x 1.933250 0.000000 0.048850 
#    y 0.000000 1.939130 0.000000 
#    z 0.048850 0.000000 2.302100 
# 
# From -- ./inp_files/87828.got.cif
#   From: 2010.05.17/outbox.cif.g08.bks.cpg/sg13_44_cif.got.tgz:87828.got - 2010.06.03 16:44:36.
