data_PCOD9226231
_publ_section_title
;
Structure prediction by ZEFSAII (Michael W. Deem and Ramdas Pophale) SiO2 
 PCOD9226231
Probable space group: P 2/C
;
_chemical_formula_sum "Si O2"
_cell_formula_units_Z 20
_cell_length_a 23.151355
_cell_length_b 6.732788
_cell_length_c 15.150185
_cell_angle_alpha 90.000000
_cell_angle_beta 19.965688
_cell_angle_gamma 90.000000
_cell_volume 806.353997
_symmetry_space_group_name_H-M "P 2/C"
_symmetry_group_IT_number 13
_symmetry_cell_setting 'monoclinic'
loop_
_space_group_symop_operation_xyz
x,y,z
-x,y,1/2-z
-x,-y,-z
x,-y,1/2+z
loop_
_atom_site_type_symbol
_atom_site_label
_atom_site_fract_x
_atom_site_fract_y
_atom_site_fract_z
Si Si1 0.174628 0.480303 0.698150
Si Si2 0.598922 0.356121 0.979213
Si Si3 0.244521 0.496329 0.911006
Si Si4 0.000000 0.855487 0.250000
Si Si5 0.500000 0.992142 0.750000
Si Si6 0.141394 0.016923 0.721391
O O1 0.322709 0.499308 0.557919
O O2 0.157187 0.578642 0.626769
O O3 0.193546 0.248414 0.647493
O O4 0.000000 0.500000 0.000000
O O5 0.727233 0.352172 0.712293
O O6 0.427862 0.446639 0.186500
O O7 0.554651 0.146511 0.088043
O O8 0.150971 0.697377 0.012005
O O9 0.053713 0.993128 0.253233
O O10 0.679571 0.092969 0.517993
O O11 0.000000 0.000000 0.000000
#
# Coordination Sequence:
#
# PCOD9226231 Si02
#       6
#     4   4   4   2   2   4
#     4  10  19  34  55  83 117 146 183 236 292 337
#     4  10  16  30  52  83 110 145 187 230 280 347
#     4  10  18  28  54  84 113 145 183 230 287 341
#     4  10  18  36  56  84 110 150 196 232 294 344
#     4  10  18  38  58  80 118 156 192 236 304 340
#     4  10  21  38  61  79 111 156 193 236 289 352
#
# _framework density 24.803000999999998
#
# number of rings (size 3 to 8) (size 9 to 14) (size 15 to 20)
#    0.000    2.000    6.000    2.400    0.000    0.000 
#    0.000    5.000   13.200    0.000    0.000    0.000 
#    0.000    0.000    0.000    0.000    0.000    0.000 
#
# Total GULP energy -111591.452705 kJ/mol
# GULP energy per Si atom -5579.572635 kJ/mol
# Density = 2.474655 g / cm^3
# Si number density = 24.803001 Si / 1000 Ang^3
#
#
#
# Elastic Constant Matrix: (Units=GPa)
#
#
# Indices 1 2 3 4 5 6 
#
# 1 185.9305 32.2684 88.0536 0.0000 3.5894 0.0000
# 2 32.2684 56.5281 2.3003 0.0000 -3.5102 0.0000
# 3 88.0536 2.3003 163.8456 0.0000 8.1291 0.0000
# 4 0.0000 0.0000 0.0000 26.7851 0.0000 -0.7563
# 5 3.5894 -3.5102 8.1291 0.0000 68.1733 0.0000
# 6 0.0000 0.0000 0.0000 -0.7563 0.0000 25.9350
#
#
#
# Elastic Compliance Matrix: (Units=1/GPa)
#
#
# Indices 1 2 3 4 5 6 
#
# 1 0.008228 -0.004529 -0.004351 0.000000 -0.000148 0.000000
# 2 -0.004529 0.020254 0.002098 0.000000 0.001031 0.000000
# 3 -0.004351 0.002098 0.008445 0.000000 -0.000670 0.000000
# 4 0.000000 0.000000 0.000000 0.037365 0.000000 0.001090
# 5 -0.000148 0.001031 -0.000670 0.000000 0.014809 0.000000
# 6 0.000000 0.000000 0.000000 0.001090 0.000000 0.038590
#
#
# Mechanical properties :
#
#
# Convention : Reuss Voigt Hill
#
# Bulk Modulus (GPa) = 42.79973 72.39431 57.59702
# Shear Modulus (GPa) = 33.54768 43.09081 38.31924
#
# Velocity S-wave (km/s) = 3.68171 4.17264 3.93484
# Velocity P-wave (km/s) = 5.94699 7.24332 6.62693
#
# Compressibility (1/GPa) = 0.02336463
#
# Stress axis : x y z
#
# Youngs Moduli (GPa) = 121.54174 49.37257 118.40954
#
# Poissons Ratio (x) = 0.22360 0.51517
# Poissons Ratio (y) = 0.55043 -0.24846
# Poissons Ratio (z) = 0.52880 -0.10360
#
# Static dielectric constant tensor:
#      x y z
#    x 2.040990 0.000000 0.013600 
#    y 0.000000 2.013370 0.000000 
#    z 0.013600 0.000000 2.055970 
# 
# From -- ./inp_files/49860.got.cif
#   From: 2010.05.17/outbox.cif.g08.bks.cpg/sg13_25_cif.got.tgz:49860.got - 2010.06.03 16:44:36.
