data_PCOD9226086
_publ_section_title
;
Structure prediction by ZEFSAII (Michael W. Deem and Ramdas Pophale) SiO2 
 PCOD9226086
Probable space group: P 2/C
;
_chemical_formula_sum "Si O2"
_cell_formula_units_Z 24
_cell_length_a 7.750542
_cell_length_b 25.722054
_cell_length_c 5.423520
_cell_angle_alpha 90.000000
_cell_angle_beta 59.510553
_cell_angle_gamma 90.000000
_cell_volume 931.722240
_symmetry_space_group_name_H-M "P 2/C"
_symmetry_group_IT_number 13
_symmetry_cell_setting 'monoclinic'
loop_
_space_group_symop_operation_xyz
x,y,z
-x,y,1/2-z
-x,-y,-z
x,-y,1/2+z
loop_
_atom_site_type_symbol
_atom_site_label
_atom_site_fract_x
_atom_site_fract_y
_atom_site_fract_z
Si Si1 0.745378 0.187362 0.579875
Si Si2 0.738200 0.134891 0.086568
Si Si3 0.776856 0.517369 0.469306
Si Si4 0.733189 0.018787 0.292880
Si Si5 0.741213 0.362824 0.078089
Si Si6 0.743862 0.306740 0.578661
O O1 0.500000 0.185286 0.750000
O O2 0.812315 0.169192 0.261038
O O3 0.803133 0.247060 0.578703
O O4 0.807951 0.150533 0.762719
O O5 0.500000 0.144560 0.250000
O O6 0.755908 0.075121 0.154327
O O7 0.686072 0.484672 0.760240
O O8 0.788207 0.576310 0.555004
O O9 0.000000 0.497095 0.250000
O O10 0.500000 0.000000 0.500000
O O11 0.812571 0.018240 0.515861
O O12 0.500000 0.359418 0.250000
O O13 0.805902 0.330098 0.269924
O O14 0.807267 0.340775 0.766368
O O15 0.500000 0.306938 0.750000
#
# Coordination Sequence:
#
# PCOD9226086 Si02
#       6
#     4   4   4   4   4   4
#     4   9  17  24  35  49  69  93 125 171 220 277
#     4  10  16  22  31  44  60  90 127 164 226 279
#     4  10  21  36  52  73 101 127 152 185 225 268
#     4  10  17  22  29  37  58  84 121 173 221 267
#     4  10  19  31  51  70  92 123 154 186 228 275
#     4   9  17  30  43  63  87 110 144 187 233 273
#
# _framework density 25.758747
#
# number of rings (size 3 to 8) (size 9 to 14) (size 15 to 20)
#    0.000    2.333    1.667    3.000    4.667    4.667 
#    0.000    0.000    0.000    0.000    0.000    0.000 
#    0.000    0.000    0.000    0.000    0.000    0.000 
#
# Total GULP energy -134327.706707 kJ/mol
# GULP energy per Si atom -5596.987779 kJ/mol
# Density = 2.570012 g / cm^3
# Si number density = 25.758747 Si / 1000 Ang^3
#
#
#
# Elastic Constant Matrix: (Units=GPa)
#
#
# Indices 1 2 3 4 5 6 
#
# 1 94.2457 5.9454 28.5262 0.0000 17.4331 0.0000
# 2 5.9454 158.5141 66.0848 0.0000 41.2112 0.0000
# 3 28.5262 66.0848 230.5103 0.0000 27.6604 0.0000
# 4 0.0000 0.0000 0.0000 49.0370 0.0000 15.2450
# 5 17.4331 41.2112 27.6604 0.0000 58.9650 0.0000
# 6 0.0000 0.0000 0.0000 15.2450 0.0000 26.3483
#
#
#
# Elastic Compliance Matrix: (Units=1/GPa)
#
#
# Indices 1 2 3 4 5 6 
#
# 1 0.011595 0.001028 -0.001306 0.000000 -0.003534 0.000000
# 2 0.001028 0.008448 -0.001912 0.000000 -0.005312 0.000000
# 3 -0.001306 -0.001912 0.005130 0.000000 -0.000684 0.000000
# 4 0.000000 0.000000 0.000000 0.024866 0.000000 -0.014387
# 5 -0.003534 -0.005312 -0.000684 0.000000 0.022037 0.000000
# 6 0.000000 0.000000 0.000000 -0.014387 0.000000 0.046277
#
#
# Mechanical properties :
#
#
# Convention : Reuss Voigt Hill
#
# Bulk Modulus (GPa) = 48.09019 76.04256 62.06637
# Shear Modulus (GPa) = 38.56161 52.38431 45.47296
#
# Velocity S-wave (km/s) = 3.87334 4.51449 4.20615
# Velocity P-wave (km/s) = 6.22203 7.53388 6.90916
#
# Compressibility (1/GPa) = 0.02079426
#
# Stress axis : x y z
#
# Youngs Moduli (GPa) = 86.24709 118.37145 194.93260
#
# Poissons Ratio (x) = -0.12171 0.25450
# Poissons Ratio (y) = -0.08868 0.37268
# Poissons Ratio (z) = 0.11260 0.22631
#
# Static dielectric constant tensor:
#      x y z
#    x 2.346960 0.000000 -0.012110 
#    y 0.000000 1.940740 0.000000 
#    z -0.012110 0.000000 2.020180 
# 
# From -- ./inp_files/2421.got.cif
#   From: 2010.05.17/outbox.cif.g08.bks.cpg/sg13_2_cif.got.tgz:2421.got - 2010.06.03 16:44:36.
