data_PCOD9226008
_publ_section_title
;
Structure prediction by ZEFSAII (Michael W. Deem and Ramdas Pophale) SiO2 
 PCOD9226008
Probable space group: P 2/C
;
_chemical_formula_sum "Si O2"
_cell_formula_units_Z 20
_cell_length_a 23.717968
_cell_length_b 7.052097
_cell_length_c 5.388449
_cell_angle_alpha 90.000000
_cell_angle_beta 83.387845
_cell_angle_gamma 90.000000
_cell_volume 895.284595
_symmetry_space_group_name_H-M "P 2/C"
_symmetry_group_IT_number 13
_symmetry_cell_setting 'monoclinic'
loop_
_space_group_symop_operation_xyz
x,y,z
-x,y,1/2-z
-x,-y,-z
x,-y,1/2+z
loop_
_atom_site_type_symbol
_atom_site_label
_atom_site_fract_x
_atom_site_fract_y
_atom_site_fract_z
Si Si1 0.855908 0.872700 0.559856
Si Si2 0.729636 0.126114 0.153074
Si Si3 0.975409 0.712649 0.512401
Si Si4 0.564656 0.802333 0.134952
Si Si5 0.390900 0.234613 0.388347
O O1 0.792538 0.786494 0.603342
O O2 0.907727 0.726771 0.544766
O O3 0.860660 0.990667 0.299661
O O4 0.674555 0.256639 0.152575
O O5 0.726043 0.017715 0.418952
O O6 0.000000 0.799943 0.750000
O O7 0.000000 0.500000 0.500000
O O8 0.000000 0.800194 0.250000
O O9 0.500000 0.830278 0.250000
O O10 0.595903 0.695135 0.342849
O O11 0.594502 0.008123 0.091535
O O12 0.569877 0.709109 0.862814
#
# Coordination Sequence:
#
# PCOD9226008 Si02
#       5
#     4   4   4   4   4
#     4  10  21  32  50  75  98 123 159 204 245 286
#     4  10  16  27  38  54  79 109 143 183 237 275
#     4  10  21  37  55  74  99 129 157 191 240 304
#     4  10  16  20  29  45  65  96 142 188 220 258
#     4  10  14  22  31  42  65  99 133 180 233 254
#
# _framework density 22.339267
#
# number of rings (size 3 to 8) (size 9 to 14) (size 15 to 20)
#    0.000    2.000    4.000    4.200    0.000    2.400 
#    0.000    0.000    0.000    0.000    0.000    0.000 
#    0.000    0.000    0.000    0.000    0.000    0.000 
#
# Total GULP energy -111581.460150 kJ/mol
# GULP energy per Si atom -5579.073008 kJ/mol
# Density = 2.228842 g / cm^3
# Si number density = 22.339267 Si / 1000 Ang^3
#
#
#
# Elastic Constant Matrix: (Units=GPa)
#
#
# Indices 1 2 3 4 5 6 
#
# 1 169.0195 -0.4194 -14.1853 0.0000 -12.3384 0.0000
# 2 -0.4194 65.8248 -15.7708 0.0000 -1.2145 0.0000
# 3 -14.1853 -15.7708 136.4730 0.0000 21.3712 0.0000
# 4 0.0000 0.0000 0.0000 -39.2028 0.0000 2.9963
# 5 -12.3384 -1.2145 21.3712 0.0000 43.6550 0.0000
# 6 0.0000 0.0000 0.0000 2.9963 0.0000 -31.9383
#
#
#
# Elastic Compliance Matrix: (Units=1/GPa)
#
#
# Indices 1 2 3 4 5 6 
#
# 1 0.006062 0.000165 0.000412 0.000000 0.001516 0.000000
# 2 0.000165 0.015638 0.001894 0.000000 -0.000445 0.000000
# 3 0.000412 0.001894 0.008191 0.000000 -0.003841 0.000000
# 4 0.000000 0.000000 0.000000 -0.025693 0.000000 -0.002410
# 5 0.001516 -0.000445 -0.003841 0.000000 0.025203 0.000000
# 6 0.000000 0.000000 0.000000 -0.002410 0.000000 -0.031537
#
#
# Mechanical properties :
#
#
# Convention : Reuss Voigt Hill
#
# Bulk Modulus (GPa) = 28.70809 34.50739 31.60774
# Shear Modulus (GPa) = 1102.71350 21.28228 561.99789
#
# Velocity S-wave (km/s) = 22.24169 3.08991 15.87829
# Velocity P-wave (km/s) = 25.93201 5.31136 18.71737
#
# Compressibility (1/GPa) = 0.03483338
#
# Stress axis : x y z
#
# Youngs Moduli (GPa) = 164.95821 63.94487 122.09176
#
# Poissons Ratio (x) = -0.01057 -0.05027
# Poissons Ratio (y) = -0.02726 -0.23126
# Poissons Ratio (z) = -0.06792 -0.12112
#
# Static dielectric constant tensor:
#      x y z
#    x 1.818350 0.000000 0.024320 
#    y 0.000000 1.811760 0.000000 
#    z 0.024320 0.000000 1.898540 
# 
# From -- ./inp_files/6730.got.cif
#   From: 2010.05.17/outbox.cif.g08.bks.cpg/sg13_4_cif.got.tgz:6730.got - 2010.06.03 16:44:36.
