data_PCOD9226944
_publ_section_title
;
Structure prediction by ZEFSAII (Michael W. Deem and Ramdas Pophale) SiO2 
 PCOD9226944
Probable space group: P 2/C
;
_chemical_formula_sum "Si O2"
_cell_formula_units_Z 28
_cell_length_a 14.185616
_cell_length_b 17.873325
_cell_length_c 5.751901
_cell_angle_alpha 90.000000
_cell_angle_beta 128.835484
_cell_angle_gamma 90.000000
_cell_volume 1135.989711
_symmetry_space_group_name_H-M "P 2/C"
_symmetry_group_IT_number 13
_symmetry_cell_setting 'monoclinic'
loop_
_space_group_symop_operation_xyz
x,y,z
-x,y,1/2-z
-x,-y,-z
x,-y,1/2+z
loop_
_atom_site_type_symbol
_atom_site_label
_atom_site_fract_x
_atom_site_fract_y
_atom_site_fract_z
Si Si1 0.372357 0.924827 0.607739
Si Si2 0.791674 0.686452 0.284328
Si Si3 0.780629 0.174219 0.998166
Si Si4 0.455916 0.628396 0.429665
Si Si5 0.378311 0.228641 0.341146
Si Si6 0.138690 0.022205 0.324823
Si Si7 0.862657 0.528027 0.280628
O O1 0.500000 0.964403 0.750000
O O2 0.296773 0.875926 0.302251
O O3 0.415998 0.855159 0.833355
O O4 0.272996 0.981390 0.559199
O O5 0.853702 0.755346 0.511827
O O6 0.686729 0.643682 0.270541
O O7 0.866486 0.617829 0.302168
O O8 0.721429 0.732357 0.976936
O O9 0.686383 0.214272 0.018095
O O10 0.855876 0.109377 0.238248
O O11 0.500000 0.593581 0.250000
O O12 0.517079 0.710729 0.516176
O O13 0.500000 0.595541 0.750000
O O14 0.092373 0.018417 0.519587
O O15 0.808632 0.495514 0.443248
O O16 0.000000 0.500000 0.500000
#
# Coordination Sequence:
#
# PCOD9226944 Si02
#       7
#     4   4   4   4   4   4   4
#     4  10  20  29  39  63 101 157 218 268 300 330
#     4  10  21  35  60  85 115 155 198 244 297 360
#     4  10  19  31  48  72 104 155 209 258 296 340
#     4  10  19  30  48  77 110 151 201 249 278 321
#     4  10  18  32  48  75 112 159 213 255 285 329
#     4  10  20  33  41  61 101 150 207 265 299 331
#     4  10  24  46  72 100 124 147 177 225 309 391
#
# _framework density 24.648111
#
# number of rings (size 3 to 8) (size 9 to 14) (size 15 to 20)
#    0.000    2.000    2.857    2.143    2.000    2.286 
#    2.571    0.000    0.000   11.143    0.000    0.000 
#    0.000    0.000    0.000  138.857    2.286    1.714 
#
# Total GULP energy -156015.605194 kJ/mol
# GULP energy per Si atom -5571.985900 kJ/mol
# Density = 2.459201 g / cm^3
# Si number density = 24.648111 Si / 1000 Ang^3
#
#
#
# Elastic Constant Matrix: (Units=GPa)
#
#
# Indices 1 2 3 4 5 6 
#
# 1 86.3379 30.9824 34.2390 0.0000 -28.1349 0.0000
# 2 30.9824 156.1713 14.7449 0.0000 -8.5257 0.0000
# 3 34.2390 14.7449 63.5241 0.0000 -25.6264 0.0000
# 4 0.0000 0.0000 0.0000 2.1061 0.0000 5.1272
# 5 -28.1349 -8.5257 -25.6264 0.0000 34.1208 0.0000
# 6 0.0000 0.0000 0.0000 5.1272 0.0000 31.4700
#
#
#
# Elastic Compliance Matrix: (Units=1/GPa)
#
#
# Indices 1 2 3 4 5 6 
#
# 1 0.017784 -0.002506 -0.004793 0.000000 0.010438 0.000000
# 2 -0.002506 0.006912 -0.000560 0.000000 -0.000760 0.000000
# 3 -0.004793 -0.000560 0.024109 0.000000 0.014015 0.000000
# 4 0.000000 0.000000 0.000000 0.786947 0.000000 -0.128211
# 5 0.010438 -0.000760 0.014015 0.000000 0.048251 0.000000
# 6 0.000000 0.000000 0.000000 -0.128211 0.000000 0.052665
#
#
# Mechanical properties :
#
#
# Convention : Reuss Voigt Hill
#
# Bulk Modulus (GPa) = 30.22324 51.77400 40.99862
# Shear Modulus (GPa) = 5.18988 28.61052 16.90020
#
# Velocity S-wave (km/s) = 1.45264 3.41069 2.62135
# Velocity P-wave (km/s) = 3.88614 6.04659 5.08248
#
# Compressibility (1/GPa) = 0.03308712
#
# Stress axis : x y z
#
# Youngs Moduli (GPa) = 56.23116 144.68130 41.47769
#
# Poissons Ratio (x) = 0.36253 0.19879
# Poissons Ratio (y) = 0.14090 0.02324
# Poissons Ratio (z) = 0.26950 0.08107
#
# Static dielectric constant tensor:
#      x y z
#    x 2.131780 0.000000 -0.043350 
#    y 0.000000 1.912830 0.000000 
#    z -0.043350 0.000000 2.144080 
# 
# From -- ./inp_files/5384.got.cif
#   From: 2010.05.17/outbox.cif.g08.bks.cpg/sg13_3_cif.got.tgz:5384.got - 2010.06.03 16:44:36.
