data_PCOD9226470
_publ_section_title
;
Structure prediction by ZEFSAII (Michael W. Deem and Ramdas Pophale) SiO2 
 PCOD9226470
Probable space group: P 2/C
;
_chemical_formula_sum "Si O2"
_cell_formula_units_Z 32
_cell_length_a 8.796365
_cell_length_b 11.694017
_cell_length_c 13.975296
_cell_angle_alpha 90.000000
_cell_angle_beta 129.405720
_cell_angle_gamma 90.000000
_cell_volume 1110.764886
_symmetry_space_group_name_H-M "P 2/C"
_symmetry_group_IT_number 13
_symmetry_cell_setting 'monoclinic'
loop_
_space_group_symop_operation_xyz
x,y,z
-x,y,1/2-z
-x,-y,-z
x,-y,1/2+z
loop_
_atom_site_type_symbol
_atom_site_label
_atom_site_fract_x
_atom_site_fract_y
_atom_site_fract_z
Si Si1 0.839571 0.667926 0.847465
Si Si2 0.916210 0.079279 0.324991
Si Si3 0.926571 0.428865 0.830143
Si Si4 0.543147 0.935818 0.905711
Si Si5 0.420249 0.303161 0.092980
Si Si6 0.541169 0.393156 0.583931
Si Si7 0.077618 0.175287 0.670787
Si Si8 0.480057 0.833879 0.094535
O O1 0.941910 0.793656 0.881449
O O2 0.976749 0.556708 0.885805
O O3 0.704972 0.625035 0.883588
O O4 0.656355 0.681843 0.696484
O O5 0.682055 0.061221 0.217844
O O6 0.000000 0.090333 0.250000
O O7 0.984864 0.952002 0.388709
O O8 0.688376 0.428094 0.725092
O O9 0.973848 0.302160 0.891162
O O10 0.000000 0.429581 0.750000
O O11 0.633457 0.824305 0.894274
O O12 0.638879 0.056538 0.916715
O O13 0.532364 0.891928 0.011812
O O14 0.353856 0.320286 0.958548
O O15 0.500000 0.500000 0.500000
O O16 0.392541 0.293247 0.556890
O O17 0.315206 0.178912 0.768562
O O18 0.000000 0.175586 0.750000
#
# Coordination Sequence:
#
# PCOD9226470 Si02
#       8
#     4   4   4   4   4   4   4   4
#     4  10  18  30  47  70  99 125 161 198 244 287
#     4   9  16  27  45  68  92 119 156 197 234 278
#     4  10  19  31  50  75  95 124 164 205 234 281
#     4   8  14  26  43  67  89 115 153 190 233 274
#     4   9  18  30  48  67  96 132 155 195 247 291
#     4  10  17  30  49  71  95 124 163 197 236 283
#     4   8  15  27  44  67  91 119 152 193 238 272
#     4   8  14  24  43  67  89 111 149 197 224 267
#
# _framework density 28.808976999999999
#
# number of rings (size 3 to 8) (size 9 to 14) (size 15 to 20)
#    0.000    3.000    1.250    0.375    0.000    0.000 
#    0.000    0.625    2.750    1.500    0.000   78.750 
#    0.000    0.000    0.000    0.000    0.000    0.000 
#
# Total GULP energy -178246.640248 kJ/mol
# GULP energy per Si atom -5570.207508 kJ/mol
# Density = 2.874341 g / cm^3
# Si number density = 28.808977 Si / 1000 Ang^3
#
#
#
# Elastic Constant Matrix: (Units=GPa)
#
#
# Indices 1 2 3 4 5 6 
#
# 1 59.2456 24.7665 -3.5440 0.0000 -3.0724 0.0000
# 2 24.7665 353.3075 28.9323 0.0000 21.1617 0.0000
# 3 -3.5440 28.9323 61.6391 0.0000 18.4434 0.0000
# 4 0.0000 0.0000 0.0000 31.2109 0.0000 4.2511
# 5 -3.0724 21.1617 18.4434 0.0000 35.7108 0.0000
# 6 0.0000 0.0000 0.0000 4.2511 0.0000 25.6823
#
#
#
# Elastic Compliance Matrix: (Units=1/GPa)
#
#
# Indices 1 2 3 4 5 6 
#
# 1 0.017641 -0.001438 0.001159 0.000000 0.001771 0.000000
# 2 -0.001438 0.003106 -0.001127 0.000000 -0.001382 0.000000
# 3 0.001159 -0.001127 0.019622 0.000000 -0.009366 0.000000
# 4 0.000000 0.000000 0.000000 0.032779 0.000000 -0.005426
# 5 0.001771 -0.001382 -0.009366 0.000000 0.033812 0.000000
# 6 0.000000 0.000000 0.000000 -0.005426 0.000000 0.039835
#
#
# Mechanical properties :
#
#
# Convention : Reuss Voigt Hill
#
# Bulk Modulus (GPa) = 26.62553 63.83354 45.22953
# Shear Modulus (GPa) = 30.84029 46.78996 38.81513
#
# Velocity S-wave (km/s) = 3.27541 4.03444 3.67458
# Velocity P-wave (km/s) = 4.85455 6.62630 5.80838
#
# Compressibility (1/GPa) = 0.03755793
#
# Stress axis : x y z
#
# Youngs Moduli (GPa) = 56.68603 321.93037 50.96399
#
# Poissons Ratio (x) = 0.46281 -0.05908
# Poissons Ratio (y) = 0.08149 0.05744
# Poissons Ratio (z) = -0.06571 0.36284
#
# Static dielectric constant tensor:
#      x y z
#    x 2.472960 0.000000 -0.033550 
#    y 0.000000 2.954610 0.000000 
#    z -0.033550 0.000000 2.308330 
# 
# From -- ./inp_files/76270.got.cif
#   From: 2010.05.17/outbox.cif.g08.bks.cpg/sg13_39_cif.got.tgz:76270.got - 2010.06.03 16:44:36.
