data_PCOD9226552
_publ_section_title
;
Structure prediction by ZEFSAII (Michael W. Deem and Ramdas Pophale) SiO2 
 PCOD9226552
Probable space group: P 2/C
;
_chemical_formula_sum "Si O2"
_cell_formula_units_Z 28
_cell_length_a 27.395741
_cell_length_b 9.192925
_cell_length_c 21.096541
_cell_angle_alpha 90.000000
_cell_angle_beta 17.190054
_cell_angle_gamma 90.000000
_cell_volume 1570.245479
_symmetry_space_group_name_H-M "P 2/C"
_symmetry_group_IT_number 13
_symmetry_cell_setting 'monoclinic'
loop_
_space_group_symop_operation_xyz
x,y,z
-x,y,1/2-z
-x,-y,-z
x,-y,1/2+z
loop_
_atom_site_type_symbol
_atom_site_label
_atom_site_fract_x
_atom_site_fract_y
_atom_site_fract_z
Si Si1 0.628512 0.443246 0.928858
Si Si2 0.064105 0.515363 0.779647
Si Si3 0.149988 0.702373 0.793941
Si Si4 0.700029 0.581127 0.194590
Si Si5 0.167544 0.248423 0.728565
Si Si6 0.691581 0.056659 0.492782
Si Si7 0.818217 0.233173 0.449576
O O1 0.731544 0.591781 0.814887
O O2 0.654525 0.395456 0.824178
O O3 0.700651 0.327750 0.888775
O O4 0.434947 0.480232 0.171698
O O5 0.059435 0.604748 0.852054
O O6 0.131014 0.358578 0.715800
O O7 0.179678 0.614526 0.592204
O O8 0.884805 0.515517 0.969462
O O9 0.257359 0.823534 0.623879
O O10 0.005323 0.764310 0.018166
O O11 0.705334 0.732346 0.149691
O O12 0.238809 0.096530 0.616958
O O13 0.775380 0.109365 0.453805
O O14 0.500000 0.052872 0.750000
O O15 0.000000 0.207646 0.250000
#
# Coordination Sequence:
#
# PCOD9226552 Si02
#       7
#     4   4   4   4   4   4   4
#     4  10  19  31  61  87 108 135 178 239 273 312
#     4   9  17  34  60  83 106 139 182 228 270 319
#     4  10  18  37  59  81 107 144 189 220 268 324
#     4  10  17  32  56  88 111 133 178 225 279 322
#     4  11  20  36  56  83 111 141 185 228 266 319
#     4  11  24  38  55  78 112 152 184 222 267 326
#     4   9  20  37  58  76 106 149 182 218 273 338
#
# _framework density 17.831606000000001
#
# number of rings (size 3 to 8) (size 9 to 14) (size 15 to 20)
#    0.000    2.000    2.857    2.143    0.000    1.143 
#    0.000    5.000    0.000    4.286    0.000    0.000 
#    0.000    0.000    0.000    0.000    0.000    0.000 
#
# Total GULP energy -156078.783725 kJ/mol
# GULP energy per Si atom -5574.242276 kJ/mol
# Density = 1.779102 g / cm^3
# Si number density = 17.831606 Si / 1000 Ang^3
#
#
#
# Elastic Constant Matrix: (Units=GPa)
#
#
# Indices 1 2 3 4 5 6 
#
# 1 101.3035 55.0601 43.8802 0.0000 -5.6036 0.0000
# 2 55.0601 122.3622 60.0178 0.0000 4.4746 0.0000
# 3 43.8802 60.0178 89.8931 0.0000 -7.0627 0.0000
# 4 0.0000 0.0000 0.0000 19.5829 0.0000 6.8605
# 5 -5.6036 4.4746 -7.0627 0.0000 12.3810 0.0000
# 6 0.0000 0.0000 0.0000 6.8605 0.0000 22.4648
#
#
#
# Elastic Compliance Matrix: (Units=1/GPa)
#
#
# Indices 1 2 3 4 5 6 
#
# 1 0.014394 -0.005256 -0.002990 0.000000 0.006708 0.000000
# 2 -0.005256 0.015226 -0.008605 0.000000 -0.012790 0.000000
# 3 -0.002990 -0.008605 0.019334 0.000000 0.012785 0.000000
# 4 0.000000 0.000000 0.000000 0.057183 0.000000 -0.017463
# 5 0.006708 -0.012790 0.012785 0.000000 0.095721 0.000000
# 6 0.000000 0.000000 0.000000 -0.017463 0.000000 0.049847
#
#
# Mechanical properties :
#
#
# Convention : Reuss Voigt Hill
#
# Bulk Modulus (GPa) = 65.56624 70.16389 67.86507
# Shear Modulus (GPa) = 17.21225 21.19245 19.20235
#
# Velocity S-wave (km/s) = 3.11024 3.45117 3.28513
# Velocity P-wave (km/s) = 7.05320 7.43735 7.24782
#
# Compressibility (1/GPa) = 0.01525175
#
# Stress axis : x y z
#
# Youngs Moduli (GPa) = 69.47245 65.67798 51.72296
#
# Poissons Ratio (x) = 0.34518 0.15467
# Poissons Ratio (y) = 0.36512 0.44508
# Poissons Ratio (z) = 0.20775 0.56516
#
# Static dielectric constant tensor:
#      x y z
#    x 1.631920 0.000000 0.016390 
#    y 0.000000 1.586790 0.000000 
#    z 0.016390 0.000000 1.643370 
# 
# From -- ./inp_files/80815.got.cif
#   From: 2010.05.17/outbox.cif.g08.bks.cpg/sg13_41_cif.got.tgz:80815.got - 2010.06.03 16:44:36.
