data_PCOD9226763
_publ_section_title
;
Structure prediction by ZEFSAII (Michael W. Deem and Ramdas Pophale) SiO2 
 PCOD9226763
Probable space group: P 2/C
;
_chemical_formula_sum "Si O2"
_cell_formula_units_Z 26
_cell_length_a 19.818446
_cell_length_b 7.730705
_cell_length_c 9.054973
_cell_angle_alpha 90.000000
_cell_angle_beta 46.269469
_cell_angle_gamma 90.000000
_cell_volume 1002.474079
_symmetry_space_group_name_H-M "P 2/C"
_symmetry_group_IT_number 13
_symmetry_cell_setting 'monoclinic'
loop_
_space_group_symop_operation_xyz
x,y,z
-x,y,1/2-z
-x,-y,-z
x,-y,1/2+z
loop_
_atom_site_type_symbol
_atom_site_label
_atom_site_fract_x
_atom_site_fract_y
_atom_site_fract_z
Si Si1 0.377092 0.111071 0.173516
Si Si2 0.500000 0.303998 0.750000
Si Si3 0.123306 0.560981 0.147311
Si Si4 0.784959 0.923404 0.789901
Si Si5 0.947420 0.288214 0.041561
Si Si6 0.345160 0.722393 0.286792
Si Si7 0.702861 0.300918 0.961944
O O1 0.269956 0.125513 0.276708
O O2 0.382388 0.226607 0.311581
O O3 0.394057 0.907986 0.170960
O O4 0.436886 0.187793 0.951954
O O5 0.579752 0.387752 0.732733
O O6 0.075531 0.382585 0.270793
O O7 0.227681 0.576597 0.051722
O O8 0.053979 0.699205 0.332244
O O9 0.109366 0.597726 0.996169
O O10 0.894335 0.891486 0.616301
O O11 0.759042 0.121166 0.852100
O O12 0.738904 0.799898 0.985651
O O13 0.320677 0.637111 0.167304
#
# Coordination Sequence:
#
# PCOD9226763 Si02
#       7
#     4   2   4   4   4   4   4
#     4   9  17  31  49  77 111 146 180 225 272 328
#     4  10  18  30  48  78 116 152 170 224 282 336
#     4  10  22  37  58  81 112 142 192 232 272 323
#     4   9  18  34  54  76 116 149 180 224 280 324
#     4  10  21  39  56  81 110 149 186 234 270 325
#     4   9  19  29  49  79 111 146 179 220 274 329
#     4  10  19  34  54  83 113 145 186 231 273 329
#
# _framework density 25.935834
#
# number of rings (size 3 to 8) (size 9 to 14) (size 15 to 20)
#    0.000    2.462    1.538    1.385    2.154    1.231 
#    0.000    0.000    0.000    0.000    0.000   17.231 
#    0.000    0.000    0.000    0.000    0.000    0.000 
#
# Total GULP energy -145347.068498 kJ/mol
# GULP energy per Si atom -5590.271865 kJ/mol
# Density = 2.587680 g / cm^3
# Si number density = 25.935834 Si / 1000 Ang^3
#
#
#
# Elastic Constant Matrix: (Units=GPa)
#
#
# Indices 1 2 3 4 5 6 
#
# 1 135.2536 0.7314 26.1845 0.0000 12.7746 0.0000
# 2 0.7314 59.4818 2.3075 0.0000 8.2869 0.0000
# 3 26.1845 2.3075 59.0286 0.0000 16.2984 0.0000
# 4 0.0000 0.0000 0.0000 14.0555 0.0000 4.2809
# 5 12.7746 8.2869 16.2984 0.0000 47.3033 0.0000
# 6 0.0000 0.0000 0.0000 4.2809 0.0000 22.9355
#
#
#
# Elastic Compliance Matrix: (Units=1/GPa)
#
#
# Indices 1 2 3 4 5 6 
#
# 1 0.008137 0.000180 -0.003317 0.000000 -0.001086 0.000000
# 2 0.000180 0.017238 0.000103 0.000000 -0.003104 0.000000
# 3 -0.003317 0.000103 0.020076 0.000000 -0.006040 0.000000
# 4 0.000000 0.000000 0.000000 0.075435 0.000000 -0.014080
# 5 -0.001086 -0.003104 -0.006040 0.000000 0.024058 0.000000
# 6 0.000000 0.000000 0.000000 -0.014080 0.000000 0.046229
#
#
# Mechanical properties :
#
#
# Convention : Reuss Voigt Hill
#
# Bulk Modulus (GPa) = 25.39080 34.69010 30.04045
# Shear Modulus (GPa) = 23.76788 31.82821 27.79805
#
# Velocity S-wave (km/s) = 3.03051 3.50693 3.27739
# Velocity P-wave (km/s) = 4.69643 5.45916 5.09210
#
# Compressibility (1/GPa) = 0.03938434
#
# Stress axis : x y z
#
# Youngs Moduli (GPa) = 122.89174 58.01103 49.81136
#
# Poissons Ratio (x) = -0.01044 0.16521
# Poissons Ratio (y) = -0.02211 -0.00515
# Poissons Ratio (z) = 0.40760 -0.00600
#
# Static dielectric constant tensor:
#      x y z
#    x 2.099310 0.000000 -0.016050 
#    y 0.000000 2.032020 0.000000 
#    z -0.016050 0.000000 2.011320 
# 
# From -- ./inp_files/22836.got.cif
#   From: 2010.05.17/outbox.cif.g08.bks.cpg/sg13_12_cif.got.tgz:22836.got - 2010.06.03 16:44:36.
