data_PCOD9226149
_publ_section_title
;
Structure prediction by ZEFSAII (Michael W. Deem and Ramdas Pophale) SiO2 
 PCOD9226149
Probable space group: P 2/C
;
_chemical_formula_sum "Si O2"
_cell_formula_units_Z 28
_cell_length_a 19.909249
_cell_length_b 11.823171
_cell_length_c 16.805691
_cell_angle_alpha 90.000000
_cell_angle_beta 21.845052
_cell_angle_gamma 90.000000
_cell_volume 1471.981389
_symmetry_space_group_name_H-M "P 2/C"
_symmetry_group_IT_number 13
_symmetry_cell_setting 'monoclinic'
loop_
_space_group_symop_operation_xyz
x,y,z
-x,y,1/2-z
-x,-y,-z
x,-y,1/2+z
loop_
_atom_site_type_symbol
_atom_site_label
_atom_site_fract_x
_atom_site_fract_y
_atom_site_fract_z
Si Si1 0.923739 0.131221 0.410539
Si Si2 0.314714 0.724803 0.127014
Si Si3 0.768303 0.798917 0.814181
Si Si4 0.402731 0.458992 0.190176
Si Si5 0.053961 0.389594 0.490537
Si Si6 0.377173 0.296509 0.750106
Si Si7 0.295536 0.029267 0.702267
O O1 0.786061 0.228120 0.532372
O O2 0.817121 0.059972 0.594571
O O3 0.000000 0.066508 0.250000
O O4 0.090192 0.190830 0.271098
O O5 0.325010 0.706826 0.212442
O O6 0.304851 0.860619 0.134804
O O7 0.134973 0.672661 0.286156
O O8 0.484008 0.651743 0.909295
O O9 0.831470 0.697213 0.688569
O O10 0.781587 0.918273 0.754282
O O11 0.561484 0.771616 0.061570
O O12 0.194746 0.427145 0.403040
O O13 0.405876 0.572302 0.239522
O O14 0.500000 0.500000 0.000000
O O15 0.000000 0.500000 0.500000
O O16 0.500000 0.000000 0.500000
#
# Coordination Sequence:
#
# PCOD9226149 Si02
#       7
#     4   4   4   4   4   4   4
#     4  11  24  38  53  80 117 148 191 230 290 360
#     4  10  18  28  45  77 112 134 175 224 276 325
#     4  12  20  34  59  79 114 150 185 241 296 329
#     4  10  16  27  46  75 113 135 166 215 274 319
#     4  12  17  26  48  79 112 140 172 223 281 327
#     4  10  18  33  51  79 113 139 179 230 282 334
#     4  11  20  37  56  81 115 143 189 244 288 334
#
# _framework density 19.021979999999999
#
# number of rings (size 3 to 8) (size 9 to 14) (size 15 to 20)
#    0.000    1.143   11.429    0.429    0.000    0.571 
#    0.000    0.000    0.000    0.000    0.000    9.000 
#   12.857    0.000    0.000    0.000    0.000    0.000 
#
# Total GULP energy -156031.148006 kJ/mol
# GULP energy per Si atom -5572.541000 kJ/mol
# Density = 1.897868 g / cm^3
# Si number density = 19.021980 Si / 1000 Ang^3
#
#
#
# Elastic Constant Matrix: (Units=GPa)
#
#
# Indices 1 2 3 4 5 6 
#
# 1 5.0694 24.1267 58.1267 0.0000 -9.8832 0.0000
# 2 24.1267 151.1577 45.7816 0.0000 -1.4830 0.0000
# 3 58.1267 45.7816 108.9179 0.0000 -29.5308 0.0000
# 4 0.0000 0.0000 0.0000 35.1116 0.0000 -14.6635
# 5 -9.8832 -1.4830 -29.5308 0.0000 23.7336 0.0000
# 6 0.0000 0.0000 0.0000 -14.6635 0.0000 12.0156
#
#
#
# Elastic Compliance Matrix: (Units=1/GPa)
#
#
# Indices 1 2 3 4 5 6 
#
# 1 -0.035333 -0.001248 0.023195 0.000000 0.014070 0.000000
# 2 -0.001248 0.008000 -0.004078 0.000000 -0.005093 0.000000
# 3 0.023195 -0.004078 0.001609 0.000000 0.011406 0.000000
# 4 0.000000 0.000000 0.000000 0.058084 0.000000 0.070884
# 5 0.014070 -0.005093 0.011406 0.000000 0.061867 0.000000
# 6 0.000000 0.000000 0.000000 0.070884 0.000000 0.169730
#
#
# Mechanical properties :
#
#
# Convention : Reuss Voigt Hill
#
# Bulk Modulus (GPa) = 99.84023 57.91278 78.87650
# Shear Modulus (GPa) = 21.59305 23.31282 22.45293
#
# Velocity S-wave (km/s) = 3.37287 3.50462 3.43938
# Velocity P-wave (km/s) = 8.23220 6.84746 7.57155
#
# Compressibility (1/GPa) = 0.01001600
#
# Stress axis : x y z
#
# Youngs Moduli (GPa) = -28.30225 125.00300 621.50214
#
# Poissons Ratio (x) = 0.15596 -14.41599
# Poissons Ratio (y) = -0.03531 2.53430
# Poissons Ratio (z) = 0.65648 0.50973
#
# Static dielectric constant tensor:
#      x y z
#    x 1.713740 0.000000 0.005400 
#    y 0.000000 1.705150 0.000000 
#    z 0.005400 0.000000 1.719900 
# 
# From -- ./inp_files/70670.got.cif
#   From: 2010.05.17/outbox.cif.g08.bks.cpg/sg13_36_cif.got.tgz:70670.got - 2010.06.03 16:44:36.
