data_PCOD9226328
_publ_section_title
;
Structure prediction by ZEFSAII (Michael W. Deem and Ramdas Pophale) SiO2 
 PCOD9226328
Probable space group: P 2/C
;
_chemical_formula_sum "Si O2"
_cell_formula_units_Z 22
_cell_length_a 20.388512
_cell_length_b 6.965527
_cell_length_c 21.676817
_cell_angle_alpha 90.000000
_cell_angle_beta 161.583298
_cell_angle_gamma 90.000000
_cell_volume 972.567777
_symmetry_space_group_name_H-M "P 2/C"
_symmetry_group_IT_number 13
_symmetry_cell_setting 'monoclinic'
loop_
_space_group_symop_operation_xyz
x,y,z
-x,y,1/2-z
-x,-y,-z
x,-y,1/2+z
loop_
_atom_site_type_symbol
_atom_site_label
_atom_site_fract_x
_atom_site_fract_y
_atom_site_fract_z
Si Si1 0.000000 0.011581 0.250000
Si Si2 0.110206 0.564503 0.160877
Si Si3 0.124662 0.158615 0.230171
Si Si4 0.797324 0.893276 0.892316
Si Si5 0.566952 0.804694 0.003031
Si Si6 0.411993 0.231103 0.111790
O O1 0.199685 0.875492 0.436479
O O2 0.040223 0.133298 0.224503
O O3 0.324461 0.684766 0.346513
O O4 0.155966 0.377366 0.241379
O O5 0.000000 0.500000 0.000000
O O6 0.945980 0.716129 0.043541
O O7 0.317753 0.009943 0.398768
O O8 0.943082 0.075496 0.023744
O O9 0.677658 0.842446 0.722016
O O10 0.604038 0.912759 0.766676
O O11 0.612874 0.686779 0.979757
O O12 0.500000 0.342725 0.250000
#
# Coordination Sequence:
#
# PCOD9226328 Si02
#       6
#     2   4   4   4   4   4
#     4  10  16  34  62  84 114 152 184 244 296 366
#     4  11  24  41  57  86 125 158 205 256 285 338
#     4  10  20  37  60  87 116 150 196 238 300 360
#     4   9  20  39  60  87 116 153 198 235 303 353
#     4   8  20  38  58  85 114 153 197 236 300 347
#     4   9  16  33  62  83 116 151 181 238 298 359
#
# _framework density 22.620531
#
# number of rings (size 3 to 8) (size 9 to 14) (size 15 to 20)
#    1.091    1.455    1.818    0.000    0.000    5.091 
#    3.273    1.818    0.000    0.000    0.000    0.000 
#    0.000    0.000    0.000    0.000    0.000    0.000 
#
# Total GULP energy -122547.938118 kJ/mol
# GULP energy per Si atom -5570.360824 kJ/mol
# Density = 2.256905 g / cm^3
# Si number density = 22.620531 Si / 1000 Ang^3
#
#
#
# Elastic Constant Matrix: (Units=GPa)
#
#
# Indices 1 2 3 4 5 6 
#
# 1 63.1444 19.3001 25.5555 0.0000 -5.6093 0.0000
# 2 19.3001 104.0166 52.4524 0.0000 5.6476 0.0000
# 3 25.5555 52.4524 159.7023 0.0000 -0.5582 0.0000
# 4 0.0000 0.0000 0.0000 25.7579 0.0000 -8.1573
# 5 -5.6093 5.6476 -0.5582 0.0000 53.5276 0.0000
# 6 0.0000 0.0000 0.0000 -8.1573 0.0000 20.3890
#
#
#
# Elastic Compliance Matrix: (Units=1/GPa)
#
#
# Indices 1 2 3 4 5 6 
#
# 1 0.017560 -0.002346 -0.002032 0.000000 0.002066 0.000000
# 2 -0.002346 0.011920 -0.003545 0.000000 -0.001540 0.000000
# 3 -0.002032 -0.003545 0.007752 0.000000 0.000242 0.000000
# 4 0.000000 0.000000 0.000000 0.044456 0.000000 0.017786
# 5 0.002066 -0.001540 0.000242 0.000000 0.019064 0.000000
# 6 0.000000 0.000000 0.000000 0.017786 0.000000 0.056162
#
#
# Mechanical properties :
#
#
# Convention : Reuss Voigt Hill
#
# Bulk Modulus (GPa) = 46.75920 57.94212 52.35066
# Shear Modulus (GPa) = 27.79506 35.23858 31.51682
#
# Velocity S-wave (km/s) = 3.50916 3.95120 3.73672
# Velocity P-wave (km/s) = 6.09385 6.81809 6.46612
#
# Compressibility (1/GPa) = 0.02138617
#
# Stress axis : x y z
#
# Youngs Moduli (GPa) = 56.94858 83.88969 128.99769
#
# Poissons Ratio (x) = 0.19677 0.26216
# Poissons Ratio (y) = 0.13357 0.45732
# Poissons Ratio (z) = 0.11574 0.29740
#
# Static dielectric constant tensor:
#      x y z
#    x 1.989040 0.000000 -0.060590 
#    y 0.000000 1.787910 0.000000 
#    z -0.060590 0.000000 1.898870 
# 
# From -- ./inp_files/88787.got.cif
#   From: 2010.05.17/outbox.cif.g08.bks.cpg/sg13_45_cif.got.tgz:88787.got - 2010.06.03 16:44:36.
