data_PCOD9226823
_publ_section_title
;
Structure prediction by ZEFSAII (Michael W. Deem and Ramdas Pophale) SiO2 
 PCOD9226823
Probable space group: P 2/C
;
_chemical_formula_sum "Si O2"
_cell_formula_units_Z 28
_cell_length_a 8.725329
_cell_length_b 15.522895
_cell_length_c 19.884431
_cell_angle_alpha 90.000000
_cell_angle_beta 32.577759
_cell_angle_gamma 90.000000
_cell_volume 1450.133607
_symmetry_space_group_name_H-M "P 2/C"
_symmetry_group_IT_number 13
_symmetry_cell_setting 'monoclinic'
loop_
_space_group_symop_operation_xyz
x,y,z
-x,y,1/2-z
-x,-y,-z
x,-y,1/2+z
loop_
_atom_site_type_symbol
_atom_site_label
_atom_site_fract_x
_atom_site_fract_y
_atom_site_fract_z
Si Si1 0.000000 0.506080 0.750000
Si Si2 0.827473 0.102247 0.492378
Si Si3 0.333070 0.801531 0.740088
Si Si4 0.538886 0.622044 0.861398
Si Si5 0.326172 0.200026 0.743491
Si Si6 0.500000 0.504103 0.250000
Si Si7 0.831797 0.096305 0.990785
Si Si8 0.953252 0.378187 0.644045
O O1 0.727817 0.567458 0.842923
O O2 0.021142 0.444450 0.678148
O O3 0.539459 0.155134 0.612402
O O4 0.039231 0.149848 0.363128
O O5 0.996192 0.098689 0.501606
O O6 0.777710 0.002879 0.492237
O O7 0.500000 0.795726 0.750000
O O8 0.296004 0.705193 0.726825
O O9 0.538719 0.854384 0.614147
O O10 0.476406 0.557158 0.823136
O O11 0.242490 0.652414 0.002499
O O12 0.500000 0.204320 0.750000
O O13 0.227285 0.296676 0.763816
O O14 0.044623 0.143102 0.860641
O O15 0.231936 0.566928 0.340235
#
# Coordination Sequence:
#
# PCOD9226823 Si02
#       8
#     2   4   4   4   4   2   4   4
#     4  10  26  42  56  80 110 156 204 242 294 344
#     4   9  18  28  46  82 119 149 181 225 283 349
#     4  10  18  30  53  82 115 150 186 232 283 343
#     4  11  21  40  58  84 114 151 194 243 292 349
#     4  10  18  30  53  82 115 150 186 232 283 343
#     4  10  22  34  60  88 110 144 184 250 298 340
#     4   9  16  30  48  76 119 155 181 223 285 339
#     4  11  21  40  58  84 114 151 194 243 292 349
#
# _framework density 19.308565999999999
#
# number of rings (size 3 to 8) (size 9 to 14) (size 15 to 20)
#    0.000    2.000    2.857    1.714    0.000    3.429 
#   12.857    0.000    0.000    0.000    0.000    6.000 
#    0.000    0.000    0.000    0.000    0.000    0.000 
#
# Total GULP energy -156300.201019 kJ/mol
# GULP energy per Si atom -5582.150036 kJ/mol
# Density = 1.926462 g / cm^3
# Si number density = 19.308566 Si / 1000 Ang^3
#
#
#
# Elastic Constant Matrix: (Units=GPa)
#
#
# Indices 1 2 3 4 5 6 
#
# 1 32.8077 27.9132 17.3906 0.0000 -9.7165 0.0000
# 2 27.9132 175.8765 77.3655 0.0000 -9.7299 0.0000
# 3 17.3906 77.3655 141.5888 0.0000 -11.3773 0.0000
# 4 0.0000 0.0000 0.0000 38.6631 0.0000 -7.3953
# 5 -9.7165 -9.7299 -11.3773 0.0000 5.3629 0.0000
# 6 0.0000 0.0000 0.0000 -7.3953 0.0000 54.2526
#
#
#
# Elastic Compliance Matrix: (Units=1/GPa)
#
#
# Indices 1 2 3 4 5 6 
#
# 1 0.071209 -0.006445 0.005067 0.000000 0.128073 0.000000
# 2 -0.006445 0.008227 -0.004150 0.000000 -0.005555 0.000000
# 3 0.005067 -0.004150 0.010657 0.000000 0.024260 0.000000
# 4 0.000000 0.000000 0.000000 0.026557 0.000000 0.003620
# 5 0.128073 -0.005555 0.024260 0.000000 0.459897 0.000000
# 6 0.000000 0.000000 0.000000 0.003620 0.000000 0.018926
#
#
# Mechanical properties :
#
#
# Convention : Reuss Voigt Hill
#
# Bulk Modulus (GPa) = 12.65237 66.17905 39.41571
# Shear Modulus (GPa) = 7.90044 34.82928 21.36486
#
# Velocity S-wave (km/s) = 2.02498 4.25175 3.33001
# Velocity P-wave (km/s) = 3.46906 7.64540 5.93660
#
# Compressibility (1/GPa) = 0.07903661
#
# Stress axis : x y z
#
# Youngs Moduli (GPa) = 14.04314 121.55244 93.83133
#
# Poissons Ratio (x) = 0.78341 -0.47541
# Poissons Ratio (y) = 0.09051 0.38940
# Poissons Ratio (z) = -0.07115 0.50445
#
# Static dielectric constant tensor:
#      x y z
#    x 1.672000 0.000000 -0.006450 
#    y 0.000000 1.644030 0.000000 
#    z -0.006450 0.000000 1.658330 
# 
# From -- ./inp_files/76725.got.cif
#   From: 2010.05.17/outbox.cif.g08.bks.cpg/sg13_39_cif.got.tgz:76725.got - 2010.06.03 16:44:36.
