data_PCOD9226887
_publ_section_title
;
Structure prediction by ZEFSAII (Michael W. Deem and Ramdas Pophale) SiO2 
 PCOD9226887
Probable space group: P 2/C
;
_chemical_formula_sum "Si O2"
_cell_formula_units_Z 30
_cell_length_a 12.680010
_cell_length_b 16.585810
_cell_length_c 15.429263
_cell_angle_alpha 90.000000
_cell_angle_beta 30.685604
_cell_angle_gamma 90.000000
_cell_volume 1655.960178
_symmetry_space_group_name_H-M "P 2/C"
_symmetry_group_IT_number 13
_symmetry_cell_setting 'monoclinic'
loop_
_space_group_symop_operation_xyz
x,y,z
-x,y,1/2-z
-x,-y,-z
x,-y,1/2+z
loop_
_atom_site_type_symbol
_atom_site_label
_atom_site_fract_x
_atom_site_fract_y
_atom_site_fract_z
Si Si1 0.000000 0.472546 0.250000
Si Si2 0.799607 0.329365 0.830900
Si Si3 0.081094 0.036339 0.854607
Si Si4 0.158164 0.493509 0.808410
Si Si5 0.432254 0.558438 0.896791
Si Si6 0.663247 0.059006 0.057405
Si Si7 0.224521 0.097821 0.121138
Si Si8 0.617143 0.161948 0.912902
O O1 0.906286 0.444432 0.223665
O O2 0.792012 0.516344 0.434274
O O3 0.842544 0.403922 0.734552
O O4 0.730436 0.246808 0.837052
O O5 0.000000 0.317993 0.750000
O O6 0.610931 0.357093 0.025941
O O7 0.253616 0.103635 0.741378
O O8 0.178495 0.962717 0.732798
O O9 0.893038 0.073742 0.932125
O O10 0.000000 0.000000 0.000000
O O11 0.387285 0.512036 0.680320
O O12 0.000000 0.500000 0.000000
O O13 0.500000 0.565726 0.750000
O O14 0.500000 0.070007 0.250000
O O15 0.621107 0.116162 0.004079
O O16 0.676756 0.965111 0.017828
O O17 0.000000 0.128060 0.250000
O O18 0.386286 0.163478 0.038752
#
# Coordination Sequence:
#
# PCOD9226887 Si02
#       8
#     2   4   4   4   4   4   4   4
#     4  10  18  34  58  94 114 148 192 246 288 338
#     4  11  21  37  57  87 120 149 183 243 307 355
#     4  10  18  32  54  81 108 147 196 235 276 333
#     4  11  20  38  64  89 119 156 201 240 294 364
#     4  11  20  37  64  90 119 156 202 236 296 360
#     4  10  18  31  53  83 108 147 195 238 278 335
#     4   9  19  34  53  73 104 149 198 237 272 326
#     4  11  21  34  54  82 119 148 182 239 297 345
#
# _framework density 18.116378000000001
#
# number of rings (size 3 to 8) (size 9 to 14) (size 15 to 20)
#    0.000    1.600    4.000    6.800    0.000    0.533 
#    0.000    4.000    5.867    4.000    0.000    0.000 
#    0.000    0.000    0.000    0.000    0.000    0.000 
#
# Total GULP energy -167055.709591 kJ/mol
# GULP energy per Si atom -5568.523653 kJ/mol
# Density = 1.807514 g / cm^3
# Si number density = 18.116378 Si / 1000 Ang^3
#
#
#
# Elastic Constant Matrix: (Units=GPa)
#
#
# Indices 1 2 3 4 5 6 
#
# 1 100.4232 46.7992 40.0581 0.0000 -14.8166 0.0000
# 2 46.7992 53.1171 35.9673 0.0000 -15.4566 0.0000
# 3 40.0581 35.9673 113.4403 0.0000 5.1863 0.0000
# 4 0.0000 0.0000 0.0000 11.9211 0.0000 -5.0285
# 5 -14.8166 -15.4566 5.1863 0.0000 53.6717 0.0000
# 6 0.0000 0.0000 0.0000 -5.0285 0.0000 21.7756
#
#
#
# Elastic Compliance Matrix: (Units=1/GPa)
#
#
# Indices 1 2 3 4 5 6 
#
# 1 0.017167 -0.013629 -0.001786 0.000000 0.000987 0.000000
# 2 -0.013629 0.038413 -0.007735 0.000000 0.008047 0.000000
# 3 -0.001786 -0.007735 0.012076 0.000000 -0.003887 0.000000
# 4 0.000000 0.000000 0.000000 0.092938 0.000000 0.021462
# 5 0.000987 0.008047 -0.003887 0.000000 0.021597 0.000000
# 6 0.000000 0.000000 0.000000 0.021462 0.000000 0.050879
#
#
# Mechanical properties :
#
#
# Convention : Reuss Voigt Hill
#
# Bulk Modulus (GPa) = 46.82195 56.95887 51.89041
# Shear Modulus (GPa) = 17.45273 27.08408 22.26840
#
# Velocity S-wave (km/s) = 3.10718 3.87072 3.50978
# Velocity P-wave (km/s) = 6.22688 7.17534 6.71787
#
# Compressibility (1/GPa) = 0.02135751
#
# Stress axis : x y z
#
# Youngs Moduli (GPa) = 58.25082 26.03287 82.80918
#
# Poissons Ratio (x) = 0.35479 0.14791
# Poissons Ratio (y) = 0.79388 0.64049
# Poissons Ratio (z) = 0.10404 0.20135
#
# Static dielectric constant tensor:
#      x y z
#    x 1.679500 0.000000 -0.010860 
#    y 0.000000 1.613330 0.000000 
#    z -0.010860 0.000000 1.636650 
# 
# From -- ./inp_files/51608.got.cif
#   From: 2010.05.17/outbox.cif.g08.bks.cpg/sg13_26_cif.got.tgz:51608.got - 2010.06.03 16:44:36.
