data_PCOD9226484
_publ_section_title
;
Structure prediction by ZEFSAII (Michael W. Deem and Ramdas Pophale) SiO2 
 PCOD9226484
Probable space group: P 2/C
;
_chemical_formula_sum "Si O2"
_cell_formula_units_Z 32
_cell_length_a 20.874291
_cell_length_b 12.879003
_cell_length_c 21.758197
_cell_angle_alpha 90.000000
_cell_angle_beta 160.804405
_cell_angle_gamma 90.000000
_cell_volume 1923.272490
_symmetry_space_group_name_H-M "P 2/C"
_symmetry_group_IT_number 13
_symmetry_cell_setting 'monoclinic'
loop_
_space_group_symop_operation_xyz
x,y,z
-x,y,1/2-z
-x,-y,-z
x,-y,1/2+z
loop_
_atom_site_type_symbol
_atom_site_label
_atom_site_fract_x
_atom_site_fract_y
_atom_site_fract_z
Si Si1 0.529650 0.969794 0.931628
Si Si2 0.332538 0.542741 0.419930
Si Si3 0.222193 0.120563 0.953583
Si Si4 0.252445 0.829559 0.620697
Si Si5 0.582845 0.330653 0.392007
Si Si6 0.704174 0.641909 0.693903
Si Si7 0.068409 0.705436 0.106123
Si Si8 0.432668 0.166096 0.916222
O O1 0.654268 0.945380 0.983500
O O2 0.611088 0.905045 0.063445
O O3 0.319362 0.917843 0.728187
O O4 0.505112 0.088029 0.929412
O O5 0.340201 0.575369 0.497815
O O6 0.549861 0.573245 0.593346
O O7 0.277708 0.426410 0.351539
O O8 0.182082 0.617543 0.247469
O O9 0.000000 0.088564 0.750000
O O10 0.277776 0.122803 0.075787
O O11 0.252877 0.241729 0.963821
O O12 0.406485 0.734095 0.764230
O O13 0.045769 0.781305 0.450197
O O14 0.500000 0.358964 0.250000
O O15 0.598020 0.750544 0.583756
O O16 0.904797 0.660082 0.912044
O O17 0.236496 0.770504 0.224207
#
# Coordination Sequence:
#
# PCOD9226484 Si02
#       8
#     4   4   4   4   4   4   4   4
#     4  10  19  35  48  73 107 136 171 212 262 310
#     4  10  19  31  52  76 103 137 169 214 267 309
#     4  10  18  30  50  77 101 132 168 215 265 315
#     4  10  17  30  52  74 107 129 167 217 260 313
#     4   9  17  30  48  72 107 133 161 212 268 313
#     4  10  19  34  50  73 107 135 175 218 253 313
#     4  11  18  32  52  80 105 140 173 208 268 323
#     4  10  21  34  51  71 107 142 171 214 254 307
#
# _framework density 16.638307999999999
#
# number of rings (size 3 to 8) (size 9 to 14) (size 15 to 20)
#    0.000    2.000    2.500    5.250    0.000    0.500 
#    2.250    0.000    0.000    1.500    0.000    4.375 
#    0.000    0.000    0.000    0.000    0.000    0.000 
#
# Total GULP energy -178272.243537 kJ/mol
# GULP energy per Si atom -5571.007611 kJ/mol
# Density = 1.660044 g / cm^3
# Si number density = 16.638308 Si / 1000 Ang^3
#
#
#
# Elastic Constant Matrix: (Units=GPa)
#
#
# Indices 1 2 3 4 5 6 
#
# 1 63.0126 35.5773 26.6081 0.0000 -11.5452 0.0000
# 2 35.5773 70.9128 33.8351 0.0000 -9.6132 0.0000
# 3 26.6081 33.8351 98.2216 0.0000 -1.1678 0.0000
# 4 0.0000 0.0000 0.0000 9.4661 0.0000 -6.5055
# 5 -11.5452 -9.6132 -1.1678 0.0000 23.8356 0.0000
# 6 0.0000 0.0000 0.0000 -6.5055 0.0000 25.7074
#
#
#
# Elastic Compliance Matrix: (Units=1/GPa)
#
#
# Indices 1 2 3 4 5 6 
#
# 1 0.023943 -0.009487 -0.003127 0.000000 0.007617 0.000000
# 2 -0.009487 0.021714 -0.004863 0.000000 0.003924 0.000000
# 3 -0.003127 -0.004863 0.012670 0.000000 -0.002855 0.000000
# 4 0.000000 0.000000 0.000000 0.127881 0.000000 0.032362
# 5 0.007617 0.003924 -0.002855 0.000000 0.047086 0.000000
# 6 0.000000 0.000000 0.000000 0.032362 0.000000 0.047089
#
#
# Mechanical properties :
#
#
# Convention : Reuss Voigt Hill
#
# Bulk Modulus (GPa) = 42.78894 47.13201 44.96048
# Shear Modulus (GPa) = 15.47374 20.87693 18.17533
#
# Velocity S-wave (km/s) = 3.05291 3.54609 3.30870
# Velocity P-wave (km/s) = 6.18061 6.71976 6.45582
#
# Compressibility (1/GPa) = 0.02337052
#
# Stress axis : x y z
#
# Youngs Moduli (GPa) = 41.76635 46.05311 78.92931
#
# Poissons Ratio (x) = 0.43692 0.24684
# Poissons Ratio (y) = 0.39625 0.38385
# Poissons Ratio (z) = 0.13062 0.22397
#
# Static dielectric constant tensor:
#      x y z
#    x 1.599450 0.000000 -0.006140 
#    y 0.000000 1.555230 0.000000 
#    z -0.006140 0.000000 1.589660 
# 
# From -- ./inp_files/81816.got.cif
#   From: 2010.05.17/outbox.cif.g08.bks.cpg/sg13_41_cif.got.tgz:81816.got - 2010.06.03 16:44:36.
