data_PCOD9226918
_publ_section_title
;
Structure prediction by ZEFSAII (Michael W. Deem and Ramdas Pophale) SiO2 
 PCOD9226918
Probable space group: P 2/C
;
_chemical_formula_sum "Si O2"
_cell_formula_units_Z 24
_cell_length_a 7.775562
_cell_length_b 9.825029
_cell_length_c 13.597869
_cell_angle_alpha 90.000000
_cell_angle_beta 103.833018
_cell_angle_gamma 90.000000
_cell_volume 1008.681877
_symmetry_space_group_name_H-M "P 2/C"
_symmetry_group_IT_number 13
_symmetry_cell_setting 'monoclinic'
loop_
_space_group_symop_operation_xyz
x,y,z
-x,y,1/2-z
-x,-y,-z
x,-y,1/2+z
loop_
_atom_site_type_symbol
_atom_site_label
_atom_site_fract_x
_atom_site_fract_y
_atom_site_fract_z
Si Si1 0.421194 0.873896 0.605222
Si Si2 0.807409 0.362125 0.683047
Si Si3 0.281921 0.073790 0.862036
Si Si4 0.500910 0.566947 0.609272
Si Si5 0.885166 0.372317 0.465393
Si Si6 0.971396 0.095646 0.400864
O O1 0.351147 0.893225 0.483466
O O2 0.529060 0.730235 0.620013
O O3 0.240495 0.889116 0.643335
O O4 0.552794 0.990365 0.652823
O O5 0.757432 0.208255 0.707554
O O6 0.651315 0.471994 0.678626
O O7 0.831174 0.335064 0.569428
O O8 0.000000 0.403748 0.750000
O O9 0.111903 0.974523 0.848267
O O10 0.500000 0.500000 0.500000
O O11 0.293500 0.575235 0.611946
O O12 0.002127 0.254263 0.431885
O O13 0.000000 0.500000 0.500000
O O14 0.000000 0.000000 0.500000
#
# Coordination Sequence:
#
# PCOD9226918 Si02
#       6
#     4   4   4   4   4   4
#     4   9  17  30  55  83 105 141 192 237 278 325
#     4  11  22  38  54  84 121 151 191 239 305 361
#     4  10  18  31  56  85 110 145 179 243 286 339
#     4   9  17  34  53  81 112 144 197 237 272 349
#     4  10  20  34  60  87 108 150 196 246 281 336
#     4   9  16  31  51  86 110 126 188 238 270 326
#
# _framework density 23.793427000000001
#
# number of rings (size 3 to 8) (size 9 to 14) (size 15 to 20)
#    0.000    2.333    6.667    0.000    4.667    1.333 
#    0.000    1.667    0.000    0.000    0.000    0.000 
#    0.000    0.000    0.000    0.000    0.000    0.000 
#
# Total GULP energy -133604.933765 kJ/mol
# GULP energy per Si atom -5566.872240 kJ/mol
# Density = 2.373927 g / cm^3
# Si number density = 23.793427 Si / 1000 Ang^3
#
#
#
# Elastic Constant Matrix: (Units=GPa)
#
#
# Indices 1 2 3 4 5 6 
#
# 1 92.1816 88.8099 24.7791 0.0000 31.1712 0.0000
# 2 88.8099 191.2916 33.7685 0.0000 44.9383 0.0000
# 3 24.7791 33.7685 98.7293 0.0000 18.4968 0.0000
# 4 0.0000 0.0000 0.0000 6.9704 0.0000 22.4245
# 5 31.1712 44.9383 18.4968 0.0000 36.5032 0.0000
# 6 0.0000 0.0000 0.0000 22.4245 0.0000 58.0919
#
#
#
# Elastic Compliance Matrix: (Units=1/GPa)
#
#
# Indices 1 2 3 4 5 6 
#
# 1 0.021467 -0.007867 -0.001190 0.000000 -0.008044 0.000000
# 2 -0.007867 0.010311 -0.000478 0.000000 -0.005734 0.000000
# 3 -0.001190 -0.000478 0.011370 0.000000 -0.004156 0.000000
# 4 0.000000 0.000000 0.000000 -0.593188 0.000000 0.228981
# 5 -0.008044 -0.005734 -0.004156 0.000000 0.043429 0.000000
# 6 0.000000 0.000000 0.000000 0.228981 0.000000 -0.071176
#
#
# Mechanical properties :
#
#
# Convention : Reuss Voigt Hill
#
# Bulk Modulus (GPa) = 41.53149 75.21306 58.37227
# Shear Modulus (GPa) = -9.07949 35.96944 13.44498
#
# Velocity S-wave (km/s) = -1.95557 3.89233 2.37970
# Velocity P-wave (km/s) = 3.52050 7.20276 5.66894
#
# Compressibility (1/GPa) = 0.02407811
#
# Stress axis : x y z
#
# Youngs Moduli (GPa) = 46.58324 96.98120 87.95374
#
# Poissons Ratio (x) = 0.76291 0.10468
# Poissons Ratio (y) = 0.36645 0.04205
# Poissons Ratio (z) = 0.05544 0.04637
#
# Static dielectric constant tensor:
#      x y z
#    x 1.834660 0.000000 0.042080 
#    y 0.000000 2.071240 0.000000 
#    z 0.042080 0.000000 1.870490 
# 
# From -- ./inp_files/75400.got.cif
#   From: 2010.05.17/outbox.cif.g08.bks.cpg/sg13_38_cif.got.tgz:75400.got - 2010.06.03 16:44:36.
