data_PCOD9226020
_publ_section_title
;
Structure prediction by ZEFSAII (Michael W. Deem and Ramdas Pophale) SiO2 
 PCOD9226020
Probable space group: P 2/C
;
_chemical_formula_sum "Si O2"
_cell_formula_units_Z 24
_cell_length_a 30.166716
_cell_length_b 6.977041
_cell_length_c 5.484567
_cell_angle_alpha 90.000000
_cell_angle_beta 68.579438
_cell_angle_gamma 90.000000
_cell_volume 1074.623321
_symmetry_space_group_name_H-M "P 2/C"
_symmetry_group_IT_number 13
_symmetry_cell_setting 'monoclinic'
loop_
_space_group_symop_operation_xyz
x,y,z
-x,y,1/2-z
-x,-y,-z
x,-y,1/2+z
loop_
_atom_site_type_symbol
_atom_site_label
_atom_site_fract_x
_atom_site_fract_y
_atom_site_fract_z
Si Si1 0.290900 0.725026 0.679573
Si Si2 0.748819 0.284696 0.740705
Si Si3 0.500000 0.373524 0.750000
Si Si4 0.859141 0.222862 0.440745
Si Si5 0.000000 0.878017 0.250000
Si Si6 0.396654 0.625429 0.451534
Si Si7 0.895284 0.779000 0.368105
O O1 0.272273 0.502139 0.720057
O O2 0.268932 0.801199 0.476248
O O3 0.347764 0.740714 0.555167
O O4 0.271885 0.801028 0.971630
O O5 0.805348 0.261216 0.629365
O O6 0.500000 0.500000 0.500000
O O7 0.551601 0.272104 0.647783
O O8 0.890572 0.297693 0.603368
O O9 0.875799 0.999656 0.382055
O O10 0.865125 0.301683 0.154755
O O11 0.949925 0.770051 0.341202
O O12 0.000000 0.000000 0.500000
O O13 0.394871 0.495720 0.701858
#
# Coordination Sequence:
#
# PCOD9226020 Si02
#       7
#     4   4   2   4   2   4   4
#     4  10  17  28  40  57  79 109 145 177 193 220
#     4  10  18  27  41  56  79 109 142 170 196 224
#     4   8  16  20  34  52  68 102 132 162 204 248
#     4  10  18  29  41  61  86 108 132 159 197 238
#     4  12  16  30  48  64  90 108 122 150 202 248
#     4  10  14  25  36  51  77 100 138 171 201 236
#     4  10  19  30  45  65  88 105 123 157 197 248
#
# _framework density 22.333410000000001
#
# number of rings (size 3 to 8) (size 9 to 14) (size 15 to 20)
#    0.000    2.000    6.667    1.000    0.000    0.000 
#    0.000    0.000    0.000    0.000    0.000    0.000 
#    0.000   90.667    0.000    0.000    0.000  113.333 
#
# Total GULP energy -133730.725236 kJ/mol
# GULP energy per Si atom -5572.113551 kJ/mol
# Density = 2.228258 g / cm^3
# Si number density = 22.333410 Si / 1000 Ang^3
#
#
#
# Elastic Constant Matrix: (Units=GPa)
#
#
# Indices 1 2 3 4 5 6 
#
# 1 137.1070 -16.4473 16.3031 0.0000 -13.2354 0.0000
# 2 -16.4473 80.2012 -11.2530 0.0000 1.3002 0.0000
# 3 16.3031 -11.2530 164.9262 0.0000 34.0150 0.0000
# 4 0.0000 0.0000 0.0000 -3.0707 0.0000 -29.0645
# 5 -13.2354 1.3002 34.0150 0.0000 69.8236 0.0000
# 6 0.0000 0.0000 0.0000 -29.0645 0.0000 62.5075
#
#
#
# Elastic Compliance Matrix: (Units=1/GPa)
#
#
# Indices 1 2 3 4 5 6 
#
# 1 0.007782 0.001412 -0.001080 0.000000 0.001975 0.000000
# 2 0.001412 0.012879 0.000815 0.000000 -0.000369 0.000000
# 3 -0.001080 0.000815 0.006972 0.000000 -0.003616 0.000000
# 4 0.000000 0.000000 0.000000 -0.060296 0.000000 -0.028036
# 5 0.001975 -0.000369 -0.003616 0.000000 0.016465 0.000000
# 6 0.000000 0.000000 0.000000 -0.028036 0.000000 0.002962
#
#
# Mechanical properties :
#
#
# Convention : Reuss Voigt Hill
#
# Bulk Modulus (GPa) = 33.41464 39.93776 36.67620
# Shear Modulus (GPa) = -900.00444 52.09419 -423.95513
#
# Velocity S-wave (km/s) = -20.09628 4.83491 -13.79283
# Velocity P-wave (km/s) = 22.87983 7.00641 15.40125
#
# Compressibility (1/GPa) = 0.02992700
#
# Stress axis : x y z
#
# Youngs Moduli (GPa) = 128.49984 77.64786 143.44026
#
# Poissons Ratio (x) = -0.10966 0.15495
# Poissons Ratio (y) = -0.18148 -0.11694
# Poissons Ratio (z) = 0.13881 -0.06330
#
# Static dielectric constant tensor:
#      x y z
#    x 1.851270 0.000000 0.017380 
#    y 0.000000 1.630160 0.000000 
#    z 0.017380 0.000000 1.871840 
# 
# From -- ./inp_files/7739.got.cif
#   From: 2010.05.17/outbox.cif.g08.bks.cpg/sg13_4_cif.got.tgz:7739.got - 2010.06.03 16:44:36.
