data_PCOD9226121
_publ_section_title
;
Structure prediction by ZEFSAII (Michael W. Deem and Ramdas Pophale) SiO2 
 PCOD9226121
Probable space group: P 2/C
;
_chemical_formula_sum "Si O2"
_cell_formula_units_Z 20
_cell_length_a 26.841434
_cell_length_b 6.549044
_cell_length_c 5.196197
_cell_angle_alpha 90.000000
_cell_angle_beta 67.304937
_cell_angle_gamma 90.000000
_cell_volume 842.692616
_symmetry_space_group_name_H-M "P 2/C"
_symmetry_group_IT_number 13
_symmetry_cell_setting 'monoclinic'
loop_
_space_group_symop_operation_xyz
x,y,z
-x,y,1/2-z
-x,-y,-z
x,-y,1/2+z
loop_
_atom_site_type_symbol
_atom_site_label
_atom_site_fract_x
_atom_site_fract_y
_atom_site_fract_z
Si Si1 0.214586 0.205425 0.942795
Si Si2 0.325161 0.643617 0.063571
Si Si3 0.557647 0.645891 0.646921
Si Si4 0.942049 0.861052 0.414947
Si Si5 0.828876 0.747618 0.468323
O O1 0.274356 0.208606 0.707586
O O2 0.176762 0.322312 0.813807
O O3 0.187487 0.986833 0.044784
O O4 0.214234 0.305268 0.225093
O O5 0.322399 0.474844 0.297765
O O6 0.383845 0.751855 0.969316
O O7 0.500000 0.761453 0.750000
O O8 0.557545 0.494176 0.402355
O O9 0.888754 0.733047 0.460394
O O10 0.000000 0.757448 0.250000
O O11 0.940412 0.956462 0.703771
#
# Coordination Sequence:
#
# PCOD9226121 Si02
#       5
#     4   4   4   4   4
#     4  10  18  28  44  60  88 118 140 174 206 254
#     4  10  19  30  43  65  90 113 144 176 212 254
#     4   8  14  25  41  59  81 106 134 174 218 252
#     4  10  16  25  41  63  91 108 130 176 222 262
#     4  10  17  30  43  65  88 113 144 168 212 260
#
# _framework density 23.733447999999999
#
# number of rings (size 3 to 8) (size 9 to 14) (size 15 to 20)
#    0.000    2.400    4.000    1.200    0.000    0.000 
#    0.000    0.000    0.000    0.000    0.000    5.600 
#    0.000   27.200    0.000    0.000    0.000    0.000 
#
# Total GULP energy -111453.066886 kJ/mol
# GULP energy per Si atom -5572.653344 kJ/mol
# Density = 2.367943 g / cm^3
# Si number density = 23.733448 Si / 1000 Ang^3
#
#
#
# Elastic Constant Matrix: (Units=GPa)
#
#
# Indices 1 2 3 4 5 6 
#
# 1 156.4201 -12.2921 28.0135 0.0000 -37.5729 0.0000
# 2 -12.2921 41.3105 -21.6238 0.0000 -7.0356 0.0000
# 3 28.0135 -21.6238 113.2541 0.0000 22.0779 0.0000
# 4 0.0000 0.0000 0.0000 -40.3950 0.0000 -29.0286
# 5 -37.5729 -7.0356 22.0779 0.0000 80.6492 0.0000
# 6 0.0000 0.0000 0.0000 -29.0286 0.0000 4.4701
#
#
#
# Elastic Compliance Matrix: (Units=1/GPa)
#
#
# Indices 1 2 3 4 5 6 
#
# 1 0.008112 0.001867 -0.002555 0.000000 0.004642 0.000000
# 2 0.001867 0.027400 0.004367 0.000000 0.002065 0.000000
# 3 -0.002555 0.004367 0.011043 0.000000 -0.003832 0.000000
# 4 0.000000 0.000000 0.000000 -0.004369 0.000000 -0.028370
# 5 0.004642 0.002065 -0.003832 0.000000 0.015791 0.000000
# 6 0.000000 0.000000 0.000000 -0.028370 0.000000 0.039478
#
#
# Mechanical properties :
#
#
# Convention : Reuss Voigt Hill
#
# Bulk Modulus (GPa) = 18.54820 33.24220 25.89520
# Shear Modulus (GPa) = 46.26728 30.07067 38.16897
#
# Velocity S-wave (km/s) = 4.42005 3.56338 4.01463
# Velocity P-wave (km/s) = 5.82077 5.56481 5.69423
#
# Compressibility (1/GPa) = 0.05391359
#
# Stress axis : x y z
#
# Youngs Moduli (GPa) = 123.26992 36.49621 90.55846
#
# Poissons Ratio (x) = -0.06814 0.23137
# Poissons Ratio (y) = -0.23014 -0.39549
# Poissons Ratio (z) = 0.31495 -0.15939
#
# Static dielectric constant tensor:
#      x y z
#    x 1.984030 0.000000 0.015530 
#    y 0.000000 2.718940 0.000000 
#    z 0.015530 0.000000 1.959100 
# 
# From -- ./inp_files/7689.got.cif
#   From: 2010.05.17/outbox.cif.g08.bks.cpg/sg13_4_cif.got.tgz:7689.got - 2010.06.03 16:44:36.
