data_PCOD9226491
_publ_section_title
;
Structure prediction by ZEFSAII (Michael W. Deem and Ramdas Pophale) SiO2 
 PCOD9226491
Probable space group: P 2/C
;
_chemical_formula_sum "Si O2"
_cell_formula_units_Z 32
_cell_length_a 9.316811
_cell_length_b 10.756449
_cell_length_c 20.048459
_cell_angle_alpha 90.000000
_cell_angle_beta 59.077831
_cell_angle_gamma 90.000000
_cell_volume 1723.600978
_symmetry_space_group_name_H-M "P 2/C"
_symmetry_group_IT_number 13
_symmetry_cell_setting 'monoclinic'
loop_
_space_group_symop_operation_xyz
x,y,z
-x,y,1/2-z
-x,-y,-z
x,-y,1/2+z
loop_
_atom_site_type_symbol
_atom_site_label
_atom_site_fract_x
_atom_site_fract_y
_atom_site_fract_z
Si Si1 0.259087 0.290255 0.577402
Si Si2 0.337583 0.482595 0.442229
Si Si3 0.579667 0.172248 0.668268
Si Si4 0.861702 0.526764 0.643711
Si Si5 0.954801 0.256154 0.578373
Si Si6 0.574815 0.116691 0.520390
Si Si7 0.339387 0.593777 0.187046
Si Si8 0.874030 0.715870 0.953068
O O1 0.303809 0.387401 0.508916
O O2 0.429704 0.217742 0.547658
O O3 0.218486 0.351353 0.658770
O O4 0.107126 0.206719 0.585970
O O5 0.256688 0.442021 0.391100
O O6 0.532194 0.504755 0.382495
O O7 0.252281 0.612790 0.484812
O O8 0.500000 0.102962 0.750000
O O9 0.768849 0.211781 0.640340
O O10 0.589326 0.098584 0.596761
O O11 0.460010 0.294579 0.685972
O O12 0.957264 0.403641 0.594440
O O13 0.755796 0.479701 0.732130
O O14 0.994530 0.637930 0.622381
O O15 0.972267 0.235338 0.495246
O O16 0.751934 0.176818 0.454865
O O17 0.500000 0.000000 0.500000
#
# Coordination Sequence:
#
# PCOD9226491 Si02
#       8
#     4   4   4   4   4   4   4   4
#     4  11  21  33  54  87 116 145 195 245 288 340
#     4  11  17  32  54  81 116 154 184 224 296 363
#     4  10  17  35  58  83 117 152 185 237 297 355
#     4  11  18  30  52  83 123 153 180 224 295 370
#     4  10  17  30  53  85 116 148 178 219 290 357
#     4  10  23  40  58  81 107 155 209 250 286 333
#     4  11  20  29  50  87 126 151 179 228 294 363
#     4  10  18  34  56  78 116 157 182 226 292 354
#
# _framework density 18.565781000000001
#
# number of rings (size 3 to 8) (size 9 to 14) (size 15 to 20)
#    0.000    1.500    8.750    1.500    0.000    0.500 
#    0.000    2.500    0.000    1.500    3.250    0.000 
#    0.000    0.000    0.000    0.000    0.000    0.000 
#
# Total GULP energy -178311.300133 kJ/mol
# GULP energy per Si atom -5572.228129 kJ/mol
# Density = 1.852352 g / cm^3
# Si number density = 18.565781 Si / 1000 Ang^3
#
#
#
# Elastic Constant Matrix: (Units=GPa)
#
#
# Indices 1 2 3 4 5 6 
#
# 1 115.1881 20.5796 31.8542 0.0000 4.0500 0.0000
# 2 20.5796 30.1248 17.7790 0.0000 5.5196 0.0000
# 3 31.8542 17.7790 73.4047 0.0000 3.6815 0.0000
# 4 0.0000 0.0000 0.0000 9.4598 0.0000 3.6210
# 5 4.0500 5.5196 3.6815 0.0000 23.5316 0.0000
# 6 0.0000 0.0000 0.0000 3.6210 0.0000 26.8316
#
#
#
# Elastic Compliance Matrix: (Units=1/GPa)
#
#
# Indices 1 2 3 4 5 6 
#
# 1 0.010531 -0.005235 -0.003299 0.000000 -0.000068 0.000000
# 2 -0.005235 0.042761 -0.007688 0.000000 -0.007926 0.000000
# 3 -0.003299 -0.007688 0.016931 0.000000 -0.000278 0.000000
# 4 0.000000 0.000000 0.000000 0.111469 0.000000 -0.015043
# 5 -0.000068 -0.007926 -0.000278 0.000000 0.044411 0.000000
# 6 0.000000 0.000000 0.000000 -0.015043 0.000000 0.039299
#
#
# Mechanical properties :
#
#
# Convention : Reuss Voigt Hill
#
# Bulk Modulus (GPa) = 26.46902 39.90481 33.18692
# Shear Modulus (GPa) = 16.10628 21.86490 18.98559
#
# Velocity S-wave (km/s) = 2.94857 3.43548 3.20130
# Velocity P-wave (km/s) = 5.08723 6.10550 5.61948
#
# Compressibility (1/GPa) = 0.03778001
#
# Stress axis : x y z
#
# Youngs Moduli (GPa) = 94.95409 23.38577 59.06487
#
# Poissons Ratio (x) = 0.12243 0.19484
# Poissons Ratio (y) = 0.49709 0.45407
# Poissons Ratio (z) = 0.31323 0.17978
#
# Static dielectric constant tensor:
#      x y z
#    x 1.735350 0.000000 0.012590 
#    y 0.000000 1.658500 0.000000 
#    z 0.012590 0.000000 1.676270 
# 
# From -- ./inp_files/76241.got.cif
#   From: 2010.05.17/outbox.cif.g08.bks.cpg/sg13_39_cif.got.tgz:76241.got - 2010.06.03 16:44:36.
