data_PCOD9226261
_publ_section_title
;
Structure prediction by ZEFSAII (Michael W. Deem and Ramdas Pophale) SiO2 
 PCOD9226261
Probable space group: P 2/C
;
_chemical_formula_sum "Si O2"
_cell_formula_units_Z 16
_cell_length_a 13.521492
_cell_length_b 11.647240
_cell_length_c 10.158090
_cell_angle_alpha 90.000000
_cell_angle_beta 31.455023
_cell_angle_gamma 90.000000
_cell_volume 834.810643
_symmetry_space_group_name_H-M "P 2/C"
_symmetry_group_IT_number 13
_symmetry_cell_setting 'monoclinic'
loop_
_space_group_symop_operation_xyz
x,y,z
-x,y,1/2-z
-x,-y,-z
x,-y,1/2+z
loop_
_atom_site_type_symbol
_atom_site_label
_atom_site_fract_x
_atom_site_fract_y
_atom_site_fract_z
Si Si1 0.224867 0.196691 0.650383
Si Si2 0.941387 0.596163 0.464656
Si Si3 0.374164 0.750867 0.689118
Si Si4 0.368729 0.039763 0.028271
O O1 0.401738 0.242659 0.537148
O O2 0.284358 0.205243 0.429226
O O3 0.052775 0.283730 0.865250
O O4 0.211439 0.060198 0.692766
O O5 0.719585 0.627279 0.724076
O O6 0.000000 0.562342 0.250000
O O7 0.000000 0.500000 0.500000
O O8 0.315428 0.833391 0.635363
O O9 0.500000 0.041113 0.750000
O O10 0.500000 0.000000 0.000000
#
# Coordination Sequence:
#
# PCOD9226261 Si02
#       4
#     4   4   4   4
#     4   9  17  34  58  77 108 144 168 209 274 316
#     4  10  22  40  55  75 106 141 184 223 257 307
#     4   9  18  34  56  79 109 140 170 214 269 312
#     4  10  16  31  56  83 108 135 172 211 260 327
#
# _framework density 19.166022999999999
#
# number of rings (size 3 to 8) (size 9 to 14) (size 15 to 20)
#    0.000    2.500    5.000    0.000    0.000    2.000 
#    9.000    0.000    0.000    0.000    0.000    0.000 
#    0.000    0.000    0.000    0.000    0.000    0.000 
#
# Total GULP energy -89086.927844 kJ/mol
# GULP energy per Si atom -5567.932990 kJ/mol
# Density = 1.912240 g / cm^3
# Si number density = 19.166023 Si / 1000 Ang^3
#
#
#
# Elastic Constant Matrix: (Units=GPa)
#
#
# Indices 1 2 3 4 5 6 
#
# 1 86.2350 48.4070 31.7357 0.0000 14.9010 0.0000
# 2 48.4070 61.2296 32.4079 0.0000 14.3265 0.0000
# 3 31.7357 32.4079 58.5077 0.0000 6.2908 0.0000
# 4 0.0000 0.0000 0.0000 17.4880 0.0000 -2.6224
# 5 14.9010 14.3265 6.2908 0.0000 26.3107 0.0000
# 6 0.0000 0.0000 0.0000 -2.6224 0.0000 49.6388
#
#
#
# Elastic Compliance Matrix: (Units=1/GPa)
#
#
# Indices 1 2 3 4 5 6 
#
# 1 0.021532 -0.014451 -0.003294 0.000000 -0.003538 0.000000
# 2 -0.014451 0.035544 -0.010929 0.000000 -0.008556 0.000000
# 3 -0.003294 -0.010929 0.024728 0.000000 0.001904 0.000000
# 4 0.000000 0.000000 0.000000 0.057639 0.000000 0.003045
# 5 -0.003538 -0.008556 0.001904 0.000000 0.044215 0.000000
# 6 0.000000 0.000000 0.000000 0.003045 0.000000 0.020306
#
#
# Mechanical properties :
#
#
# Convention : Reuss Voigt Hill
#
# Bulk Modulus (GPa) = 40.89379 47.89707 44.39543
# Shear Modulus (GPa) = 18.55537 24.91563 21.73550
#
# Velocity S-wave (km/s) = 3.11487 3.60945 3.37124
# Velocity P-wave (km/s) = 5.85828 6.51273 6.19416
#
# Compressibility (1/GPa) = 0.02445359
#
# Stress axis : x y z
#
# Youngs Moduli (GPa) = 46.44246 28.13444 40.44064
#
# Poissons Ratio (x) = 0.40658 0.13322
# Poissons Ratio (y) = 0.67116 0.44198
# Poissons Ratio (z) = 0.15299 0.30749
#
# Static dielectric constant tensor:
#      x y z
#    x 1.688420 0.000000 -0.062300 
#    y 0.000000 1.711670 0.000000 
#    z -0.062300 0.000000 1.657680 
# 
# From -- ./inp_files/11041.got.cif
#   From: 2010.05.17/outbox.cif.g08.bks.cpg/sg13_6_cif.got.tgz:11041.got - 2010.06.03 16:44:36.
