data_PCOD9226959
_publ_section_title
;
Structure prediction by ZEFSAII (Michael W. Deem and Ramdas Pophale) SiO2 
 PCOD9226959
Probable space group: P 2/C
;
_chemical_formula_sum "Si O2"
_cell_formula_units_Z 30
_cell_length_a 10.601764
_cell_length_b 9.657562
_cell_length_c 14.469586
_cell_angle_alpha 90.000000
_cell_angle_beta 91.228420
_cell_angle_gamma 90.000000
_cell_volume 1481.159807
_symmetry_space_group_name_H-M "P 2/C"
_symmetry_group_IT_number 13
_symmetry_cell_setting 'monoclinic'
loop_
_space_group_symop_operation_xyz
x,y,z
-x,y,1/2-z
-x,-y,-z
x,-y,1/2+z
loop_
_atom_site_type_symbol
_atom_site_label
_atom_site_fract_x
_atom_site_fract_y
_atom_site_fract_z
Si Si1 0.500000 0.545211 0.250000
Si Si2 0.254319 0.514273 0.331535
Si Si3 0.874938 0.622475 0.356985
Si Si4 0.991634 0.090320 0.855654
Si Si5 0.979534 0.344347 0.139020
Si Si6 0.143337 0.121238 0.035662
Si Si7 0.635582 0.323966 0.496553
Si Si8 0.379978 0.637647 0.072048
O O1 0.387591 0.459220 0.294494
O O2 0.437970 0.645216 0.174460
O O3 0.182712 0.583561 0.244099
O O4 0.164865 0.395099 0.370248
O O5 0.294551 0.627339 0.407755
O O6 0.971763 0.745770 0.351344
O O7 0.764840 0.676168 0.422611
O O8 0.940143 0.480425 0.388066
O O9 0.000000 0.040196 0.750000
O O10 0.873122 0.012342 0.900244
O O11 0.106122 0.075390 0.930849
O O12 0.000000 0.316424 0.250000
O O13 0.034080 0.223081 0.076196
O O14 0.274635 0.205284 0.042531
O O15 0.627982 0.470779 0.443534
O O16 0.486891 0.292899 0.510680
#
# Coordination Sequence:
#
# PCOD9226959 Si02
#       8
#     2   4   4   4   4   4   4   4
#     4   8  16  32  44  78 116 144 172 214 280 326
#     4   9  18  29  53  81 111 142 178 227 273 329
#     4  10  18  34  54  81 109 144 184 228 274 331
#     4  11  24  40  55  77 113 150 187 228 285 336
#     4  10  19  32  54  85 113 139 184 232 278 325
#     4  11  23  37  57  81 111 149 184 233 282 332
#     4  10  18  32  51  82 111 140 178 226 279 330
#     4   9  18  30  53  80 112 142 175 225 279 327
#
# _framework density 20.254397000000001
#
# number of rings (size 3 to 8) (size 9 to 14) (size 15 to 20)
#    0.000    2.133    1.333    3.200    1.867    1.067 
#    0.000    0.667    0.000    0.000    0.000    3.733 
#    0.000    0.000    0.000    0.000    0.000    0.000 
#
# Total GULP energy -167103.463838 kJ/mol
# GULP energy per Si atom -5570.115461 kJ/mol
# Density = 2.020830 g / cm^3
# Si number density = 20.254397 Si / 1000 Ang^3
#
#
#
# Elastic Constant Matrix: (Units=GPa)
#
#
# Indices 1 2 3 4 5 6 
#
# 1 91.9265 10.3518 9.5766 0.0000 -31.6083 0.0000
# 2 10.3518 63.2280 11.3125 0.0000 -6.4272 0.0000
# 3 9.5766 11.3125 86.8555 0.0000 2.0561 0.0000
# 4 0.0000 0.0000 0.0000 12.3849 0.0000 -8.3675
# 5 -31.6083 -6.4272 2.0561 0.0000 26.6508 0.0000
# 6 0.0000 0.0000 0.0000 -8.3675 0.0000 29.3441
#
#
#
# Elastic Compliance Matrix: (Units=1/GPa)
#
#
# Indices 1 2 3 4 5 6 
#
# 1 0.018956 -0.000345 -0.002580 0.000000 0.022598 0.000000
# 2 -0.000345 0.016654 -0.002220 0.000000 0.003779 0.000000
# 3 -0.002580 -0.002220 0.012194 0.000000 -0.004536 0.000000
# 4 0.000000 0.000000 0.000000 0.100011 0.000000 0.028518
# 5 0.022598 0.003779 -0.004536 0.000000 0.065586 0.000000
# 6 0.000000 0.000000 0.000000 0.028518 0.000000 0.042210
#
#
# Mechanical properties :
#
#
# Convention : Reuss Voigt Hill
#
# Bulk Modulus (GPa) = 26.65711 33.83241 30.24476
# Shear Modulus (GPa) = 17.95933 27.72722 22.84327
#
# Velocity S-wave (km/s) = 2.98096 3.70394 3.36194
# Velocity P-wave (km/s) = 5.00379 5.91881 5.48043
#
# Compressibility (1/GPa) = 0.03751344
#
# Stress axis : x y z
#
# Youngs Moduli (GPa) = 52.75341 60.04699 82.00443
#
# Poissons Ratio (x) = 0.02070 0.21158
# Poissons Ratio (y) = 0.01819 0.18209
# Poissons Ratio (z) = 0.13611 0.13333
#
# Static dielectric constant tensor:
#      x y z
#    x 1.785390 0.000000 -0.027370 
#    y 0.000000 1.677490 0.000000 
#    z -0.027370 0.000000 1.812800 
# 
# From -- ./inp_files/50063.got.cif
#   From: 2010.05.17/outbox.cif.g08.bks.cpg/sg13_26_cif.got.tgz:50063.got - 2010.06.03 16:44:36.
