data_PCOD9226568
_publ_section_title
;
Structure prediction by ZEFSAII (Michael W. Deem and Ramdas Pophale) SiO2 
 PCOD9226568
Probable space group: P 2/C
;
_chemical_formula_sum "Si O2"
_cell_formula_units_Z 26
_cell_length_a 7.639775
_cell_length_b 10.559666
_cell_length_c 13.889771
_cell_angle_alpha 90.000000
_cell_angle_beta 88.307706
_cell_angle_gamma 90.000000
_cell_volume 1120.047324
_symmetry_space_group_name_H-M "P 2/C"
_symmetry_group_IT_number 13
_symmetry_cell_setting 'monoclinic'
loop_
_space_group_symop_operation_xyz
x,y,z
-x,y,1/2-z
-x,-y,-z
x,-y,1/2+z
loop_
_atom_site_type_symbol
_atom_site_label
_atom_site_fract_x
_atom_site_fract_y
_atom_site_fract_z
Si Si1 0.356960 0.056058 0.358026
Si Si2 0.299664 0.987560 0.080877
Si Si3 0.180920 0.466227 0.553084
Si Si4 0.796802 0.312310 0.125888
Si Si5 0.000000 0.512722 0.250000
Si Si6 0.943306 0.144030 0.651106
Si Si7 0.825305 0.259944 0.460903
O O1 0.541574 0.982812 0.346702
O O2 0.321380 0.200818 0.327347
O O3 0.342925 0.065851 0.475014
O O4 0.198678 0.966088 0.328888
O O5 0.117444 0.922846 0.109002
O O6 0.276589 0.137804 0.070635
O O7 0.269307 0.370386 0.476036
O O8 0.264852 0.605849 0.557891
O O9 0.000000 0.500000 0.500000
O O10 0.116236 0.427573 0.660381
O O11 0.855147 0.423882 0.197511
O O12 0.986676 0.253328 0.095118
O O13 0.000000 0.203911 0.750000
O O14 0.864093 0.237881 0.573306
#
# Coordination Sequence:
#
# PCOD9226568 Si02
#       7
#     4   4   4   4   2   4   4
#     4  10  20  34  56  77 106 144 187 226 280 327
#     4  10  19  35  54  75 106 147 183 229 274 330
#     4   8  17  30  50  77 110 136 183 228 268 331
#     4  10  17  33  53  80 109 139 184 231 273 331
#     4   8  16  28  50  78 102 144 174 226 280 322
#     4  11  21  33  52  79 114 144 182 230 274 329
#     4   9  16  35  51  74 109 142 183 223 270 330
#
# _framework density 23.213305999999999
#
# number of rings (size 3 to 8) (size 9 to 14) (size 15 to 20)
#    0.000    2.769    3.077    0.923    1.077    0.615 
#   12.462    0.769    0.000    0.000    0.000    0.000 
#    0.000    0.000    0.000    0.000    0.000    0.000 
#
# Total GULP energy -144983.945856 kJ/mol
# GULP energy per Si atom -5576.305610 kJ/mol
# Density = 2.316047 g / cm^3
# Si number density = 23.213306 Si / 1000 Ang^3
#
#
#
# Elastic Constant Matrix: (Units=GPa)
#
#
# Indices 1 2 3 4 5 6 
#
# 1 74.2997 10.7378 12.8381 0.0000 -4.6771 0.0000
# 2 10.7378 86.8725 13.3641 0.0000 -12.5055 0.0000
# 3 12.8381 13.3641 125.7647 0.0000 1.9149 0.0000
# 4 0.0000 0.0000 0.0000 21.3032 0.0000 8.0298
# 5 -4.6771 -12.5055 1.9149 0.0000 18.3616 0.0000
# 6 0.0000 0.0000 0.0000 8.0298 0.0000 -4.7406
#
#
#
# Elastic Compliance Matrix: (Units=1/GPa)
#
#
# Indices 1 2 3 4 5 6 
#
# 1 0.014040 -0.001098 -0.001362 0.000000 0.002970 0.000000
# 2 -0.001098 0.013134 -0.001418 0.000000 0.008813 0.000000
# 3 -0.001362 -0.001418 0.008274 0.000000 -0.002175 0.000000
# 4 0.000000 0.000000 0.000000 0.028650 0.000000 0.048528
# 5 0.002970 0.008813 -0.002175 0.000000 0.061447 0.000000
# 6 0.000000 0.000000 0.000000 0.048528 0.000000 -0.128746
#
#
# Mechanical properties :
#
#
# Convention : Reuss Voigt Hill
#
# Bulk Modulus (GPa) = 36.11115 40.09075 38.10095
# Shear Modulus (GPa) = 362.70512 23.65130 193.17821
#
# Velocity S-wave (km/s) = 12.51351 3.19543 9.13233
# Velocity P-wave (km/s) = 14.97912 5.56080 11.29815
#
# Compressibility (1/GPa) = 0.02769228
#
# Stress axis : x y z
#
# Youngs Moduli (GPa) = 71.22506 76.14046 120.85859
#
# Poissons Ratio (x) = 0.08363 0.16458
# Poissons Ratio (y) = 0.07823 0.17134
# Poissons Ratio (z) = 0.09699 0.10794
#
# Static dielectric constant tensor:
#      x y z
#    x 1.940590 0.000000 -0.024270 
#    y 0.000000 1.984950 0.000000 
#    z -0.024270 0.000000 1.904370 
# 
# From -- ./inp_files/46646.got.cif
#   From: 2010.05.17/outbox.cif.g08.bks.cpg/sg13_24_cif.got.tgz:46646.got - 2010.06.03 16:44:36.
