data_PCOD9226729
_publ_section_title
;
Structure prediction by ZEFSAII (Michael W. Deem and Ramdas Pophale) SiO2 
 PCOD9226729
Probable space group: P 2/C
;
_chemical_formula_sum "Si O2"
_cell_formula_units_Z 20
_cell_length_a 8.456881
_cell_length_b 13.882699
_cell_length_c 7.800390
_cell_angle_alpha 90.000000
_cell_angle_beta 79.415105
_cell_angle_gamma 90.000000
_cell_volume 900.216169
_symmetry_space_group_name_H-M "P 2/C"
_symmetry_group_IT_number 13
_symmetry_cell_setting 'monoclinic'
loop_
_space_group_symop_operation_xyz
x,y,z
-x,y,1/2-z
-x,-y,-z
x,-y,1/2+z
loop_
_atom_site_type_symbol
_atom_site_label
_atom_site_fract_x
_atom_site_fract_y
_atom_site_fract_z
Si Si1 0.596902 0.723301 0.912859
Si Si2 0.113047 0.074251 0.582177
Si Si3 0.178894 0.432482 0.281740
Si Si4 0.366136 0.417611 0.577255
Si Si5 0.320363 0.914949 0.725616
O O1 0.500000 0.723882 0.750000
O O2 0.738029 0.646713 0.856793
O O3 0.467736 0.679602 0.068596
O O4 0.664675 0.829911 0.917322
O O5 0.215179 0.124000 0.409360
O O6 0.000000 0.124246 0.750000
O O7 0.237392 0.007824 0.662245
O O8 0.000000 0.000000 0.500000
O O9 0.226736 0.401992 0.463218
O O10 0.000000 0.443123 0.250000
O O11 0.272092 0.534204 0.249945
O O12 0.500000 0.500000 0.500000
O O13 0.500000 0.938506 0.750000
#
# Coordination Sequence:
#
# PCOD9226729 Si02
#       5
#     4   4   4   4   4
#     4   8  17  31  50  72 100 138 175 210 254 308
#     4   9  19  33  52  79 108 138 167 213 276 316
#     4  10  18  29  51  78 103 135 175 214 259 314
#     4   9  17  32  50  72 102 138 172 210 261 315
#     4  10  18  33  57  79 104 141 185 219 251 317
#
# _framework density 22.216887
#
# number of rings (size 3 to 8) (size 9 to 14) (size 15 to 20)
#    0.000    2.800    0.000    3.000    0.000    2.400 
#    0.000    0.000    0.000   80.400    0.000    0.000 
#    0.000    0.000    0.000    0.000    0.000    0.000 
#
# Total GULP energy -111393.808962 kJ/mol
# GULP energy per Si atom -5569.690448 kJ/mol
# Density = 2.216632 g / cm^3
# Si number density = 22.216887 Si / 1000 Ang^3
#
#
#
# Elastic Constant Matrix: (Units=GPa)
#
#
# Indices 1 2 3 4 5 6 
#
# 1 118.2465 17.3515 33.2263 0.0000 -3.3653 0.0000
# 2 17.3515 59.2120 3.3861 0.0000 -8.8014 0.0000
# 3 33.2263 3.3861 47.7809 0.0000 8.9101 0.0000
# 4 0.0000 0.0000 0.0000 20.6214 0.0000 -6.5664
# 5 -3.3653 -8.8014 8.9101 0.0000 24.8409 0.0000
# 6 0.0000 0.0000 0.0000 -6.5664 0.0000 4.2435
#
#
#
# Elastic Compliance Matrix: (Units=1/GPa)
#
#
# Indices 1 2 3 4 5 6 
#
# 1 0.011241 -0.002264 -0.008349 0.000000 0.003715 0.000000
# 2 -0.002264 0.018594 -0.000980 0.000000 0.006633 0.000000
# 3 -0.008349 -0.000980 0.029021 0.000000 -0.011888 0.000000
# 4 0.000000 0.000000 0.000000 0.095597 0.000000 0.147926
# 5 0.003715 0.006633 -0.011888 0.000000 0.047374 0.000000
# 6 0.000000 0.000000 0.000000 0.147926 0.000000 0.464556
#
#
# Mechanical properties :
#
#
# Convention : Reuss Voigt Hill
#
# Bulk Modulus (GPa) = 28.03559 37.01858 32.52708
# Shear Modulus (GPa) = 7.12800 21.35951 14.24375
#
# Velocity S-wave (km/s) = 1.79314 3.10402 2.53479
# Velocity P-wave (km/s) = 4.11504 5.43554 4.82072
#
# Compressibility (1/GPa) = 0.03566895
#
# Stress axis : x y z
#
# Youngs Moduli (GPa) = 88.96017 53.78088 34.45766
#
# Poissons Ratio (x) = 0.12178 0.28769
# Poissons Ratio (y) = 0.20144 0.03377
# Poissons Ratio (z) = 0.74275 0.05271
#
# Static dielectric constant tensor:
#      x y z
#    x 1.837370 0.000000 0.001560 
#    y 0.000000 1.865520 0.000000 
#    z 0.001560 0.000000 1.992250 
# 
# From -- ./inp_files/12238.got.cif
#   From: 2010.05.17/outbox.cif.g08.bks.cpg/sg13_7_cif.got.tgz:12238.got - 2010.06.03 16:44:36.
