data_PCOD9226196
_publ_section_title
;
Structure prediction by ZEFSAII (Michael W. Deem and Ramdas Pophale) SiO2 
 PCOD9226196
Probable space group: P 2/C
;
_chemical_formula_sum "Si O2"
_cell_formula_units_Z 28
_cell_length_a 24.201136
_cell_length_b 11.908044
_cell_length_c 15.655699
_cell_angle_alpha 90.000000
_cell_angle_beta 164.830250
_cell_angle_gamma 90.000000
_cell_volume 1180.642999
_symmetry_space_group_name_H-M "P 2/C"
_symmetry_group_IT_number 13
_symmetry_cell_setting 'monoclinic'
loop_
_space_group_symop_operation_xyz
x,y,z
-x,y,1/2-z
-x,-y,-z
x,-y,1/2+z
loop_
_atom_site_type_symbol
_atom_site_label
_atom_site_fract_x
_atom_site_fract_y
_atom_site_fract_z
Si Si1 0.633163 0.880870 0.262187
Si Si2 0.500000 0.580941 0.750000
Si Si3 0.938752 0.786921 0.305125
Si Si4 0.153410 0.249339 0.656121
Si Si5 0.000000 0.952020 0.250000
Si Si6 0.281371 0.344251 0.673776
Si Si7 0.503573 0.087062 0.131380
Si Si8 0.285380 0.572898 0.595578
O O1 0.693057 0.752020 0.359758
O O2 0.832207 0.960794 0.538332
O O3 0.521481 0.953715 0.168060
O O4 0.501346 0.886010 0.977396
O O5 0.316334 0.659814 0.438435
O O6 0.389434 0.521752 0.664202
O O7 0.010724 0.771010 0.511231
O O8 0.056339 0.867602 0.412845
O O9 0.705672 0.845273 0.965981
O O10 0.890435 0.665088 0.191142
O O11 0.133992 0.296463 0.530512
O O12 0.284674 0.135088 0.838035
O O13 0.216936 0.466620 0.547156
O O14 0.519089 0.364417 0.066382
#
# Coordination Sequence:
#
# PCOD9226196 Si02
#       8
#     4   2   4   4   2   4   4   4
#     4   9  17  29  43  69  96 125 153 198 244 286
#     4   8  12  22  42  70  98 120 146 200 238 276
#     4  10  16  30  48  73  94 124 169 200 234 285
#     4   9  13  25  47  73  93 119 160 199 238 281
#     4  10  22  30  46  66  98 130 162 208 242 280
#     4   9  16  27  46  76  95 124 153 199 252 287
#     4   9  14  26  49  67  89 119 158 197 239 279
#     4   9  15  26  49  72  97 122 160 200 237 289
#
# _framework density 23.715890000000002
#
# number of rings (size 3 to 8) (size 9 to 14) (size 15 to 20)
#    0.000    2.857    5.714    0.000    0.000    0.000 
#    0.000    3.571    6.286    0.857    0.000    0.000 
#    0.000    0.000    0.000    0.000    0.000    0.000 
#
# Total GULP energy -156014.471261 kJ/mol
# GULP energy per Si atom -5571.945402 kJ/mol
# Density = 2.366191 g / cm^3
# Si number density = 23.715890 Si / 1000 Ang^3
#
#
#
# Elastic Constant Matrix: (Units=GPa)
#
#
# Indices 1 2 3 4 5 6 
#
# 1 105.2837 55.2707 1.8342 0.0000 -1.2142 0.0000
# 2 55.2707 153.2751 15.5301 0.0000 -1.6598 0.0000
# 3 1.8342 15.5301 27.0163 0.0000 5.1343 0.0000
# 4 0.0000 0.0000 0.0000 10.6613 0.0000 3.9543
# 5 -1.2142 -1.6598 5.1343 0.0000 17.6782 0.0000
# 6 0.0000 0.0000 0.0000 3.9543 0.0000 17.2018
#
#
#
# Elastic Compliance Matrix: (Units=1/GPa)
#
#
# Indices 1 2 3 4 5 6 
#
# 1 0.011793 -0.004433 0.001771 0.000000 -0.000120 0.000000
# 2 -0.004433 0.008656 -0.005050 0.000000 0.001975 0.000000
# 3 0.001771 -0.005050 0.042193 0.000000 -0.012607 0.000000
# 4 0.000000 0.000000 0.000000 0.102540 0.000000 -0.023572
# 5 -0.000120 0.001975 -0.012607 0.000000 0.060405 0.000000
# 6 0.000000 0.000000 0.000000 -0.023572 0.000000 0.063552
#
#
# Mechanical properties :
#
#
# Convention : Reuss Voigt Hill
#
# Bulk Modulus (GPa) = 21.17879 47.87168 34.52524
# Shear Modulus (GPa) = 15.61012 23.30425 19.45719
#
# Velocity S-wave (km/s) = 2.56835 3.13811 2.86742
# Velocity P-wave (km/s) = 4.21246 5.77578 5.05492
#
# Compressibility (1/GPa) = 0.04721704
#
# Stress axis : x y z
#
# Youngs Moduli (GPa) = 84.79404 115.52749 23.70040
#
# Poissons Ratio (x) = 0.51217 -0.04197
# Poissons Ratio (y) = 0.37592 0.11969
# Poissons Ratio (z) = -0.15014 0.58343
#
# Static dielectric constant tensor:
#      x y z
#    x 2.019470 0.000000 -0.001450 
#    y 0.000000 1.889180 0.000000 
#    z -0.001450 0.000000 2.012190 
# 
# From -- ./inp_files/66439.got.cif
#   From: 2010.05.17/outbox.cif.g08.bks.cpg/sg13_34_cif.got.tgz:66439.got - 2010.06.03 16:44:36.
