data_PCOD9226755
_publ_section_title
;
Structure prediction by ZEFSAII (Michael W. Deem and Ramdas Pophale) SiO2 
 PCOD9226755
Probable space group: P 2/C
;
_chemical_formula_sum "Si O2"
_cell_formula_units_Z 28
_cell_length_a 9.583031
_cell_length_b 11.639401
_cell_length_c 23.751357
_cell_angle_alpha 90.000000
_cell_angle_beta 152.554566
_cell_angle_gamma 90.000000
_cell_volume 1221.046216
_symmetry_space_group_name_H-M "P 2/C"
_symmetry_group_IT_number 13
_symmetry_cell_setting 'monoclinic'
loop_
_space_group_symop_operation_xyz
x,y,z
-x,y,1/2-z
-x,-y,-z
x,-y,1/2+z
loop_
_atom_site_type_symbol
_atom_site_label
_atom_site_fract_x
_atom_site_fract_y
_atom_site_fract_z
Si Si1 0.362157 0.069243 0.369687
Si Si2 0.824413 0.101877 0.314355
Si Si3 0.462260 0.822931 0.017457
Si Si4 0.641987 0.473115 0.361044
Si Si5 0.443419 0.678510 0.351455
Si Si6 0.114166 0.767406 0.552248
Si Si7 0.175086 0.842020 0.164563
O O1 0.408676 0.102117 0.321325
O O2 0.517228 0.150964 0.471834
O O3 0.000000 0.074216 0.250000
O O4 0.449275 0.937907 0.415683
O O5 0.792249 0.137877 0.368012
O O6 0.099586 0.182238 0.392787
O O7 0.915308 0.967862 0.347036
O O8 0.604567 0.716483 0.101417
O O9 0.500000 0.511805 0.250000
O O10 0.453806 0.544371 0.339811
O O11 0.642193 0.335521 0.361077
O O12 0.000000 0.500000 0.500000
O O13 0.224799 0.750871 0.232117
O O14 0.784279 0.721573 0.456849
O O15 0.034423 0.800516 0.460555
O O16 0.500000 0.858910 0.250000
#
# Coordination Sequence:
#
# PCOD9226755 Si02
#       7
#     4   4   4   4   4   4   4
#     4   9  17  30  49  71 104 133 171 219 268 329
#     4  10  18  30  47  72 109 143 175 211 272 328
#     4   9  17  30  48  74 100 135 172 220 268 321
#     4  10  19  34  52  72 103 142 189 229 261 319
#     4   9  16  30  51  68  95 137 178 215 268 320
#     4   9  19  30  43  71 104 138 177 218 260 311
#     4  10  18  30  47  71 103 146 176 213 266 334
#
# _framework density 22.931153999999999
#
# number of rings (size 3 to 8) (size 9 to 14) (size 15 to 20)
#    0.000    2.571    1.429    2.571    0.000    0.571 
#    2.571    0.000    0.000    0.000    0.000    1.000 
#    0.000    7.714    0.000    6.143    0.000    0.000 
#
# Total GULP energy -156252.061879 kJ/mol
# GULP energy per Si atom -5580.430781 kJ/mol
# Density = 2.287896 g / cm^3
# Si number density = 22.931154 Si / 1000 Ang^3
#
#
#
# Elastic Constant Matrix: (Units=GPa)
#
#
# Indices 1 2 3 4 5 6 
#
# 1 78.1099 17.8958 40.7985 0.0000 -33.7882 0.0000
# 2 17.8958 98.0276 45.6948 0.0000 -28.5086 0.0000
# 3 40.7985 45.6948 139.4897 0.0000 -37.7352 0.0000
# 4 0.0000 0.0000 0.0000 22.2045 0.0000 -0.9102
# 5 -33.7882 -28.5086 -37.7352 0.0000 51.6942 0.0000
# 6 0.0000 0.0000 0.0000 -0.9102 0.0000 22.0150
#
#
#
# Elastic Compliance Matrix: (Units=1/GPa)
#
#
# Indices 1 2 3 4 5 6 
#
# 1 0.018707 0.001054 -0.002930 0.000000 0.010669 0.000000
# 2 0.001054 0.013085 -0.003060 0.000000 0.005671 0.000000
# 3 -0.002930 -0.003060 0.010036 0.000000 0.003723 0.000000
# 4 0.000000 0.000000 0.000000 0.045112 0.000000 0.001865
# 5 0.010669 0.005671 0.003723 0.000000 0.032163 0.000000
# 6 0.000000 0.000000 0.000000 0.001865 0.000000 0.045501
#
#
# Mechanical properties :
#
#
# Convention : Reuss Voigt Hill
#
# Bulk Modulus (GPa) = 31.29614 58.26724 44.78169
# Shear Modulus (GPa) = 27.00831 33.26528 30.13679
#
# Velocity S-wave (km/s) = 3.43563 3.81288 3.62916
# Velocity P-wave (km/s) = 5.42361 6.69693 6.09362
#
# Compressibility (1/GPa) = 0.03195282
#
# Stress axis : x y z
#
# Youngs Moduli (GPa) = 53.45640 76.42561 99.64434
#
# Poissons Ratio (x) = -0.08053 0.29200
# Poissons Ratio (y) = -0.05633 0.30496
# Poissons Ratio (z) = 0.15665 0.23390
#
# Static dielectric constant tensor:
#      x y z
#    x 1.950630 0.000000 0.048670 
#    y 0.000000 1.858360 0.000000 
#    z 0.048670 0.000000 1.926150 
# 
# From -- ./inp_files/86553.got.cif
#   From: 2010.05.17/outbox.cif.g08.bks.cpg/sg13_44_cif.got.tgz:86553.got - 2010.06.03 16:44:36.
