data_PCOD9226677
_publ_section_title
;
Structure prediction by ZEFSAII (Michael W. Deem and Ramdas Pophale) SiO2 
 PCOD9226677
Probable space group: P 2/C
;
_chemical_formula_sum "Si O2"
_cell_formula_units_Z 22
_cell_length_a 5.456197
_cell_length_b 12.898617
_cell_length_c 13.342267
_cell_angle_alpha 90.000000
_cell_angle_beta 96.263911
_cell_angle_gamma 90.000000
_cell_volume 933.388090
_symmetry_space_group_name_H-M "P 2/C"
_symmetry_group_IT_number 13
_symmetry_cell_setting 'monoclinic'
loop_
_space_group_symop_operation_xyz
x,y,z
-x,y,1/2-z
-x,-y,-z
x,-y,1/2+z
loop_
_atom_site_type_symbol
_atom_site_label
_atom_site_fract_x
_atom_site_fract_y
_atom_site_fract_z
Si Si1 0.759807 0.557655 0.312821
Si Si2 0.613438 0.187256 0.085629
Si Si3 0.000000 0.912494 0.250000
Si Si4 0.880995 0.235402 0.916795
Si Si5 0.753299 0.359811 0.418416
Si Si6 0.000000 0.257662 0.250000
Si Si7 0.500000 0.042724 0.250000
O O1 0.500000 0.530269 0.250000
O O2 0.745489 0.676690 0.346702
O O3 0.773131 0.482857 0.411187
O O4 0.000000 0.547849 0.250000
O O5 0.506593 0.304142 0.075381
O O6 0.854366 0.190190 0.164842
O O7 0.449267 0.112828 0.147257
O O8 0.698169 0.166459 0.977128
O O9 0.021305 0.839620 0.348342
O O10 0.746321 0.976224 0.245481
O O11 0.064361 0.301724 0.996632
O O12 0.822251 0.327628 0.308052
#
# Coordination Sequence:
#
# PCOD9226677 Si02
#       7
#     4   4   2   4   4   2   2
#     4  12  27  47  78 110 157 207 248 300 379 460
#     4  11  24  43  78 109 149 190 253 325 372 449
#     4  12  31  53  76 106 154 210 247 319 384 452
#     4  11  29  48  76 106 160 197 255 308 386 447
#     4  11  23  43  76 113 148 198 252 309 375 451
#     4  10  17  39  66 108 148 190 233 315 374 422
#     4  12  28  50  80 108 148 196 266 316 390 436
#
# _framework density 23.570045
#
# number of rings (size 3 to 8) (size 9 to 14) (size 15 to 20)
#    0.000    0.727    3.636    2.182   11.455    2.182 
#    0.000    0.000    0.000    0.000    0.000    0.000 
#    0.000    0.000    0.000    0.000    0.000    0.000 
#
# Total GULP energy -122922.628438 kJ/mol
# GULP energy per Si atom -5587.392202 kJ/mol
# Density = 2.351640 g / cm^3
# Si number density = 23.570045 Si / 1000 Ang^3
#
#
#
# Elastic Constant Matrix: (Units=GPa)
#
#
# Indices 1 2 3 4 5 6 
#
# 1 120.2102 43.6953 48.6871 0.0000 -9.3881 0.0000
# 2 43.6953 114.5280 38.6206 0.0000 -18.0579 0.0000
# 3 48.6871 38.6206 92.0456 0.0000 -22.0243 0.0000
# 4 0.0000 0.0000 0.0000 31.4112 0.0000 -12.8775
# 5 -9.3881 -18.0579 -22.0243 0.0000 44.0846 0.0000
# 6 0.0000 0.0000 0.0000 -12.8775 0.0000 39.5726
#
#
#
# Elastic Compliance Matrix: (Units=1/GPa)
#
#
# Indices 1 2 3 4 5 6 
#
# 1 0.011305 -0.002791 -0.005118 0.000000 -0.001293 0.000000
# 2 -0.002791 0.011071 -0.002528 0.000000 0.002677 0.000000
# 3 -0.005118 -0.002528 0.016041 0.000000 0.005888 0.000000
# 4 0.000000 0.000000 0.000000 0.036737 0.000000 0.011955
# 5 -0.001293 0.002677 0.005888 0.000000 0.026447 0.000000
# 6 0.000000 0.000000 0.000000 0.011955 0.000000 0.029160
#
#
# Mechanical properties :
#
#
# Convention : Reuss Voigt Hill
#
# Bulk Modulus (GPa) = 57.00406 65.42110 61.21258
# Shear Modulus (GPa) = 31.74932 36.06575 33.90754
#
# Velocity S-wave (km/s) = 3.67416 3.91596 3.79698
# Velocity P-wave (km/s) = 6.49898 6.94713 6.72679
#
# Compressibility (1/GPa) = 0.01754261
#
# Stress axis : x y z
#
# Youngs Moduli (GPa) = 88.45434 90.32533 62.33987
#
# Poissons Ratio (x) = 0.25211 0.31906
# Poissons Ratio (y) = 0.24689 0.15761
# Poissons Ratio (z) = 0.45272 0.22836
#
# Static dielectric constant tensor:
#      x y z
#    x 1.917820 0.000000 -0.031660 
#    y 0.000000 1.954820 0.000000 
#    z -0.031660 0.000000 1.908370 
# 
# From -- ./inp_files/43788.got.cif
#   From: 2010.05.17/outbox.cif.g08.bks.cpg/sg13_22_cif.got.tgz:43788.got - 2010.06.03 16:44:36.
