data_PCOD9226744
_publ_section_title
;
Structure prediction by ZEFSAII (Michael W. Deem and Ramdas Pophale) SiO2 
 PCOD9226744
Probable space group: P 2/C
;
_chemical_formula_sum "Si O2"
_cell_formula_units_Z 28
_cell_length_a 17.998159
_cell_length_b 14.917674
_cell_length_c 8.081432
_cell_angle_alpha 90.000000
_cell_angle_beta 132.339469
_cell_angle_gamma 90.000000
_cell_volume 1603.837148
_symmetry_space_group_name_H-M "P 2/C"
_symmetry_group_IT_number 13
_symmetry_cell_setting 'monoclinic'
loop_
_space_group_symop_operation_xyz
x,y,z
-x,y,1/2-z
-x,-y,-z
x,-y,1/2+z
loop_
_atom_site_type_symbol
_atom_site_label
_atom_site_fract_x
_atom_site_fract_y
_atom_site_fract_z
Si Si1 0.387339 0.897319 0.133712
Si Si2 0.612661 0.897319 0.971694
Si Si3 0.116048 0.598069 0.123270
Si Si4 1.000000 0.103293 0.050676
Si Si5 0.883952 0.401931 0.275126
Si Si6 0.803279 0.213561 0.157769
Si Si7 0.196721 0.786439 0.247932
O O1 0.500000 0.872265 0.250000
O O2 0.384397 0.895420 0.326596
O O3 0.299429 0.832537 0.938385
O O4 0.368692 1.000000 0.053038
O O5 0.700571 0.832537 0.040097
O O6 0.500000 0.872265 0.750000
O O7 0.153433 0.500000 0.230149
O O8 0.178791 0.684056 0.274505
O O9 0.113359 0.601066 0.920039
O O10 0.000000 0.606819 0.007955
O O11 0.000000 0.107495 0.250000
O O12 0.100413 0.154738 0.145040
O O13 0.899587 0.154738 0.843800
O O14 0.000000 0.000000 0.000000
O O15 0.821210 0.315944 0.238134
O O16 0.802375 0.213134 0.953562
#
# Coordination Sequence:
#
# PCOD9226744 Si02
#       7
#     4   4   4   4   4   4   4
#     4  10  19  32  49  69  92 123 160 195 229 269
#     4  10  19  32  49  69  92 123 160 195 229 269
#     4   9  16  29  48  69  93 121 152 187 227 276
#     4  10  18  30  45  66  94 124 151 182 225 276
#     4   9  16  29  48  69  93 121 152 187 227 276
#     4   9  17  30  49  68  92 125 155 183 228 283
#     4   9  17  30  49  68  92 125 155 183 228 283
#
# _framework density 17.458131000000002
#
# number of rings (size 3 to 8) (size 9 to 14) (size 15 to 20)
#    0.000    2.571    1.429    2.571    0.000    0.000 
#    0.000    5.714    0.000    0.857    0.000    6.000 
#    0.000    0.000    0.000    0.000    0.000    0.000 
#
# Total GULP energy -156142.142662 kJ/mol
# GULP energy per Si atom -5576.505095 kJ/mol
# Density = 1.741840 g / cm^3
# Si number density = 17.458131 Si / 1000 Ang^3
#
#
#
# Elastic Constant Matrix: (Units=GPa)
#
#
# Indices 1 2 3 4 5 6 
#
# 1 49.4277 54.6974 33.9073 0.0000 29.1057 0.0000
# 2 54.6974 181.5736 70.7368 0.0000 52.1303 0.0000
# 3 33.9073 70.7368 69.2504 0.0000 35.3211 0.0000
# 4 0.0000 0.0000 0.0000 24.3243 0.0000 0.4866
# 5 29.1057 52.1303 35.3211 0.0000 32.4388 0.0000
# 6 0.0000 0.0000 0.0000 0.4866 0.0000 24.1746
#
#
#
# Elastic Compliance Matrix: (Units=1/GPa)
#
#
# Indices 1 2 3 4 5 6 
#
# 1 0.044189 -0.003343 -0.001662 0.000000 -0.032467 0.000000
# 2 -0.003343 0.011187 -0.004837 0.000000 -0.009712 0.000000
# 3 -0.001662 -0.004837 0.034792 0.000000 -0.028619 0.000000
# 4 0.000000 0.000000 0.000000 0.041128 0.000000 -0.000828
# 5 -0.032467 -0.009712 -0.028619 0.000000 0.106728 0.000000
# 6 0.000000 0.000000 0.000000 -0.000828 0.000000 0.041382
#
#
# Mechanical properties :
#
#
# Convention : Reuss Voigt Hill
#
# Bulk Modulus (GPa) = 14.18755 68.77051 41.47903
# Shear Modulus (GPa) = 15.49984 25.58158 20.54071
#
# Velocity S-wave (km/s) = 2.98288 3.83209 3.43384
# Velocity P-wave (km/s) = 4.47299 7.68486 6.28748
#
# Compressibility (1/GPa) = 0.07048432
#
# Stress axis : x y z
#
# Youngs Moduli (GPa) = 22.62998 89.38891 28.74242
#
# Poissons Ratio (x) = 0.29879 0.04778
# Poissons Ratio (y) = 0.07564 0.13902
# Poissons Ratio (z) = 0.03762 0.43235
#
# Static dielectric constant tensor:
#      x y z
#    x 1.641410 0.000000 -0.042120 
#    y 0.000000 1.589830 0.000000 
#    z -0.042120 0.000000 1.628450 
# 
# From -- ./inp_files/21958.got.cif
#   From: 2010.05.17/outbox.cif.g08.bks.cpg/sg13_11_cif.got.tgz:21958.got - 2010.06.03 16:44:36.
