data_PCOD9226140
_publ_section_title
;
Structure prediction by ZEFSAII (Michael W. Deem and Ramdas Pophale) SiO2 
 PCOD9226140
Probable space group: P 2/C
;
_chemical_formula_sum "Si O2"
_cell_formula_units_Z 20
_cell_length_a 16.314108
_cell_length_b 9.576485
_cell_length_c 5.387532
_cell_angle_alpha 90.000000
_cell_angle_beta 108.368838
_cell_angle_gamma 90.000000
_cell_volume 798.817001
_symmetry_space_group_name_H-M "P 2/C"
_symmetry_group_IT_number 13
_symmetry_cell_setting 'monoclinic'
loop_
_space_group_symop_operation_xyz
x,y,z
-x,y,1/2-z
-x,-y,-z
x,-y,1/2+z
loop_
_atom_site_type_symbol
_atom_site_label
_atom_site_fract_x
_atom_site_fract_y
_atom_site_fract_z
Si Si1 0.912921 0.828703 0.318482
Si Si2 0.208883 0.053078 0.110926
Si Si3 0.600681 0.332972 0.387085
Si Si4 0.671644 0.352726 0.954899
Si Si5 0.126357 0.421019 0.390798
O O1 0.912736 0.720949 0.543242
O O2 0.000000 0.821323 0.250000
O O3 0.882332 0.972879 0.413888
O O4 0.829310 0.806997 0.052492
O O5 0.250607 0.034768 0.422298
O O6 0.500000 0.309729 0.250000
O O7 0.635444 0.275332 0.679601
O O8 0.619514 0.499852 0.422513
O O9 0.653155 0.279822 0.198911
O O10 0.770406 0.395270 0.011538
O O11 0.103241 0.472914 0.094351
#
# Coordination Sequence:
#
# PCOD9226140 Si02
#       5
#     4   4   4   4   4
#     4  10  22  37  59  78  98 132 180 228 264 300
#     4   8  19  36  58  80  96 114 167 236 281 294
#     4  10  16  26  47  67  87 129 178 209 231 275
#     4  10  16  30  41  63  97 132 169 188 245 296
#     4  12  24  37  49  70 112 153 171 193 254 325
#
# _framework density 25.037022
#
# number of rings (size 3 to 8) (size 9 to 14) (size 15 to 20)
#    1.200    0.800    4.000    3.600    2.800    0.800 
#    0.000    0.000    0.000    0.000    0.000    0.000 
#    0.000    0.000    0.000   30.600    0.000    0.000 
#
# Total GULP energy -111627.119449 kJ/mol
# GULP energy per Si atom -5581.355972 kJ/mol
# Density = 2.498004 g / cm^3
# Si number density = 25.037022 Si / 1000 Ang^3
#
#
#
# Elastic Constant Matrix: (Units=GPa)
#
#
# Indices 1 2 3 4 5 6 
#
# 1 100.1010 4.4523 33.9013 0.0000 3.2671 0.0000
# 2 4.4523 27.4171 3.3236 0.0000 -0.9962 0.0000
# 3 33.9013 3.3236 209.2874 0.0000 -22.9646 0.0000
# 4 0.0000 0.0000 0.0000 31.1554 0.0000 -9.7661
# 5 3.2671 -0.9962 -22.9646 0.0000 34.8144 0.0000
# 6 0.0000 0.0000 0.0000 -9.7661 0.0000 17.2320
#
#
#
# Elastic Compliance Matrix: (Units=1/GPa)
#
#
# Indices 1 2 3 4 5 6 
#
# 1 0.010811 -0.001601 -0.001986 0.000000 -0.002370 0.000000
# 2 -0.001601 0.036798 -0.000208 0.000000 0.001066 0.000000
# 3 -0.001986 -0.000208 0.005523 0.000000 0.003823 0.000000
# 4 0.000000 0.000000 0.000000 0.039031 0.000000 0.022121
# 5 -0.002370 0.001066 0.003823 0.000000 0.031499 0.000000
# 6 0.000000 0.000000 0.000000 0.022121 0.000000 0.070568
#
#
# Mechanical properties :
#
#
# Convention : Reuss Voigt Hill
#
# Bulk Modulus (GPa) = 21.95807 46.68442 34.32124
# Shear Modulus (GPa) = 23.04149 36.31557 29.67853
#
# Velocity S-wave (km/s) = 3.03693 3.81264 3.44668
# Velocity P-wave (km/s) = 4.59201 6.16995 5.43851
#
# Compressibility (1/GPa) = 0.04554135
#
# Stress axis : x y z
#
# Youngs Moduli (GPa) = 92.49804 27.17569 181.07329
#
# Poissons Ratio (x) = 0.04351 0.35959
# Poissons Ratio (y) = 0.14809 0.03767
# Poissons Ratio (z) = 0.18369 0.00565
#
# Static dielectric constant tensor:
#      x y z
#    x 1.920040 0.000000 0.031570 
#    y 0.000000 2.080470 0.000000 
#    z 0.031570 0.000000 2.226210 
# 
# From -- ./inp_files/4767.got.cif
#   From: 2010.05.17/outbox.cif.g08.bks.cpg/sg13_3_cif.got.tgz:4767.got - 2010.06.03 16:44:36.
