data_PCOD9226766
_publ_section_title
;
Structure prediction by ZEFSAII (Michael W. Deem and Ramdas Pophale) SiO2 
 PCOD9226766
Probable space group: P 2/C
;
_chemical_formula_sum "Si O2"
_cell_formula_units_Z 20
_cell_length_a 26.914091
_cell_length_b 6.564130
_cell_length_c 5.173466
_cell_angle_alpha 90.000000
_cell_angle_beta 66.829266
_cell_angle_gamma 90.000000
_cell_volume 840.258596
_symmetry_space_group_name_H-M "P 2/C"
_symmetry_group_IT_number 13
_symmetry_cell_setting 'monoclinic'
loop_
_space_group_symop_operation_xyz
x,y,z
-x,y,1/2-z
-x,-y,-z
x,-y,1/2+z
loop_
_atom_site_type_symbol
_atom_site_label
_atom_site_fract_x
_atom_site_fract_y
_atom_site_fract_z
Si Si1 0.558693 0.244442 0.009540
Si Si2 0.397591 0.208014 0.078982
Si Si3 0.829936 0.359849 0.157916
Si Si4 0.943093 0.359026 0.810687
Si Si5 0.712484 0.644531 0.852271
O O1 0.500000 0.266519 0.250000
O O2 0.602745 0.302765 0.135213
O O3 0.573884 0.007220 0.929420
O O4 0.564790 0.322469 0.705894
O O5 0.337960 0.205098 0.082002
O O6 0.830567 0.455653 0.444135
O O7 0.772109 0.254771 0.231057
O O8 0.886396 0.247388 0.983690
O O9 0.943064 0.455940 0.523878
O O10 0.000000 0.249082 0.750000
O O11 0.709213 0.514368 0.121254
#
# Coordination Sequence:
#
# PCOD9226766 Si02
#       5
#     4   4   4   4   4
#     4  10  19  33  53  67  78  99 131 176 214 239
#     4  10  18  30  49  68  83 104 135 167 201 243
#     4   8  14  23  34  49  72 104 135 157 185 227
#     4   8  12  18  29  45  65  92 129 166 190 211
#     4  10  19  30  43  61  88 117 138 158 192 246
#
# _framework density 23.802195000000001
#
# number of rings (size 3 to 8) (size 9 to 14) (size 15 to 20)
#    0.000    2.800    0.000    4.200    0.000    0.000 
#    0.000    0.000    0.000   20.400    0.000    0.000 
#    0.000    0.000    0.000    7.200    0.000   10.400 
#
# Total GULP energy -111444.111965 kJ/mol
# GULP energy per Si atom -5572.205598 kJ/mol
# Density = 2.374802 g / cm^3
# Si number density = 23.802195 Si / 1000 Ang^3
#
#
#
# Elastic Constant Matrix: (Units=GPa)
#
#
# Indices 1 2 3 4 5 6 
#
# 1 160.6484 -9.8568 34.0509 0.0000 -31.9713 0.0000
# 2 -9.8568 41.2322 -17.7894 0.0000 -4.0645 0.0000
# 3 34.0509 -17.7894 121.8103 0.0000 23.1341 0.0000
# 4 0.0000 0.0000 0.0000 30.0689 0.0000 27.4043
# 5 -31.9713 -4.0645 23.1341 0.0000 75.6487 0.0000
# 6 0.0000 0.0000 0.0000 27.4043 0.0000 31.1433
#
#
#
# Elastic Compliance Matrix: (Units=1/GPa)
#
#
# Indices 1 2 3 4 5 6 
#
# 1 0.007711 0.001049 -0.002794 0.000000 0.004170 0.000000
# 2 0.001049 0.026031 0.003353 0.000000 0.000816 0.000000
# 3 -0.002794 0.003353 0.010267 0.000000 -0.004140 0.000000
# 4 0.000000 0.000000 0.000000 0.167932 0.000000 -0.147771
# 5 0.004170 0.000816 -0.004140 0.000000 0.016291 0.000000
# 6 0.000000 0.000000 0.000000 -0.147771 0.000000 0.162139
#
#
# Mechanical properties :
#
#
# Convention : Reuss Voigt Hill
#
# Bulk Modulus (GPa) = 21.17547 37.38895 29.28221
# Shear Modulus (GPa) = 12.41010 48.52459 30.46734
#
# Velocity S-wave (km/s) = 2.28586 4.52005 3.58162
# Velocity P-wave (km/s) = 3.98530 6.55618 5.42522
#
# Compressibility (1/GPa) = 0.04722446
#
# Stress axis : x y z
#
# Youngs Moduli (GPa) = 129.67989 38.41596 97.40216
#
# Poissons Ratio (x) = -0.04029 0.27218
# Poissons Ratio (y) = -0.13602 -0.32662
# Poissons Ratio (z) = 0.36238 -0.12882
#
# Static dielectric constant tensor:
#      x y z
#    x 1.990580 0.000000 -0.020320 
#    y 0.000000 7.541980 0.000000 
#    z -0.020320 0.000000 1.993040 
# 
# From -- ./inp_files/7259.got.cif
#   From: 2010.05.17/outbox.cif.g08.bks.cpg/sg13_4_cif.got.tgz:7259.got - 2010.06.03 16:44:36.
