data_PCOD9226851
_publ_section_title
;
Structure prediction by ZEFSAII (Michael W. Deem and Ramdas Pophale) SiO2 
 PCOD9226851
Probable space group: P 2/C
;
_chemical_formula_sum "Si O2"
_cell_formula_units_Z 30
_cell_length_a 8.849342
_cell_length_b 5.563872
_cell_length_c 26.022664
_cell_angle_alpha 90.000000
_cell_angle_beta 89.546217
_cell_angle_gamma 90.000000
_cell_volume 1281.227474
_symmetry_space_group_name_H-M "P 2/C"
_symmetry_group_IT_number 13
_symmetry_cell_setting 'monoclinic'
loop_
_space_group_symop_operation_xyz
x,y,z
-x,y,1/2-z
-x,-y,-z
x,-y,1/2+z
loop_
_atom_site_type_symbol
_atom_site_label
_atom_site_fract_x
_atom_site_fract_y
_atom_site_fract_z
Si Si1 0.500000 0.813049 0.250000
Si Si2 0.351746 0.743237 0.457124
Si Si3 0.702732 0.758458 0.494922
Si Si4 0.837684 0.276903 0.223874
Si Si5 0.078521 0.767440 0.306748
Si Si6 0.655707 0.194297 0.318208
Si Si7 0.521700 0.421124 0.646948
Si Si8 0.798588 0.174448 0.882412
O O1 0.616217 0.977989 0.280072
O O2 0.438254 0.662941 0.296753
O O3 0.524493 0.754085 0.478733
O O4 0.272602 0.506862 0.481558
O O5 0.374987 0.682881 0.397338
O O6 0.281252 0.003781 0.469633
O O7 0.801128 0.798835 0.443408
O O8 0.735798 0.350879 0.274131
O O9 0.000000 0.248199 0.250000
O O10 0.825482 0.017663 0.195057
O O11 0.845733 0.505891 0.187188
O O12 0.948527 0.772612 0.350272
O O13 0.000000 0.756501 0.250000
O O14 0.505221 0.295567 0.345093
O O15 0.757277 0.095082 0.363574
O O16 0.348257 0.334486 0.634027
#
# Coordination Sequence:
#
# PCOD9226851 Si02
#       8
#     2   4   4   4   4   4   4   4
#     4  10  24  36  50  78 100 142 196 222 260 318
#     4   9  19  32  48  68 103 133 181 211 259 306
#     4   9  19  30  46  75  99 138 173 213 251 323
#     4  10  19  31  50  72 105 136 171 207 263 319
#     4  10  18  31  45  76 101 139 166 207 252 324
#     4  11  21  35  51  74 107 150 178 222 265 314
#     4  10  21  34  52  70 102 149 175 226 261 311
#     4  10  20  30  52  74 110 141 175 207 270 317
#
# _framework density 23.415044999999999
#
# number of rings (size 3 to 8) (size 9 to 14) (size 15 to 20)
#    0.000    2.133    2.667    2.000   13.067    0.000 
#    0.000    0.000    0.000    0.000    0.000    0.000 
#    0.000    6.400    0.000    0.000    0.000    0.000 
#
# Total GULP energy -167234.848219 kJ/mol
# GULP energy per Si atom -5574.494941 kJ/mol
# Density = 2.336175 g / cm^3
# Si number density = 23.415045 Si / 1000 Ang^3
#
#
#
# Elastic Constant Matrix: (Units=GPa)
#
#
# Indices 1 2 3 4 5 6 
#
# 1 22.4249 16.0190 21.0890 0.0000 -17.8313 0.0000
# 2 16.0190 158.1991 80.1684 0.0000 -17.7035 0.0000
# 3 21.0890 80.1684 184.2555 0.0000 -38.1896 0.0000
# 4 0.0000 0.0000 0.0000 -99.0576 0.0000 -21.8880
# 5 -17.8313 -17.7035 -38.1896 0.0000 33.9522 0.0000
# 6 0.0000 0.0000 0.0000 -21.8880 0.0000 19.7427
#
#
#
# Elastic Compliance Matrix: (Units=1/GPa)
#
#
# Indices 1 2 3 4 5 6 
#
# 1 0.078539 -0.004002 0.001133 0.000000 0.040435 0.000000
# 2 -0.004002 0.008316 -0.003517 0.000000 -0.001721 0.000000
# 3 0.001133 -0.003517 0.008569 0.000000 0.008399 0.000000
# 4 0.000000 0.000000 0.000000 -0.008109 0.000000 -0.008990
# 5 0.040435 -0.001721 0.008399 0.000000 0.059239 0.000000
# 6 0.000000 0.000000 0.000000 -0.008990 0.000000 0.040685
#
#
# Mechanical properties :
#
#
# Convention : Reuss Voigt Hill
#
# Bulk Modulus (GPa) = 12.09901 66.60360 39.35130
# Shear Modulus (GPa) = 21.97210 7.43434 14.70322
#
# Velocity S-wave (km/s) = 3.06661 1.78379 2.50859
# Velocity P-wave (km/s) = 4.20919 5.72268 5.02326
#
# Compressibility (1/GPa) = 0.08265139
#
# Stress axis : x y z
#
# Youngs Moduli (GPa) = 12.73255 120.25039 116.70440
#
# Poissons Ratio (x) = 0.48122 -0.13219
# Poissons Ratio (y) = 0.05095 0.41045
# Poissons Ratio (z) = -0.01442 0.42292
#
# Static dielectric constant tensor:
#      x y z
#    x 1.890510 0.000000 0.013830 
#    y 0.000000 2.058200 0.000000 
#    z 0.013830 0.000000 2.007740 
# 
# From -- ./inp_files/85820.got.cif
#   From: 2010.05.17/outbox.cif.g08.bks.cpg/sg13_43_cif.got.tgz:85820.got - 2010.06.03 16:44:36.
