data_PCOD9226031
_publ_section_title
;
Structure prediction by ZEFSAII (Michael W. Deem and Ramdas Pophale) SiO2 
 PCOD9226031
Probable space group: P 2/C
;
_chemical_formula_sum "Si O2"
_cell_formula_units_Z 24
_cell_length_a 25.784605
_cell_length_b 6.820166
_cell_length_c 31.494344
_cell_angle_alpha 90.000000
_cell_angle_beta 9.785452
_cell_angle_gamma 90.000000
_cell_volume 941.310490
_symmetry_space_group_name_H-M "P 2/C"
_symmetry_group_IT_number 13
_symmetry_cell_setting 'monoclinic'
loop_
_space_group_symop_operation_xyz
x,y,z
-x,y,1/2-z
-x,-y,-z
x,-y,1/2+z
loop_
_atom_site_type_symbol
_atom_site_label
_atom_site_fract_x
_atom_site_fract_y
_atom_site_fract_z
Si Si1 0.230481 0.400491 0.662335
Si Si2 0.205917 0.782936 0.043660
Si Si3 0.340389 0.071792 0.171266
Si Si4 0.353397 0.967970 0.757679
Si Si5 0.648195 0.583856 0.170732
Si Si6 0.325980 0.501394 0.760015
O O1 0.541022 0.296319 0.426223
O O2 0.373763 0.535971 0.510269
O O3 0.031695 0.218172 0.803563
O O4 0.994439 0.518455 0.881153
O O5 0.000000 0.722748 0.250000
O O6 0.388910 0.971296 0.913280
O O7 0.427370 0.607171 0.851237
O O8 0.412387 0.978429 0.160301
O O9 0.981971 0.030425 0.457453
O O10 0.500000 0.000000 0.000000
O O11 0.339078 0.728570 0.763932
O O12 0.500000 0.696959 0.250000
O O13 0.650627 0.641329 0.218316
O O14 0.000000 0.500000 0.000000
#
# Coordination Sequence:
#
# PCOD9226031 Si02
#       6
#     4   4   4   4   4   4
#     4  10  19  31  51  74  99 124 158 198 247 291
#     4  10  14  30  48  69  97 121 153 205 243 277
#     4  10  17  28  45  68 100 128 148 188 237 280
#     4   9  19  30  45  73  97 120 160 193 233 290
#     4   9  18  28  48  74  98 121 161 204 245 289
#     4  10  19  32  47  69  99 128 156 199 248 291
#
# _framework density 25.496369000000001
#
# number of rings (size 3 to 8) (size 9 to 14) (size 15 to 20)
#    0.000    2.333    5.000    2.000    0.000    0.667 
#    0.000    0.000    0.000    0.000    0.000   60.667 
#    0.000    6.667    0.000    0.000    0.000    0.000 
#
# Total GULP energy -133645.700985 kJ/mol
# GULP energy per Si atom -5568.570874 kJ/mol
# Density = 2.543834 g / cm^3
# Si number density = 25.496369 Si / 1000 Ang^3
#
#
#
# Elastic Constant Matrix: (Units=GPa)
#
#
# Indices 1 2 3 4 5 6 
#
# 1 136.2716 -4.4384 46.6061 0.0001 9.5382 -0.0001
# 2 -4.4384 27.7538 16.3803 0.0000 -0.8869 0.0000
# 3 46.6061 16.3803 169.0205 0.0001 18.4207 -0.0001
# 4 0.0001 0.0000 0.0001 24.8253 -0.0001 -13.3381
# 5 9.5382 -0.8869 18.4207 -0.0001 59.2993 0.0001
# 6 -0.0001 0.0000 -0.0001 -13.3381 0.0001 15.4755
#
#
#
# Elastic Compliance Matrix: (Units=1/GPa)
#
#
# Indices 1 2 3 4 5 6 
#
# 1 0.008324 0.002796 -0.002510 0.000000 -0.000517 0.000000
# 2 0.002796 0.039339 -0.004760 0.000000 0.001617 0.000000
# 3 -0.002510 -0.004760 0.007280 0.000000 -0.001929 0.000000
# 4 0.000000 0.000000 0.000000 0.075023 0.000000 0.064661
# 5 -0.000517 0.001617 -0.001929 0.000000 0.017570 0.000000
# 6 0.000000 0.000000 0.000000 0.064661 0.000000 0.120349
#
#
# Mechanical properties :
#
#
# Convention : Reuss Voigt Hill
#
# Bulk Modulus (GPa) = 21.74107 50.01576 35.87841
# Shear Modulus (GPa) = 17.11366 38.21986 27.66676
#
# Velocity S-wave (km/s) = 2.59360 3.87593 3.29770
# Velocity P-wave (km/s) = 4.18505 6.29999 5.34811
#
# Compressibility (1/GPa) = 0.04599590
#
# Stress axis : x y z
#
# Youngs Moduli (GPa) = 120.13514 25.42002 137.36238
#
# Poissons Ratio (x) = -0.07107 0.34476
# Poissons Ratio (y) = -0.33589 0.65380
# Poissons Ratio (z) = 0.30152 0.12099
#
# Static dielectric constant tensor:
#      x y z
#    x 2.349860 0.000000 -0.094320 
#    y 0.000000 2.205630 0.000000 
#    z -0.094320 0.000000 1.986070 
# 
# From -- ./inp_files/97685.got.cif
#   From: 2010.05.17/outbox.cif.g08.bks.cpg/sg13_49_cif.got.tgz:97685.got - 2010.06.03 16:44:36.
