data_PCOD9226417
_publ_section_title
;
Structure prediction by ZEFSAII (Michael W. Deem and Ramdas Pophale) SiO2 
 PCOD9226417
Probable space group: P 2/C
;
_chemical_formula_sum "Si O2"
_cell_formula_units_Z 20
_cell_length_a 13.272493
_cell_length_b 9.924403
_cell_length_c 7.392050
_cell_angle_alpha 90.000000
_cell_angle_beta 119.852887
_cell_angle_gamma 90.000000
_cell_volume 844.489625
_symmetry_space_group_name_H-M "P 2/C"
_symmetry_group_IT_number 13
_symmetry_cell_setting 'monoclinic'
loop_
_space_group_symop_operation_xyz
x,y,z
-x,y,1/2-z
-x,-y,-z
x,-y,1/2+z
loop_
_atom_site_type_symbol
_atom_site_label
_atom_site_fract_x
_atom_site_fract_y
_atom_site_fract_z
Si Si1 0.809748 0.281182 0.335015
Si Si2 0.578232 0.116789 0.475506
Si Si3 0.868316 0.564070 0.210147
Si Si4 0.949695 0.798164 0.506196
Si Si5 0.724459 0.892693 0.430534
O O1 0.833338 0.416922 0.240326
O O2 0.781232 0.353507 0.500209
O O3 0.929576 0.200603 0.494619
O O4 0.738617 0.189786 0.130969
O O5 0.500000 0.187607 0.250000
O O6 0.638433 0.177745 0.707717
O O7 0.500000 0.000000 0.500000
O O8 0.675964 0.037179 0.447709
O O9 0.885016 0.661638 0.395226
O O10 0.000000 0.554673 0.250000
O O11 0.846926 0.905048 0.433426
O O12 0.000000 0.791310 0.750000
#
# Coordination Sequence:
#
# PCOD9226417 Si02
#       5
#     4   4   4   4   4
#     4  10  18  30  49  80 114 147 174 202 242 304
#     4   9  20  38  57  74  90 122 176 232 276 313
#     4  10  17  28  48  75 117 154 176 199 228 290
#     4   9  17  30  48  78 113 143 171 199 241 305
#     4  10  19  34  55  77 101 130 174 220 264 312
#
# _framework density 23.682943999999999
#
# number of rings (size 3 to 8) (size 9 to 14) (size 15 to 20)
#    0.000    2.400    0.000    6.600    0.000    3.200 
#    0.000    9.000    0.000    0.000    0.000   72.800 
#    0.000    0.000    0.000    0.000    0.000    0.000 
#
# Total GULP energy -111353.413981 kJ/mol
# GULP energy per Si atom -5567.670699 kJ/mol
# Density = 2.362904 g / cm^3
# Si number density = 23.682944 Si / 1000 Ang^3
#
#
#
# Elastic Constant Matrix: (Units=GPa)
#
#
# Indices 1 2 3 4 5 6 
#
# 1 46.7404 7.2059 -4.2298 0.0000 3.6478 0.0000
# 2 7.2059 65.4293 21.3165 0.0000 12.9036 0.0000
# 3 -4.2298 21.3165 211.5719 0.0000 1.5355 0.0000
# 4 0.0000 0.0000 0.0000 40.8990 0.0000 -6.9792
# 5 3.6478 12.9036 1.5355 0.0000 21.2165 0.0000
# 6 0.0000 0.0000 0.0000 -6.9792 0.0000 3.6385
#
#
#
# Elastic Compliance Matrix: (Units=1/GPa)
#
#
# Indices 1 2 3 4 5 6 
#
# 1 0.021983 -0.002143 0.000674 0.000000 -0.002525 0.000000
# 2 -0.002143 0.018189 -0.001799 0.000000 -0.010564 0.000000
# 3 0.000674 -0.001799 0.004917 0.000000 0.000622 0.000000
# 4 0.000000 0.000000 0.000000 0.036348 0.000000 0.069722
# 5 -0.002525 -0.010564 0.000622 0.000000 0.053947 0.000000
# 6 0.000000 0.000000 0.000000 0.069722 0.000000 0.408582
#
#
# Mechanical properties :
#
#
# Convention : Reuss Voigt Hill
#
# Bulk Modulus (GPa) = 25.93790 41.36966 33.65378
# Shear Modulus (GPa) = 8.87543 33.11404 20.99474
#
# Velocity S-wave (km/s) = 1.93797 3.74334 2.98063
# Velocity P-wave (km/s) = 3.99795 6.01577 5.10750
#
# Compressibility (1/GPa) = 0.03855363
#
# Stress axis : x y z
#
# Youngs Moduli (GPa) = 45.48946 54.97829 203.38807
#
# Poissons Ratio (x) = 0.11779 -0.13702
# Poissons Ratio (y) = 0.09746 0.36585
# Poissons Ratio (z) = -0.03065 0.09889
#
# Static dielectric constant tensor:
#      x y z
#    x 2.131960 0.000000 0.002880 
#    y 0.000000 1.906110 0.000000 
#    z 0.002880 0.000000 1.978100 
# 
# From -- ./inp_files/18419.got.cif
#   From: 2010.05.17/outbox.cif.g08.bks.cpg/sg13_10_cif.got.tgz:18419.got - 2010.06.03 16:44:36.
