data_PCOD9226437
_publ_section_title
;
Structure prediction by ZEFSAII (Michael W. Deem and Ramdas Pophale) SiO2 
 PCOD9226437
Probable space group: P 2/C
;
_chemical_formula_sum "Si O2"
_cell_formula_units_Z 28
_cell_length_a 21.708273
_cell_length_b 14.225707
_cell_length_c 10.888303
_cell_angle_alpha 90.000000
_cell_angle_beta 158.414579
_cell_angle_gamma 90.000000
_cell_volume 1237.014824
_symmetry_space_group_name_H-M "P 2/C"
_symmetry_group_IT_number 13
_symmetry_cell_setting 'monoclinic'
loop_
_space_group_symop_operation_xyz
x,y,z
-x,y,1/2-z
-x,-y,-z
x,-y,1/2+z
loop_
_atom_site_type_symbol
_atom_site_label
_atom_site_fract_x
_atom_site_fract_y
_atom_site_fract_z
Si Si1 0.708309 0.917993 0.126318
Si Si2 0.645701 0.622540 0.122566
Si Si3 0.862810 0.727196 0.357264
Si Si4 0.957263 0.600550 0.977750
Si Si5 0.272929 0.585171 0.735955
Si Si6 0.569053 0.260534 0.108125
Si Si7 0.331917 0.948572 0.724729
O O1 0.500000 0.898530 0.750000
O O2 0.754363 0.947227 0.070564
O O3 0.824299 0.825403 0.355266
O O4 0.741738 0.995195 0.294851
O O5 0.814941 0.648072 0.366188
O O6 0.664961 0.515214 0.198820
O O7 0.500000 0.621367 0.750000
O O8 0.594743 0.703843 0.123419
O O9 0.022405 0.688279 0.578176
O O10 0.714248 0.729244 0.980588
O O11 0.107476 0.612679 0.353241
O O12 0.000000 0.500000 0.000000
O O13 0.784361 0.587860 0.729486
O O14 0.403601 0.664615 0.946536
O O15 0.604516 0.156298 0.125596
O O16 0.500000 0.000000 0.000000
#
# Coordination Sequence:
#
# PCOD9226437 Si02
#       7
#     4   4   4   4   4   4   4
#     4   9  16  28  50  76 103 137 174 219 271 327
#     4  10  17  29  49  75 107 135 167 209 262 326
#     4   9  16  29  51  74  94 132 176 212 254 316
#     4  10  19  34  52  69  99 136 183 220 249 300
#     4  10  20  32  51  73 101 139 178 213 258 314
#     4   9  18  30  47  74 104 132 167 211 263 325
#     4   9  16  29  49  71 104 135 173 211 267 328
#
# _framework density 22.635137
#
# number of rings (size 3 to 8) (size 9 to 14) (size 15 to 20)
#    0.000    2.571    1.429    3.429    0.000    0.000 
#    0.000    2.143    3.143    0.857    0.000    0.000 
#    0.000    0.000    0.000    0.000    0.000    0.000 
#
# Total GULP energy -155870.234431 kJ/mol
# GULP energy per Si atom -5566.794087 kJ/mol
# Density = 2.258362 g / cm^3
# Si number density = 22.635137 Si / 1000 Ang^3
#
#
#
# Elastic Constant Matrix: (Units=GPa)
#
#
# Indices 1 2 3 4 5 6 
#
# 1 122.0795 78.5394 16.5351 0.0000 10.6487 0.0000
# 2 78.5394 166.2013 -2.9461 0.0000 3.6957 0.0000
# 3 16.5351 -2.9461 51.4369 0.0000 -9.2654 0.0000
# 4 0.0000 0.0000 0.0000 -1.9590 0.0000 2.4719
# 5 10.6487 3.6957 -9.2654 0.0000 19.8149 0.0000
# 6 0.0000 0.0000 0.0000 2.4719 0.0000 54.9064
#
#
#
# Elastic Compliance Matrix: (Units=1/GPa)
#
#
# Indices 1 2 3 4 5 6 
#
# 1 0.014164 -0.006600 -0.006640 0.000000 -0.009486 0.000000
# 2 -0.006600 0.009119 0.003250 0.000000 0.003366 0.000000
# 3 -0.006640 0.003250 0.024346 0.000000 0.014347 0.000000
# 4 0.000000 0.000000 0.000000 -0.483028 0.000000 0.021746
# 5 -0.009486 0.003366 0.014347 0.000000 0.061646 0.000000
# 6 0.000000 0.000000 0.000000 0.021746 0.000000 0.017234
#
#
# Mechanical properties :
#
#
# Convention : Reuss Voigt Hill
#
# Bulk Modulus (GPa) = 36.16729 58.21939 47.19334
# Shear Modulus (GPa) = -15.27545 31.05842 7.89149
#
# Velocity S-wave (km/s) = -2.60062 3.70825 1.86921
# Velocity P-wave (km/s) = 2.64489 6.64165 5.05504
#
# Compressibility (1/GPa) = 0.02764929
#
# Stress axis : x y z
#
# Youngs Moduli (GPa) = 70.59922 109.66638 41.07399
#
# Poissons Ratio (x) = 0.72383 0.27274
# Poissons Ratio (y) = 0.46597 -0.13351
# Poissons Ratio (z) = 0.46879 -0.35646
#
# Static dielectric constant tensor:
#      x y z
#    x 1.726670 0.000000 0.681940 
#    y 0.000000 1.900600 0.000000 
#    z 0.681940 0.000000 -0.596000 
# 
# From -- ./inp_files/40838.got.cif
#   From: 2010.05.17/outbox.cif.g08.bks.cpg/sg13_21_cif.got.tgz:40838.got - 2010.06.03 16:44:36.
