data_PCOD9226299
_publ_section_title
;
Structure prediction by ZEFSAII (Michael W. Deem and Ramdas Pophale) SiO2 
 PCOD9226299
Probable space group: P 2/C
;
_chemical_formula_sum "Si O2"
_cell_formula_units_Z 22
_cell_length_a 7.336670
_cell_length_b 23.972259
_cell_length_c 5.587859
_cell_angle_alpha 90.000000
_cell_angle_beta 75.569330
_cell_angle_gamma 90.000000
_cell_volume 951.766784
_symmetry_space_group_name_H-M "P 2/C"
_symmetry_group_IT_number 13
_symmetry_cell_setting 'monoclinic'
loop_
_space_group_symop_operation_xyz
x,y,z
-x,y,1/2-z
-x,-y,-z
x,-y,1/2+z
loop_
_atom_site_type_symbol
_atom_site_label
_atom_site_fract_x
_atom_site_fract_y
_atom_site_fract_z
Si Si1 0.721431 0.021791 0.440918
Si Si2 0.306467 0.648343 0.454302
Si Si3 0.000000 0.709710 0.250000
Si Si4 0.790201 0.746370 0.714952
Si Si5 0.716196 0.480844 0.625780
Si Si6 0.393832 0.142065 0.037771
O O1 0.736540 0.088430 0.460212
O O2 0.500000 0.000000 0.500000
O O3 0.799589 0.995683 0.658624
O O4 0.500000 0.659725 0.250000
O O5 0.120365 0.669650 0.379741
O O6 0.302050 0.686973 0.690999
O O7 0.288190 0.582045 0.474625
O O8 0.837217 0.747771 0.420153
O O9 0.685749 0.797745 0.865116
O O10 0.000000 0.748335 0.750000
O O11 0.500000 0.498929 0.750000
O O12 0.795721 0.515809 0.373266
O O13 0.500000 0.125397 0.250000
O O14 0.500000 0.147582 0.750000
#
# Coordination Sequence:
#
# PCOD9226299 Si02
#       6
#     4   4   2   4   4   4
#     4  10  16  33  53  89 124 155 189 262 311 362
#     4  10  22  41  67  92 126 171 214 267 328 389
#     4  10  24  44  60  88 132 170 216 270 332 376
#     4  10  25  42  59  86 129 168 210 267 324 374
#     4   9  19  36  61  96 128 161 210 263 321 385
#     4  12  23  36  65  97 121 157 217 259 309 385
#
# _framework density 23.114906000000001
#
# number of rings (size 3 to 8) (size 9 to 14) (size 15 to 20)
#    0.000    1.818    3.636    0.545   10.182    0.000 
#    0.000    0.909    0.000    1.091    0.000    0.000 
#    0.000    0.000    0.000    0.000    0.000    0.000 
#
# Total GULP energy -122597.349103 kJ/mol
# GULP energy per Si atom -5572.606777 kJ/mol
# Density = 2.306230 g / cm^3
# Si number density = 23.114906 Si / 1000 Ang^3
#
#
#
# Elastic Constant Matrix: (Units=GPa)
#
#
# Indices 1 2 3 4 5 6 
#
# 1 45.5636 -2.1978 25.3679 0.0000 -4.0473 0.0000
# 2 -2.1978 154.5331 92.3856 0.0000 -13.7225 0.0000
# 3 25.3679 92.3856 182.0602 0.0000 -4.0647 0.0000
# 4 0.0000 0.0000 0.0000 -144.9441 0.0000 127.7260
# 5 -4.0473 -13.7225 -4.0647 0.0000 28.3974 0.0000
# 6 0.0000 0.0000 0.0000 127.7260 0.0000 -91.8594
#
#
#
# Elastic Compliance Matrix: (Units=1/GPa)
#
#
# Indices 1 2 3 4 5 6 
#
# 1 0.025672 0.004120 -0.005559 0.000000 0.004854 0.000000
# 2 0.004120 0.010384 -0.005737 0.000000 0.004784 0.000000
# 3 -0.005559 -0.005737 0.009128 0.000000 -0.002258 0.000000
# 4 0.000000 0.000000 0.000000 0.030625 0.000000 0.042583
# 5 0.004854 0.004784 -0.002258 0.000000 0.037895 0.000000
# 6 0.000000 0.000000 0.000000 0.042583 0.000000 0.048324
#
#
# Mechanical properties :
#
#
# Convention : Reuss Voigt Hill
#
# Bulk Modulus (GPa) = 32.43380 68.14091 50.28736
# Shear Modulus (GPa) = 26.78698 -23.90780 1.43959
#
# Velocity S-wave (km/s) = 3.40790 -3.21955 0.79003
# Velocity P-wave (km/s) = 5.43572 3.96517 4.75761
#
# Compressibility (1/GPa) = 0.03083203
#
# Stress axis : x y z
#
# Youngs Moduli (GPa) = 38.95233 96.30178 109.55444
#
# Poissons Ratio (x) = -0.39673 0.60904
# Poissons Ratio (y) = -0.16047 0.62846
# Poissons Ratio (z) = 0.21655 0.55244
#
# Static dielectric constant tensor:
#      x y z
#    x 1.924940 0.000000 0.060250 
#    y 0.000000 1.833380 0.000000 
#    z 0.060250 0.000000 2.140390 
# 
# From -- ./inp_files/2050.got.cif
#   From: 2010.05.17/outbox.cif.g08.bks.cpg/sg13_2_cif.got.tgz:2050.got - 2010.06.03 16:44:36.
