data_PCOD9226732
_publ_section_title
;
Structure prediction by ZEFSAII (Michael W. Deem and Ramdas Pophale) SiO2 
 PCOD9226732
Probable space group: P 2/C
;
_chemical_formula_sum "Si O2"
_cell_formula_units_Z 22
_cell_length_a 7.831942
_cell_length_b 8.263886
_cell_length_c 24.417755
_cell_angle_alpha 90.000000
_cell_angle_beta 130.565416
_cell_angle_gamma 90.000000
_cell_volume 1200.552195
_symmetry_space_group_name_H-M "P 2/C"
_symmetry_group_IT_number 13
_symmetry_cell_setting 'monoclinic'
loop_
_space_group_symop_operation_xyz
x,y,z
-x,y,1/2-z
-x,-y,-z
x,-y,1/2+z
loop_
_atom_site_type_symbol
_atom_site_label
_atom_site_fract_x
_atom_site_fract_y
_atom_site_fract_z
Si Si1 0.874713 0.969704 0.889067
Si Si2 0.500000 0.843587 0.250000
Si Si3 0.775842 0.607263 0.230709
Si Si4 0.086608 0.766736 0.493707
Si Si5 0.313328 0.475455 0.586408
Si Si6 0.236334 0.659188 0.685187
O O1 0.908925 0.820073 0.854887
O O2 0.645273 0.051863 0.821964
O O3 0.053263 0.114206 0.935237
O O4 0.848916 0.881631 0.942164
O O5 0.668100 0.731067 0.251166
O O6 0.574187 0.566209 0.146769
O O7 0.835701 0.448066 0.278561
O O8 0.000000 0.671092 0.250000
O O9 0.844842 0.680626 0.454688
O O10 0.254663 0.614153 0.529902
O O11 0.239131 0.551827 0.630070
O O12 0.500000 0.701151 0.750000
#
# Coordination Sequence:
#
# PCOD9226732 Si02
#       6
#     4   2   4   4   4   4
#     4  10  18  29  56  84 109 145 180 228 284 327
#     4  12  20  36  58  84 114 146 184 236 276 328
#     4  11  21  35  58  84 110 147 193 231 269 327
#     4   9  17  29  54  89 105 145 189 215 280 345
#     4   9  16  32  55  80 110 144 186 227 267 334
#     4   9  16  31  53  80 107 140 183 229 273 317
#
# _framework density 18.324902000000002
#
# number of rings (size 3 to 8) (size 9 to 14) (size 15 to 20)
#    0.000    2.182    5.455    0.000    0.000    0.000 
#    0.000    0.909    0.000   19.636    0.000    0.000 
#    0.000    0.000    0.000    0.000    0.000    0.000 
#
# Total GULP energy -122496.362021 kJ/mol
# GULP energy per Si atom -5568.016456 kJ/mol
# Density = 1.828319 g / cm^3
# Si number density = 18.324902 Si / 1000 Ang^3
#
#
#
# Elastic Constant Matrix: (Units=GPa)
#
#
# Indices 1 2 3 4 5 6 
#
# 1 58.7810 22.3958 21.2798 0.0000 15.7757 0.0000
# 2 22.3958 102.9815 55.5137 0.0000 1.1385 0.0000
# 3 21.2798 55.5137 120.4694 0.0000 3.6231 0.0000
# 4 0.0000 0.0000 0.0000 31.9160 0.0000 -9.6988
# 5 15.7757 1.1385 3.6231 0.0000 14.6925 0.0000
# 6 0.0000 0.0000 0.0000 -9.6988 0.0000 -12.2821
#
#
#
# Elastic Compliance Matrix: (Units=1/GPa)
#
#
# Indices 1 2 3 4 5 6 
#
# 1 0.026968 -0.004580 -0.001806 0.000000 -0.028155 0.000000
# 2 -0.004580 0.013701 -0.005663 0.000000 0.005252 0.000000
# 3 -0.001806 -0.005663 0.011241 0.000000 -0.000394 0.000000
# 4 0.000000 0.000000 0.000000 0.025269 0.000000 -0.019954
# 5 -0.028155 0.005252 -0.000394 0.000000 0.097983 0.000000
# 6 0.000000 0.000000 0.000000 -0.019954 0.000000 -0.065663
#
#
# Mechanical properties :
#
#
# Convention : Reuss Voigt Hill
#
# Bulk Modulus (GPa) = 35.95533 53.40115 44.67824
# Shear Modulus (GPa) = 34.99761 19.06812 27.03287
#
# Velocity S-wave (km/s) = 4.37491 3.22927 3.84500
# Velocity P-wave (km/s) = 6.72186 6.56573 6.64425
#
# Compressibility (1/GPa) = 0.02781229
#
# Stress axis : x y z
#
# Youngs Moduli (GPa) = 37.08160 72.98821 88.95894
#
# Poissons Ratio (x) = 0.33426 0.16070
# Poissons Ratio (y) = 0.16982 0.50373
# Poissons Ratio (z) = 0.06699 0.41330
#
# Static dielectric constant tensor:
#      x y z
#    x 1.585730 0.000000 -0.017910 
#    y 0.000000 1.689190 0.000000 
#    z -0.017910 0.000000 1.682820 
# 
# From -- ./inp_files/62974.got.cif
#   From: 2010.05.17/outbox.cif.g08.bks.cpg/sg13_32_cif.got.tgz:62974.got - 2010.06.03 16:44:36.
