data_PCOD9226324
_publ_section_title
;
Structure prediction by ZEFSAII (Michael W. Deem and Ramdas Pophale) SiO2 
 PCOD9226324
Probable space group: P 2/C
;
_chemical_formula_sum "Si O2"
_cell_formula_units_Z 30
_cell_length_a 11.475557
_cell_length_b 8.939147
_cell_length_c 17.645729
_cell_angle_alpha 90.000000
_cell_angle_beta 63.565521
_cell_angle_gamma 90.000000
_cell_volume 1620.868953
_symmetry_space_group_name_H-M "P 2/C"
_symmetry_group_IT_number 13
_symmetry_cell_setting 'monoclinic'
loop_
_space_group_symop_operation_xyz
x,y,z
-x,y,1/2-z
-x,-y,-z
x,-y,1/2+z
loop_
_atom_site_type_symbol
_atom_site_label
_atom_site_fract_x
_atom_site_fract_y
_atom_site_fract_z
Si Si1 0.867945 0.591133 0.553142
Si Si2 0.019984 0.245242 0.349123
Si Si3 0.756529 0.248737 0.812355
Si Si4 0.000000 0.526979 0.250000
Si Si5 0.387984 0.654849 0.612649
Si Si6 0.197266 0.904971 0.670504
Si Si7 0.329963 0.397575 0.518694
Si Si8 0.651509 0.457889 0.729518
O O1 0.916552 0.732670 0.587833
O O2 0.796807 0.625914 0.495014
O O3 0.757279 0.504933 0.635463
O O4 0.000000 0.500000 0.500000
O O5 0.122987 0.172613 0.262070
O O6 0.993097 0.412230 0.322927
O O7 0.891032 0.145097 0.375833
O O8 0.666282 0.291079 0.909498
O O9 0.686632 0.296009 0.754791
O O10 0.877703 0.363197 0.782139
O O11 0.797008 0.078835 0.812872
O O12 0.335102 0.822274 0.624283
O O13 0.338007 0.562490 0.553608
O O14 0.542410 0.635158 0.567126
O O15 0.335608 0.573412 0.703429
O O16 0.500000 0.462048 0.750000
#
# Coordination Sequence:
#
# PCOD9226324 Si02
#       8
#     4   4   4   2   4   4   4   4
#     4  12  21  36  62  95 117 143 202 267 307 331
#     4  10  19  36  59  87 110 155 207 239 296 359
#     4  11  22  37  58  90 121 157 199 247 311 366
#     4  10  16  34  60  82 108 148 204 252 284 348
#     4  10  19  39  61  82 115 162 204 246 295 367
#     4  10  20  36  60  82 119 160 197 237 300 381
#     4  10  22  35  60  89 115 152 206 257 301 348
#     4  11  21  40  63  88 118 159 208 254 297 363
#
# _framework density 18.508590999999999
#
# number of rings (size 3 to 8) (size 9 to 14) (size 15 to 20)
#    0.000    1.600    4.000    4.800    0.000    0.533 
#    0.000    2.667    2.933    0.000    0.000    0.000 
#    0.000    0.000    0.000    0.000    0.000    0.000 
#
# Total GULP energy -167285.460352 kJ/mol
# GULP energy per Si atom -5576.182012 kJ/mol
# Density = 1.846646 g / cm^3
# Si number density = 18.508591 Si / 1000 Ang^3
#
#
#
# Elastic Constant Matrix: (Units=GPa)
#
#
# Indices 1 2 3 4 5 6 
#
# 1 86.4263 27.9214 11.4391 0.0000 0.7902 0.0000
# 2 27.9214 114.7342 5.8422 0.0000 -3.6928 0.0000
# 3 11.4391 5.8422 54.1953 0.0000 -10.5526 0.0000
# 4 0.0000 0.0000 0.0000 10.5937 0.0000 -1.7858
# 5 0.7902 -3.6928 -10.5526 0.0000 37.2334 0.0000
# 6 0.0000 0.0000 0.0000 -1.7858 0.0000 18.3707
#
#
#
# Elastic Compliance Matrix: (Units=1/GPa)
#
#
# Indices 1 2 3 4 5 6 
#
# 1 0.012920 -0.003052 -0.002657 0.000000 -0.001330 0.000000
# 2 -0.003052 0.009499 -0.000195 0.000000 0.000952 0.000000
# 3 -0.002657 -0.000195 0.020153 0.000000 0.005749 0.000000
# 4 0.000000 0.000000 0.000000 0.095968 0.000000 0.009329
# 5 -0.001330 0.000952 0.005749 0.000000 0.028610 0.000000
# 6 0.000000 0.000000 0.000000 0.009329 0.000000 0.055341
#
#
# Mechanical properties :
#
#
# Convention : Reuss Voigt Hill
#
# Bulk Modulus (GPa) = 32.50390 38.41789 35.46089
# Shear Modulus (GPa) = 20.44542 27.24976 23.84759
#
# Velocity S-wave (km/s) = 3.32723 3.84119 3.59341
# Velocity P-wave (km/s) = 5.68860 6.36198 6.03469
#
# Compressibility (1/GPa) = 0.03076554
#
# Stress axis : x y z
#
# Youngs Moduli (GPa) = 77.39750 105.27421 49.62046
#
# Poissons Ratio (x) = 0.32127 0.13185
# Poissons Ratio (y) = 0.23620 0.00965
# Poissons Ratio (z) = 0.20565 0.02048
#
# Static dielectric constant tensor:
#      x y z
#    x 1.691350 0.000000 0.002570 
#    y 0.000000 1.629920 0.000000 
#    z 0.002570 0.000000 1.683030 
# 
# From -- ./inp_files/65997.got.cif
#   From: 2010.05.17/outbox.cif.g08.bks.cpg/sg13_33_cif.got.tgz:65997.got - 2010.06.03 16:44:36.
