data_PCOD9226911
_publ_section_title
;
Structure prediction by ZEFSAII (Michael W. Deem and Ramdas Pophale) SiO2 
 PCOD9226911
Probable space group: P 2/C
;
_chemical_formula_sum "Si O2"
_cell_formula_units_Z 30
_cell_length_a 11.610368
_cell_length_b 8.672834
_cell_length_c 16.297811
_cell_angle_alpha 90.000000
_cell_angle_beta 65.916585
_cell_angle_gamma 90.000000
_cell_volume 1498.250393
_symmetry_space_group_name_H-M "P 2/C"
_symmetry_group_IT_number 13
_symmetry_cell_setting 'monoclinic'
loop_
_space_group_symop_operation_xyz
x,y,z
-x,y,1/2-z
-x,-y,-z
x,-y,1/2+z
loop_
_atom_site_type_symbol
_atom_site_label
_atom_site_fract_x
_atom_site_fract_y
_atom_site_fract_z
Si Si1 0.148122 0.404194 0.625019
Si Si2 0.094316 0.455493 0.897895
Si Si3 0.592671 0.804749 0.926209
Si Si4 0.197799 0.669835 0.739513
Si Si5 0.912213 0.971572 0.948118
Si Si6 0.000000 0.929161 0.750000
Si Si7 0.235284 0.669848 0.489791
Si Si8 0.316032 0.869152 0.045288
O O1 0.153640 0.528880 0.695014
O O2 0.215587 0.500097 0.532041
O O3 0.235078 0.257846 0.616949
O O4 0.004925 0.377660 0.636406
O O5 0.161479 0.604899 0.839003
O O6 0.205081 0.347772 0.902389
O O7 0.000000 0.500000 0.000000
O O8 0.662487 0.714123 0.832610
O O9 0.639664 0.982787 0.914622
O O10 0.642514 0.735559 0.999219
O O11 0.442629 0.801037 0.969580
O O12 0.115041 0.818050 0.741586
O O13 0.967919 0.016275 0.843241
O O14 0.781675 0.064749 0.993598
O O15 0.873609 0.791417 0.951234
O O16 0.000000 0.000000 0.000000
#
# Coordination Sequence:
#
# PCOD9226911 Si02
#       8
#     4   4   4   4   4   2   4   4
#     4  10  18  32  57  87 115 151 200 268 315 381
#     4  10  18  31  55  88 119 148 196 257 316 374
#     4   9  20  39  61  85 120 171 213 253 312 409
#     4  11  19  36  61  89 119 165 203 263 332 389
#     4  11  22  39  63  94 126 171 212 270 331 394
#     4  12  18  40  62  90 130 166 210 258 340 396
#     4   9  18  35  55  86 116 160 200 256 322 375
#     4  10  20  37  61  92 119 163 217 255 320 390
#
# _framework density 20.023356
#
# number of rings (size 3 to 8) (size 9 to 14) (size 15 to 20)
#    0.000    1.867    5.333    1.600    0.000    3.200 
#    4.800    0.000    0.000   12.800    3.467    0.000 
#    0.000    0.000    0.000    0.000    0.000    0.000 
#
# Total GULP energy -167028.897918 kJ/mol
# GULP energy per Si atom -5567.629931 kJ/mol
# Density = 1.997778 g / cm^3
# Si number density = 20.023356 Si / 1000 Ang^3
#
#
#
# Elastic Constant Matrix: (Units=GPa)
#
#
# Indices 1 2 3 4 5 6 
#
# 1 120.2189 33.1778 55.9657 0.0000 -15.2559 0.0000
# 2 33.1778 62.8924 24.4706 0.0000 -6.1870 0.0000
# 3 55.9657 24.4706 97.7523 0.0000 -10.0575 0.0000
# 4 0.0000 0.0000 0.0000 29.3765 0.0000 -7.1110
# 5 -15.2559 -6.1870 -10.0575 0.0000 21.6499 0.0000
# 6 0.0000 0.0000 0.0000 -7.1110 0.0000 23.3603
#
#
#
# Elastic Compliance Matrix: (Units=1/GPa)
#
#
# Indices 1 2 3 4 5 6 
#
# 1 0.012762 -0.003975 -0.005779 0.000000 0.005172 0.000000
# 2 -0.003975 0.019059 -0.002335 0.000000 0.001561 0.000000
# 3 -0.005779 -0.002335 0.014320 0.000000 0.001913 0.000000
# 4 0.000000 0.000000 0.000000 0.036749 0.000000 0.011186
# 5 0.005172 0.001561 0.001913 0.000000 0.051169 0.000000
# 6 0.000000 0.000000 0.000000 0.011186 0.000000 0.046213
#
#
# Mechanical properties :
#
#
# Convention : Reuss Voigt Hill
#
# Bulk Modulus (GPa) = 45.53107 56.45464 50.99286
# Shear Modulus (GPa) = 23.61046 26.02729 24.81888
#
# Velocity S-wave (km/s) = 3.43759 3.60925 3.52447
# Velocity P-wave (km/s) = 6.20842 6.75459 6.48725
#
# Compressibility (1/GPa) = 0.02196302
#
# Stress axis : x y z
#
# Youngs Moduli (GPa) = 78.35775 52.46852 69.83217
#
# Poissons Ratio (x) = 0.20856 0.40359
# Poissons Ratio (y) = 0.31146 0.16304
# Poissons Ratio (z) = 0.45286 0.12250
#
# Static dielectric constant tensor:
#      x y z
#    x 1.740980 0.000000 0.022310 
#    y 0.000000 1.771830 0.000000 
#    z 0.022310 0.000000 1.815160 
# 
# From -- ./inp_files/66016.got.cif
#   From: 2010.05.17/outbox.cif.g08.bks.cpg/sg13_34_cif.got.tgz:66016.got - 2010.06.03 16:44:36.
