data_PCOD9226894
_publ_section_title
;
Structure prediction by ZEFSAII (Michael W. Deem and Ramdas Pophale) SiO2 
 PCOD9226894
Probable space group: P 2/C
;
_chemical_formula_sum "Si O2"
_cell_formula_units_Z 32
_cell_length_a 16.913368
_cell_length_b 12.859604
_cell_length_c 21.116182
_cell_angle_alpha 90.000000
_cell_angle_beta 159.881120
_cell_angle_gamma 90.000000
_cell_volume 1579.765230
_symmetry_space_group_name_H-M "P 2/C"
_symmetry_group_IT_number 13
_symmetry_cell_setting 'monoclinic'
loop_
_space_group_symop_operation_xyz
x,y,z
-x,y,1/2-z
-x,-y,-z
x,-y,1/2+z
loop_
_atom_site_type_symbol
_atom_site_label
_atom_site_fract_x
_atom_site_fract_y
_atom_site_fract_z
Si Si1 0.466527 0.431183 0.831734
Si Si2 0.959289 0.862481 0.346782
Si Si3 0.175056 0.496697 0.488140
Si Si4 0.754788 0.590664 0.740454
Si Si5 0.047758 0.928392 0.596999
Si Si6 0.510212 0.213929 0.068239
Si Si7 0.880326 0.737221 0.416361
Si Si8 0.220276 0.716302 0.461370
O O1 0.316328 0.467023 0.657429
O O2 0.404677 0.510508 0.841429
O O3 0.361863 0.320037 0.771080
O O4 0.722109 0.436622 0.995625
O O5 0.954065 0.796804 0.408266
O O6 0.165606 0.817971 0.460593
O O7 0.972902 0.986101 0.364368
O O8 0.720016 0.832691 0.133679
O O9 0.222066 0.616519 0.507422
O O10 0.913439 0.468749 0.309033
O O11 0.608242 0.687011 0.603630
O O12 0.932626 0.649866 0.922565
O O13 0.297436 0.874558 0.782253
O O14 0.881843 0.828395 0.470182
O O15 0.000000 0.000000 0.500000
O O16 0.440191 0.263384 0.083369
O O17 0.000000 0.698577 0.250000
#
# Coordination Sequence:
#
# PCOD9226894 Si02
#       8
#     4   4   4   4   4   4   4   4
#     4  10  18  31  54  78 109 149 185 227 275 335
#     4  10  19  35  58  81 108 144 184 236 285 330
#     4  10  19  32  52  79 109 152 186 221 277 324
#     4  10  18  33  53  80 112 147 184 228 274 335
#     4   9  19  36  58  80 102 138 181 236 286 335
#     4  10  20  35  57  81 112 146 187 226 286 340
#     4   9  18  33  54  78 111 140 185 232 279 333
#     4  10  20  35  52  83 114 144 184 231 268 338
#
# _framework density 20.256174000000001
#
# number of rings (size 3 to 8) (size 9 to 14) (size 15 to 20)
#    0.000    2.250    1.250    3.375    0.000    0.000 
#    2.250    1.875   30.250    0.000    0.000    0.000 
#    0.000    0.000    0.000    0.000    0.000    0.000 
#
# Total GULP energy -178513.896050 kJ/mol
# GULP energy per Si atom -5578.559252 kJ/mol
# Density = 2.021007 g / cm^3
# Si number density = 20.256174 Si / 1000 Ang^3
#
#
#
# Elastic Constant Matrix: (Units=GPa)
#
#
# Indices 1 2 3 4 5 6 
#
# 1 61.4202 28.6545 19.2793 0.0000 16.4269 0.0000
# 2 28.6545 105.1108 22.7876 0.0000 8.3494 0.0000
# 3 19.2793 22.7876 34.9198 0.0000 8.1655 0.0000
# 4 0.0000 0.0000 0.0000 17.0292 0.0000 1.8250
# 5 16.4269 8.3494 8.1655 0.0000 22.6553 0.0000
# 6 0.0000 0.0000 0.0000 1.8250 0.0000 15.3259
#
#
#
# Elastic Compliance Matrix: (Units=1/GPa)
#
#
# Indices 1 2 3 4 5 6 
#
# 1 0.024016 -0.003834 -0.007661 0.000000 -0.013239 0.000000
# 2 -0.003834 0.011748 -0.005665 0.000000 0.000492 0.000000
# 3 -0.007661 -0.005665 0.037977 0.000000 -0.006045 0.000000
# 4 0.000000 0.000000 0.000000 0.059482 0.000000 -0.007083
# 5 -0.013239 0.000492 -0.006045 0.000000 0.055736 0.000000
# 6 0.000000 0.000000 0.000000 -0.007083 0.000000 0.066092
#
#
# Mechanical properties :
#
#
# Convention : Reuss Voigt Hill
#
# Bulk Modulus (GPa) = 25.36761 38.09929 31.73345
# Shear Modulus (GPa) = 16.52832 19.71740 18.12286
#
# Velocity S-wave (km/s) = 2.85961 3.12332 2.99437
# Velocity P-wave (km/s) = 4.84290 5.64415 5.25881
#
# Compressibility (1/GPa) = 0.03942035
#
# Stress axis : x y z
#
# Youngs Moduli (GPa) = 41.63941 85.12067 26.33182
#
# Poissons Ratio (x) = 0.32639 0.20173
# Poissons Ratio (y) = 0.15966 0.14916
# Poissons Ratio (z) = 0.31901 0.48217
#
# Static dielectric constant tensor:
#      x y z
#    x 1.758530 0.000000 -0.025930 
#    y 0.000000 1.722260 0.000000 
#    z -0.025930 0.000000 1.780420 
# 
# From -- ./inp_files/88181.got.cif
#   From: 2010.05.17/outbox.cif.g08.bks.cpg/sg13_45_cif.got.tgz:88181.got - 2010.06.03 16:44:36.
