data_PCOD9226462
_publ_section_title
;
Structure prediction by ZEFSAII (Michael W. Deem and Ramdas Pophale) SiO2 
 PCOD9226462
Probable space group: P 2/C
;
_chemical_formula_sum "Si O2"
_cell_formula_units_Z 22
_cell_length_a 15.134324
_cell_length_b 11.280792
_cell_length_c 8.082891
_cell_angle_alpha 90.000000
_cell_angle_beta 58.731982
_cell_angle_gamma 90.000000
_cell_volume 1179.526721
_symmetry_space_group_name_H-M "P 2/C"
_symmetry_group_IT_number 13
_symmetry_cell_setting 'monoclinic'
loop_
_space_group_symop_operation_xyz
x,y,z
-x,y,1/2-z
-x,-y,-z
x,-y,1/2+z
loop_
_atom_site_type_symbol
_atom_site_label
_atom_site_fract_x
_atom_site_fract_y
_atom_site_fract_z
Si Si1 0.034795 0.871471 0.525172
Si Si2 0.104772 0.667217 0.932020
Si Si3 0.732471 0.900857 0.141238
Si Si4 0.704046 0.832024 0.782188
Si Si5 0.484863 0.136264 0.567491
Si Si6 0.000000 0.471082 0.250000
O O1 0.157609 0.861676 0.397155
O O2 0.000000 0.860228 0.750000
O O3 0.976900 0.774052 0.473364
O O4 0.000000 0.000000 0.500000
O O5 0.216418 0.727955 0.839173
O O6 0.075777 0.611583 0.782392
O O7 0.075417 0.558982 0.077799
O O8 0.637081 0.842336 0.334916
O O9 0.723740 0.044315 0.165860
O O10 0.724691 0.865682 0.955569
O O11 0.582084 0.799492 0.887982
O O12 0.500000 0.145954 0.750000
O O13 0.500000 0.000000 0.500000
#
# Coordination Sequence:
#
# PCOD9226462 Si02
#       6
#     4   4   4   4   4   2
#     4  12  21  31  50  81 115 139 167 210 274 336
#     4  11  21  38  53  75 104 138 187 221 269 309
#     4  10  17  30  46  77 112 140 162 202 266 334
#     4  10  18  31  51  74 107 139 173 210 258 324
#     4   8  16  27  45  70 102 141 169 194 246 319
#     4  10  24  38  54  72 100 148 192 232 254 308
#
# _framework density 18.651548999999999
#
# number of rings (size 3 to 8) (size 9 to 14) (size 15 to 20)
#    0.000    1.818    4.545    0.000    1.273    1.455 
#    0.000    0.000    0.000    0.000    0.000   34.364 
#    0.000    0.000    0.000    0.000    0.000    0.000 
#
# Total GULP energy -122640.866844 kJ/mol
# GULP energy per Si atom -5574.584857 kJ/mol
# Density = 1.860910 g / cm^3
# Si number density = 18.651549 Si / 1000 Ang^3
#
#
#
# Elastic Constant Matrix: (Units=GPa)
#
#
# Indices 1 2 3 4 5 6 
#
# 1 99.3963 27.5365 37.5937 0.0000 -53.7678 0.0000
# 2 27.5365 76.5373 15.7034 0.0000 -8.6652 0.0000
# 3 37.5937 15.7034 49.8660 0.0000 -29.1493 0.0000
# 4 0.0000 0.0000 0.0000 11.0467 0.0000 -3.3850
# 5 -53.7678 -8.6652 -29.1493 0.0000 44.9622 0.0000
# 6 0.0000 0.0000 0.0000 -3.3850 0.0000 24.0152
#
#
#
# Elastic Compliance Matrix: (Units=1/GPa)
#
#
# Indices 1 2 3 4 5 6 
#
# 1 0.032100 -0.007302 -0.000458 0.000000 0.036683 0.000000
# 2 -0.007302 0.015631 -0.004446 0.000000 -0.008602 0.000000
# 3 -0.000458 -0.004446 0.033779 0.000000 0.020495 0.000000
# 4 0.000000 0.000000 0.000000 0.094611 0.000000 0.013336
# 5 0.036683 -0.008602 0.020495 0.000000 0.077737 0.000000
# 6 0.000000 0.000000 0.000000 0.013336 0.000000 0.043520
#
#
# Mechanical properties :
#
#
# Convention : Reuss Voigt Hill
#
# Bulk Modulus (GPa) = 17.51314 43.05186 30.28250
# Shear Modulus (GPa) = 14.67038 25.66920 20.16979
#
# Velocity S-wave (km/s) = 2.80759 3.71381 3.29203
# Velocity P-wave (km/s) = 4.46320 6.44377 5.54267
#
# Compressibility (1/GPa) = 0.05709998
#
# Stress axis : x y z
#
# Youngs Moduli (GPa) = 31.15255 63.97591 29.60396
#
# Poissons Ratio (x) = 0.46715 0.01355
# Poissons Ratio (y) = 0.22747 0.13161
# Poissons Ratio (z) = 0.01426 0.28441
#
# Static dielectric constant tensor:
#      x y z
#    x 1.704570 0.000000 0.013520 
#    y 0.000000 1.597380 0.000000 
#    z 0.013520 0.000000 1.732050 
# 
# From -- ./inp_files/18283.got.cif
#   From: 2010.05.17/outbox.cif.g08.bks.cpg/sg13_10_cif.got.tgz:18283.got - 2010.06.03 16:44:36.
