data_PCOD9226312
_publ_section_title
;
Structure prediction by ZEFSAII (Michael W. Deem and Ramdas Pophale) SiO2 
 PCOD9226312
Probable space group: P 2/C
;
_chemical_formula_sum "Si O2"
_cell_formula_units_Z 26
_cell_length_a 9.927766
_cell_length_b 9.114229
_cell_length_c 19.548899
_cell_angle_alpha 90.000000
_cell_angle_beta 40.870585
_cell_angle_gamma 90.000000
_cell_volume 1157.459110
_symmetry_space_group_name_H-M "P 2/C"
_symmetry_group_IT_number 13
_symmetry_cell_setting 'monoclinic'
loop_
_space_group_symop_operation_xyz
x,y,z
-x,y,1/2-z
-x,-y,-z
x,-y,1/2+z
loop_
_atom_site_type_symbol
_atom_site_label
_atom_site_fract_x
_atom_site_fract_y
_atom_site_fract_z
Si Si1 0.557841 0.075689 0.904802
Si Si2 0.106289 0.265060 0.457263
Si Si3 0.000000 0.054655 0.750000
Si Si4 0.105797 0.159590 0.081058
Si Si5 0.118574 0.578519 0.773508
Si Si6 0.258608 0.580663 0.337411
Si Si7 0.522418 0.805447 0.825251
O O1 0.587066 0.957408 0.833317
O O2 0.345408 0.157060 0.970286
O O3 0.786139 0.142162 0.824145
O O4 0.500000 0.000000 0.000000
O O5 0.054145 0.142587 0.420141
O O6 0.886876 0.301127 0.572855
O O7 0.198523 0.421024 0.393437
O O8 0.285047 0.215052 0.439322
O O9 0.048872 0.946018 0.666377
O O10 0.053392 0.326123 0.121348
O O11 0.188237 0.435980 0.786603
O O12 0.321938 0.684740 0.702322
O O13 0.000000 0.548158 0.750000
O O14 0.500000 0.604487 0.250000
O O15 0.500000 0.800887 0.750000
#
# Coordination Sequence:
#
# PCOD9226312 Si02
#       7
#     4   4   2   4   4   4   4
#     4  10  21  33  57  85 120 149 191 234 282 338
#     4  10  20  34  59  85 110 145 192 240 279 336
#     4  10  16  34  56  80 116 156 188 230 276 338
#     4  10  18  34  54  86 109 149 187 228 286 330
#     4  11  18  34  62  83 109 146 193 232 281 335
#     4  10  19  37  59  82 113 145 187 239 288 328
#     4  12  19  37  61  89 109 149 198 235 278 341
#
# _framework density 22.462996
#
# number of rings (size 3 to 8) (size 9 to 14) (size 15 to 20)
#    0.000    1.538    6.923    0.923    0.000    0.615 
#    0.000    4.615    6.769    0.000    0.000    0.000 
#    0.000    0.000    0.000    0.000    0.000    0.000 
#
# Total GULP energy -144816.997427 kJ/mol
# GULP energy per Si atom -5569.884516 kJ/mol
# Density = 2.241187 g / cm^3
# Si number density = 22.462996 Si / 1000 Ang^3
#
#
#
# Elastic Constant Matrix: (Units=GPa)
#
#
# Indices 1 2 3 4 5 6 
#
# 1 159.9569 20.0360 62.8721 0.0000 -29.1012 0.0000
# 2 20.0360 12.0580 16.3465 0.0000 -0.4113 0.0000
# 3 62.8721 16.3465 141.1246 0.0000 -49.3335 0.0000
# 4 0.0000 0.0000 0.0000 18.6952 0.0000 2.2383
# 5 -29.1012 -0.4113 -49.3335 0.0000 45.2949 0.0000
# 6 0.0000 0.0000 0.0000 2.2383 0.0000 8.4551
#
#
#
# Elastic Compliance Matrix: (Units=1/GPa)
#
#
# Indices 1 2 3 4 5 6 
#
# 1 0.009222 -0.014192 -0.000708 0.000000 0.005025 0.000000
# 2 -0.014192 0.130988 -0.018767 0.000000 -0.028369 0.000000
# 3 -0.000708 -0.018767 0.015109 0.000000 0.015831 0.000000
# 4 0.000000 0.000000 0.000000 0.055240 0.000000 -0.014623
# 5 0.005025 -0.028369 0.015831 0.000000 0.042291 0.000000
# 6 0.000000 0.000000 0.000000 -0.014623 0.000000 0.122142
#
#
# Mechanical properties :
#
#
# Convention : Reuss Voigt Hill
#
# Bulk Modulus (GPa) = 11.36549 56.84984 34.10766
# Shear Modulus (GPa) = 10.60097 28.74805 19.67451
#
# Velocity S-wave (km/s) = 2.17475 3.58130 2.96271
# Velocity P-wave (km/s) = 3.37294 6.51645 5.18849
#
# Compressibility (1/GPa) = 0.08798564
#
# Stress axis : x y z
#
# Youngs Moduli (GPa) = 108.43837 7.63429 66.18479
#
# Poissons Ratio (x) = 0.10835 0.04685
# Poissons Ratio (y) = 1.53898 1.24206
# Poissons Ratio (z) = 0.07676 0.14327
#
# Static dielectric constant tensor:
#      x y z
#    x 2.921390 0.000000 0.593780 
#    y 0.000000 1.805740 0.000000 
#    z 0.593780 0.000000 2.249350 
# 
# From -- ./inp_files/76198.got.cif
#   From: 2010.05.17/outbox.cif.g08.bks.cpg/sg13_39_cif.got.tgz:76198.got - 2010.06.03 16:44:36.
