data_PCOD9226235
_publ_section_title
;
Structure prediction by ZEFSAII (Michael W. Deem and Ramdas Pophale) SiO2 
 PCOD9226235
Probable space group: P 2/C
;
_chemical_formula_sum "Si O2"
_cell_formula_units_Z 28
_cell_length_a 21.544387
_cell_length_b 13.780205
_cell_length_c 5.415681
_cell_angle_alpha 90.000000
_cell_angle_beta 118.578183
_cell_angle_gamma 90.000000
_cell_volume 1411.949330
_symmetry_space_group_name_H-M "P 2/C"
_symmetry_group_IT_number 13
_symmetry_cell_setting 'monoclinic'
loop_
_space_group_symop_operation_xyz
x,y,z
-x,y,1/2-z
-x,-y,-z
x,-y,1/2+z
loop_
_atom_site_type_symbol
_atom_site_label
_atom_site_fract_x
_atom_site_fract_y
_atom_site_fract_z
Si Si1 0.078399 0.532437 0.342683
Si Si2 0.798966 0.254321 0.073634
Si Si3 0.887676 0.259579 0.745482
Si Si4 0.246762 0.032680 0.574977
Si Si5 0.695589 0.436978 0.873473
Si Si6 0.085501 0.046850 0.770348
Si Si7 0.530188 0.610211 0.057451
O O1 0.114254 0.521589 0.679367
O O2 0.071425 0.642854 0.243615
O O3 0.000000 0.491705 0.250000
O O4 0.853378 0.270210 0.950158
O O5 0.767984 0.146977 0.965727
O O6 0.743788 0.341705 0.960376
O O7 0.833329 0.251677 0.411792
O O8 0.928354 0.158020 0.821440
O O9 0.283616 0.996489 0.398015
O O10 0.171072 0.974004 0.437422
O O11 0.707182 0.501493 0.648003
O O12 0.614138 0.401532 0.717354
O O13 0.062067 0.978931 0.500714
O O14 0.500000 0.656442 0.250000
O O15 0.500000 0.656424 0.750000
O O16 0.500000 0.500000 0.000000
#
# Coordination Sequence:
#
# PCOD9226235 Si02
#       7
#     4   4   4   4   4   4   4
#     4  10  23  42  60  76 100 139 189 222 244 296
#     4  12  23  32  51  83 111 139 170 205 270 323
#     4  12  21  35  57  79 102 143 174 209 264 322
#     4  10  16  32  51  70  99 140 173 202 243 318
#     4  12  23  35  47  75 113 143 167 220 250 298
#     4  10  16  30  53  75  97 133 172 203 251 317
#     4  10  16  32  56  66  86 141 190 201 244 296
#
# _framework density 19.830739000000001
#
# number of rings (size 3 to 8) (size 9 to 14) (size 15 to 20)
#    0.000    1.143    8.571    1.714    0.000    3.429 
#    0.000    0.000    0.000    0.857    0.000    0.000 
#    0.000    3.429    0.000    0.000    0.000    0.000 
#
# Total GULP energy -156332.397257 kJ/mol
# GULP energy per Si atom -5583.299902 kJ/mol
# Density = 1.978560 g / cm^3
# Si number density = 19.830739 Si / 1000 Ang^3
#
#
#
# Elastic Constant Matrix: (Units=GPa)
#
#
# Indices 1 2 3 4 5 6 
#
# 1 54.6706 27.8221 29.6952 0.0000 -14.4757 0.0000
# 2 27.8221 113.1561 20.4156 0.0000 -6.2290 0.0000
# 3 29.6952 20.4156 113.9772 0.0000 -39.7278 0.0000
# 4 0.0000 0.0000 0.0000 26.6615 0.0000 -9.7183
# 5 -14.4757 -6.2290 -39.7278 0.0000 33.4966 0.0000
# 6 0.0000 0.0000 0.0000 -9.7183 0.0000 10.5607
#
#
#
# Elastic Compliance Matrix: (Units=1/GPa)
#
#
# Indices 1 2 3 4 5 6 
#
# 1 0.024175 -0.005011 -0.003553 0.000000 0.005302 0.000000
# 2 -0.005011 0.010175 -0.001044 0.000000 -0.001511 0.000000
# 3 -0.003553 -0.001044 0.015826 0.000000 0.017040 0.000000
# 4 0.000000 0.000000 0.000000 0.056438 0.000000 0.051936
# 5 0.005302 -0.001511 0.017040 0.000000 0.052074 0.000000
# 6 0.000000 0.000000 0.000000 0.051936 0.000000 0.142483
#
#
# Mechanical properties :
#
#
# Convention : Reuss Voigt Hill
#
# Bulk Modulus (GPa) = 32.29978 48.62996 40.46487
# Shear Modulus (GPa) = 15.11914 27.73518 21.42716
#
# Velocity S-wave (km/s) = 2.76417 3.74384 3.29067
# Velocity P-wave (km/s) = 5.14885 6.57755 5.90656
#
# Compressibility (1/GPa) = 0.03095996
#
# Stress axis : x y z
#
# Youngs Moduli (GPa) = 41.36474 98.28428 63.18759
#
# Poissons Ratio (x) = 0.49252 0.22450
# Poissons Ratio (y) = 0.20729 0.06595
# Poissons Ratio (z) = 0.14697 0.10258
#
# Static dielectric constant tensor:
#      x y z
#    x 1.747400 0.000000 -0.066470 
#    y 0.000000 1.679480 0.000000 
#    z -0.066470 0.000000 1.892910 
# 
# From -- ./inp_files/6916.got.cif
#   From: 2010.05.17/outbox.cif.g08.bks.cpg/sg13_4_cif.got.tgz:6916.got - 2010.06.03 16:44:36.
