data_PCOD9226480
_publ_section_title
;
Structure prediction by ZEFSAII (Michael W. Deem and Ramdas Pophale) SiO2 
 PCOD9226480
Probable space group: P 2/C
;
_chemical_formula_sum "Si O2"
_cell_formula_units_Z 30
_cell_length_a 15.241076
_cell_length_b 9.250592
_cell_length_c 28.706008
_cell_angle_alpha 90.000000
_cell_angle_beta 160.352864
_cell_angle_gamma 90.000000
_cell_volume 1360.786065
_symmetry_space_group_name_H-M "P 2/C"
_symmetry_group_IT_number 13
_symmetry_cell_setting 'monoclinic'
loop_
_space_group_symop_operation_xyz
x,y,z
-x,y,1/2-z
-x,-y,-z
x,-y,1/2+z
loop_
_atom_site_type_symbol
_atom_site_label
_atom_site_fract_x
_atom_site_fract_y
_atom_site_fract_z
Si Si1 0.264788 0.383232 0.438949
Si Si2 0.204803 0.769095 0.618628
Si Si3 0.596549 0.871018 0.614923
Si Si4 0.000000 0.873012 0.750000
Si Si5 0.919658 0.085664 0.902469
Si Si6 0.964101 0.307689 0.368100
Si Si7 0.613472 0.938067 0.416281
Si Si8 0.282155 0.670150 0.388174
O O1 0.094800 0.425961 0.399313
O O2 0.247378 0.512095 0.393500
O O3 0.573666 0.345610 0.589653
O O4 0.130196 0.239532 0.351437
O O5 0.500000 0.739462 0.750000
O O6 0.984251 0.777520 0.467813
O O7 0.133761 0.672221 0.628149
O O8 0.181986 0.938296 0.623118
O O9 0.462567 0.756582 0.514323
O O10 0.795202 0.953637 0.679867
O O11 0.740911 0.781850 0.728568
O O12 0.410015 0.983904 0.546100
O O13 0.677752 0.102488 0.746247
O O14 0.203539 0.045100 0.023032
O O15 0.213547 0.203440 0.496822
O O16 0.000000 0.738911 0.250000
#
# Coordination Sequence:
#
# PCOD9226480 Si02
#       8
#     4   4   4   2   4   4   4   4
#     4   9  18  35  54  82 105 136 184 237 285 327
#     4  10  17  30  51  81 109 146 191 223 274 328
#     4  10  19  35  53  77 110 149 185 230 280 332
#     4   8  16  32  54  70 104 138 182 222 280 332
#     4  10  19  29  51  76 114 148 188 227 263 328
#     4  10  21  33  55  79 118 147 180 231 288 329
#     4  11  19  35  52  81 121 149 186 228 276 341
#     4  10  20  35  61  81 104 139 192 243 275 339
#
# _framework density 22.046081999999998
#
# number of rings (size 3 to 8) (size 9 to 14) (size 15 to 20)
#    0.000    2.133    4.667    0.000    1.867    1.067 
#    0.000    6.000    1.467    0.000    0.000    3.733 
#    4.000    0.133    0.000    0.000    0.000    0.000 
#
# Total GULP energy -167034.978034 kJ/mol
# GULP energy per Si atom -5567.832601 kJ/mol
# Density = 2.199590 g / cm^3
# Si number density = 22.046082 Si / 1000 Ang^3
#
#
#
# Elastic Constant Matrix: (Units=GPa)
#
#
# Indices 1 2 3 4 5 6 
#
# 1 142.2410 12.3204 37.8293 0.0000 43.5109 0.0000
# 2 12.3204 16.7429 10.2477 0.0000 8.1238 0.0000
# 3 37.8293 10.2477 104.7046 0.0000 11.1668 0.0000
# 4 0.0000 0.0000 0.0000 9.5236 0.0000 4.2377
# 5 43.5109 8.1238 11.1668 0.0000 42.7198 0.0000
# 6 0.0000 0.0000 0.0000 4.2377 0.0000 21.2192
#
#
#
# Elastic Compliance Matrix: (Units=1/GPa)
#
#
# Indices 1 2 3 4 5 6 
#
# 1 0.011014 -0.001464 -0.002746 0.000000 -0.010222 0.000000
# 2 -0.001464 0.068925 -0.005121 0.000000 -0.010277 0.000000
# 3 -0.002746 -0.005121 0.010947 0.000000 0.000909 0.000000
# 4 0.000000 0.000000 0.000000 0.115244 0.000000 -0.023016
# 5 -0.010222 -0.010277 0.000909 0.000000 0.035536 0.000000
# 6 0.000000 0.000000 0.000000 -0.023016 0.000000 0.051724
#
#
# Mechanical properties :
#
#
# Convention : Reuss Voigt Hill
#
# Bulk Modulus (GPa) = 13.84577 42.72037 28.28307
# Shear Modulus (GPa) = 14.87531 28.24525 21.56028
#
# Velocity S-wave (km/s) = 2.60039 3.58326 3.13063
# Velocity P-wave (km/s) = 3.91280 6.04479 5.09164
#
# Compressibility (1/GPa) = 0.07222423
#
# Stress axis : x y z
#
# Youngs Moduli (GPa) = 90.79085 14.50851 91.34931
#
# Poissons Ratio (x) = 0.02125 0.25084
# Poissons Ratio (y) = 0.13296 0.46777
# Poissons Ratio (z) = 0.24930 0.07429
#
# Static dielectric constant tensor:
#      x y z
#    x 1.995910 0.000000 -0.003880 
#    y 0.000000 1.832380 0.000000 
#    z -0.003880 0.000000 1.916860 
# 
# From -- ./inp_files/97017.got.cif
#   From: 2010.05.17/outbox.cif.g08.bks.cpg/sg13_49_cif.got.tgz:97017.got - 2010.06.03 16:44:36.
