data_PCOD9226388
_publ_section_title
;
Structure prediction by ZEFSAII (Michael W. Deem and Ramdas Pophale) SiO2 
 PCOD9226388
Probable space group: P 2/C
;
_chemical_formula_sum "Si O2"
_cell_formula_units_Z 28
_cell_length_a 18.758260
_cell_length_b 5.649481
_cell_length_c 20.953213
_cell_angle_alpha 90.000000
_cell_angle_beta 28.253231
_cell_angle_gamma 90.000000
_cell_volume 1051.118931
_symmetry_space_group_name_H-M "P 2/C"
_symmetry_group_IT_number 13
_symmetry_cell_setting 'monoclinic'
loop_
_space_group_symop_operation_xyz
x,y,z
-x,y,1/2-z
-x,-y,-z
x,-y,1/2+z
loop_
_atom_site_type_symbol
_atom_site_label
_atom_site_fract_x
_atom_site_fract_y
_atom_site_fract_z
Si Si1 0.323666 0.861617 0.759004
Si Si2 0.613138 0.613655 0.099571
Si Si3 0.620006 0.631493 0.334496
Si Si4 0.785741 0.336485 0.818553
Si Si5 0.970681 0.918162 0.450277
Si Si6 0.622891 0.117489 0.096113
Si Si7 0.104811 0.841248 0.728511
O O1 0.302945 0.114917 0.742215
O O2 0.499168 0.863037 0.637402
O O3 0.294960 0.618267 0.744262
O O4 0.206412 0.857990 0.909948
O O5 0.500000 0.608329 0.250000
O O6 0.510944 0.624702 0.115947
O O7 0.697996 0.861771 0.037185
O O8 0.704070 0.369695 0.032596
O O9 0.626957 0.651657 0.405936
O O10 0.797792 0.087800 0.847356
O O11 0.924697 0.294536 0.658696
O O12 0.813475 0.588000 0.830017
O O13 0.011590 0.123300 0.367981
O O14 0.000000 0.000000 0.500000
O O15 0.500000 0.111740 0.250000
O O16 0.000000 0.843861 0.750000
#
# Coordination Sequence:
#
# PCOD9226388 Si02
#       7
#     4   4   4   4   4   4   4
#     4  10  18  25  41  62  92 117 148 182 228 268
#     4   8  14  23  36  53  82 119 145 167 218 275
#     4  10  17  27  40  65  90 118 149 186 224 273
#     4  10  20  31  49  63  90 121 163 188 231 269
#     4  10  20  31  48  70  94 119 158 190 237 273
#     4   8  14  24  35  52  79 119 147 166 213 275
#     4  10  22  36  48  63  90 129 165 195 231 273
#
# _framework density 26.638280999999999
#
# number of rings (size 3 to 8) (size 9 to 14) (size 15 to 20)
#    0.857    1.714    1.429    2.143    2.000    1.143 
#    0.000    0.000    0.000    0.000    0.000    0.000 
#    0.000    0.000    0.000  145.286    0.000    0.286 
#
# Total GULP energy -156191.564530 kJ/mol
# GULP energy per Si atom -5578.270162 kJ/mol
# Density = 2.657765 g / cm^3
# Si number density = 26.638281 Si / 1000 Ang^3
#
#
#
# Elastic Constant Matrix: (Units=GPa)
#
#
# Indices 1 2 3 4 5 6 
#
# 1 150.7672 52.5388 48.4794 0.0000 24.7296 0.0000
# 2 52.5388 300.3814 46.1740 0.0000 17.9668 0.0000
# 3 48.4794 46.1740 124.5746 0.0000 3.6756 0.0000
# 4 0.0000 0.0000 0.0000 41.0508 0.0000 22.9710
# 5 24.7296 17.9668 3.6756 0.0000 34.9530 0.0000
# 6 0.0000 0.0000 0.0000 22.9710 0.0000 28.0388
#
#
#
# Elastic Compliance Matrix: (Units=1/GPa)
#
#
# Indices 1 2 3 4 5 6 
#
# 1 0.008747 -0.000745 -0.002966 0.000000 -0.005494 0.000000
# 2 -0.000745 0.003695 -0.001042 0.000000 -0.001262 0.000000
# 3 -0.002966 -0.001042 0.009520 0.000000 0.001633 0.000000
# 4 0.000000 0.000000 0.000000 0.044981 0.000000 -0.036851
# 5 -0.005494 -0.001262 0.001633 0.000000 0.032974 0.000000
# 6 0.000000 0.000000 0.000000 -0.036851 0.000000 0.065856
#
#
# Mechanical properties :
#
#
# Convention : Reuss Voigt Hill
#
# Bulk Modulus (GPa) = 80.28791 96.67863 88.48327
# Shear Modulus (GPa) = 27.86582 49.37726 38.62154
#
# Velocity S-wave (km/s) = 3.23783 4.31004 3.81182
# Velocity P-wave (km/s) = 6.64707 7.81924 7.25686
#
# Compressibility (1/GPa) = 0.01245518
#
# Stress axis : x y z
#
# Youngs Moduli (GPa) = 114.32170 270.62011 105.04665
#
# Poissons Ratio (x) = 0.20174 0.31153
# Poissons Ratio (y) = 0.08522 0.10949
# Poissons Ratio (z) = 0.33904 0.28206
#
# Static dielectric constant tensor:
#      x y z
#    x 1.980660 0.000000 0.174790 
#    y 0.000000 2.086030 0.000000 
#    z 0.174790 0.000000 2.109350 
# 
# From -- ./inp_files/79035.got.cif
#   From: 2010.05.17/outbox.cif.g08.bks.cpg/sg13_40_cif.got.tgz:79035.got - 2010.06.03 16:44:36.
