data_PCOD9226116
_publ_section_title
;
Structure prediction by ZEFSAII (Michael W. Deem and Ramdas Pophale) SiO2 
 PCOD9226116
Probable space group: P 2/C
;
_chemical_formula_sum "Si O2"
_cell_formula_units_Z 24
_cell_length_a 5.595952
_cell_length_b 12.133665
_cell_length_c 16.357108
_cell_angle_alpha 90.000000
_cell_angle_beta 124.196961
_cell_angle_gamma 90.000000
_cell_volume 918.620169
_symmetry_space_group_name_H-M "P 2/C"
_symmetry_group_IT_number 13
_symmetry_cell_setting 'monoclinic'
loop_
_space_group_symop_operation_xyz
x,y,z
-x,y,1/2-z
-x,-y,-z
x,-y,1/2+z
loop_
_atom_site_type_symbol
_atom_site_label
_atom_site_fract_x
_atom_site_fract_y
_atom_site_fract_z
Si Si1 0.198417 0.250556 0.126070
Si Si2 0.751796 0.141106 0.156062
Si Si3 0.653776 0.415223 0.593531
Si Si4 0.378163 0.845094 0.427544
Si Si5 0.801316 0.495245 0.880696
Si Si6 0.113110 0.110340 0.566124
O O1 0.497546 0.185105 0.166073
O O2 0.269874 0.377575 0.145643
O O3 0.009909 0.213418 0.010681
O O4 0.977978 0.226532 0.157649
O O5 0.568929 0.107349 0.040696
O O6 0.000000 0.070718 0.250000
O O7 0.500000 0.500000 0.500000
O O8 0.610563 0.287464 0.563049
O O9 0.487944 0.433820 0.646968
O O10 0.990508 0.444150 0.647741
O O11 0.050357 0.880218 0.380178
O O12 0.544294 0.884000 0.378474
O O13 0.000000 0.500000 0.000000
O O14 0.000000 0.000000 0.500000
#
# Coordination Sequence:
#
# PCOD9226116 Si02
#       6
#     4   4   4   4   4   4
#     4  10  19  30  42  64  90 114 143 174 204 252
#     4  10  18  29  43  58  83 121 148 172 206 240
#     4  10  16  25  41  60  83 115 140 166 204 244
#     4  10  19  30  42  64  90 114 145 174 204 252
#     4  10  16  25  41  60  83 115 140 164 206 244
#     4  10  18  29  43  58  83 121 142 164 214 260
#
# _framework density 26.126138999999998
#
# number of rings (size 3 to 8) (size 9 to 14) (size 15 to 20)
#    0.000    2.000    0.000   11.000    0.000    0.000 
#    0.000    0.000    0.000    0.000    0.000    0.000 
#    0.000    0.000    0.000 1464.000    0.000    0.000 
#
# Total GULP energy -134017.367517 kJ/mol
# GULP energy per Si atom -5584.056980 kJ/mol
# Density = 2.606667 g / cm^3
# Si number density = 26.126139 Si / 1000 Ang^3
#
#
#
# Elastic Constant Matrix: (Units=GPa)
#
#
# Indices 1 2 3 4 5 6 
#
# 1 328.0681 56.2636 41.4737 0.0000 -1.2805 0.0000
# 2 56.2636 144.9284 18.9629 0.0000 -5.4787 0.0000
# 3 41.4737 18.9629 73.9838 0.0000 20.0086 0.0000
# 4 0.0000 0.0000 0.0000 -22.0351 0.0000 -8.9407
# 5 -1.2805 -5.4787 20.0086 0.0000 31.6098 0.0000
# 6 0.0000 0.0000 0.0000 -8.9407 0.0000 40.4157
#
#
#
# Elastic Compliance Matrix: (Units=1/GPa)
#
#
# Indices 1 2 3 4 5 6 
#
# 1 0.003488 -0.001042 -0.002024 0.000000 0.001242 0.000000
# 2 -0.001042 0.007677 -0.002089 0.000000 0.002611 0.000000
# 3 -0.002024 -0.002089 0.018468 0.000000 -0.012134 0.000000
# 4 0.000000 0.000000 0.000000 -0.041644 0.000000 -0.009213
# 5 0.001242 0.002611 -0.012134 0.000000 0.039819 0.000000
# 6 0.000000 0.000000 0.000000 -0.009213 0.000000 0.022705
#
#
# Mechanical properties :
#
#
# Convention : Reuss Voigt Hill
#
# Bulk Modulus (GPa) = 51.75577 86.70896 69.23237
# Shear Modulus (GPa) = 74.33428 38.68342 56.50885
#
# Velocity S-wave (km/s) = 5.33984 3.85208 4.65577
# Velocity P-wave (km/s) = 7.60733 7.28322 7.44704
#
# Compressibility (1/GPa) = 0.01932152
#
# Stress axis : x y z
#
# Youngs Moduli (GPa) = 286.73288 130.26503 54.14738
#
# Poissons Ratio (x) = 0.13576 0.10958
# Poissons Ratio (y) = 0.29883 0.11314
# Poissons Ratio (z) = 0.58027 0.27219
#
# Static dielectric constant tensor:
#      x y z
#    x 2.122610 0.000000 -0.077420 
#    y 0.000000 2.019690 0.000000 
#    z -0.077420 0.000000 2.266290 
# 
# From -- ./inp_files/73340.got.cif
#   From: 2010.05.17/outbox.cif.g08.bks.cpg/sg13_37_cif.got.tgz:73340.got - 2010.06.03 16:44:36.
