data_PCOD9226518
_publ_section_title
;
Structure prediction by ZEFSAII (Michael W. Deem and Ramdas Pophale) SiO2 
 PCOD9226518
Probable space group: P 2/C
;
_chemical_formula_sum "Si O2"
_cell_formula_units_Z 32
_cell_length_a 11.607248
_cell_length_b 21.303940
_cell_length_c 10.302328
_cell_angle_alpha 90.000000
_cell_angle_beta 48.693410
_cell_angle_gamma 90.000000
_cell_volume 1913.697694
_symmetry_space_group_name_H-M "P 2/C"
_symmetry_group_IT_number 13
_symmetry_cell_setting 'monoclinic'
loop_
_space_group_symop_operation_xyz
x,y,z
-x,y,1/2-z
-x,-y,-z
x,-y,1/2+z
loop_
_atom_site_type_symbol
_atom_site_label
_atom_site_fract_x
_atom_site_fract_y
_atom_site_fract_z
Si Si1 0.311994 0.319587 0.739879
Si Si2 0.874402 0.201574 0.227842
Si Si3 0.884367 0.063913 0.214180
Si Si4 0.092533 0.208870 0.815609
Si Si5 0.114386 0.428081 0.284227
Si Si6 0.096179 0.574421 0.306310
Si Si7 0.325692 0.681151 0.541119
Si Si8 0.895812 0.070495 0.699295
O O1 0.216539 0.261707 0.753098
O O2 0.237926 0.381075 0.731333
O O3 0.492117 0.315314 0.578576
O O4 0.292064 0.321543 0.911185
O O5 0.801632 0.131251 0.283167
O O6 0.756544 0.257439 0.339878
O O7 0.000000 0.203937 0.250000
O O8 0.967854 0.209942 0.024671
O O9 0.000000 0.062510 0.250000
O O10 0.803722 0.995482 0.270507
O O11 0.990371 0.067044 0.007890
O O12 0.173676 0.140038 0.755003
O O13 0.000000 0.217762 0.750000
O O14 0.150460 0.502231 0.252457
O O15 0.254162 0.380492 0.161832
O O16 0.000000 0.414586 0.250000
O O17 0.020860 0.418831 0.486291
O O18 0.000000 0.591460 0.250000
O O19 0.000000 0.071174 0.750000
#
# Coordination Sequence:
#
# PCOD9226518 Si02
#       8
#     4   4   4   4   4   4   4   4
#     4  11  22  36  52  79 108 139 171 212 259 301
#     4  10  17  31  53  76  99 137 180 213 247 304
#     4   8  14  23  42  70  99 124 165 213 250 292
#     4  10  19  32  53  76 105 136 171 214 261 306
#     4  10  19  37  60  80 102 137 174 209 250 307
#     4  10  21  36  59  83 104 130 171 215 256 303
#     4  11  22  35  55  76 108 140 173 212 252 304
#     4   8  14  25  41  69 101 129 157 208 264 296
#
# _framework density 16.721556
#
# number of rings (size 3 to 8) (size 9 to 14) (size 15 to 20)
#    0.000    2.250    2.500    1.500    0.000    0.500 
#    0.000    2.500    0.000    0.750    0.000    0.000 
#    0.000    0.000    0.000    0.000    0.000    0.000 
#
# Total GULP energy -178189.286534 kJ/mol
# GULP energy per Si atom -5568.415204 kJ/mol
# Density = 1.668350 g / cm^3
# Si number density = 16.721556 Si / 1000 Ang^3
#
#
#
# Elastic Constant Matrix: (Units=GPa)
#
#
# Indices 1 2 3 4 5 6 
#
# 1 87.7993 51.1987 44.5681 0.0000 13.7865 0.0000
# 2 51.1987 137.3807 60.1152 0.0000 -23.7581 0.0000
# 3 44.5681 60.1152 71.5043 0.0000 8.0856 0.0000
# 4 0.0000 0.0000 0.0000 7.0293 0.0000 11.5705
# 5 13.7865 -23.7581 8.0856 0.0000 31.3157 0.0000
# 6 0.0000 0.0000 0.0000 11.5705 0.0000 10.2603
#
#
#
# Elastic Compliance Matrix: (Units=1/GPa)
#
#
# Indices 1 2 3 4 5 6 
#
# 1 0.020632 -0.008278 -0.004288 0.000000 -0.014256 0.000000
# 2 -0.008278 0.021137 -0.015283 0.000000 0.023626 0.000000
# 3 -0.004288 -0.015283 0.031524 0.000000 -0.017846 0.000000
# 4 0.000000 0.000000 0.000000 -0.166145 0.000000 0.187362
# 5 -0.014256 0.023626 -0.017846 0.000000 0.060742 0.000000
# 6 0.000000 0.000000 0.000000 0.187362 0.000000 -0.113825
#
#
# Mechanical properties :
#
#
# Convention : Reuss Voigt Hill
#
# Bulk Modulus (GPa) = 56.83079 67.60537 62.21808
# Shear Modulus (GPa) = -59.26156 19.10787 -20.07684
#
# Velocity S-wave (km/s) = -5.95963 3.38406 -3.46881
# Velocity P-wave (km/s) = 3.64635 7.46907 4.60929
#
# Compressibility (1/GPa) = 0.01759609
#
# Stress axis : x y z
#
# Youngs Moduli (GPa) = 48.46795 47.30957 31.72149
#
# Poissons Ratio (x) = 0.39164 0.13603
# Poissons Ratio (y) = 0.40123 0.48479
# Poissons Ratio (z) = 0.20784 0.72301
#
# Static dielectric constant tensor:
#      x y z
#    x 1.531910 0.000000 0.029440 
#    y 0.000000 1.635320 0.000000 
#    z 0.029440 0.000000 1.528260 
# 
# From -- ./inp_files/34824.got.cif
#   From: 2010.05.17/outbox.cif.g08.bks.cpg/sg13_18_cif.got.tgz:34824.got - 2010.06.03 16:44:36.
