data_PCOD9226548
_publ_section_title
;
Structure prediction by ZEFSAII (Michael W. Deem and Ramdas Pophale) SiO2 
 PCOD9226548
Probable space group: P 2/C
;
_chemical_formula_sum "Si O2"
_cell_formula_units_Z 32
_cell_length_a 19.206656
_cell_length_b 9.623592
_cell_length_c 29.160233
_cell_angle_alpha 90.000000
_cell_angle_beta 162.367470
_cell_angle_gamma 90.000000
_cell_volume 1632.657267
_symmetry_space_group_name_H-M "P 2/C"
_symmetry_group_IT_number 13
_symmetry_cell_setting 'monoclinic'
loop_
_space_group_symop_operation_xyz
x,y,z
-x,y,1/2-z
-x,-y,-z
x,-y,1/2+z
loop_
_atom_site_type_symbol
_atom_site_label
_atom_site_fract_x
_atom_site_fract_y
_atom_site_fract_z
Si Si1 0.193727 0.815622 0.688338
Si Si2 0.853537 0.411604 0.699890
Si Si3 0.058811 0.854557 0.509975
Si Si4 0.869308 0.098520 0.734457
Si Si5 0.318335 0.635222 0.852082
Si Si6 0.567037 0.106521 0.679044
Si Si7 0.369600 0.857813 0.964253
Si Si8 0.787080 0.982308 0.474653
O O1 0.275756 0.708734 0.777464
O O2 0.358618 0.951985 0.791923
O O3 0.171803 0.767788 0.621782
O O4 0.945225 0.865616 0.550581
O O5 0.928515 0.253469 0.755935
O O6 0.850265 0.507812 0.742691
O O7 0.584669 0.408633 0.518124
O O8 0.000000 0.469936 0.750000
O O9 0.214078 0.895603 0.564084
O O10 0.806523 0.810552 0.334138
O O11 0.000000 0.000000 0.500000
O O12 0.634808 0.111887 0.616927
O O13 0.069495 0.037208 0.891467
O O14 0.786144 0.992521 0.642998
O O15 0.293259 0.741102 0.879758
O O16 0.446871 0.079044 0.652348
O O17 0.392618 0.172591 0.532641
#
# Coordination Sequence:
#
# PCOD9226548 Si02
#       8
#     4   4   4   4   4   4   4   4
#     4  10  19  35  52  73 110 144 182 218 269 322
#     4  10  23  36  54  78 112 145 184 218 271 334
#     4   8  18  32  46  72 111 139 174 218 268 316
#     4  10  18  31  51  79 111 140 172 220 266 325
#     4  10  21  39  54  77 111 150 175 223 274 326
#     4  10  18  28  49  83 110 142 172 223 269 323
#     4  10  17  32  54  77 114 138 174 216 271 326
#     4  10  18  29  50  81 108 141 174 224 272 315
#
# _framework density 19.599948999999999
#
# number of rings (size 3 to 8) (size 9 to 14) (size 15 to 20)
#    0.000    2.500    3.750    1.500    3.500    5.500 
#    0.000    0.000    0.000    0.750    0.000    0.000 
#    0.000    0.000    0.000    0.000    0.000    0.000 
#
# Total GULP energy -178331.357196 kJ/mol
# GULP energy per Si atom -5572.854912 kJ/mol
# Density = 1.955534 g / cm^3
# Si number density = 19.599949 Si / 1000 Ang^3
#
#
#
# Elastic Constant Matrix: (Units=GPa)
#
#
# Indices 1 2 3 4 5 6 
#
# 1 99.1877 -1.0329 28.5922 0.0000 -9.3318 0.0000
# 2 -1.0329 19.7301 10.3218 0.0000 -5.6650 0.0000
# 3 28.5922 10.3218 47.6470 0.0000 -20.0407 0.0000
# 4 0.0000 0.0000 0.0000 8.8644 0.0000 -9.9134
# 5 -9.3318 -5.6650 -20.0407 0.0000 43.7787 0.0000
# 6 0.0000 0.0000 0.0000 -9.9134 0.0000 10.3135
#
#
#
# Elastic Compliance Matrix: (Units=1/GPa)
#
#
# Indices 1 2 3 4 5 6 
#
# 1 0.012672 0.005176 -0.009050 0.000000 -0.000772 0.000000
# 2 0.005176 0.059439 -0.015213 0.000000 0.001831 0.000000
# 3 -0.009050 -0.015213 0.034769 0.000000 0.012019 0.000000
# 4 0.000000 0.000000 0.000000 -1.505277 0.000000 -1.446879
# 5 -0.000772 0.001831 0.012019 0.000000 0.028416 0.000000
# 6 0.000000 0.000000 0.000000 -1.446879 0.000000 -1.293787
#
#
# Mechanical properties :
#
#
# Convention : Reuss Voigt Hill
#
# Bulk Modulus (GPa) = 14.55439 26.92522 20.73981
# Shear Modulus (GPa) = -1.92109 21.17023 9.62457
#
# Velocity S-wave (km/s) = -0.99110 3.29008 2.21837
# Velocity P-wave (km/s) = 2.47632 5.31037 4.14320
#
# Compressibility (1/GPa) = 0.06870779
#
# Stress axis : x y z
#
# Youngs Moduli (GPa) = 78.91362 16.82389 28.76096
#
# Poissons Ratio (x) = -0.08709 0.26030
# Poissons Ratio (y) = -0.40849 0.43753
# Poissons Ratio (z) = 0.71420 0.25593
#
# Static dielectric constant tensor:
#      x y z
#    x 1.769230 0.000000 -0.034340 
#    y 0.000000 1.726030 0.000000 
#    z -0.034340 0.000000 1.747280 
# 
# From -- ./inp_files/93345.got.cif
#   From: 2010.05.17/outbox.cif.g08.bks.cpg/sg13_47_cif.got.tgz:93345.got - 2010.06.03 16:44:36.
