data_PCOD9226860
_publ_section_title
;
Structure prediction by ZEFSAII (Michael W. Deem and Ramdas Pophale) SiO2 
 PCOD9226860
Probable space group: P 2/C
;
_chemical_formula_sum "Si O2"
_cell_formula_units_Z 30
_cell_length_a 28.546960
_cell_length_b 7.495550
_cell_length_c 8.632345
_cell_angle_alpha 90.000000
_cell_angle_beta 131.896035
_cell_angle_gamma 90.000000
_cell_volume 1374.908767
_symmetry_space_group_name_H-M "P 2/C"
_symmetry_group_IT_number 13
_symmetry_cell_setting 'monoclinic'
loop_
_space_group_symop_operation_xyz
x,y,z
-x,y,1/2-z
-x,-y,-z
x,-y,1/2+z
loop_
_atom_site_type_symbol
_atom_site_label
_atom_site_fract_x
_atom_site_fract_y
_atom_site_fract_z
Si Si1 0.323826 0.246345 0.207216
Si Si2 0.000000 0.379596 0.250000
Si Si3 0.543318 0.412045 0.967163
Si Si4 0.169682 0.395814 0.151395
Si Si5 0.641724 0.062050 0.918363
Si Si6 0.916021 0.620107 0.300172
Si Si7 0.611613 0.242377 0.555119
Si Si8 0.746961 0.605460 0.400332
O O1 0.396208 0.306455 0.339007
O O2 0.314409 0.071075 0.084189
O O3 0.280352 0.417340 0.093871
O O4 0.322110 0.185025 0.381105
O O5 0.041153 0.505534 0.225398
O O6 0.042385 0.279481 0.475279
O O7 0.500000 0.307792 0.750000
O O8 0.500000 0.500000 0.000000
O O9 0.573700 0.579706 0.942106
O O10 0.122954 0.488337 0.172527
O O11 0.206340 0.548601 0.134103
O O12 0.217953 0.303056 0.377236
O O13 0.132513 0.291914 0.931458
O O14 0.604130 0.183443 0.716109
O O15 0.598709 0.929382 0.923968
O O16 0.685913 0.290180 0.706117
#
# Coordination Sequence:
#
# PCOD9226860 Si02
#       8
#     4   2   4   4   4   4   4   4
#     4  10  21  36  53  71  94 125 160 192 241 297
#     4   8  12  22  36  48  88 140 172 186 228 288
#     4  11  22  38  56  74  94 122 158 199 238 289
#     4   9  16  24  40  67  92 114 168 212 230 264
#     4  10  20  36  52  72  96 118 156 199 232 296
#     4   8  14  22  34  59  88 127 172 200 226 276
#     4  10  21  36  53  71  94 125 160 192 241 297
#     4  10  18  31  50  68  92 128 162 197 236 289
#
# _framework density 21.819631000000001
#
# number of rings (size 3 to 8) (size 9 to 14) (size 15 to 20)
#    0.000    2.400    0.000    3.200    0.000    4.267 
#    0.000   13.333    0.000    0.000    0.000    0.000 
#    0.000    0.000    0.000    0.000    0.000 17160.001 
#
# Total GULP energy -167054.117343 kJ/mol
# GULP energy per Si atom -5568.470578 kJ/mol
# Density = 2.176997 g / cm^3
# Si number density = 21.819631 Si / 1000 Ang^3
#
#
#
# Elastic Constant Matrix: (Units=GPa)
#
#
# Indices 1 2 3 4 5 6 
#
# 1 116.4186 1.3323 33.5955 0.0000 -10.1445 0.0000
# 2 1.3323 39.6058 10.3918 0.0000 0.2665 0.0000
# 3 33.5955 10.3918 130.1143 0.0000 -19.6048 0.0000
# 4 0.0000 0.0000 0.0000 35.9470 0.0000 -20.0651
# 5 -10.1445 0.2665 -19.6048 0.0000 31.6988 0.0000
# 6 0.0000 0.0000 0.0000 -20.0651 0.0000 15.8434
#
#
#
# Elastic Compliance Matrix: (Units=1/GPa)
#
#
# Indices 1 2 3 4 5 6 
#
# 1 0.009362 0.000249 -0.002190 0.000000 0.001639 0.000000
# 2 0.000249 0.025874 -0.002373 0.000000 -0.001605 0.000000
# 3 -0.002190 -0.002373 0.009195 0.000000 0.005006 0.000000
# 4 0.000000 0.000000 0.000000 0.094918 0.000000 0.120210
# 5 0.001639 -0.001605 0.005006 0.000000 0.035181 0.000000
# 6 0.000000 0.000000 0.000000 0.120210 0.000000 0.215360
#
#
# Mechanical properties :
#
#
# Convention : Reuss Voigt Hill
#
# Bulk Modulus (GPa) = 27.93107 41.86421 34.89764
# Shear Modulus (GPa) = 12.18172 32.75246 22.46709
#
# Velocity S-wave (km/s) = 2.36538 3.87855 3.21233
# Velocity P-wave (km/s) = 4.50430 6.26783 5.45776
#
# Compressibility (1/GPa) = 0.03580243
#
# Stress axis : x y z
#
# Youngs Moduli (GPa) = 106.81836 38.64917 108.75790
#
# Poissons Ratio (x) = -0.00961 0.23818
# Poissons Ratio (y) = -0.02656 0.25803
# Poissons Ratio (z) = 0.23393 0.09170
#
# Static dielectric constant tensor:
#      x y z
#    x 1.859920 0.000000 0.024590 
#    y 0.000000 1.714520 0.000000 
#    z 0.024590 0.000000 1.937940 
# 
# From -- ./inp_files/23875.got.cif
#   From: 2010.05.17/outbox.cif.g08.bks.cpg/sg13_12_cif.got.tgz:23875.got - 2010.06.03 16:44:36.
