data_PCOD9226528
_publ_section_title
;
Structure prediction by ZEFSAII (Michael W. Deem and Ramdas Pophale) SiO2 
 PCOD9226528
Probable space group: P 2/C
;
_chemical_formula_sum "Si O2"
_cell_formula_units_Z 32
_cell_length_a 10.645338
_cell_length_b 9.134239
_cell_length_c 15.981722
_cell_angle_alpha 90.000000
_cell_angle_beta 105.565866
_cell_angle_gamma 90.000000
_cell_volume 1497.018438
_symmetry_space_group_name_H-M "P 2/C"
_symmetry_group_IT_number 13
_symmetry_cell_setting 'monoclinic'
loop_
_space_group_symop_operation_xyz
x,y,z
-x,y,1/2-z
-x,-y,-z
x,-y,1/2+z
loop_
_atom_site_type_symbol
_atom_site_label
_atom_site_fract_x
_atom_site_fract_y
_atom_site_fract_z
Si Si1 0.127592 0.095909 0.431961
Si Si2 0.706557 0.337134 0.133260
Si Si3 0.509999 0.253856 0.515006
Si Si4 0.291385 0.837160 0.693483
Si Si5 0.206254 0.651269 0.370900
Si Si6 0.802261 0.939359 0.213030
Si Si7 0.873960 0.799059 0.981260
Si Si8 0.491293 0.993180 0.118141
O O1 0.222768 0.220912 0.414869
O O2 0.011070 0.171371 0.461085
O O3 0.105409 0.008419 0.341132
O O4 0.176147 0.960223 0.497451
O O5 0.573518 0.362057 0.057631
O O6 0.683244 0.264375 0.220516
O O7 0.791820 0.483218 0.155021
O O8 0.647403 0.314244 0.569770
O O9 0.444853 0.169522 0.582817
O O10 0.527379 0.114911 0.456761
O O11 0.227059 0.745375 0.607059
O O12 0.188041 0.962641 0.703205
O O13 0.408308 0.932315 0.676297
O O14 0.179409 0.766056 0.291064
O O15 0.120452 0.696287 0.436330
O O16 0.647775 0.970577 0.160910
#
# Coordination Sequence:
#
# PCOD9226528 Si02
#       8
#     4   4   4   4   4   4   4   4
#     4   9  19  37  58  82 103 135 189 229 266 318
#     4  11  22  34  53  80 117 149 174 219 281 334
#     4  10  18  33  56  79 106 142 183 223 260 324
#     4  11  20  32  57  82 107 138 184 231 270 323
#     4  10  21  37  53  77 115 152 175 213 276 332
#     4   9  19  33  54  79 111 139 172 232 277 315
#     4  10  20  36  61  82 101 138 192 238 262 316
#     4  10  17  31  58  82 100 136 189 225 267 310
#
# _framework density 21.375820999999998
#
# number of rings (size 3 to 8) (size 9 to 14) (size 15 to 20)
#    0.000    2.000    3.750    1.500    0.000    2.500 
#    0.000    2.500    8.250    4.500    0.000    0.000 
#    0.000    0.000    0.000    0.000    0.000    0.000 
#
# Total GULP energy -178148.833483 kJ/mol
# GULP energy per Si atom -5567.151046 kJ/mol
# Density = 2.132717 g / cm^3
# Si number density = 21.375821 Si / 1000 Ang^3
#
#
#
# Elastic Constant Matrix: (Units=GPa)
#
#
# Indices 1 2 3 4 5 6 
#
# 1 66.4142 12.9845 16.5944 0.0000 -25.1461 0.0000
# 2 12.9845 68.2184 22.2881 0.0000 -22.4007 0.0000
# 3 16.5944 22.2881 75.8890 0.0000 -23.3306 0.0000
# 4 0.0000 0.0000 0.0000 17.7749 0.0000 -0.8451
# 5 -25.1461 -22.4007 -23.3306 0.0000 33.1942 0.0000
# 6 0.0000 0.0000 0.0000 -0.8451 0.0000 19.6034
#
#
#
# Elastic Compliance Matrix: (Units=1/GPa)
#
#
# Indices 1 2 3 4 5 6 
#
# 1 0.021249 0.001568 0.000213 0.000000 0.017306 0.000000
# 2 0.001568 0.019206 -0.002084 0.000000 0.012684 0.000000
# 3 0.000213 -0.002084 0.017042 0.000000 0.010733 0.000000
# 4 0.000000 0.000000 0.000000 0.056374 0.000000 0.002430
# 5 0.017306 0.012684 0.010733 0.000000 0.059339 0.000000
# 6 0.000000 0.000000 0.000000 0.002430 0.000000 0.051116
#
#
# Mechanical properties :
#
#
# Convention : Reuss Voigt Hill
#
# Bulk Modulus (GPa) = 17.57690 34.91729 26.24709
# Shear Modulus (GPa) = 20.50039 24.69150 22.59594
#
# Velocity S-wave (km/s) = 3.10021 3.40238 3.25480
# Velocity P-wave (km/s) = 4.58865 5.63962 5.14106
#
# Compressibility (1/GPa) = 0.05689285
#
# Stress axis : x y z
#
# Youngs Moduli (GPa) = 47.06000 52.06607 58.67734
#
# Poissons Ratio (x) = -0.08166 -0.01250
# Poissons Ratio (y) = -0.07381 0.12229
# Poissons Ratio (z) = -0.01003 0.10851
#
# Static dielectric constant tensor:
#      x y z
#    x 1.875240 0.000000 0.045510 
#    y 0.000000 1.802920 0.000000 
#    z 0.045510 0.000000 1.915240 
# 
# From -- ./inp_files/66044.got.cif
#   From: 2010.05.17/outbox.cif.g08.bks.cpg/sg13_34_cif.got.tgz:66044.got - 2010.06.03 16:44:36.
