data_PCOD9226071
_publ_section_title
;
Structure prediction by ZEFSAII (Michael W. Deem and Ramdas Pophale) SiO2 
 PCOD9226071
Probable space group: P 2/C
;
_chemical_formula_sum "Si O2"
_cell_formula_units_Z 24
_cell_length_a 19.247831
_cell_length_b 6.787953
_cell_length_c 9.168359
_cell_angle_alpha 90.000000
_cell_angle_beta 117.224210
_cell_angle_gamma 90.000000
_cell_volume 1065.179977
_symmetry_space_group_name_H-M "P 2/C"
_symmetry_group_IT_number 13
_symmetry_cell_setting 'monoclinic'
loop_
_space_group_symop_operation_xyz
x,y,z
-x,y,1/2-z
-x,-y,-z
x,-y,1/2+z
loop_
_atom_site_type_symbol
_atom_site_label
_atom_site_fract_x
_atom_site_fract_y
_atom_site_fract_z
Si Si1 0.296916 0.764592 0.832435
Si Si2 0.853480 0.042801 0.420468
Si Si3 0.050107 0.628185 0.662683
Si Si4 0.448889 0.379639 0.566893
Si Si5 0.846579 0.737905 0.202087
Si Si6 0.703289 0.532862 0.953662
O O1 0.237279 0.922538 0.714241
O O2 0.288553 0.585909 0.706863
O O3 0.390529 0.783594 0.939678
O O4 0.270480 0.682985 0.965055
O O5 0.904350 0.202428 0.380224
O O6 0.865861 0.098492 0.599162
O O7 0.870503 0.825663 0.380084
O O8 0.109551 0.465278 0.784689
O O9 0.000000 0.705650 0.750000
O O10 0.000000 0.500000 0.500000
O O11 0.500000 0.300658 0.750000
O O12 0.500000 0.500000 0.500000
O O13 0.386351 0.530460 0.580898
O O14 0.755948 0.689196 0.089423
#
# Coordination Sequence:
#
# PCOD9226071 Si02
#       6
#     4   4   4   4   4   4
#     4   9  18  33  56  84 115 153 202 242 296 351
#     4  11  25  43  64  91 124 163 207 252 301 369
#     4  12  25  44  67  93 125 158 199 253 313 365
#     4  10  15  28  53  88 116 154 201 247 302 359
#     4  11  25  43  64  92 123 164 208 249 304 365
#     4   9  18  33  56  84 116 153 201 241 296 354
#
# _framework density 22.531403999999998
#
# number of rings (size 3 to 8) (size 9 to 14) (size 15 to 20)
#    1.000    0.667    5.000    0.000    2.333    2.667 
#    0.000    0.000    0.000    2.000    0.000    0.000 
#    0.000    0.000    0.000    0.000    0.000    0.000 
#
# Total GULP energy -133782.069443 kJ/mol
# GULP energy per Si atom -5574.252893 kJ/mol
# Density = 2.248012 g / cm^3
# Si number density = 22.531404 Si / 1000 Ang^3
#
#
#
# Elastic Constant Matrix: (Units=GPa)
#
#
# Indices 1 2 3 4 5 6 
#
# 1 78.1848 10.2192 17.2403 0.0000 4.0863 0.0000
# 2 10.2192 23.8583 -0.4384 0.0000 4.6604 0.0000
# 3 17.2403 -0.4384 84.3652 0.0000 10.7085 0.0000
# 4 0.0000 0.0000 0.0000 33.5227 0.0000 -3.9168
# 5 4.0863 4.6604 10.7085 0.0000 31.2121 0.0000
# 6 0.0000 0.0000 0.0000 -3.9168 0.0000 11.7418
#
#
#
# Elastic Compliance Matrix: (Units=1/GPa)
#
#
# Indices 1 2 3 4 5 6 
#
# 1 0.014244 -0.006169 -0.002952 0.000000 0.000069 0.000000
# 2 -0.006169 0.045941 0.002371 0.000000 -0.006865 0.000000
# 3 -0.002952 0.002371 0.013032 0.000000 -0.004439 0.000000
# 4 0.000000 0.000000 0.000000 0.031040 0.000000 0.010354
# 5 0.000069 -0.006865 -0.004439 0.000000 0.034578 0.000000
# 6 0.000000 0.000000 0.000000 0.010354 0.000000 0.088620
#
#
# Mechanical properties :
#
#
# Convention : Reuss Voigt Hill
#
# Bulk Modulus (GPa) = 16.74541 26.71672 21.73107
# Shear Modulus (GPa) = 19.16741 25.92115 22.54428
#
# Velocity S-wave (km/s) = 2.91984 3.39550 3.16661
# Velocity P-wave (km/s) = 4.33768 5.22071 4.79955
#
# Compressibility (1/GPa) = 0.05971785
#
# Stress axis : x y z
#
# Youngs Moduli (GPa) = 70.20637 21.76707 76.73352
#
# Poissons Ratio (x) = 0.13427 0.22648
# Poissons Ratio (y) = 0.43308 -0.18192
# Poissons Ratio (z) = 0.20722 -0.05160
#
# Static dielectric constant tensor:
#      x y z
#    x 1.862730 0.000000 0.039250 
#    y 0.000000 1.840520 0.000000 
#    z 0.039250 0.000000 1.874350 
# 
# From -- ./inp_files/22578.got.cif
#   From: 2010.05.17/outbox.cif.g08.bks.cpg/sg13_12_cif.got.tgz:22578.got - 2010.06.03 16:44:36.
