data_PCOD9226373
_publ_section_title
;
Structure prediction by ZEFSAII (Michael W. Deem and Ramdas Pophale) SiO2 
 PCOD9226373
Probable space group: P 2/C
;
_chemical_formula_sum "Si O2"
_cell_formula_units_Z 24
_cell_length_a 7.988743
_cell_length_b 25.123146
_cell_length_c 5.483505
_cell_angle_alpha 90.000000
_cell_angle_beta 59.687327
_cell_angle_gamma 90.000000
_cell_volume 950.089187
_symmetry_space_group_name_H-M "P 2/C"
_symmetry_group_IT_number 13
_symmetry_cell_setting 'monoclinic'
loop_
_space_group_symop_operation_xyz
x,y,z
-x,y,1/2-z
-x,-y,-z
x,-y,1/2+z
loop_
_atom_site_type_symbol
_atom_site_label
_atom_site_fract_x
_atom_site_fract_y
_atom_site_fract_z
Si Si1 0.276258 0.480497 0.632593
Si Si2 0.765624 0.857937 0.424478
Si Si3 0.280601 0.981263 0.949047
Si Si4 0.235039 0.801596 0.575264
Si Si5 0.718190 0.678860 0.052494
Si Si6 0.273442 0.359580 0.454353
O O1 0.500000 0.500000 0.500000
O O2 0.194589 0.514097 0.465209
O O3 0.263911 0.420308 0.548133
O O4 0.712750 0.919712 0.482755
O O5 0.700894 0.828329 0.718908
O O6 0.000000 0.855651 0.250000
O O7 0.701350 0.831633 0.217895
O O8 0.500000 0.002320 0.750000
O O9 0.192075 0.988107 0.745079
O O10 0.293503 0.740184 0.515549
O O11 0.000000 0.802569 0.750000
O O12 0.500000 0.656188 0.250000
O O13 0.805111 0.674064 0.259509
O O14 0.809671 0.649019 0.754261
O O15 0.500000 0.344510 0.250000
#
# Coordination Sequence:
#
# PCOD9226373 Si02
#       6
#     4   4   4   4   4   4
#     4  10  17  24  41  63  95 139 163 190 248 313
#     4  10  21  36  57  79 101 135 177 222 256 299
#     4  10  21  36  54  81 114 143 171 208 257 312
#     4  10  21  38  55  75 102 134 179 218 257 306
#     4  10  21  32  49  72 102 134 161 213 259 301
#     4  10  18  29  43  68 103 134 160 204 252 308
#
# _framework density 25.260784000000001
#
# number of rings (size 3 to 8) (size 9 to 14) (size 15 to 20)
#    0.000    2.000    1.667    3.000    4.667    2.000 
#    0.000    0.000    0.000    0.000    0.000    0.000 
#    0.000   13.333    0.000    0.000    0.000    0.000 
#
# Total GULP energy -134280.026451 kJ/mol
# GULP energy per Si atom -5595.001102 kJ/mol
# Density = 2.520329 g / cm^3
# Si number density = 25.260784 Si / 1000 Ang^3
#
#
#
# Elastic Constant Matrix: (Units=GPa)
#
#
# Indices 1 2 3 4 5 6 
#
# 1 101.6477 -8.1164 54.3020 0.0000 17.4859 0.0000
# 2 -8.1164 142.0153 66.8301 0.0000 35.5456 0.0000
# 3 54.3020 66.8301 246.9097 0.0000 48.3015 0.0000
# 4 0.0000 0.0000 0.0000 123.2382 0.0000 -104.2096
# 5 17.4859 35.5456 48.3015 0.0000 55.5816 0.0000
# 6 0.0000 0.0000 0.0000 -104.2096 0.0000 223.1165
#
#
#
# Elastic Compliance Matrix: (Units=1/GPa)
#
#
# Indices 1 2 3 4 5 6 
#
# 1 0.012102 0.002802 -0.002801 0.000000 -0.003165 0.000000
# 2 0.002802 0.009500 -0.002201 0.000000 -0.005044 0.000000
# 3 -0.002801 -0.002201 0.005800 0.000000 -0.002752 0.000000
# 4 0.000000 0.000000 0.000000 0.013411 0.000000 0.006264
# 5 -0.003165 -0.005044 -0.002752 0.000000 0.024605 0.000000
# 6 0.000000 0.000000 0.000000 0.006264 0.000000 0.007408
#
#
# Mechanical properties :
#
#
# Convention : Reuss Voigt Hill
#
# Bulk Modulus (GPa) = 43.47236 79.62267 61.54752
# Shear Modulus (GPa) = 58.89812 105.55772 82.22792
#
# Velocity S-wave (km/s) = 4.83391 6.47131 5.71159
# Velocity P-wave (km/s) = 6.95718 9.35018 8.24100
#
# Compressibility (1/GPa) = 0.02300312
#
# Stress axis : x y z
#
# Youngs Moduli (GPa) = 82.62828 105.26504 172.41349
#
# Poissons Ratio (x) = -0.29495 0.48290
# Poissons Ratio (y) = -0.23152 0.37943
# Poissons Ratio (z) = 0.23143 0.23166
#
# Static dielectric constant tensor:
#      x y z
#    x 2.061070 0.000000 0.055220 
#    y 0.000000 1.889960 0.000000 
#    z 0.055220 0.000000 1.952110 
# 
# From -- ./inp_files/3846.got.cif
#   From: 2010.05.17/outbox.cif.g08.bks.cpg/sg13_2_cif.got.tgz:3846.got - 2010.06.03 16:44:36.
