data_PCOD9226952
_publ_section_title
;
Structure prediction by ZEFSAII (Michael W. Deem and Ramdas Pophale) SiO2 
 PCOD9226952
Probable space group: P 2/C
;
_chemical_formula_sum "Si O2"
_cell_formula_units_Z 30
_cell_length_a 11.063736
_cell_length_b 6.359319
_cell_length_c 22.590901
_cell_angle_alpha 90.000000
_cell_angle_beta 51.623338
_cell_angle_gamma 90.000000
_cell_volume 1246.041016
_symmetry_space_group_name_H-M "P 2/C"
_symmetry_group_IT_number 13
_symmetry_cell_setting 'monoclinic'
loop_
_space_group_symop_operation_xyz
x,y,z
-x,y,1/2-z
-x,-y,-z
x,-y,1/2+z
loop_
_atom_site_type_symbol
_atom_site_label
_atom_site_fract_x
_atom_site_fract_y
_atom_site_fract_z
Si Si1 0.165337 0.326584 0.549802
Si Si2 0.439223 0.085646 0.679660
Si Si3 0.041789 0.308770 0.031696
Si Si4 0.599308 0.640155 0.423576
Si Si5 0.148356 0.311878 0.799605
Si Si6 0.000000 0.995971 0.250000
Si Si7 0.236753 0.298482 0.205069
Si Si8 0.230852 0.065295 0.415794
O O1 0.151289 0.578510 0.546004
O O2 0.262370 0.266988 0.578112
O O3 0.243332 0.220178 0.469191
O O4 0.983174 0.271804 0.611668
O O5 0.346096 0.868241 0.703195
O O6 0.605036 0.020109 0.653973
O O7 0.461524 0.187261 0.605965
O O8 0.327102 0.244047 0.750332
O O9 0.879610 0.193826 0.095592
O O10 0.000000 0.500000 0.000000
O O11 0.139416 0.133294 0.969010
O O12 0.500000 0.500000 0.500000
O O13 0.667866 0.464756 0.360216
O O14 0.142629 0.552316 0.778983
O O15 0.084557 0.157809 0.768675
O O16 0.867727 0.160965 0.307447
#
# Coordination Sequence:
#
# PCOD9226952 Si02
#       8
#     4   4   4   4   4   2   4   4
#     4  11  21  35  58  86 117 151 197 248 293 352
#     4  10  22  37  57  84 121 161 191 233 302 365
#     4   9  21  39  62  83 104 142 192 244 300 351
#     4  11  22  33  52  89 123 150 194 243 290 351
#     4  10  21  34  52  83 117 154 195 235 286 353
#     4  10  18  32  50  72 110 158 194 218 268 344
#     4  10  20  35  52  76 119 161 188 224 286 353
#     4  10  21  40  62  83 109 147 196 245 294 353
#
# _framework density 24.076253999999999
#
# number of rings (size 3 to 8) (size 9 to 14) (size 15 to 20)
#    0.000    1.867    0.000    5.200    0.000   10.667 
#    0.000    0.000    0.000   19.200    0.000    0.000 
#    0.000    0.000    0.000    0.000    0.000    0.000 
#
# Total GULP energy -167333.860954 kJ/mol
# GULP energy per Si atom -5577.795365 kJ/mol
# Density = 2.402146 g / cm^3
# Si number density = 24.076254 Si / 1000 Ang^3
#
#
#
# Elastic Constant Matrix: (Units=GPa)
#
#
# Indices 1 2 3 4 5 6 
#
# 1 76.9795 39.2250 22.2054 0.0000 -14.1684 0.0000
# 2 39.2250 121.2008 11.4501 0.0000 -3.1249 0.0000
# 3 22.2054 11.4501 82.3657 0.0000 -17.1155 0.0000
# 4 0.0000 0.0000 0.0000 36.4892 0.0000 -9.6505
# 5 -14.1684 -3.1249 -17.1155 0.0000 40.5903 0.0000
# 6 0.0000 0.0000 0.0000 -9.6505 0.0000 26.4009
#
#
#
# Elastic Compliance Matrix: (Units=1/GPa)
#
#
# Indices 1 2 3 4 5 6 
#
# 1 0.017324 -0.005207 -0.003040 0.000000 0.004364 0.000000
# 2 -0.005207 0.009927 -0.000214 0.000000 -0.001143 0.000000
# 3 -0.003040 -0.000214 0.013992 0.000000 0.004823 0.000000
# 4 0.000000 0.000000 0.000000 0.030338 0.000000 0.011090
# 5 0.004364 -0.001143 0.004823 0.000000 0.028105 0.000000
# 6 0.000000 0.000000 0.000000 0.011090 0.000000 0.041931
#
#
# Mechanical properties :
#
#
# Convention : Reuss Voigt Hill
#
# Bulk Modulus (GPa) = 41.11504 47.36746 44.24125
# Shear Modulus (GPa) = 30.00376 34.54043 32.27210
#
# Velocity S-wave (km/s) = 3.53398 3.79176 3.66514
# Velocity P-wave (km/s) = 5.81086 6.23591 6.02713
#
# Compressibility (1/GPa) = 0.02432200
#
# Stress axis : x y z
#
# Youngs Moduli (GPa) = 57.72413 100.73905 71.46782
#
# Poissons Ratio (x) = 0.52454 0.21724
# Poissons Ratio (y) = 0.30056 0.01528
# Poissons Ratio (z) = 0.17546 0.02154
#
# Static dielectric constant tensor:
#      x y z
#    x 1.986620 0.000000 -0.000690 
#    y 0.000000 1.946950 0.000000 
#    z -0.000690 0.000000 2.037330 
# 
# From -- ./inp_files/96441.got.cif
#   From: 2010.05.17/outbox.cif.g08.bks.cpg/sg13_49_cif.got.tgz:96441.got - 2010.06.03 16:44:36.
