data_PCOD9226078
_publ_section_title
;
Structure prediction by ZEFSAII (Michael W. Deem and Ramdas Pophale) SiO2 
 PCOD9226078
Probable space group: P 2/C
;
_chemical_formula_sum "Si O2"
_cell_formula_units_Z 32
_cell_length_a 17.672880
_cell_length_b 12.609056
_cell_length_c 20.844368
_cell_angle_alpha 90.000000
_cell_angle_beta 18.776334
_cell_angle_gamma 90.000000
_cell_volume 1495.083382
_symmetry_space_group_name_H-M "P 2/C"
_symmetry_group_IT_number 13
_symmetry_cell_setting 'monoclinic'
loop_
_space_group_symop_operation_xyz
x,y,z
-x,y,1/2-z
-x,-y,-z
x,-y,1/2+z
loop_
_atom_site_type_symbol
_atom_site_label
_atom_site_fract_x
_atom_site_fract_y
_atom_site_fract_z
Si Si1 0.687136 0.357696 0.045867
Si Si2 0.403656 0.281158 0.060063
Si Si3 0.170818 0.279996 0.695544
Si Si4 0.994385 0.858057 0.920236
Si Si5 0.725840 0.423539 0.452680
Si Si6 0.447475 0.089456 0.654203
Si Si7 0.857905 0.044520 0.796018
Si Si8 0.762077 0.216978 0.485706
O O1 0.500000 0.333953 0.250000
O O2 0.717425 0.272359 0.965337
O O3 0.623479 0.465324 0.058537
O O4 0.946366 0.356536 0.870176
O O5 0.212055 0.220958 0.258634
O O6 0.308372 0.376478 0.091434
O O7 0.629302 0.319032 0.917608
O O8 0.486141 0.184471 0.947604
O O9 0.099362 0.159903 0.767892
O O10 0.839230 0.786770 0.996370
O O11 0.063396 0.955313 0.818001
O O12 0.826946 0.902623 0.110151
O O13 0.639731 0.326618 0.565704
O O14 0.000000 0.433705 0.250000
O O15 0.594969 0.121652 0.599304
O O16 0.577938 0.981748 0.528467
O O17 0.000000 0.037346 0.750000
O O18 0.000000 0.209478 0.250000
#
# Coordination Sequence:
#
# PCOD9226078 Si02
#       8
#     4   4   4   4   4   4   4   4
#     4  11  25  45  67  91 117 157 221 269 313 386
#     4  10  23  41  63  94 132 164 203 253 322 389
#     4  11  25  46  65  85 126 174 207 262 320 370
#     4  11  19  32  59  93 126 164 206 257 300 364
#     4  10  18  40  66  91 123 159 196 258 322 375
#     4  10  20  32  57  94 128 160 208 256 303 358
#     4  11  20  38  57  86 121 169 216 254 309 365
#     4  10  15  31  55  88 122 156 201 250 301 367
#
# _framework density 21.403489
#
# number of rings (size 3 to 8) (size 9 to 14) (size 15 to 20)
#    0.000    1.500    8.750    0.375    0.000    6.500 
#    0.000    1.875    0.000    0.000    0.000    0.000 
#    0.000    0.000    0.000    0.000    0.000    0.000 
#
# Total GULP energy -178374.939599 kJ/mol
# GULP energy per Si atom -5574.216862 kJ/mol
# Density = 2.135477 g / cm^3
# Si number density = 21.403489 Si / 1000 Ang^3
#
#
#
# Elastic Constant Matrix: (Units=GPa)
#
#
# Indices 1 2 3 4 5 6 
#
# 1 63.9340 -0.6071 29.2906 0.0000 -26.7877 0.0000
# 2 -0.6071 76.6616 11.6472 0.0000 -6.9087 0.0000
# 3 29.2906 11.6472 118.7922 0.0000 7.3929 0.0000
# 4 0.0000 0.0000 0.0000 14.7712 0.0000 -4.3620
# 5 -26.7877 -6.9087 7.3929 0.0000 26.9124 0.0000
# 6 0.0000 0.0000 0.0000 -4.3620 0.0000 9.2114
#
#
#
# Elastic Compliance Matrix: (Units=1/GPa)
#
#
# Indices 1 2 3 4 5 6 
#
# 1 0.041861 0.006700 -0.013917 0.000000 0.047210 0.000000
# 2 0.006700 0.014712 -0.003810 0.000000 0.011493 0.000000
# 3 -0.013917 -0.003810 0.013375 0.000000 -0.018504 0.000000
# 4 0.000000 0.000000 0.000000 0.078706 0.000000 0.037271
# 5 0.047210 0.011493 -0.018504 0.000000 0.092183 0.000000
# 6 0.000000 0.000000 0.000000 0.037271 0.000000 0.126211
#
#
# Mechanical properties :
#
#
# Convention : Reuss Voigt Hill
#
# Bulk Modulus (GPa) = 20.87875 37.78324 29.33100
# Shear Modulus (GPa) = 12.34371 24.78281 18.56326
#
# Velocity S-wave (km/s) = 2.40409 3.40646 2.94819
# Velocity P-wave (km/s) = 4.18118 5.75875 5.03217
#
# Compressibility (1/GPa) = 0.04789558
#
# Stress axis : x y z
#
# Youngs Moduli (GPa) = 23.88843 67.97203 74.76833
#
# Poissons Ratio (x) = -0.45544 1.04053
# Poissons Ratio (y) = -0.16006 0.28485
# Poissons Ratio (z) = 0.33245 0.25896
#
# Static dielectric constant tensor:
#      x y z
#    x 1.833220 0.000000 -0.012850 
#    y 0.000000 1.799120 0.000000 
#    z -0.012850 0.000000 1.847610 
# 
# From -- ./inp_files/81135.got.cif
#   From: 2010.05.17/outbox.cif.g08.bks.cpg/sg13_41_cif.got.tgz:81135.got - 2010.06.03 16:44:36.
