data_PCOD9226114
_publ_section_title
;
Structure prediction by ZEFSAII (Michael W. Deem and Ramdas Pophale) SiO2 
 PCOD9226114
Probable space group: P 2/C
;
_chemical_formula_sum "Si O2"
_cell_formula_units_Z 28
_cell_length_a 25.628225
_cell_length_b 9.318743
_cell_length_c 5.528210
_cell_angle_alpha 90.000000
_cell_angle_beta 96.270413
_cell_angle_gamma 90.000000
_cell_volume 1312.364338
_symmetry_space_group_name_H-M "P 2/C"
_symmetry_group_IT_number 13
_symmetry_cell_setting 'monoclinic'
loop_
_space_group_symop_operation_xyz
x,y,z
-x,y,1/2-z
-x,-y,-z
x,-y,1/2+z
loop_
_atom_site_type_symbol
_atom_site_label
_atom_site_fract_x
_atom_site_fract_y
_atom_site_fract_z
Si Si1 0.939068 0.588342 0.725905
Si Si2 0.354509 0.832160 0.870093
Si Si3 0.313703 0.158515 0.849996
Si Si4 0.804677 0.192677 0.557912
Si Si5 0.521173 0.834396 0.510697
Si Si6 0.159078 0.225839 0.424982
Si Si7 0.761203 0.506820 0.495904
O O1 0.930720 0.491387 0.479512
O O2 0.896942 0.713650 0.681142
O O3 0.000000 0.634024 0.750000
O O4 0.340206 0.769680 0.599164
O O5 0.416157 0.830196 0.952438
O O6 0.337760 0.999306 0.838268
O O7 0.323560 0.774518 0.089995
O O8 0.252857 0.144093 0.886534
O O9 0.819202 0.139653 0.296626
O O10 0.798457 0.365703 0.519126
O O11 0.842780 0.165331 0.803505
O O12 0.500000 0.769429 0.750000
O O13 0.500000 0.000000 0.500000
O O14 0.500000 0.769760 0.250000
O O15 0.201013 0.355989 0.478890
O O16 0.730699 0.501409 0.230457
#
# Coordination Sequence:
#
# PCOD9226114 Si02
#       7
#     4   4   4   4   4   4   4
#     4  10  18  27  41  60  82 111 141 167 200 243
#     4  10  19  30  42  57  86 113 132 170 205 230
#     4  10  18  29  40  56  78 110 143 165 202 240
#     4  10  18  26  41  57  74 106 144 169 193 236
#     4  10  16  25  41  60  76 102 143 159 180 238
#     4  10  17  28  40  57  81 106 137 170 196 231
#     4   8  14  23  36  51  71  96 127 160 188 214
#
# _framework density 21.335538
#
# number of rings (size 3 to 8) (size 9 to 14) (size 15 to 20)
#    0.000    2.286    0.000    8.571    0.000    0.000 
#    0.000    0.000    0.000    0.000    0.000    0.000 
#    0.000    0.000    0.000   51.429    0.000 1572.000 
#
# Total GULP energy -156129.206305 kJ/mol
# GULP energy per Si atom -5576.043082 kJ/mol
# Density = 2.128698 g / cm^3
# Si number density = 21.335538 Si / 1000 Ang^3
#
#
#
# Elastic Constant Matrix: (Units=GPa)
#
#
# Indices 1 2 3 4 5 6 
#
# 1 79.6264 -2.3142 22.1903 0.0000 9.6314 0.0000
# 2 -2.3142 41.6013 -1.8771 0.0000 -0.0761 0.0000
# 3 22.1903 -1.8771 212.3498 0.0000 -23.1193 0.0000
# 4 0.0000 0.0000 0.0000 -12.3437 0.0000 -6.0188
# 5 9.6314 -0.0761 -23.1193 0.0000 44.6458 0.0000
# 6 0.0000 0.0000 0.0000 -6.0188 0.0000 16.3744
#
#
#
# Elastic Compliance Matrix: (Units=1/GPa)
#
#
# Indices 1 2 3 4 5 6 
#
# 1 0.013557 0.000664 -0.001832 0.000000 -0.003872 0.000000
# 2 0.000664 0.024081 0.000140 0.000000 -0.000030 0.000000
# 3 -0.001832 0.000140 0.005240 0.000000 0.003109 0.000000
# 4 0.000000 0.000000 0.000000 -0.068700 0.000000 -0.025252
# 5 -0.003872 -0.000030 0.003109 0.000000 0.024844 0.000000
# 6 0.000000 0.000000 0.000000 -0.025252 0.000000 0.051789
#
#
# Mechanical properties :
#
#
# Convention : Reuss Voigt Hill
#
# Bulk Modulus (GPa) = 24.49616 41.06395 32.78006
# Shear Modulus (GPa) = 75.21677 30.77386 52.99531
#
# Velocity S-wave (km/s) = 5.94397 3.80198 4.98928
# Velocity P-wave (km/s) = 7.65598 6.20983 6.97051
#
# Compressibility (1/GPa) = 0.04082272
#
# Stress axis : x y z
#
# Youngs Moduli (GPa) = 73.76260 41.52662 190.82328
#
# Poissons Ratio (x) = -0.02759 0.34967
# Poissons Ratio (y) = -0.04901 -0.02675
# Poissons Ratio (z) = 0.13516 -0.00582
#
# Static dielectric constant tensor:
#      x y z
#    x 1.733370 0.000000 -0.059300 
#    y 0.000000 1.672500 0.000000 
#    z -0.059300 0.000000 1.914370 
# 
# From -- ./inp_files/6212.got.cif
#   From: 2010.05.17/outbox.cif.g08.bks.cpg/sg13_4_cif.got.tgz:6212.got - 2010.06.03 16:44:36.
