data_PCOD9226828
_publ_section_title
;
Structure prediction by ZEFSAII (Michael W. Deem and Ramdas Pophale) SiO2 
 PCOD9226828
Probable space group: P 2/C
;
_chemical_formula_sum "Si O2"
_cell_formula_units_Z 32
_cell_length_a 9.657139
_cell_length_b 14.444342
_cell_length_c 23.557991
_cell_angle_alpha 90.000000
_cell_angle_beta 145.070971
_cell_angle_gamma 90.000000
_cell_volume 1881.509913
_symmetry_space_group_name_H-M "P 2/C"
_symmetry_group_IT_number 13
_symmetry_cell_setting 'monoclinic'
loop_
_space_group_symop_operation_xyz
x,y,z
-x,y,1/2-z
-x,-y,-z
x,-y,1/2+z
loop_
_atom_site_type_symbol
_atom_site_label
_atom_site_fract_x
_atom_site_fract_y
_atom_site_fract_z
Si Si1 0.596611 0.011351 0.844801
Si Si2 0.409958 0.393942 0.283315
Si Si3 0.776696 0.106059 0.216684
Si Si4 0.991546 0.750000 0.620773
Si Si5 0.648407 0.749999 0.949204
Si Si6 0.282592 0.511352 0.344801
Si Si7 0.537672 0.349619 0.012320
Si Si8 0.988393 0.849618 0.987681
O O1 0.500000 0.032687 0.750000
O O2 0.764786 0.093787 0.923560
O O3 0.376457 0.980509 0.811445
O O4 0.774733 0.922227 0.900336
O O5 0.500000 0.414885 0.250000
O O6 0.580922 0.322598 0.376081
O O7 0.369321 0.480510 0.311444
O O8 0.160802 0.337460 0.191711
O O9 0.576600 0.177403 0.123920
O O10 0.000000 0.085117 0.250000
O O11 0.893958 0.162540 0.308289
O O12 0.728133 0.725415 0.554930
O O13 0.991588 0.774585 0.554930
O O14 0.657549 0.697493 0.011895
O O15 0.890031 0.802506 0.011895
O O16 0.326606 0.422226 0.400334
O O17 0.429458 0.593785 0.423562
O O18 0.000000 0.532690 0.250000
#
# Coordination Sequence:
#
# PCOD9226828 Si02
#       8
#     4   4   4   4   4   4   4   4
#     4  10  20  36  53  79 113 149 174 222 289 333
#     4  10  18  30  54  82 109 136 185 234 274 316
#     4  10  18  30  54  82 109 136 185 234 274 316
#     4  11  18  32  55  84 106 138 187 238 263 320
#     4   9  18  30  51  82 106 140 185 230 269 324
#     4  10  20  36  53  79 113 149 174 222 289 333
#     4  10  20  34  55  81 111 142 185 227 277 330
#     4  10  20  34  55  81 111 142 185 227 277 330
#
# _framework density 17.007615999999999
#
# number of rings (size 3 to 8) (size 9 to 14) (size 15 to 20)
#    0.000    2.000    5.000    0.000    0.000    0.000 
#    0.000    5.000    0.000    0.000    0.000    0.000 
#    0.000    0.000    0.000    0.000    0.000    0.000 
#
# Total GULP energy -178363.072113 kJ/mol
# GULP energy per Si atom -5573.846004 kJ/mol
# Density = 1.696891 g / cm^3
# Si number density = 17.007616 Si / 1000 Ang^3
#
#
#
# Elastic Constant Matrix: (Units=GPa)
#
#
# Indices 1 2 3 4 5 6 
#
# 1 141.2958 45.1762 45.1405 0.0000 -4.4155 0.0000
# 2 45.1762 49.8670 24.8651 0.0000 -1.4996 0.0000
# 3 45.1405 24.8651 54.5122 0.0000 -1.9902 0.0000
# 4 0.0000 0.0000 0.0000 -1.9124 0.0000 -1.8334
# 5 -4.4155 -1.4996 -1.9902 0.0000 18.3426 0.0000
# 6 0.0000 0.0000 0.0000 -1.8334 0.0000 22.9307
#
#
#
# Elastic Compliance Matrix: (Units=1/GPa)
#
#
# Indices 1 2 3 4 5 6 
#
# 1 0.011375 -0.007236 -0.006064 0.000000 0.001489 0.000000
# 2 -0.007236 0.030574 -0.007957 0.000000 -0.000106 0.000000
# 3 -0.006064 -0.007957 0.027026 0.000000 0.000822 0.000000
# 4 0.000000 0.000000 0.000000 -0.485679 0.000000 -0.038831
# 5 0.001489 -0.000106 0.000822 0.000000 0.054957 0.000000
# 6 0.000000 0.000000 0.000000 -0.038831 0.000000 0.040505
#
#
# Mechanical properties :
#
#
# Convention : Reuss Voigt Hill
#
# Bulk Modulus (GPa) = 37.79508 52.89317 45.34413
# Shear Modulus (GPa) = -18.52488 16.57173 -0.97657
#
# Velocity S-wave (km/s) = -3.30390 3.12488 -0.75858
# Velocity P-wave (km/s) = 2.77783 6.64733 5.09428
#
# Compressibility (1/GPa) = 0.02645847
#
# Stress axis : x y z
#
# Youngs Moduli (GPa) = 87.91294 32.70800 37.00163
#
# Poissons Ratio (x) = 0.23669 0.22439
# Poissons Ratio (y) = 0.63617 0.29444
# Poissons Ratio (z) = 0.53312 0.26027
#
# Static dielectric constant tensor:
#      x y z
#    x 1.582980 0.000000 -0.001920 
#    y 0.000000 1.578720 0.000000 
#    z -0.001920 0.000000 1.556930 
# 
# From -- ./inp_files/76641.got.cif
#   From: 2010.05.17/outbox.cif.g08.bks.cpg/sg13_39_cif.got.tgz:76641.got - 2010.06.03 16:44:36.
