data_PCOD9226733
_publ_section_title
;
Structure prediction by ZEFSAII (Michael W. Deem and Ramdas Pophale) SiO2 
 PCOD9226733
Probable space group: P 2/C
;
_chemical_formula_sum "Si O2"
_cell_formula_units_Z 30
_cell_length_a 8.196319
_cell_length_b 8.374489
_cell_length_c 22.377364
_cell_angle_alpha 90.000000
_cell_angle_beta 85.190789
_cell_angle_gamma 90.000000
_cell_volume 1530.574305
_symmetry_space_group_name_H-M "P 2/C"
_symmetry_group_IT_number 13
_symmetry_cell_setting 'monoclinic'
loop_
_space_group_symop_operation_xyz
x,y,z
-x,y,1/2-z
-x,-y,-z
x,-y,1/2+z
loop_
_atom_site_type_symbol
_atom_site_label
_atom_site_fract_x
_atom_site_fract_y
_atom_site_fract_z
Si Si1 0.000000 0.457369 0.750000
Si Si2 0.367384 0.866511 0.520703
Si Si3 0.737371 0.932318 0.779706
Si Si4 0.064674 0.966250 0.606191
Si Si5 0.455773 0.194793 0.369661
Si Si6 0.676570 0.278314 0.730738
Si Si7 0.735802 0.145949 0.603331
Si Si8 0.137122 0.290532 0.331564
O O1 0.832329 0.358386 0.757654
O O2 0.966556 0.567780 0.693474
O O3 0.207891 0.952049 0.553765
O O4 0.449442 0.766908 0.571884
O O5 0.317237 0.789170 0.459534
O O6 0.500000 0.000000 0.500000
O O7 0.854671 0.982300 0.830844
O O8 0.590588 0.833091 0.814366
O O9 0.823351 0.828940 0.725498
O O10 0.675722 0.096110 0.753607
O O11 0.968155 0.799481 0.615344
O O12 0.926874 0.097218 0.597941
O O13 0.316403 0.317893 0.353793
O O14 0.364514 0.021333 0.381595
O O15 0.500000 0.353050 0.750000
O O16 0.702606 0.263365 0.659049
#
# Coordination Sequence:
#
# PCOD9226733 Si02
#       8
#     2   4   4   4   4   4   4   4
#     4  12  28  38  54  90 132 156 200 240 296 366
#     4   9  19  32  49  91 121 142 189 247 307 348
#     4  11  17  34  61  89 114 147 197 243 305 359
#     4  10  18  29  58  84 116 154 180 250 299 349
#     4   9  18  31  61  85 112 148 190 247 289 349
#     4  12  23  39  59  88 123 162 193 243 310 357
#     4  10  18  33  54  85 123 146 191 236 300 359
#     4  11  20  37  55  87 116 151 196 242 294 352
#
# _framework density 19.600484999999999
#
# number of rings (size 3 to 8) (size 9 to 14) (size 15 to 20)
#    0.000    1.600    5.333    1.600    0.000    1.067 
#    0.000    0.000    0.000    1.600    0.000    0.000 
#    0.000    0.000    0.000    0.000    0.000    0.000 
#
# Total GULP energy -167357.898749 kJ/mol
# GULP energy per Si atom -5578.596625 kJ/mol
# Density = 1.955587 g / cm^3
# Si number density = 19.600485 Si / 1000 Ang^3
#
#
#
# Elastic Constant Matrix: (Units=GPa)
#
#
# Indices 1 2 3 4 5 6 
#
# 1 164.3073 31.3072 66.4550 0.0000 1.8212 0.0000
# 2 31.3072 34.0116 16.6514 0.0000 4.2945 0.0000
# 3 66.4550 16.6514 116.0606 0.0000 11.5627 0.0000
# 4 0.0000 0.0000 0.0000 11.5916 0.0000 11.0364
# 5 1.8212 4.2945 11.5627 0.0000 44.0915 0.0000
# 6 0.0000 0.0000 0.0000 11.0364 0.0000 16.1883
#
#
#
# Elastic Compliance Matrix: (Units=1/GPa)
#
#
# Indices 1 2 3 4 5 6 
#
# 1 0.009071 -0.006363 -0.004421 0.000000 0.001404 0.000000
# 2 -0.006363 0.036248 -0.001265 0.000000 -0.002936 0.000000
# 3 -0.004421 -0.001265 0.011602 0.000000 -0.002737 0.000000
# 4 0.000000 0.000000 0.000000 0.245853 0.000000 -0.167612
# 5 0.001404 -0.002936 -0.002737 0.000000 0.023626 0.000000
# 6 0.000000 0.000000 0.000000 -0.167612 0.000000 0.176043
#
#
# Mechanical properties :
#
#
# Convention : Reuss Voigt Hill
#
# Bulk Modulus (GPa) = 30.46553 60.35631 45.41092
# Shear Modulus (GPa) = 9.30264 27.70534 18.50399
#
# Velocity S-wave (km/s) = 2.18092 3.76374 3.07589
# Velocity P-wave (km/s) = 4.68176 7.05321 5.98609
#
# Compressibility (1/GPa) = 0.03282398
#
# Stress axis : x y z
#
# Youngs Moduli (GPa) = 110.24087 27.58742 86.19386
#
# Poissons Ratio (x) = 0.17553 0.38107
# Poissons Ratio (y) = 0.70142 0.10903
# Poissons Ratio (z) = 0.48738 0.03490
#
# Static dielectric constant tensor:
#      x y z
#    x 1.746610 0.000000 0.029500 
#    y 0.000000 1.691310 0.000000 
#    z 0.029500 0.000000 1.701580 
# 
# From -- ./inp_files/84579.got.cif
#   From: 2010.05.17/outbox.cif.g08.bks.cpg/sg13_43_cif.got.tgz:84579.got - 2010.06.03 16:44:36.
