data_PCOD9226481
_publ_section_title
;
Structure prediction by ZEFSAII (Michael W. Deem and Ramdas Pophale) SiO2 
 PCOD9226481
Probable space group: P 2/C
;
_chemical_formula_sum "Si O2"
_cell_formula_units_Z 24
_cell_length_a 16.176380
_cell_length_b 5.314273
_cell_length_c 25.375039
_cell_angle_alpha 90.000000
_cell_angle_beta 25.040133
_cell_angle_gamma 90.000000
_cell_volume 923.276854
_symmetry_space_group_name_H-M "P 2/C"
_symmetry_group_IT_number 13
_symmetry_cell_setting 'monoclinic'
loop_
_space_group_symop_operation_xyz
x,y,z
-x,y,1/2-z
-x,-y,-z
x,-y,1/2+z
loop_
_atom_site_type_symbol
_atom_site_label
_atom_site_fract_x
_atom_site_fract_y
_atom_site_fract_z
Si Si1 0.243414 0.684336 0.549294
Si Si2 0.320746 0.292189 0.659008
Si Si3 0.698214 0.331606 0.607080
Si Si4 0.763915 0.811005 0.413316
Si Si5 0.819438 0.822880 0.587191
Si Si6 0.328704 0.796101 0.710576
O O1 0.441424 0.692774 0.470661
O O2 0.307240 0.665235 0.452343
O O3 0.127344 0.435615 0.630133
O O4 0.133695 0.937484 0.626938
O O5 0.284193 0.217409 0.620068
O O6 0.250178 0.560180 0.722209
O O7 0.247530 0.063918 0.737933
O O8 0.500000 0.413602 0.750000
O O9 0.845486 0.552752 0.542910
O O10 0.718997 0.035557 0.608998
O O11 0.559073 0.809120 0.564082
O O12 0.710268 0.767080 0.705341
O O13 0.000000 0.000000 0.500000
#
# Coordination Sequence:
#
# PCOD9226481 Si02
#       6
#     4   4   4   4   4   4
#     4  10  18  29  49  80 116 149 186 241 309 359
#     4  10  18  30  52  86 121 150 189 255 314 362
#     4  12  23  40  64  92 123 164 217 277 323 371
#     4  10  17  30  51  86 123 150 186 254 315 364
#     4  12  26  43  61  88 129 175 216 259 322 400
#     4  10  18  32  51  76 111 154 199 242 294 360
#
# _framework density 25.994368000000001
#
# number of rings (size 3 to 8) (size 9 to 14) (size 15 to 20)
#    0.000    1.333    0.000   12.000    0.000    0.000 
#    0.000    0.000    0.000    0.000    0.000   28.000 
#    0.000    0.000    0.000    0.000    0.000    0.000 
#
# Total GULP energy -134304.908021 kJ/mol
# GULP energy per Si atom -5596.037834 kJ/mol
# Density = 2.593520 g / cm^3
# Si number density = 25.994368 Si / 1000 Ang^3
#
#
#
# Elastic Constant Matrix: (Units=GPa)
#
#
# Indices 1 2 3 4 5 6 
#
# 1 79.6971 22.7955 44.5367 0.0000 24.9650 0.0000
# 2 22.7955 234.6749 10.3736 0.0000 30.0673 0.0000
# 3 44.5367 10.3736 109.8567 0.0000 33.0086 0.0000
# 4 0.0000 0.0000 0.0000 13.1576 0.0000 21.6022
# 5 24.9650 30.0673 33.0086 0.0000 44.7879 0.0000
# 6 0.0000 0.0000 0.0000 21.6022 0.0000 41.8688
#
#
#
# Elastic Compliance Matrix: (Units=1/GPa)
#
#
# Indices 1 2 3 4 5 6 
#
# 1 0.017434 -0.000789 -0.005437 0.000000 -0.005181 0.000000
# 2 -0.000789 0.004734 0.000894 0.000000 -0.003396 0.000000
# 3 -0.005437 0.000894 0.013476 0.000000 -0.007502 0.000000
# 4 0.000000 0.000000 0.000000 0.497032 0.000000 -0.256444
# 5 -0.005181 -0.003396 -0.007502 0.000000 0.033024 0.000000
# 6 0.000000 0.000000 0.000000 -0.256444 0.000000 0.156196
#
#
# Mechanical properties :
#
#
# Convention : Reuss Voigt Hill
#
# Bulk Modulus (GPa) = 40.03302 64.40446 52.21874
# Shear Modulus (GPa) = 6.74866 43.06437 24.90651
#
# Velocity S-wave (km/s) = 1.61302 4.07465 3.09876
# Velocity P-wave (km/s) = 4.34778 6.85326 5.73892
#
# Compressibility (1/GPa) = 0.02497938
#
# Stress axis : x y z
#
# Youngs Moduli (GPa) = 57.35757 211.25862 74.20350
#
# Poissons Ratio (x) = 0.16676 0.40342
# Poissons Ratio (y) = 0.04528 -0.06630
# Poissons Ratio (z) = 0.31184 -0.18876
#
# Static dielectric constant tensor:
#      x y z
#    x 2.120290 0.000000 -0.121010 
#    y 0.000000 2.203530 0.000000 
#    z -0.121010 0.000000 1.998320 
# 
# From -- ./inp_files/79237.got.cif
#   From: 2010.05.17/outbox.cif.g08.bks.cpg/sg13_40_cif.got.tgz:79237.got - 2010.06.03 16:44:36.
