data_PCOD9226623
_publ_section_title
;
Structure prediction by ZEFSAII (Michael W. Deem and Ramdas Pophale) SiO2 
 PCOD9226623
Probable space group: P 2/C
;
_chemical_formula_sum "Si O2"
_cell_formula_units_Z 16
_cell_length_a 5.325806
_cell_length_b 17.523103
_cell_length_c 9.547607
_cell_angle_alpha 90.000000
_cell_angle_beta 117.186961
_cell_angle_gamma 90.000000
_cell_volume 792.586718
_symmetry_space_group_name_H-M "P 2/C"
_symmetry_group_IT_number 13
_symmetry_cell_setting 'monoclinic'
loop_
_space_group_symop_operation_xyz
x,y,z
-x,y,1/2-z
-x,-y,-z
x,-y,1/2+z
loop_
_atom_site_type_symbol
_atom_site_label
_atom_site_fract_x
_atom_site_fract_y
_atom_site_fract_z
Si Si1 0.196579 0.539728 0.934430
Si Si2 0.637396 0.286279 0.061862
Si Si3 0.144419 0.774656 0.578414
Si Si4 0.179847 0.050651 0.151795
O O1 0.276204 0.629220 0.962765
O O2 0.000000 0.532183 0.750000
O O3 0.500000 0.500000 0.000000
O O4 0.000000 0.500000 0.000000
O O5 0.750679 0.264969 0.248261
O O6 0.307629 0.268648 0.996319
O O7 0.808255 0.232926 0.999426
O O8 0.216512 0.863406 0.602013
O O9 0.500000 0.020284 0.250000
O O10 0.000000 0.055794 0.250000
O O11 0.000000 0.000000 0.000000
#
# Coordination Sequence:
#
# PCOD9226623 Si02
#       4
#     4   4   4   4
#     4  12  25  40  64  98 131 165 212 272 331 381
#     4  10  18  34  63  88 112 162 231 253 283 382
#     4  10  17  34  63  90 111 163 237 249 283 381
#     4  12  23  40  64 102 133 169 214 277 327 386
#
# _framework density 20.187068
#
# number of rings (size 3 to 8) (size 9 to 14) (size 15 to 20)
#    0.000    1.000    7.500    3.000    3.500    0.000 
#    0.000    0.000    0.000   15.000    0.000    0.000 
#    0.000    0.000    0.000    0.000    0.000    0.000 
#
# Total GULP energy -89163.556731 kJ/mol
# GULP energy per Si atom -5572.722296 kJ/mol
# Density = 2.014112 g / cm^3
# Si number density = 20.187068 Si / 1000 Ang^3
#
#
#
# Elastic Constant Matrix: (Units=GPa)
#
#
# Indices 1 2 3 4 5 6 
#
# 1 209.2780 38.3626 31.6650 0.0000 1.1196 0.0000
# 2 38.3626 120.0203 33.3068 0.0000 -0.7632 0.0000
# 3 31.6650 33.3068 25.8932 0.0000 4.1264 0.0000
# 4 0.0000 0.0000 0.0000 16.8165 0.0000 2.6127
# 5 1.1196 -0.7632 4.1264 0.0000 29.8838 0.0000
# 6 0.0000 0.0000 0.0000 2.6127 0.0000 28.4505
#
#
#
# Elastic Compliance Matrix: (Units=1/GPa)
#
#
# Indices 1 2 3 4 5 6 
#
# 1 0.005886 0.000247 -0.007650 0.000000 0.000842 0.000000
# 2 0.000247 0.013183 -0.017701 0.000000 0.002772 0.000000
# 3 -0.007650 -0.017701 0.072363 0.000000 -0.010158 0.000000
# 4 0.000000 0.000000 0.000000 0.060326 0.000000 -0.005540
# 5 0.000842 0.002772 -0.010158 0.000000 0.034905 0.000000
# 6 0.000000 0.000000 0.000000 -0.005540 0.000000 0.035657
#
#
# Mechanical properties :
#
#
# Convention : Reuss Voigt Hill
#
# Bulk Modulus (GPa) = 24.25767 62.42892 43.34329
# Shear Modulus (GPa) = 17.46609 31.82066 24.64337
#
# Velocity S-wave (km/s) = 2.94464 3.97456 3.49771
# Velocity P-wave (km/s) = 4.85837 7.21493 6.15056
#
# Compressibility (1/GPa) = 0.04122407
#
# Stress axis : x y z
#
# Youngs Moduli (GPa) = 169.89359 75.85640 13.81924
#
# Poissons Ratio (x) = -0.01873 0.10572
# Poissons Ratio (y) = -0.04194 0.24461
# Poissons Ratio (z) = 1.29966 1.34272
#
# Static dielectric constant tensor:
#      x y z
#    x 2.330010 0.000000 0.743960 
#    y 0.000000 1.745770 0.000000 
#    z 0.743960 0.000000 2.687690 
# 
# From -- ./inp_files/9618.got.cif
#   From: 2010.05.17/outbox.cif.g08.bks.cpg/sg13_5_cif.got.tgz:9618.got - 2010.06.03 16:44:36.
