data_PCOD9226291
_publ_section_title
;
Structure prediction by ZEFSAII (Michael W. Deem and Ramdas Pophale) SiO2 
 PCOD9226291
Probable space group: P 2/C
;
_chemical_formula_sum "Si O2"
_cell_formula_units_Z 30
_cell_length_a 10.092046
_cell_length_b 11.374074
_cell_length_c 32.910617
_cell_angle_alpha 90.000000
_cell_angle_beta 154.776882
_cell_angle_gamma 90.000000
_cell_volume 1609.859672
_symmetry_space_group_name_H-M "P 2/C"
_symmetry_group_IT_number 13
_symmetry_cell_setting 'monoclinic'
loop_
_space_group_symop_operation_xyz
x,y,z
-x,y,1/2-z
-x,-y,-z
x,-y,1/2+z
loop_
_atom_site_type_symbol
_atom_site_label
_atom_site_fract_x
_atom_site_fract_y
_atom_site_fract_z
Si Si1 0.505801 0.079024 0.705522
Si Si2 0.251985 0.370269 0.256391
Si Si3 0.705939 0.884038 0.697396
Si Si4 0.500000 0.484952 0.750000
Si Si5 0.214553 0.441920 0.849656
Si Si6 0.255861 0.552901 0.542122
Si Si7 0.978733 0.712988 0.355794
Si Si8 0.843031 0.807698 0.015015
O O1 0.500000 0.028085 0.750000
O O2 0.718045 0.195593 0.768035
O O3 0.158106 0.119041 0.598071
O O4 0.632801 0.990810 0.707137
O O5 0.236911 0.230836 0.258139
O O6 0.444376 0.427368 0.272555
O O7 0.443034 0.411111 0.348615
O O8 0.922761 0.436304 0.169511
O O9 0.424332 0.860292 0.587542
O O10 0.000000 0.903368 0.750000
O O11 0.209207 0.394273 0.674057
O O12 0.580735 0.461678 0.943054
O O13 0.000000 0.414096 0.750000
O O14 0.154162 0.343289 0.866547
O O15 0.117879 0.673873 0.488342
O O16 0.000000 0.500000 0.500000
O O17 0.195195 0.785715 0.447128
#
# Coordination Sequence:
#
# PCOD9226291 Si02
#       8
#     4   4   4   2   4   4   4   4
#     4  10  22  40  64  87 116 163 207 254 301 355
#     4   9  19  33  55  82 113 157 194 241 296 361
#     4  11  23  41  61  86 120 164 208 254 304 356
#     4  10  16  32  60  90 118 152 198 242 312 360
#     4   9  19  33  55  85 124 156 194 243 304 365
#     4  10  19  31  51  84 120 153 191 239 299 363
#     4  10  19  36  61  89 120 156 197 253 305 365
#     4  10  20  38  62  84 120 157 200 249 308 355
#
# _framework density 18.635166000000002
#
# number of rings (size 3 to 8) (size 9 to 14) (size 15 to 20)
#    0.000    2.133    2.000    3.200    4.667    1.067 
#    0.000    4.000    0.000    0.000    0.000    0.000 
#    0.000    0.000    0.000    0.000    0.000    0.000 
#
# Total GULP energy -167048.146458 kJ/mol
# GULP energy per Si atom -5568.271549 kJ/mol
# Density = 1.859275 g / cm^3
# Si number density = 18.635166 Si / 1000 Ang^3
#
#
#
# Elastic Constant Matrix: (Units=GPa)
#
#
# Indices 1 2 3 4 5 6 
#
# 1 132.0465 83.5643 38.3701 0.0000 5.3341 0.0000
# 2 83.5643 99.8498 51.2009 0.0000 0.5033 0.0000
# 3 38.3701 51.2009 64.5782 0.0000 -2.8952 0.0000
# 4 0.0000 0.0000 0.0000 6.5755 0.0000 -7.8865
# 5 5.3341 0.5033 -2.8952 0.0000 23.0897 0.0000
# 6 0.0000 0.0000 0.0000 -7.8865 0.0000 35.9544
#
#
#
# Elastic Compliance Matrix: (Units=1/GPa)
#
#
# Indices 1 2 3 4 5 6 
#
# 1 0.016479 -0.014624 0.001656 0.000000 -0.003280 0.000000
# 2 -0.014624 0.029952 -0.015021 0.000000 0.000842 0.000000
# 3 0.001656 -0.015021 0.026557 0.000000 0.003275 0.000000
# 4 0.000000 0.000000 0.000000 0.206369 0.000000 0.045266
# 5 -0.003280 0.000842 0.003275 0.000000 0.044460 0.000000
# 6 0.000000 0.000000 0.000000 0.045266 0.000000 0.037742
#
#
# Mechanical properties :
#
#
# Convention : Reuss Voigt Hill
#
# Bulk Modulus (GPa) = 58.78456 71.41612 65.10034
# Shear Modulus (GPa) = 11.81460 21.34655 16.58057
#
# Velocity S-wave (km/s) = 2.52066 3.38819 2.98610
# Velocity P-wave (km/s) = 6.33128 7.32891 6.84829
#
# Compressibility (1/GPa) = 0.01701127
#
# Stress axis : x y z
#
# Youngs Moduli (GPa) = 60.68329 33.38680 37.65516
#
# Poissons Ratio (x) = 0.48825 -0.06237
# Poissons Ratio (y) = 0.88744 0.56560
# Poissons Ratio (z) = -0.10052 0.50149
#
# Static dielectric constant tensor:
#      x y z
#    x 1.698040 0.000000 -0.034650 
#    y 0.000000 1.647090 0.000000 
#    z -0.034650 0.000000 1.680400 
# 
# From -- ./inp_files/96100.got.cif
#   From: 2010.05.17/outbox.cif.g08.bks.cpg/sg13_49_cif.got.tgz:96100.got - 2010.06.03 16:44:36.
