data_PCOD9226756
_publ_section_title
;
Structure prediction by ZEFSAII (Michael W. Deem and Ramdas Pophale) SiO2 
 PCOD9226756
Probable space group: P 2/C
;
_chemical_formula_sum "Si O2"
_cell_formula_units_Z 26
_cell_length_a 10.266997
_cell_length_b 11.904529
_cell_length_c 8.290225
_cell_angle_alpha 90.000000
_cell_angle_beta 87.942928
_cell_angle_gamma 90.000000
_cell_volume 1012.609521
_symmetry_space_group_name_H-M "P 2/C"
_symmetry_group_IT_number 13
_symmetry_cell_setting 'monoclinic'
loop_
_space_group_symop_operation_xyz
x,y,z
-x,y,1/2-z
-x,-y,-z
x,-y,1/2+z
loop_
_atom_site_type_symbol
_atom_site_label
_atom_site_fract_x
_atom_site_fract_y
_atom_site_fract_z
Si Si1 0.273038 0.890425 0.833480
Si Si2 0.500000 0.283394 0.250000
Si Si3 0.788326 0.637888 0.222141
Si Si4 0.588446 0.749152 0.068647
Si Si5 0.000000 0.185823 0.750000
Si Si6 0.094213 0.428250 0.110908
Si Si7 0.500000 0.062839 0.750000
Si Si8 0.169013 0.082701 0.018425
O O1 0.365228 0.781543 0.812150
O O2 0.157390 0.889039 0.706746
O O3 0.377419 0.983419 0.767874
O O4 0.212024 0.952916 0.990129
O O5 0.547670 0.327491 0.420297
O O6 0.639944 0.676463 0.216576
O O7 0.814912 0.517130 0.298554
O O8 0.882867 0.727957 0.303255
O O9 0.829734 0.638001 0.029950
O O10 0.484030 0.848606 0.105688
O O11 0.708675 0.836150 0.032015
O O12 0.942956 0.115077 0.603534
O O13 0.000000 0.372805 0.250000
O O14 0.000000 0.500000 0.000000
#
# Coordination Sequence:
#
# PCOD9226756 Si02
#       8
#     4   2   4   4   2   4   2   4
#     4   9  16  29  48  70  93 130 179 203 223 297
#     4   9  16  30  50  69  96 132 168 205 244 268
#     4  10  18  33  55  76 100 122 165 196 248 301
#     4   9  18  30  49  74  97 129 160 212 246 283
#     4  10  18  30  48  68 104 128 152 206 250 294
#     4   9  16  31  56  77  92 126 154 194 240 297
#     4   9  16  30  50  73  98 130 174 207 242 268
#     4   9  18  28  46  66  95 133 165 201 252 273
#
# _framework density 25.676234000000001
#
# number of rings (size 3 to 8) (size 9 to 14) (size 15 to 20)
#    0.000    2.769    2.308    0.923    0.000    4.308 
#    0.000    3.077   10.154    2.769    0.000    0.000 
#    0.000    0.000    0.000    0.000    0.000    0.000 
#
# Total GULP energy -144781.433505 kJ/mol
# GULP energy per Si atom -5568.516673 kJ/mol
# Density = 2.561779 g / cm^3
# Si number density = 25.676234 Si / 1000 Ang^3
#
#
#
# Elastic Constant Matrix: (Units=GPa)
#
#
# Indices 1 2 3 4 5 6 
#
# 1 92.4342 14.1251 10.8864 0.0000 17.6229 0.0000
# 2 14.1251 46.9528 -5.2300 0.0000 -4.2812 0.0000
# 3 10.8864 -5.2300 73.9868 0.0000 32.4810 0.0000
# 4 0.0000 0.0000 0.0000 27.5049 0.0000 9.6895
# 5 17.6229 -4.2812 32.4810 0.0000 42.5066 0.0000
# 6 0.0000 0.0000 0.0000 9.6895 0.0000 17.5458
#
#
#
# Elastic Compliance Matrix: (Units=1/GPa)
#
#
# Indices 1 2 3 4 5 6 
#
# 1 0.012560 -0.004272 0.000489 0.000000 -0.006011 0.000000
# 2 -0.004272 0.022985 0.000691 0.000000 0.003558 0.000000
# 3 0.000489 0.000691 0.020392 0.000000 -0.015715 0.000000
# 4 0.000000 0.000000 0.000000 0.045139 0.000000 -0.024927
# 5 -0.006011 0.003558 -0.015715 0.000000 0.038385 0.000000
# 6 0.000000 0.000000 0.000000 -0.024927 0.000000 0.070760
#
#
# Mechanical properties :
#
#
# Convention : Reuss Voigt Hill
#
# Bulk Modulus (GPa) = 20.09931 28.10408 24.10170
# Shear Modulus (GPa) = 21.46036 30.41763 25.93899
#
# Velocity S-wave (km/s) = 2.89417 3.44562 3.18187
# Velocity P-wave (km/s) = 4.36042 5.17678 4.78604
#
# Compressibility (1/GPa) = 0.04975295
#
# Stress axis : x y z
#
# Youngs Moduli (GPa) = 79.61928 43.50741 49.03854
#
# Poissons Ratio (x) = 0.18587 -0.02397
# Poissons Ratio (y) = 0.34014 -0.03390
# Poissons Ratio (z) = -0.03893 -0.03008
#
# Static dielectric constant tensor:
#      x y z
#    x 2.321700 0.000000 -0.150460 
#    y 0.000000 2.052840 0.000000 
#    z -0.150460 0.000000 2.180330 
# 
# From -- ./inp_files/16333.got.cif
#   From: 2010.05.17/outbox.cif.g08.bks.cpg/sg13_9_cif.got.tgz:16333.got - 2010.06.03 16:44:36.
