data_PCOD9226702
_publ_section_title
;
Structure prediction by ZEFSAII (Michael W. Deem and Ramdas Pophale) SiO2 
 PCOD9226702
Probable space group: P 2/C
;
_chemical_formula_sum "Si O2"
_cell_formula_units_Z 30
_cell_length_a 9.246630
_cell_length_b 12.853944
_cell_length_c 25.072928
_cell_angle_alpha 90.000000
_cell_angle_beta 37.468776
_cell_angle_gamma 90.000000
_cell_volume 1812.856597
_symmetry_space_group_name_H-M "P 2/C"
_symmetry_group_IT_number 13
_symmetry_cell_setting 'monoclinic'
loop_
_space_group_symop_operation_xyz
x,y,z
-x,y,1/2-z
-x,-y,-z
x,-y,1/2+z
loop_
_atom_site_type_symbol
_atom_site_label
_atom_site_fract_x
_atom_site_fract_y
_atom_site_fract_z
Si Si1 0.853329 0.419892 0.401960
Si Si2 0.691736 0.170786 0.277904
Si Si3 0.500000 0.992169 0.750000
Si Si4 0.003847 0.014317 0.562311
Si Si5 0.167001 0.180830 0.082915
Si Si6 0.408422 0.820448 0.967853
Si Si7 0.606941 0.408636 0.275998
Si Si8 0.419068 0.417994 0.447033
O O1 0.853718 0.302661 0.425825
O O2 0.669694 0.421241 0.406066
O O3 0.755683 0.500583 0.473868
O O4 0.118176 0.443380 0.304343
O O5 0.592859 0.161112 0.365739
O O6 0.611709 0.282957 0.279002
O O7 0.974371 0.167406 0.186956
O O8 0.574767 0.081648 0.276861
O O9 0.742765 0.046365 0.660340
O O10 0.194180 0.099949 0.524556
O O11 0.000000 0.000000 0.500000
O O12 0.081611 0.903124 0.564847
O O13 0.434807 0.164262 0.024912
O O14 0.331332 0.700280 0.982652
O O15 0.500000 0.438805 0.250000
O O16 0.468648 0.441114 0.370281
#
# Coordination Sequence:
#
# PCOD9226702 Si02
#       8
#     4   4   2   4   4   4   4   4
#     4   9  18  35  53  76 103 133 174 211 255 300
#     4   9  16  29  50  75 103 126 164 208 260 296
#     4  10  18  32  48  74  96 136 166 200 246 302
#     4  11  21  33  53  74 103 137 166 205 255 311
#     4   9  19  31  53  78 102 127 168 222 252 290
#     4  10  18  32  52  78 102 131 171 208 253 298
#     4  10  18  28  50  79 106 129 164 215 257 299
#     4   9  19  33  55  75 101 139 171 209 252 305
#
# _framework density 16.548469000000001
#
# number of rings (size 3 to 8) (size 9 to 14) (size 15 to 20)
#    0.000    2.400    2.000    1.200    0.000    3.733 
#    0.000    0.000    4.400    0.000    0.000    0.000 
#    0.000    0.000    0.000    0.000    0.000    0.000 
#
# Total GULP energy -167118.511456 kJ/mol
# GULP energy per Si atom -5570.617049 kJ/mol
# Density = 1.651080 g / cm^3
# Si number density = 16.548469 Si / 1000 Ang^3
#
#
#
# Elastic Constant Matrix: (Units=GPa)
#
#
# Indices 1 2 3 4 5 6 
#
# 1 49.1859 27.4820 30.6269 0.0000 4.8781 0.0000
# 2 27.4820 65.1799 47.3970 0.0000 -4.2976 0.0000
# 3 30.6269 47.3970 87.5913 0.0000 -0.2648 0.0000
# 4 0.0000 0.0000 0.0000 11.3888 0.0000 31.5050
# 5 4.8781 -4.2976 -0.2648 0.0000 29.2142 0.0000
# 6 0.0000 0.0000 0.0000 31.5050 0.0000 -53.8704
#
#
#
# Elastic Compliance Matrix: (Units=1/GPa)
#
#
# Indices 1 2 3 4 5 6 
#
# 1 0.029269 -0.008731 -0.005528 0.000000 -0.006222 0.000000
# 2 -0.008731 0.028284 -0.012235 0.000000 0.005508 0.000000
# 3 -0.005528 -0.012235 0.019968 0.000000 -0.000696 0.000000
# 4 0.000000 0.000000 0.000000 0.033541 0.000000 0.019616
# 5 -0.006222 0.005508 -0.000696 0.000000 0.036073 0.000000
# 6 0.000000 0.000000 0.000000 0.019616 0.000000 -0.007091
#
#
# Mechanical properties :
#
#
# Convention : Reuss Voigt Hill
#
# Bulk Modulus (GPa) = 40.76364 45.88543 43.32453
# Shear Modulus (GPa) = 24.84966 3.77659 14.31312
#
# Velocity S-wave (km/s) = 3.87929 1.51231 2.94414
# Velocity P-wave (km/s) = 6.68966 5.55316 6.14773
#
# Compressibility (1/GPa) = 0.02453167
#
# Stress axis : x y z
#
# Youngs Moduli (GPa) = 34.16619 35.35618 50.07928
#
# Poissons Ratio (x) = 0.30868 0.27686
# Poissons Ratio (y) = 0.29829 0.61273
# Poissons Ratio (z) = 0.18889 0.43259
#
# Static dielectric constant tensor:
#      x y z
#    x 1.829180 0.000000 -0.103300 
#    y 0.000000 1.545170 0.000000 
#    z -0.103300 0.000000 1.587770 
# 
# From -- ./inp_files/55665.got.cif
#   From: 2010.05.17/outbox.cif.g08.bks.cpg/sg13_28_cif.got.tgz:55665.got - 2010.06.03 16:44:36.
