data_PCOD9226940
_publ_section_title
;
Structure prediction by ZEFSAII (Michael W. Deem and Ramdas Pophale) SiO2 
 PCOD9226940
Probable space group: P 2/C
;
_chemical_formula_sum "Si O2"
_cell_formula_units_Z 20
_cell_length_a 26.933743
_cell_length_b 6.832277
_cell_length_c 5.363101
_cell_angle_alpha 90.000000
_cell_angle_beta 127.331971
_cell_angle_gamma 90.000000
_cell_volume 784.727987
_symmetry_space_group_name_H-M "P 2/C"
_symmetry_group_IT_number 13
_symmetry_cell_setting 'monoclinic'
loop_
_space_group_symop_operation_xyz
x,y,z
-x,y,1/2-z
-x,-y,-z
x,-y,1/2+z
loop_
_atom_site_type_symbol
_atom_site_label
_atom_site_fract_x
_atom_site_fract_y
_atom_site_fract_z
Si Si1 0.368691 0.786224 0.470843
Si Si2 0.320661 0.230728 0.325629
Si Si3 0.864967 0.268034 0.452174
Si Si4 0.500000 0.632934 0.750000
Si Si5 0.000000 0.369373 0.750000
Si Si6 0.182728 0.282823 0.693221
O O1 0.365914 0.698883 0.740806
O O2 0.438477 0.767871 0.580480
O O3 0.341124 0.003938 0.422515
O O4 0.326629 0.690969 0.124979
O O5 0.251872 0.264971 0.011844
O O6 0.935153 0.254699 0.566117
O O7 0.860259 0.192986 0.719869
O O8 0.842875 0.495636 0.418725
O O9 0.820435 0.195676 0.094036
O O10 0.500000 0.500000 0.500000
O O11 0.000000 0.500000 0.500000
#
# Coordination Sequence:
#
# PCOD9226940 Si02
#       6
#     4   4   4   2   2   4
#     4  10  23  43  65  91 116 158 204 241 296 354
#     4  10  21  39  64  89 119 158 207 244 289 359
#     4  10  19  30  48  79 123 162 201 254 301 345
#     4  12  26  48  66  94 128 150 192 246 310 368
#     4  12  16  30  48  70 118 172 212 246 298 358
#     4  10  18  32  47  80 117 156 195 247 304 344
#
# _framework density 25.486536000000001
#
# number of rings (size 3 to 8) (size 9 to 14) (size 15 to 20)
#    0.000    1.600    4.000    2.400    0.000    3.200 
#   21.600    0.000    0.000    0.000    0.000    0.000 
#    0.000  108.800    0.000    0.000    0.000    0.000 
#
# Total GULP energy -111743.911411 kJ/mol
# GULP energy per Si atom -5587.195571 kJ/mol
# Density = 2.542853 g / cm^3
# Si number density = 25.486536 Si / 1000 Ang^3
#
#
#
# Elastic Constant Matrix: (Units=GPa)
#
#
# Indices 1 2 3 4 5 6 
#
# 1 132.0031 -20.5915 13.9803 0.0000 -12.5671 0.0000
# 2 -20.5915 115.3840 -23.6335 0.0000 10.8392 0.0000
# 3 13.9803 -23.6335 107.4518 0.0000 -24.2587 0.0000
# 4 0.0000 0.0000 0.0000 3.5707 0.0000 26.0960
# 5 -12.5671 10.8392 -24.2587 0.0000 93.3867 0.0000
# 6 0.0000 0.0000 0.0000 26.0960 0.0000 -6.9673
#
#
#
# Elastic Compliance Matrix: (Units=1/GPa)
#
#
# Indices 1 2 3 4 5 6 
#
# 1 0.007901 0.001218 -0.000586 0.000000 0.000770 0.000000
# 2 0.001218 0.009292 0.001783 0.000000 -0.000451 0.000000
# 3 -0.000586 0.001783 0.010315 0.000000 0.002394 0.000000
# 4 0.000000 0.000000 0.000000 0.009870 0.000000 0.036969
# 5 0.000770 -0.000451 0.002394 0.000000 0.011486 0.000000
# 6 0.000000 0.000000 0.000000 0.036969 0.000000 -0.005059
#
#
# Mechanical properties :
#
#
# Convention : Reuss Voigt Hill
#
# Bulk Modulus (GPa) = 30.92429 32.70549 31.81489
# Shear Modulus (GPa) = 100.49080 43.67026 72.08053
#
# Velocity S-wave (km/s) = 6.28606 4.14389 5.32383
# Velocity P-wave (km/s) = 8.05270 5.97964 7.09232
#
# Compressibility (1/GPa) = 0.03233704
#
# Stress axis : x y z
#
# Youngs Moduli (GPa) = 126.56807 107.62322 96.94197
#
# Poissons Ratio (x) = -0.13104 0.05685
# Poissons Ratio (y) = -0.15411 -0.17288
# Poissons Ratio (z) = 0.07422 -0.19193
#
# Static dielectric constant tensor:
#      x y z
#    x 2.049740 0.000000 -0.077470 
#    y 0.000000 3.125820 0.000000 
#    z -0.077470 0.000000 2.065610 
# 
# From -- ./inp_files/7367.got.cif
#   From: 2010.05.17/outbox.cif.g08.bks.cpg/sg13_4_cif.got.tgz:7367.got - 2010.06.03 16:44:36.
