data_PCOD9226700
_publ_section_title
;
Structure prediction by ZEFSAII (Michael W. Deem and Ramdas Pophale) SiO2 
 PCOD9226700
Probable space group: P 2/C
;
_chemical_formula_sum "Si O2"
_cell_formula_units_Z 26
_cell_length_a 7.662859
_cell_length_b 7.801702
_cell_length_c 20.698621
_cell_angle_alpha 90.000000
_cell_angle_beta 65.927071
_cell_angle_gamma 90.000000
_cell_volume 1129.809511
_symmetry_space_group_name_H-M "P 2/C"
_symmetry_group_IT_number 13
_symmetry_cell_setting 'monoclinic'
loop_
_space_group_symop_operation_xyz
x,y,z
-x,y,1/2-z
-x,-y,-z
x,-y,1/2+z
loop_
_atom_site_type_symbol
_atom_site_label
_atom_site_fract_x
_atom_site_fract_y
_atom_site_fract_z
Si Si1 0.500000 0.063581 0.250000
Si Si2 0.865218 0.057623 0.948868
Si Si3 0.436637 0.248317 0.599672
Si Si4 0.894166 0.528957 0.322275
Si Si5 0.883123 0.128577 0.703584
Si Si6 0.380044 0.118680 0.402104
Si Si7 0.319031 0.697510 0.547922
O O1 0.327082 0.940956 0.254652
O O2 0.414528 0.170804 0.322878
O O3 0.717383 0.164409 0.926082
O O4 0.053660 0.064815 0.877074
O O5 0.792838 0.865086 0.957782
O O6 0.820479 0.125698 0.027842
O O7 0.302963 0.366427 0.664699
O O8 0.573462 0.362699 0.533396
O O9 0.551809 0.082529 0.606859
O O10 0.827966 0.426535 0.394625
O O11 0.000000 0.421402 0.250000
O O12 0.055805 0.672603 0.310302
O O13 0.000000 0.066453 0.750000
O O14 0.529083 0.229427 0.422590
#
# Coordination Sequence:
#
# PCOD9226700 Si02
#       7
#     2   4   4   4   4   4   4
#     4  12  22  34  60  84 112 148 190 234 272 330
#     4   8  16  32  53  75 108 141 180 227 270 329
#     4   8  15  31  52  76 104 141 185 220 263 329
#     4  10  18  28  48  78 110 141 177 223 271 322
#     4  10  21  37  56  81 109 146 191 227 269 327
#     4   9  18  32  52  81 106 141 183 225 278 325
#     4   9  16  29  54  80 106 140 178 224 279 327
#
# _framework density 23.012730000000001
#
# number of rings (size 3 to 8) (size 9 to 14) (size 15 to 20)
#    0.000    2.769    0.000    6.000    0.000    2.462 
#    0.000    0.769    0.000   18.462    0.000    0.000 
#    0.000    0.000    0.000    0.000    0.000    0.000 
#
# Total GULP energy -144766.305768 kJ/mol
# GULP energy per Si atom -5567.934837 kJ/mol
# Density = 2.296035 g / cm^3
# Si number density = 23.012730 Si / 1000 Ang^3
#
#
#
# Elastic Constant Matrix: (Units=GPa)
#
#
# Indices 1 2 3 4 5 6 
#
# 1 77.6235 3.4474 34.5399 0.0000 -6.3955 0.0000
# 2 3.4474 28.5061 19.9145 0.0000 -8.9841 0.0000
# 3 34.5399 19.9145 224.0157 0.0000 -37.0655 0.0000
# 4 0.0000 0.0000 0.0000 32.6250 0.0000 -7.5603
# 5 -6.3955 -8.9841 -37.0655 0.0000 41.1826 0.0000
# 6 0.0000 0.0000 0.0000 -7.5603 0.0000 3.4996
#
#
#
# Elastic Compliance Matrix: (Units=1/GPa)
#
#
# Indices 1 2 3 4 5 6 
#
# 1 0.013835 -0.000143 -0.002080 0.000000 0.000245 0.000000
# 2 -0.000143 0.038743 -0.002382 0.000000 0.006286 0.000000
# 3 -0.002080 -0.002382 0.005707 0.000000 0.004294 0.000000
# 4 0.000000 0.000000 0.000000 0.061380 0.000000 0.132602
# 5 0.000245 0.006286 0.004294 0.000000 0.029556 0.000000
# 6 0.000000 0.000000 0.000000 0.132602 0.000000 0.572220
#
#
# Mechanical properties :
#
#
# Convention : Reuss Voigt Hill
#
# Bulk Modulus (GPa) = 20.37703 49.54988 34.96346
# Shear Modulus (GPa) = 6.69337 33.61098 20.15218
#
# Velocity S-wave (km/s) = 1.70730 3.82585 2.96243
# Velocity P-wave (km/s) = 3.57217 6.41049 5.18916
#
# Compressibility (1/GPa) = 0.04907486
#
# Stress axis : x y z
#
# Youngs Moduli (GPa) = 72.28194 25.81133 175.22830
#
# Poissons Ratio (x) = 0.00369 0.36444
# Poissons Ratio (y) = 0.01032 0.41741
# Poissons Ratio (z) = 0.15033 0.06149
#
# Static dielectric constant tensor:
#      x y z
#    x 1.922280 0.000000 -0.000700 
#    y 0.000000 1.901570 0.000000 
#    z -0.000700 0.000000 2.071800 
# 
# From -- ./inp_files/75224.got.cif
#   From: 2010.05.17/outbox.cif.g08.bks.cpg/sg13_38_cif.got.tgz:75224.got - 2010.06.03 16:44:36.
