data_PCOD9226420
_publ_section_title
;
Structure prediction by ZEFSAII (Michael W. Deem and Ramdas Pophale) SiO2 
 PCOD9226420
Probable space group: P 2/C
;
_chemical_formula_sum "Si O2"
_cell_formula_units_Z 24
_cell_length_a 19.087851
_cell_length_b 11.627721
_cell_length_c 12.707944
_cell_angle_alpha 90.000000
_cell_angle_beta 149.893407
_cell_angle_gamma 90.000000
_cell_volume 1414.794507
_symmetry_space_group_name_H-M "P 2/C"
_symmetry_group_IT_number 13
_symmetry_cell_setting 'monoclinic'
loop_
_space_group_symop_operation_xyz
x,y,z
-x,y,1/2-z
-x,-y,-z
x,-y,1/2+z
loop_
_atom_site_type_symbol
_atom_site_label
_atom_site_fract_x
_atom_site_fract_y
_atom_site_fract_z
Si Si1 0.579483 0.928999 0.454094
Si Si2 0.664054 0.314579 0.988690
Si Si3 0.716251 0.470890 0.253631
Si Si4 0.513640 0.360799 0.143976
Si Si5 0.632201 0.149249 0.640084
Si Si6 0.154939 0.677818 0.985604
O O1 0.500000 0.978974 0.250000
O O2 0.665223 0.818884 0.525407
O O3 0.459998 0.880582 0.377054
O O4 0.660990 0.029752 0.618883
O O5 0.500000 0.341074 0.750000
O O6 0.724683 0.388143 0.164037
O O7 0.749589 0.336169 0.994210
O O8 0.659016 0.397918 0.278783
O O9 0.841464 0.555165 0.449170
O O10 0.598235 0.562295 0.064402
O O11 0.500000 0.382821 0.250000
O O12 0.468546 0.230824 0.060122
O O13 0.767881 0.222810 0.847176
O O14 0.000000 0.709150 0.750000
#
# Coordination Sequence:
#
# PCOD9226420 Si02
#       6
#     4   4   4   4   4   4
#     4  10  18  32  58  83 104 135 175 229 274 318
#     4  11  18  36  58  80 108 144 180 225 279 323
#     4  10  19  31  51  76 105 146 183 214 270 323
#     4  10  17  28  49  82 109 130 170 234 268 314
#     4  10  19  33  53  83 108 134 181 222 273 320
#     4  11  23  37  54  78 113 149 183 224 269 325
#
# _framework density 16.963595000000002
#
# number of rings (size 3 to 8) (size 9 to 14) (size 15 to 20)
#    0.000    1.667    5.000    4.000    0.000    0.667 
#    0.000    0.833    0.000    1.000    0.000    0.000 
#    0.000    0.000    0.000    0.000    0.000    0.000 
#
# Total GULP energy -133759.497984 kJ/mol
# GULP energy per Si atom -5573.312416 kJ/mol
# Density = 1.692498 g / cm^3
# Si number density = 16.963595 Si / 1000 Ang^3
#
#
#
# Elastic Constant Matrix: (Units=GPa)
#
#
# Indices 1 2 3 4 5 6 
#
# 1 59.3166 19.4318 16.7649 0.0000 -18.5460 0.0000
# 2 19.4318 100.6630 40.7158 0.0000 -12.3326 0.0000
# 3 16.7649 40.7158 68.5078 0.0000 -1.3513 0.0000
# 4 0.0000 0.0000 0.0000 36.8377 0.0000 -6.3842
# 5 -18.5460 -12.3326 -1.3513 0.0000 23.1796 0.0000
# 6 0.0000 0.0000 0.0000 -6.3842 0.0000 29.7800
#
#
#
# Elastic Compliance Matrix: (Units=1/GPa)
#
#
# Indices 1 2 3 4 5 6 
#
# 1 0.024461 -0.000137 -0.005526 0.000000 0.019176 0.000000
# 2 -0.000137 0.014140 -0.008234 0.000000 0.006933 0.000000
# 3 -0.005526 -0.008234 0.020693 0.000000 -0.007596 0.000000
# 4 0.000000 0.000000 0.000000 0.028194 0.000000 0.006044
# 5 0.019176 0.006933 -0.007596 0.000000 0.061730 0.000000
# 6 0.000000 0.000000 0.000000 0.006044 0.000000 0.034875
#
#
# Mechanical properties :
#
#
# Convention : Reuss Voigt Hill
#
# Bulk Modulus (GPa) = 31.74587 42.47918 37.11252
# Shear Modulus (GPa) = 22.48323 28.06444 25.27384
#
# Velocity S-wave (km/s) = 3.64453 4.07184 3.86409
# Velocity P-wave (km/s) = 6.03861 6.87039 6.46788
#
# Compressibility (1/GPa) = 0.03150016
#
# Stress axis : x y z
#
# Youngs Moduli (GPa) = 40.88102 70.71944 48.32604
#
# Poissons Ratio (x) = 0.00972 0.26706
# Poissons Ratio (y) = 0.00562 0.39790
# Poissons Ratio (z) = 0.22591 0.58227
#
# Static dielectric constant tensor:
#      x y z
#    x 1.577560 0.000000 -0.022400 
#    y 0.000000 1.609830 0.000000 
#    z -0.022400 0.000000 1.570740 
# 
# From -- ./inp_files/29365.got.cif
#   From: 2010.05.17/outbox.cif.g08.bks.cpg/sg13_15_cif.got.tgz:29365.got - 2010.06.03 16:44:36.
