data_PCOD9226167
_publ_section_title
;
Structure prediction by ZEFSAII (Michael W. Deem and Ramdas Pophale) SiO2 
 PCOD9226167
Probable space group: P 2/C
;
_chemical_formula_sum "Si O2"
_cell_formula_units_Z 30
_cell_length_a 10.280813
_cell_length_b 9.921292
_cell_length_c 17.633350
_cell_angle_alpha 90.000000
_cell_angle_beta 64.620927
_cell_angle_gamma 90.000000
_cell_volume 1625.005302
_symmetry_space_group_name_H-M "P 2/C"
_symmetry_group_IT_number 13
_symmetry_cell_setting 'monoclinic'
loop_
_space_group_symop_operation_xyz
x,y,z
-x,y,1/2-z
-x,-y,-z
x,-y,1/2+z
loop_
_atom_site_type_symbol
_atom_site_label
_atom_site_fract_x
_atom_site_fract_y
_atom_site_fract_z
Si Si1 0.719458 0.930611 0.092601
Si Si2 0.972023 0.723484 0.072984
Si Si3 0.500000 0.784822 0.250000
Si Si4 0.789651 0.108999 0.409214
Si Si5 0.104013 0.816573 0.893552
Si Si6 0.866760 0.151128 0.828936
Si Si7 0.830086 0.671258 0.775805
Si Si8 0.768710 0.383947 0.740328
O O1 0.845910 0.831392 0.089988
O O2 0.576912 0.883884 0.171146
O O3 0.786907 0.076640 0.095336
O O4 0.701090 0.901533 0.008361
O O5 0.887282 0.609135 0.142124
O O6 0.084353 0.789128 0.103127
O O7 0.049016 0.711446 0.972148
O O8 0.377405 0.683840 0.251055
O O9 0.772435 0.237256 0.359151
O O10 0.957031 0.113018 0.398015
O O11 0.762203 0.972999 0.368970
O O12 0.175883 0.749738 0.802470
O O13 0.823828 0.275016 0.787313
O O14 0.000000 0.086559 0.750000
O O15 0.755371 0.528082 0.782673
O O16 0.000000 0.646976 0.750000
#
# Coordination Sequence:
#
# PCOD9226167 Si02
#       8
#     4   4   2   4   4   4   4   4
#     4  10  18  35  56  84 110 148 191 235 273 332
#     4   9  16  29  57  85 109 144 173 229 289 339
#     4  10  24  40  58  70 108 164 200 228 266 326
#     4  10  18  31  58  89 116 138 174 237 298 332
#     4  10  17  31  57  90 118 134 178 238 297 335
#     4  10  16  28  55  84 109 139 173 225 287 334
#     4  10  21  33  54  89 117 142 175 234 292 341
#     4  10  22  37  52  76 117 155 192 220 271 343
#
# _framework density 18.461480000000002
#
# number of rings (size 3 to 8) (size 9 to 14) (size 15 to 20)
#    0.000    2.133    2.667    3.200    3.733    0.533 
#    0.000    4.667    0.000    0.000    0.000    0.000 
#    0.000    0.000    0.000    0.000    0.000    0.000 
#
# Total GULP energy -167109.954092 kJ/mol
# GULP energy per Si atom -5570.331803 kJ/mol
# Density = 1.841946 g / cm^3
# Si number density = 18.461480 Si / 1000 Ang^3
#
#
#
# Elastic Constant Matrix: (Units=GPa)
#
#
# Indices 1 2 3 4 5 6 
#
# 1 26.9715 24.2681 41.7172 0.0000 5.5644 0.0000
# 2 24.2681 79.0680 72.3163 0.0000 -1.8340 0.0000
# 3 41.7172 72.3163 155.4105 0.0000 10.7575 0.0000
# 4 0.0000 0.0000 0.0000 -1.3545 0.0000 -0.7148
# 5 5.5644 -1.8340 10.7575 0.0000 22.3332 0.0000
# 6 0.0000 0.0000 0.0000 -0.7148 0.0000 -5.8592
#
#
#
# Elastic Compliance Matrix: (Units=1/GPa)
#
#
# Indices 1 2 3 4 5 6 
#
# 1 0.068078 -0.008978 -0.013315 0.000000 -0.011285 0.000000
# 2 -0.008978 0.024305 -0.009510 0.000000 0.008814 0.000000
# 3 -0.013315 -0.009510 0.014750 0.000000 -0.004568 0.000000
# 4 0.000000 0.000000 0.000000 -0.789079 0.000000 0.096261
# 5 -0.011285 0.008814 -0.004568 0.000000 0.050512 0.000000
# 6 0.000000 0.000000 0.000000 0.096261 0.000000 -0.182415
#
#
# Mechanical properties :
#
#
# Convention : Reuss Voigt Hill
#
# Bulk Modulus (GPa) = 22.97465 59.78368 41.37916
# Shear Modulus (GPa) = -6.79594 11.23381 2.21893
#
# Velocity S-wave (km/s) = -1.92071 2.46945 1.09751
# Velocity P-wave (km/s) = 2.74824 6.37057 4.90596
#
# Compressibility (1/GPa) = 0.04352624
#
# Stress axis : x y z
#
# Youngs Moduli (GPa) = 14.68911 41.14335 67.79584
#
# Poissons Ratio (x) = 0.36940 0.90271
# Poissons Ratio (y) = 0.13188 0.64473
# Poissons Ratio (z) = 0.19559 0.39127
#
# Static dielectric constant tensor:
#      x y z
#    x 1.651880 0.000000 -0.002280 
#    y 0.000000 1.634950 0.000000 
#    z -0.002280 0.000000 1.702770 
# 
# From -- ./inp_files/66277.got.cif
#   From: 2010.05.17/outbox.cif.g08.bks.cpg/sg13_34_cif.got.tgz:66277.got - 2010.06.03 16:44:36.
