data_PCOD9226154
_publ_section_title
;
Structure prediction by ZEFSAII (Michael W. Deem and Ramdas Pophale) SiO2 
 PCOD9226154
Probable space group: P 2/C
;
_chemical_formula_sum "Si O2"
_cell_formula_units_Z 32
_cell_length_a 5.345958
_cell_length_b 12.652964
_cell_length_c 31.395272
_cell_angle_alpha 90.000000
_cell_angle_beta 90.000000
_cell_angle_gamma 90.000000
_cell_volume 2123.645711
_symmetry_space_group_name_H-M "P 2/C"
_symmetry_group_IT_number 13
_symmetry_cell_setting 'monoclinic'
loop_
_space_group_symop_operation_xyz
x,y,z
-x,y,1/2-z
-x,-y,-z
x,-y,1/2+z
loop_
_atom_site_type_symbol
_atom_site_label
_atom_site_fract_x
_atom_site_fract_y
_atom_site_fract_z
Si Si1 0.250000 0.846988 0.864761
Si Si2 0.250000 0.333196 0.228529
Si Si3 0.750000 0.879108 0.469721
Si Si4 0.250000 0.995667 0.442305
Si Si5 0.750000 0.093923 0.234672
Si Si6 0.250000 0.641220 0.006557
Si Si7 0.750000 0.586863 0.955287
Si Si8 0.250000 0.707138 0.631095
O O1 0.250000 0.882614 0.815385
O O2 0.500284 0.778331 0.872115
O O3 0.999716 0.778331 0.872115
O O4 0.250000 0.943071 0.897831
O O5 0.500000 0.376498 0.250000
O O6 0.250000 0.206832 0.239771
O O7 0.250000 0.343095 0.178068
O O8 0.000000 0.376498 0.250000
O O9 0.500237 0.926781 0.448623
O O10 0.750000 0.752965 0.469981
O O11 0.999763 0.926781 0.448623
O O12 0.750000 0.919252 0.518933
O O13 0.500000 0.037787 0.250000
O O14 0.000000 0.037787 0.250000
O O15 0.250000 0.539048 0.037215
O O16 0.500454 0.631640 0.978020
O O17 0.999545 0.631640 0.978020
O O18 0.750000 0.623065 0.906698
#
# Coordination Sequence:
#
# PCOD9226154 Si02
#       8
#     4   4   4   4   4   4   4   4
#     4  12  20  29  46  68 100 127 155 192 220 279
#     4  10  16  28  40  62  92 132 145 168 231 286
#     4  10  19  35  47  61  94 123 151 197 239 260
#     4  10  21  30  46  70  86 119 167 188 220 282
#     4  10  16  29  41  61  92 133 146 170 233 282
#     4  10  20  37  51  64  97 125 153 199 246 267
#     4  10  21  32  50  76  88 119 168 191 227 295
#     4  12  19  28  47  68  99 126 153 189 224 279
#
# _framework density 15.068427
#
# number of rings (size 3 to 8) (size 9 to 14) (size 15 to 20)
#    0.000    1.500    5.000    3.750    0.000    2.000 
#    0.000    0.000    0.000    0.000    0.000    0.000 
#    0.000    6.000    0.000    0.000    0.000    0.000 
#
# Total GULP energy -178486.884535 kJ/mol
# GULP energy per Si atom -5577.715142 kJ/mol
# Density = 1.503413 g / cm^3
# Si number density = 15.068427 Si / 1000 Ang^3
#
#
#
# Elastic Constant Matrix: (Units=GPa)
#
#
# Indices 1 2 3 4 5 6 
#
# 1 161.1981 43.2578 52.5346 0.0000 -0.0001 0.0000
# 2 43.2578 59.2188 55.0893 0.0000 0.0000 0.0000
# 3 52.5346 55.0893 137.2073 0.0000 -0.0001 0.0000
# 4 0.0000 0.0000 0.0000 13.7420 0.0000 0.0000
# 5 -0.0001 0.0000 -0.0001 0.0000 11.5321 0.0000
# 6 0.0000 0.0000 0.0000 0.0000 0.0000 4.8641
#
#
#
# Elastic Compliance Matrix: (Units=1/GPa)
#
#
# Indices 1 2 3 4 5 6 
#
# 1 0.007822 -0.004673 -0.001119 0.000000 0.000000 0.000000
# 2 -0.004673 0.029746 -0.010154 0.000000 0.000000 0.000000
# 3 -0.001119 -0.010154 0.011793 0.000000 0.000000 0.000000
# 4 0.000000 0.000000 0.000000 0.072770 0.000000 0.000000
# 5 0.000000 0.000000 0.000000 0.000000 0.086714 0.000000
# 6 0.000000 0.000000 0.000000 0.000000 0.000000 0.205586
#
#
# Mechanical properties :
#
#
# Convention : Reuss Voigt Hill
#
# Bulk Modulus (GPa) = 57.24076 73.26528 65.25302
# Shear Modulus (GPa) = 11.05835 19.81048 15.43441
#
# Velocity S-wave (km/s) = 2.71195 3.62981 3.20392
# Velocity P-wave (km/s) = 6.91924 8.14215 7.55548
#
# Compressibility (1/GPa) = 0.01747007
#
# Stress axis : x y z
#
# Youngs Moduli (GPa) = 127.84129 33.61798 84.79343
#
# Poissons Ratio (x) = 0.15711 0.09486
# Poissons Ratio (y) = 0.59743 0.86098
# Poissons Ratio (z) = 0.14301 0.34135
#
# Static dielectric constant tensor:
#      x y z
#    x 1.600760 0.000000 0.000000 
#    y 0.000000 1.465000 0.000000 
#    z 0.000000 0.000000 1.482950 
# 
# From -- ./inp_files/90424.got.cif
#   From: 2010.05.17/outbox.cif.g08.bks.cpg/sg13_46_cif.got.tgz:90424.got - 2010.06.03 16:44:36.
