data_PCOD9226408
_publ_section_title
;
Structure prediction by ZEFSAII (Michael W. Deem and Ramdas Pophale) SiO2 
 PCOD9226408
Probable space group: P 2/C
;
_chemical_formula_sum "Si O2"
_cell_formula_units_Z 26
_cell_length_a 14.129775
_cell_length_b 18.418147
_cell_length_c 5.489435
_cell_angle_alpha 90.000000
_cell_angle_beta 60.008104
_cell_angle_gamma 90.000000
_cell_volume 1237.299733
_symmetry_space_group_name_H-M "P 2/C"
_symmetry_group_IT_number 13
_symmetry_cell_setting 'monoclinic'
loop_
_space_group_symop_operation_xyz
x,y,z
-x,y,1/2-z
-x,-y,-z
x,-y,1/2+z
loop_
_atom_site_type_symbol
_atom_site_label
_atom_site_fract_x
_atom_site_fract_y
_atom_site_fract_z
Si Si1 0.997048 0.288280 0.002894
Si Si2 0.834034 0.523505 0.867395
Si Si3 0.823561 0.838166 0.299552
Si Si4 0.615075 0.576046 0.662082
Si Si5 0.229864 0.798569 0.638880
Si Si6 0.324829 0.647532 0.419752
Si Si7 0.000000 0.046647 0.750000
O O1 0.100350 0.233418 0.845197
O O2 0.000000 0.332306 0.750000
O O3 0.000000 0.330369 0.250000
O O4 0.891421 0.236106 0.160397
O O5 0.887410 0.505509 0.054499
O O6 0.717872 0.477906 0.036799
O O7 0.791749 0.605798 0.903574
O O8 0.739309 0.823773 0.628093
O O9 0.898733 0.900116 0.322772
O O10 0.779828 0.852228 0.081386
O O11 0.500000 0.538245 0.750000
O O12 0.634182 0.626898 0.401762
O O13 0.611839 0.618510 0.922655
O O14 0.306611 0.732643 0.462211
O O15 0.000000 0.000000 0.500000
#
# Coordination Sequence:
#
# PCOD9226408 Si02
#       7
#     4   4   4   4   4   4   2
#     4   8  14  24  42  55  78 108 140 173 218 241
#     4   8  16  27  40  57  84 107 142 188 224 272
#     4  10  18  32  44  64  91 125 150 187 218 253
#     4  10  19  31  44  60  91 123 150 191 235 282
#     4  10  17  28  46  59  90 115 149 202 226 249
#     4  10  19  28  42  68  81 112 164 187 226 283
#     4  12  22  30  48  72  98 128 166 186 200 252
#
# _framework density 21.013503
#
# number of rings (size 3 to 8) (size 9 to 14) (size 15 to 20)
#    0.000    2.462    2.308    2.308    1.077    5.538 
#    0.000    0.000    0.000    0.000    0.000    0.000 
#    0.000  299.077    0.000    0.000    0.000  193.846 
#
# Total GULP energy -144871.984799 kJ/mol
# GULP energy per Si atom -5571.999415 kJ/mol
# Density = 2.096568 g / cm^3
# Si number density = 21.013503 Si / 1000 Ang^3
#
#
#
# Elastic Constant Matrix: (Units=GPa)
#
#
# Indices 1 2 3 4 5 6 
#
# 1 76.7372 10.5452 39.0446 0.0000 23.6832 0.0000
# 2 10.5452 50.5412 21.8397 0.0000 3.2460 0.0000
# 3 39.0446 21.8397 154.5341 0.0000 61.3057 0.0000
# 4 0.0000 0.0000 0.0000 32.1866 0.0000 12.9186
# 5 23.6832 3.2460 61.3057 0.0000 35.8696 0.0000
# 6 0.0000 0.0000 0.0000 12.9186 0.0000 17.7346
#
#
#
# Elastic Compliance Matrix: (Units=1/GPa)
#
#
# Indices 1 2 3 4 5 6 
#
# 1 0.016862 -0.003331 0.001576 0.000000 -0.013525 0.000000
# 2 -0.003331 0.022923 -0.007602 0.000000 0.013117 0.000000
# 3 0.001576 -0.007602 0.022633 0.000000 -0.039036 0.000000
# 4 0.000000 0.000000 0.000000 0.043906 0.000000 -0.031983
# 5 -0.013525 0.013117 -0.039036 0.000000 0.102339 0.000000
# 6 0.000000 0.000000 0.000000 -0.031983 0.000000 0.079684
#
#
# Mechanical properties :
#
#
# Convention : Reuss Voigt Hill
#
# Bulk Modulus (GPa) = 22.88050 47.18571 35.03310
# Shear Modulus (GPa) = 15.54591 31.18369 23.36480
#
# Velocity S-wave (km/s) = 2.72289 3.85643 3.33813
# Velocity P-wave (km/s) = 4.56044 6.50639 5.61830
#
# Compressibility (1/GPa) = 0.04370534
#
# Stress axis : x y z
#
# Youngs Moduli (GPa) = 59.30664 43.62389 44.18289
#
# Poissons Ratio (x) = 0.14529 -0.06964
# Poissons Ratio (y) = 0.19752 0.33588
# Poissons Ratio (z) = -0.09348 0.33163
#
# Static dielectric constant tensor:
#      x y z
#    x 1.835100 0.000000 0.066710 
#    y 0.000000 1.767680 0.000000 
#    z 0.066710 0.000000 1.857750 
# 
# From -- ./inp_files/6170.got.cif
#   From: 2010.05.17/outbox.cif.g08.bks.cpg/sg13_4_cif.got.tgz:6170.got - 2010.06.03 16:44:36.
