data_PCOD9226053
_publ_section_title
;
Structure prediction by ZEFSAII (Michael W. Deem and Ramdas Pophale) SiO2 
 PCOD9226053
Probable space group: P 2/C
;
_chemical_formula_sum "Si O2"
_cell_formula_units_Z 20
_cell_length_a 8.744715
_cell_length_b 22.066645
_cell_length_c 5.448085
_cell_angle_alpha 90.000000
_cell_angle_beta 59.586648
_cell_angle_gamma 90.000000
_cell_volume 906.634907
_symmetry_space_group_name_H-M "P 2/C"
_symmetry_group_IT_number 13
_symmetry_cell_setting 'monoclinic'
loop_
_space_group_symop_operation_xyz
x,y,z
-x,y,1/2-z
-x,-y,-z
x,-y,1/2+z
loop_
_atom_site_type_symbol
_atom_site_label
_atom_site_fract_x
_atom_site_fract_y
_atom_site_fract_z
Si Si1 0.793610 0.024982 0.657561
Si Si2 0.000000 0.377744 0.250000
Si Si3 0.500000 0.634225 0.750000
Si Si4 0.731762 0.461700 0.272087
Si Si5 0.885288 0.161909 0.591768
Si Si6 0.813297 0.707404 0.253155
O O1 0.792097 0.097292 0.639975
O O2 0.713702 0.996511 0.478208
O O3 0.000000 0.000000 0.500000
O O4 0.911321 0.422155 0.125475
O O5 0.853979 0.334409 0.486505
O O6 0.424622 0.587652 0.609546
O O7 0.658789 0.675851 0.528630
O O8 0.725183 0.498809 0.530242
O O9 0.773395 0.223272 0.714754
O O10 0.000000 0.156166 0.750000
O O11 0.000000 0.170417 0.250000
O O12 0.000000 0.708434 0.250000
#
# Coordination Sequence:
#
# PCOD9226053 Si02
#       6
#     4   2   2   4   4   4
#     4  10  15  25  46  82 123 162 209 267 318 375
#     4  12  24  46  72 102 138 176 222 282 344 418
#     4  12  26  50  74  98 136 178 230 280 342 412
#     4  12  27  47  72 104 135 174 221 283 344 416
#     4  11  19  33  55  87 130 166 218 272 321 387
#     4  11  25  45  66  99 133 180 223 281 336 401
#
# _framework density 22.059598999999999
#
# number of rings (size 3 to 8) (size 9 to 14) (size 15 to 20)
#    0.000    0.800    7.000    2.400    0.000    2.400 
#    0.000    0.000    0.000    0.000    0.000    1.400 
#    0.000    0.000    0.000    0.000    0.000    0.000 
#
# Total GULP energy -111834.423811 kJ/mol
# GULP energy per Si atom -5591.721191 kJ/mol
# Density = 2.200939 g / cm^3
# Si number density = 22.059599 Si / 1000 Ang^3
#
#
#
# Elastic Constant Matrix: (Units=GPa)
#
#
# Indices 1 2 3 4 5 6 
#
# 1 54.7977 48.8368 35.8404 0.0000 9.8575 0.0000
# 2 48.8368 216.6373 68.8357 0.0000 5.7597 0.0000
# 3 35.8404 68.8357 131.7340 0.0000 25.0420 0.0000
# 4 0.0000 0.0000 0.0000 35.8899 0.0000 17.4747
# 5 9.8575 5.7597 25.0420 0.0000 40.1879 0.0000
# 6 0.0000 0.0000 0.0000 17.4747 0.0000 22.5274
#
#
#
# Elastic Compliance Matrix: (Units=1/GPa)
#
#
# Indices 1 2 3 4 5 6 
#
# 1 0.025309 -0.004342 -0.004033 0.000000 -0.003073 0.000000
# 2 -0.004342 0.006327 -0.002444 0.000000 0.001681 0.000000
# 3 -0.004033 -0.002444 0.011016 0.000000 -0.005525 0.000000
# 4 0.000000 0.000000 0.000000 0.044773 0.000000 -0.034731
# 5 -0.003073 0.001681 -0.005525 0.000000 0.028838 0.000000
# 6 0.000000 0.000000 0.000000 -0.034731 0.000000 0.071332
#
#
# Mechanical properties :
#
#
# Convention : Reuss Voigt Hill
#
# Bulk Modulus (GPa) = 47.58903 78.91052 63.24978
# Shear Modulus (GPa) = 23.12264 36.36478 29.74371
#
# Velocity S-wave (km/s) = 3.24109 4.06455 3.67595
# Velocity P-wave (km/s) = 5.96875 7.60767 6.83749
#
# Compressibility (1/GPa) = 0.02101324
#
# Stress axis : x y z
#
# Youngs Moduli (GPa) = 39.51113 158.05600 90.78055
#
# Poissons Ratio (x) = 0.68635 0.36608
# Poissons Ratio (y) = 0.17158 0.22189
# Poissons Ratio (z) = 0.15933 0.38632
#
# Static dielectric constant tensor:
#      x y z
#    x 2.196210 0.000000 0.733340 
#    y 0.000000 1.794560 0.000000 
#    z 0.733340 0.000000 2.989910 
# 
# From -- ./inp_files/1982.got.cif
#   From: 2010.05.17/outbox.cif.g08.bks.cpg/sg13_1_cif.got.tgz:1982.got - 2010.06.03 16:44:36.
