data_PCOD9226227
_publ_section_title
;
Structure prediction by ZEFSAII (Michael W. Deem and Ramdas Pophale) SiO2 
 PCOD9226227
Probable space group: P 2/C
;
_chemical_formula_sum "Si O2"
_cell_formula_units_Z 22
_cell_length_a 11.860972
_cell_length_b 17.232425
_cell_length_c 5.365365
_cell_angle_alpha 90.000000
_cell_angle_beta 109.696321
_cell_angle_gamma 90.000000
_cell_volume 1032.482431
_symmetry_space_group_name_H-M "P 2/C"
_symmetry_group_IT_number 13
_symmetry_cell_setting 'monoclinic'
loop_
_space_group_symop_operation_xyz
x,y,z
-x,y,1/2-z
-x,-y,-z
x,-y,1/2+z
loop_
_atom_site_type_symbol
_atom_site_label
_atom_site_fract_x
_atom_site_fract_y
_atom_site_fract_z
Si Si1 0.264884 0.051776 0.412093
Si Si2 0.372232 0.281558 0.907602
Si Si3 0.639965 0.216059 0.097105
Si Si4 0.332856 0.451961 0.786879
Si Si5 0.000000 0.948388 0.750000
Si Si6 0.052011 0.412137 0.541403
O O1 0.349856 0.124324 0.426006
O O2 0.278810 0.005841 0.684330
O O3 0.130729 0.089165 0.328964
O O4 0.305813 0.255806 0.607631
O O5 0.398288 0.372571 0.907425
O O6 0.500379 0.239288 0.999642
O O7 0.308753 0.252599 0.110841
O O8 0.355948 0.488537 0.531893
O O9 0.193522 0.425032 0.671720
O O10 0.000000 0.000000 0.500000
O O11 0.000000 0.373091 0.750000
O O12 0.000000 0.500000 0.500000
O O13 0.000000 0.375838 0.250000
#
# Coordination Sequence:
#
# PCOD9226227 Si02
#       6
#     4   4   4   4   2   4
#     4  10  19  35  65  96 114 153 196 236 281 343
#     4  10  23  40  58  81 114 168 188 246 310 338
#     4  10  21  43  59  78 127 157 190 237 300 353
#     4  12  21  35  60  85 108 146 207 256 289 356
#     4   8  16  30  54  92 124 140 182 238 280 324
#     4  10  16  30  51  81 110 136 172 247 309 331
#
# _framework density 21.307867999999999
#
# number of rings (size 3 to 8) (size 9 to 14) (size 15 to 20)
#    0.000    1.818    3.636    2.182    0.000    0.000 
#    0.000   21.818    6.000    0.000    0.000    0.000 
#    0.000    0.000    0.000    0.000    0.000    0.000 
#
# Total GULP energy -122626.805901 kJ/mol
# GULP energy per Si atom -5573.945723 kJ/mol
# Density = 2.125937 g / cm^3
# Si number density = 21.307868 Si / 1000 Ang^3
#
#
#
# Elastic Constant Matrix: (Units=GPa)
#
#
# Indices 1 2 3 4 5 6 
#
# 1 61.9747 40.4324 37.4705 0.0000 1.2294 0.0000
# 2 40.4324 108.9345 35.8388 0.0000 -5.0655 0.0000
# 3 37.4705 35.8388 165.3130 0.0000 -63.3714 0.0000
# 4 0.0000 0.0000 0.0000 20.7062 0.0000 -11.5005
# 5 1.2294 -5.0655 -63.3714 0.0000 45.1229 0.0000
# 6 0.0000 0.0000 0.0000 -11.5005 0.0000 0.2768
#
#
#
# Elastic Compliance Matrix: (Units=1/GPa)
#
#
# Indices 1 2 3 4 5 6 
#
# 1 0.028591 -0.007566 -0.011837 0.000000 -0.018253 0.000000
# 2 -0.007566 0.012253 -0.000726 0.000000 0.000562 0.000000
# 3 -0.011837 -0.000726 0.019457 0.000000 0.027567 0.000000
# 4 0.000000 0.000000 0.000000 -0.002187 0.000000 -0.090891
# 5 -0.018253 0.000562 0.027567 0.000000 0.061438 0.000000
# 6 0.000000 0.000000 0.000000 -0.090891 0.000000 -0.163645
#
#
# Mechanical properties :
#
#
# Convention : Reuss Voigt Hill
#
# Bulk Modulus (GPa) = 49.89433 62.63395 56.26414
# Shear Modulus (GPa) = 1756.69369 28.05322 892.37346
#
# Velocity S-wave (km/s) = 28.74411 3.63239 20.48680
# Velocity P-wave (km/s) = 33.54249 6.85937 24.20898
#
# Compressibility (1/GPa) = 0.02004236
#
# Stress axis : x y z
#
# Youngs Moduli (GPa) = 34.97620 81.61216 51.39487
#
# Poissons Ratio (x) = 0.61750 0.60838
# Poissons Ratio (y) = 0.26464 0.03731
# Poissons Ratio (z) = 0.41402 0.05924
#
# Static dielectric constant tensor:
#      x y z
#    x 1.792580 0.000000 -0.001170 
#    y 0.000000 1.741370 0.000000 
#    z -0.001170 0.000000 1.989140 
# 
# From -- ./inp_files/5011.got.cif
#   From: 2010.05.17/outbox.cif.g08.bks.cpg/sg13_3_cif.got.tgz:5011.got - 2010.06.03 16:44:36.
