data_PCOD9226765
_publ_section_title
;
Structure prediction by ZEFSAII (Michael W. Deem and Ramdas Pophale) SiO2 
 PCOD9226765
Probable space group: P 2/C
;
_chemical_formula_sum "Si O2"
_cell_formula_units_Z 22
_cell_length_a 29.460357
_cell_length_b 6.460445
_cell_length_c 5.144499
_cell_angle_alpha 90.000000
_cell_angle_beta 69.375463
_cell_angle_gamma 90.000000
_cell_volume 916.383043
_symmetry_space_group_name_H-M "P 2/C"
_symmetry_group_IT_number 13
_symmetry_cell_setting 'monoclinic'
loop_
_space_group_symop_operation_xyz
x,y,z
-x,y,1/2-z
-x,-y,-z
x,-y,1/2+z
loop_
_atom_site_type_symbol
_atom_site_label
_atom_site_fract_x
_atom_site_fract_y
_atom_site_fract_z
Si Si1 0.500000 0.350081 0.750000
Si Si2 0.907878 0.788999 0.313474
Si Si3 0.602982 0.645022 0.112374
Si Si4 0.191863 0.355516 0.314631
Si Si5 0.052567 0.752752 0.767200
Si Si6 0.704791 0.642877 0.791165
O O1 0.500000 0.500000 0.500000
O O2 0.447881 0.238309 0.836899
O O3 0.854537 0.788215 0.541085
O O4 0.942871 0.674719 0.448041
O O5 0.932982 0.007827 0.209487
O O6 0.907236 0.693118 0.027798
O O7 0.603141 0.543958 0.399500
O O8 0.654058 0.756448 0.952927
O O9 0.190231 0.536411 0.537305
O O10 0.244047 0.248049 0.255239
O O11 0.000000 0.734216 0.750000
O O12 0.704705 0.547826 0.501348
#
# Coordination Sequence:
#
# PCOD9226765 Si02
#       6
#     2   4   4   4   4   4
#     4   8  12  16  24  38  56  78 110 154 190 206
#     4  10  18  30  49  68  83 102 132 162 194 228
#     4   8  12  18  27  40  58  83 117 153 182 209
#     4  10  19  30  43  61  86 112 133 157 190 233
#     4  10  19  33  53  67  78  99 129 167 198 229
#     4   8  14  23  34  47  67  97 128 151 176 217
#
# _framework density 24.007428000000001
#
# number of rings (size 3 to 8) (size 9 to 14) (size 15 to 20)
#    0.000    2.909    0.000    3.818    0.000    0.000 
#    0.000    0.000    0.000   18.545    0.000    0.000 
#    0.000    0.000    0.000    0.000    0.000    7.273 
#
# Total GULP energy -122566.320142 kJ/mol
# GULP energy per Si atom -5571.196370 kJ/mol
# Density = 2.395279 g / cm^3
# Si number density = 24.007428 Si / 1000 Ang^3
#
#
#
# Elastic Constant Matrix: (Units=GPa)
#
#
# Indices 1 2 3 4 5 6 
#
# 1 189.2641 -9.0185 26.3388 0.0000 -37.1774 0.0000
# 2 -9.0185 37.5342 -18.8936 0.0000 -4.8602 0.0000
# 3 26.3388 -18.8936 128.9738 0.0000 23.2732 0.0000
# 4 0.0000 0.0000 0.0000 22.4076 0.0000 3.2045
# 5 -37.1774 -4.8602 23.2732 0.0000 66.9084 0.0000
# 6 0.0000 0.0000 0.0000 3.2045 0.0000 0.4092
#
#
#
# Elastic Compliance Matrix: (Units=1/GPa)
#
#
# Indices 1 2 3 4 5 6 
#
# 1 0.006461 0.001140 -0.001937 0.000000 0.004347 0.000000
# 2 0.001140 0.028992 0.003756 0.000000 0.001433 0.000000
# 3 -0.001937 0.003756 0.009436 0.000000 -0.004086 0.000000
# 4 0.000000 0.000000 0.000000 -0.371966 0.000000 2.913041
# 5 0.004347 0.001433 -0.004086 0.000000 0.018886 0.000000
# 6 0.000000 0.000000 0.000000 2.913041 0.000000-20.369489
#
#
# Mechanical properties :
#
#
# Convention : Reuss Voigt Hill
#
# Bulk Modulus (GPa) = 19.68168 39.18061 29.43114
# Shear Modulus (GPa) = -0.24194 41.76808 20.76307
#
# Velocity S-wave (km/s) = -0.31780 4.17561 2.94404
# Velocity P-wave (km/s) = 2.84276 6.29312 4.88286
#
# Compressibility (1/GPa) = 0.05080866
#
# Stress axis : x y z
#
# Youngs Moduli (GPa) = 154.76667 34.49175 105.97162
#
# Poissons Ratio (x) = -0.03933 0.20525
# Poissons Ratio (y) = -0.17649 -0.39799
# Poissons Ratio (z) = 0.29976 -0.12954
#
# Static dielectric constant tensor:
#      x y z
#    x 2.024850 0.000000 -0.018880 
#    y 0.000000 -0.354850 0.000000 
#    z -0.018880 0.000000 1.987760 
# 
# From -- ./inp_files/7708.got.cif
#   From: 2010.05.17/outbox.cif.g08.bks.cpg/sg13_4_cif.got.tgz:7708.got - 2010.06.03 16:44:36.
