data_PCOD9226514
_publ_section_title
;
Structure prediction by ZEFSAII (Michael W. Deem and Ramdas Pophale) SiO2 
 PCOD9226514
Probable space group: P 2/C
;
_chemical_formula_sum "Si O2"
_cell_formula_units_Z 32
_cell_length_a 8.821707
_cell_length_b 13.907897
_cell_length_c 21.404221
_cell_angle_alpha 90.000000
_cell_angle_beta 139.682858
_cell_angle_gamma 90.000000
_cell_volume 1699.142632
_symmetry_space_group_name_H-M "P 2/C"
_symmetry_group_IT_number 13
_symmetry_cell_setting 'monoclinic'
loop_
_space_group_symop_operation_xyz
x,y,z
-x,y,1/2-z
-x,-y,-z
x,-y,1/2+z
loop_
_atom_site_type_symbol
_atom_site_label
_atom_site_fract_x
_atom_site_fract_y
_atom_site_fract_z
Si Si1 0.349976 0.404527 0.527339
Si Si2 0.866593 0.482733 0.873705
Si Si3 0.445480 0.547081 0.832925
Si Si4 0.793425 0.767980 0.595769
Si Si5 0.669830 0.231686 0.197267
Si Si6 0.359366 0.056883 0.147219
Si Si7 0.820633 0.889522 0.484762
Si Si8 0.704285 0.713047 0.365295
O O1 0.533222 0.490640 0.594838
O O2 0.323437 0.333153 0.461137
O O3 0.391211 0.337593 0.601424
O O4 0.101503 0.458195 0.455792
O O5 0.671072 0.523355 0.860281
O O6 0.769034 0.504577 0.774241
O O7 0.876801 0.368471 0.890624
O O8 0.429052 0.660696 0.833235
O O9 0.711803 0.797005 0.638605
O O10 0.737463 0.841094 0.522580
O O11 0.077037 0.761189 0.689220
O O12 0.498054 0.153876 0.173398
O O13 0.500000 0.014166 0.250000
O O14 0.337760 0.979108 0.085454
O O15 0.089792 0.079378 0.078614
O O16 0.813753 0.811114 0.426115
O O17 0.500000 0.727618 0.250000
#
# Coordination Sequence:
#
# PCOD9226514 Si02
#       8
#     4   4   4   4   4   4   4   4
#     4  10  19  32  52  79 117 150 193 228 276 333
#     4  10  18  29  48  85 114 144 189 228 283 331
#     4  10  19  30  52  82 112 153 185 235 272 329
#     4  10  22  40  56  82 113 160 190 231 281 349
#     4  11  23  36  59  82 117 153 193 230 289 341
#     4  11  23  40  60  92 110 140 184 247 293 339
#     4  10  23  38  62  85 114 139 189 241 294 337
#     4  10  17  31  51  82 112 146 180 230 287 341
#
# _framework density 18.833027000000001
#
# number of rings (size 3 to 8) (size 9 to 14) (size 15 to 20)
#    0.000    1.750    5.000    1.875    7.000    1.000 
#    0.000    0.000    0.000    0.000    0.000    1.750 
#    0.000    0.000    0.000    0.000    0.000    0.000 
#
# Total GULP energy -178403.791491 kJ/mol
# GULP energy per Si atom -5575.118484 kJ/mol
# Density = 1.879016 g / cm^3
# Si number density = 18.833027 Si / 1000 Ang^3
#
#
#
# Elastic Constant Matrix: (Units=GPa)
#
#
# Indices 1 2 3 4 5 6 
#
# 1 11.9456 6.3103 15.5329 0.0000 -9.4770 0.0000
# 2 6.3103 84.1242 26.5466 0.0000 -10.0949 0.0000
# 3 15.5329 26.5466 118.8829 0.0000 -14.5183 0.0000
# 4 0.0000 0.0000 0.0000 32.9480 0.0000 -9.9085
# 5 -9.4770 -10.0949 -14.5183 0.0000 19.1266 0.0000
# 6 0.0000 0.0000 0.0000 -9.9085 0.0000 15.6474
#
#
#
# Elastic Compliance Matrix: (Units=1/GPa)
#
#
# Indices 1 2 3 4 5 6 
#
# 1 0.151405 0.000304 -0.011759 0.000000 0.066254 0.000000
# 2 0.000304 0.013247 -0.002343 0.000000 0.005364 0.000000
# 3 -0.011759 -0.002343 0.010590 0.000000 0.000976 0.000000
# 4 0.000000 0.000000 0.000000 0.037490 0.000000 0.023740
# 5 0.066254 0.005364 0.000976 0.000000 0.088683 0.000000
# 6 0.000000 0.000000 0.000000 0.023740 0.000000 0.078941
#
#
# Mechanical properties :
#
#
# Convention : Reuss Voigt Hill
#
# Bulk Modulus (GPa) = 6.77289 34.63690 20.70489
# Shear Modulus (GPa) = 10.93689 24.64860 17.79275
#
# Velocity S-wave (km/s) = 2.41245 3.62165 3.07703
# Velocity P-wave (km/s) = 3.37105 5.99333 4.86230
#
# Compressibility (1/GPa) = 0.14764746
#
# Stress axis : x y z
#
# Youngs Moduli (GPa) = 6.60480 75.48660 94.42579
#
# Poissons Ratio (x) = -0.02295 1.11034
# Poissons Ratio (y) = -0.00201 0.22122
# Poissons Ratio (z) = 0.07767 0.17685
#
# Static dielectric constant tensor:
#      x y z
#    x 1.647850 0.000000 -0.029100 
#    y 0.000000 1.678870 0.000000 
#    z -0.029100 0.000000 1.707910 
# 
# From -- ./inp_files/76640.got.cif
#   From: 2010.05.17/outbox.cif.g08.bks.cpg/sg13_39_cif.got.tgz:76640.got - 2010.06.03 16:44:36.
