data_PCOD9226315
_publ_section_title
;
Structure prediction by ZEFSAII (Michael W. Deem and Ramdas Pophale) SiO2 
 PCOD9226315
Probable space group: P 2/C
;
_chemical_formula_sum "Si O2"
_cell_formula_units_Z 22
_cell_length_a 9.063273
_cell_length_b 7.290171
_cell_length_c 18.079400
_cell_angle_alpha 90.000000
_cell_angle_beta 74.002074
_cell_angle_gamma 90.000000
_cell_volume 1148.293576
_symmetry_space_group_name_H-M "P 2/C"
_symmetry_group_IT_number 13
_symmetry_cell_setting 'monoclinic'
loop_
_space_group_symop_operation_xyz
x,y,z
-x,y,1/2-z
-x,-y,-z
x,-y,1/2+z
loop_
_atom_site_type_symbol
_atom_site_label
_atom_site_fract_x
_atom_site_fract_y
_atom_site_fract_z
Si Si1 0.851831 0.182784 0.383527
Si Si2 0.125650 0.976644 0.917517
Si Si3 0.897625 0.381452 0.619197
Si Si4 0.227661 0.520168 0.007965
Si Si5 0.343817 0.110108 0.515530
Si Si6 0.000000 0.408128 0.250000
O O1 0.772016 0.324112 0.451448
O O2 0.865148 0.281689 0.303398
O O3 0.032780 0.162236 0.378940
O O4 0.769911 0.988563 0.409065
O O5 0.148609 0.168685 0.873451
O O6 0.273356 0.917731 0.942954
O O7 0.000000 0.000000 0.000000
O O8 0.782194 0.483844 0.578435
O O9 0.063097 0.393274 0.554829
O O10 0.928857 0.466731 0.694759
O O11 0.348149 0.669626 0.020762
O O12 0.500000 0.000000 0.500000
#
# Coordination Sequence:
#
# PCOD9226315 Si02
#       6
#     4   4   4   4   4   2
#     4  10  20  37  55  85 111 140 188 233 296 332
#     4  10  16  34  57  80 107 142 182 238 280 329
#     4  10  17  32  56  85 108 136 184 230 289 332
#     4  10  17  33  58  76 110 139 179 234 275 328
#     4  11  21  33  55  88 109 143 192 237 278 325
#     4  10  22  30  54  90 108 142 178 240 288 336
#
# _framework density 19.158864999999999
#
# number of rings (size 3 to 8) (size 9 to 14) (size 15 to 20)
#    0.000    1.818    7.273    2.182    0.000    1.455 
#    0.000    0.000    0.000    4.364    0.000    0.000 
#    0.000    0.000    0.000    0.000    0.000    0.000 
#
# Total GULP energy -122495.210183 kJ/mol
# GULP energy per Si atom -5567.964099 kJ/mol
# Density = 1.911526 g / cm^3
# Si number density = 19.158865 Si / 1000 Ang^3
#
#
#
# Elastic Constant Matrix: (Units=GPa)
#
#
# Indices 1 2 3 4 5 6 
#
# 1 56.0555 15.7848 7.6352 0.0000 5.2879 0.0000
# 2 15.7848 123.9454 36.6004 0.0000 12.5395 0.0000
# 3 7.6352 36.6004 99.3024 0.0000 19.2652 0.0000
# 4 0.0000 0.0000 0.0000 28.0337 0.0000 5.4555
# 5 5.2879 12.5395 19.2652 0.0000 10.2854 0.0000
# 6 0.0000 0.0000 0.0000 5.4555 0.0000 31.9880
#
#
#
# Elastic Compliance Matrix: (Units=1/GPa)
#
#
# Indices 1 2 3 4 5 6 
#
# 1 0.019103 -0.001769 0.001053 0.000000 -0.009637 0.000000
# 2 -0.001769 0.009603 -0.002055 0.000000 -0.006948 0.000000
# 3 0.001053 -0.002055 0.016283 0.000000 -0.028533 0.000000
# 4 0.000000 0.000000 0.000000 0.036896 0.000000 -0.006293
# 5 -0.009637 -0.006948 -0.028533 0.000000 0.164095 0.000000
# 6 0.000000 0.000000 0.000000 -0.006293 0.000000 0.032335
#
#
# Mechanical properties :
#
#
# Convention : Reuss Voigt Hill
#
# Bulk Modulus (GPa) = 25.35121 44.37157 34.86139
# Shear Modulus (GPa) = 16.83464 28.68029 22.75747
#
# Velocity S-wave (km/s) = 2.96748 3.87327 3.45023
# Velocity P-wave (km/s) = 5.00021 6.57366 5.84017
#
# Compressibility (1/GPa) = 0.03944585
#
# Stress axis : x y z
#
# Youngs Moduli (GPa) = 52.34717 104.13119 61.41556
#
# Poissons Ratio (x) = 0.18418 -0.06465
# Poissons Ratio (y) = 0.09259 0.12624
# Poissons Ratio (z) = -0.05510 0.21404
#
# Static dielectric constant tensor:
#      x y z
#    x 1.719340 0.000000 0.034670 
#    y 0.000000 1.781250 0.000000 
#    z 0.034670 0.000000 1.701720 
# 
# From -- ./inp_files/62928.got.cif
#   From: 2010.05.17/outbox.cif.g08.bks.cpg/sg13_32_cif.got.tgz:62928.got - 2010.06.03 16:44:36.
