data_PCOD9226636
_publ_section_title
;
Structure prediction by ZEFSAII (Michael W. Deem and Ramdas Pophale) SiO2 
 PCOD9226636
Probable space group: P 2/C
;
_chemical_formula_sum "Si O2"
_cell_formula_units_Z 28
_cell_length_a 14.901340
_cell_length_b 7.397416
_cell_length_c 27.594490
_cell_angle_alpha 90.000000
_cell_angle_beta 23.242850
_cell_angle_gamma 90.000000
_cell_volume 1200.375026
_symmetry_space_group_name_H-M "P 2/C"
_symmetry_group_IT_number 13
_symmetry_cell_setting 'monoclinic'
loop_
_space_group_symop_operation_xyz
x,y,z
-x,y,1/2-z
-x,-y,-z
x,-y,1/2+z
loop_
_atom_site_type_symbol
_atom_site_label
_atom_site_fract_x
_atom_site_fract_y
_atom_site_fract_z
Si Si1 0.941927 0.886099 0.711338
Si Si2 0.618013 0.196562 0.447945
Si Si3 0.158759 0.297210 0.713399
Si Si4 0.747904 0.693742 0.125818
Si Si5 0.006740 0.365184 0.597521
Si Si6 0.071958 0.249249 0.381994
Si Si7 0.424836 0.309983 0.335839
O O1 0.743274 0.765023 0.834611
O O2 0.930625 0.895470 0.659150
O O3 0.182325 0.817592 0.611716
O O4 0.903184 0.084077 0.751998
O O5 0.415922 0.319008 0.567998
O O6 0.500000 0.000000 0.500000
O O7 0.108781 0.346245 0.793395
O O8 0.000000 0.378331 0.750000
O O9 0.500000 0.782570 0.250000
O O10 0.842957 0.673306 0.132804
O O11 0.692098 0.492488 0.130357
O O12 0.939400 0.788836 0.997750
O O13 0.064874 0.578177 0.569827
O O14 0.236199 0.256797 0.469009
O O15 0.331080 0.316143 0.259575
O O16 0.500000 0.201823 0.250000
#
# Coordination Sequence:
#
# PCOD9226636 Si02
#       7
#     4   4   4   4   4   4   4
#     4  10  21  38  63  83 110 154 201 235 289 353
#     4   9  18  40  62  74 110 158 202 228 284 356
#     4  11  23  40  58  83 116 157 195 237 296 347
#     4  10  19  35  57  84 120 153 189 228 293 357
#     4  11  22  35  60  89 114 155 196 239 292 343
#     4  11  21  35  60  91 112 151 196 241 286 345
#     4  10  17  35  61  80 119 154 187 227 288 359
#
# _framework density 23.326044
#
# number of rings (size 3 to 8) (size 9 to 14) (size 15 to 20)
#    0.000    1.714    7.143    0.857    4.000    0.000 
#    2.571    1.429    0.000    0.000    0.000    0.000 
#    0.000    0.000    0.000    0.000    0.000    0.000 
#
# Total GULP energy -155962.985967 kJ/mol
# GULP energy per Si atom -5570.106642 kJ/mol
# Density = 2.327295 g / cm^3
# Si number density = 23.326044 Si / 1000 Ang^3
#
#
#
# Elastic Constant Matrix: (Units=GPa)
#
#
# Indices 1 2 3 4 5 6 
#
# 1 126.5440 12.3887 84.9943 0.0000 23.1352 0.0000
# 2 12.3887 27.3446 14.8192 0.0000 10.0557 0.0000
# 3 84.9943 14.8192 195.2791 0.0000 -0.0219 0.0000
# 4 0.0000 0.0000 0.0000 3.8993 0.0000 4.9650
# 5 23.1352 10.0557 -0.0219 0.0000 46.2076 0.0000
# 6 0.0000 0.0000 0.0000 4.9650 0.0000 15.5811
#
#
#
# Elastic Compliance Matrix: (Units=1/GPa)
#
#
# Indices 1 2 3 4 5 6 
#
# 1 0.012833 -0.000481 -0.005550 0.000000 -0.006323 0.000000
# 2 -0.000481 0.041631 -0.002951 0.000000 -0.008820 0.000000
# 3 -0.005550 -0.002951 0.007761 0.000000 0.003424 0.000000
# 4 0.000000 0.000000 0.000000 0.431554 0.000000 -0.137516
# 5 -0.006323 -0.008820 0.003424 0.000000 0.026728 0.000000
# 6 0.000000 0.000000 0.000000 -0.137516 0.000000 0.108000
#
#
# Mechanical properties :
#
#
# Convention : Reuss Voigt Hill
#
# Bulk Modulus (GPa) = 22.59306 63.73023 43.16165
# Shear Modulus (GPa) = 7.56173 28.93530 18.24852
#
# Velocity S-wave (km/s) = 1.80244 3.52585 2.80004
# Velocity P-wave (km/s) = 3.74680 6.62996 5.38493
#
# Compressibility (1/GPa) = 0.04426137
#
# Stress axis : x y z
#
# Youngs Moduli (GPa) = 77.92405 24.02048 128.85483
#
# Poissons Ratio (x) = 0.01156 0.71511
# Poissons Ratio (y) = 0.03750 0.38023
# Poissons Ratio (z) = 0.43245 0.07088
#
# Static dielectric constant tensor:
#      x y z
#    x 1.884970 0.000000 0.046680 
#    y 0.000000 2.018490 0.000000 
#    z 0.046680 0.000000 2.045460 
# 
# From -- ./inp_files/78563.got.cif
#   From: 2010.05.17/outbox.cif.g08.bks.cpg/sg13_40_cif.got.tgz:78563.got - 2010.06.03 16:44:36.
