data_PCOD9226643
_publ_section_title
;
Structure prediction by ZEFSAII (Michael W. Deem and Ramdas Pophale) SiO2 
 PCOD9226643
Probable space group: P 2/C
;
_chemical_formula_sum "Si O2"
_cell_formula_units_Z 26
_cell_length_a 16.003469
_cell_length_b 9.633702
_cell_length_c 11.877248
_cell_angle_alpha 90.000000
_cell_angle_beta 139.523252
_cell_angle_gamma 90.000000
_cell_volume 1188.669552
_symmetry_space_group_name_H-M "P 2/C"
_symmetry_group_IT_number 13
_symmetry_cell_setting 'monoclinic'
loop_
_space_group_symop_operation_xyz
x,y,z
-x,y,1/2-z
-x,-y,-z
x,-y,1/2+z
loop_
_atom_site_type_symbol
_atom_site_label
_atom_site_fract_x
_atom_site_fract_y
_atom_site_fract_z
Si Si1 0.908656 0.698620 0.455306
Si Si2 0.803363 0.602368 0.802508
Si Si3 0.472246 0.370394 0.597286
Si Si4 0.696018 0.772260 0.898283
Si Si5 0.897036 0.901112 0.231697
Si Si6 0.450215 0.312722 0.048692
Si Si7 0.000000 0.834098 0.750000
O O1 0.824635 0.561600 0.344774
O O2 0.886736 0.816335 0.336691
O O3 0.896799 0.748538 0.572398
O O4 0.059918 0.654817 0.603672
O O5 0.677371 0.632428 0.596239
O O6 0.776354 0.683364 0.891545
O O7 0.500000 0.320566 0.750000
O O8 0.559898 0.295112 0.594012
O O9 0.510086 0.533719 0.628464
O O10 0.665508 0.691214 0.983045
O O11 0.558582 0.795111 0.700090
O O12 0.770153 0.902300 0.024137
O O13 0.000000 0.831864 0.250000
O O14 0.942937 0.059401 0.285278
#
# Coordination Sequence:
#
# PCOD9226643 Si02
#       7
#     4   4   4   4   4   4   2
#     4  11  22  40  56  90 119 156 196 235 308 356
#     4  10  22  34  60  88 128 156 181 247 301 361
#     4  10  18  34  50  83 124 157 191 231 289 362
#     4  10  17  36  55  88 117 155 199 236 290 352
#     4  10  21  37  63  78 113 159 202 243 283 344
#     4   9  19  30  54  81 112 157 201 231 287 354
#     4  10  24  40  58  84 114 154 202 246 280 356
#
# _framework density 21.873194999999999
#
# number of rings (size 3 to 8) (size 9 to 14) (size 15 to 20)
#    0.462    1.538    3.077    1.385    0.000    3.692 
#    2.769    0.000    0.000    0.000    4.000   23.692 
#    0.000    0.000    0.000    0.000    0.000    0.000 
#
# Total GULP energy -144768.146436 kJ/mol
# GULP energy per Si atom -5568.005632 kJ/mol
# Density = 2.182341 g / cm^3
# Si number density = 21.873195 Si / 1000 Ang^3
#
#
#
# Elastic Constant Matrix: (Units=GPa)
#
#
# Indices 1 2 3 4 5 6 
#
# 1 67.5646 -8.2235 30.8294 0.0000 -23.5836 0.0000
# 2 -8.2235 40.8731 21.6229 0.0000 -9.4302 0.0000
# 3 30.8294 21.6229 134.4843 0.0000 -21.3806 0.0000
# 4 0.0000 0.0000 0.0000 24.8022 0.0000 -4.7474
# 5 -23.5836 -9.4302 -21.3806 0.0000 45.2909 0.0000
# 6 0.0000 0.0000 0.0000 -4.7474 0.0000 8.5141
#
#
#
# Elastic Compliance Matrix: (Units=1/GPa)
#
#
# Indices 1 2 3 4 5 6 
#
# 1 0.022081 0.009580 -0.004819 0.000000 0.011218 0.000000
# 2 0.009580 0.031524 -0.005869 0.000000 0.008782 0.000000
# 3 -0.004819 -0.005869 0.009612 0.000000 0.000807 0.000000
# 4 0.000000 0.000000 0.000000 0.045136 0.000000 0.025167
# 5 0.011218 0.008782 0.000807 0.000000 0.030130 0.000000
# 6 0.000000 0.000000 0.000000 0.025167 0.000000 0.131485
#
#
# Mechanical properties :
#
#
# Convention : Reuss Voigt Hill
#
# Bulk Modulus (GPa) = 16.39264 36.81996 26.60630
# Shear Modulus (GPa) = 17.09301 28.96766 23.03034
#
# Velocity S-wave (km/s) = 2.79849 3.64310 3.24837
# Velocity P-wave (km/s) = 4.23707 5.87930 5.12440
#
# Compressibility (1/GPa) = 0.06100297
#
# Stress axis : x y z
#
# Youngs Moduli (GPa) = 45.28767 31.72165 104.03364
#
# Poissons Ratio (x) = -0.30389 0.50132
# Poissons Ratio (y) = -0.43386 0.61053
# Poissons Ratio (z) = 0.21823 0.18616
#
# Static dielectric constant tensor:
#      x y z
#    x 1.890140 0.000000 0.046710 
#    y 0.000000 1.782030 0.000000 
#    z 0.046710 0.000000 1.865820 
# 
# From -- ./inp_files/39074.got.cif
#   From: 2010.05.17/outbox.cif.g08.bks.cpg/sg13_20_cif.got.tgz:39074.got - 2010.06.03 16:44:36.
