data_PCOD9226109
_publ_section_title
;
Structure prediction by ZEFSAII (Michael W. Deem and Ramdas Pophale) SiO2 
 PCOD9226109
Probable space group: P 2/C
;
_chemical_formula_sum "Si O2"
_cell_formula_units_Z 22
_cell_length_a 28.085755
_cell_length_b 6.933895
_cell_length_c 5.291028
_cell_angle_alpha 90.000000
_cell_angle_beta 101.183134
_cell_angle_gamma 90.000000
_cell_volume 1010.829415
_symmetry_space_group_name_H-M "P 2/C"
_symmetry_group_IT_number 13
_symmetry_cell_setting 'monoclinic'
loop_
_space_group_symop_operation_xyz
x,y,z
-x,y,1/2-z
-x,-y,-z
x,-y,1/2+z
loop_
_atom_site_type_symbol
_atom_site_label
_atom_site_fract_x
_atom_site_fract_y
_atom_site_fract_z
Si Si1 0.346512 0.376637 0.647397
Si Si2 0.000000 0.869007 0.250000
Si Si3 0.551147 0.629414 0.355887
Si Si4 0.105307 0.227128 0.971665
Si Si5 0.143513 0.781974 0.010764
Si Si6 0.748648 0.124761 0.959697
O O1 0.346959 0.456126 0.933913
O O2 0.397535 0.267843 0.643891
O O3 0.297592 0.259782 0.556242
O O4 0.050676 0.758200 0.316179
O O5 0.000000 0.000000 0.500000
O O6 0.500000 0.734052 0.250000
O O7 0.551031 0.540456 0.638994
O O8 0.140239 0.301776 0.787654
O O9 0.110052 0.305480 0.258454
O O10 0.122962 0.002203 0.023522
O O11 0.198373 0.779428 0.969887
O O12 0.746769 0.030599 0.681180
#
# Coordination Sequence:
#
# PCOD9226109 Si02
#       6
#     4   2   4   4   4   4
#     4  10  21  36  52  77 107 132 165 217 259 287
#     4  12  16  20  34  52  78 122 142 184 242 294
#     4   8  14  27  49  72  94 125 165 203 245 297
#     4  10  16  25  36  56  87 116 156 188 238 290
#     4  10  16  27  39  57  85 118 160 187 225 285
#     4  12  21  33  53  74  98 138 179 202 242 304
#
# _framework density 21.764308
#
# number of rings (size 3 to 8) (size 9 to 14) (size 15 to 20)
#    0.000    1.818    7.273    1.091    0.000    0.000 
#    0.000    0.000    0.000    1.091    0.000    0.000 
#    0.000    0.000    0.000   27.818    0.000    0.364 
#
# Total GULP energy -122632.799222 kJ/mol
# GULP energy per Si atom -5574.218146 kJ/mol
# Density = 2.171477 g / cm^3
# Si number density = 21.764308 Si / 1000 Ang^3
#
#
#
# Elastic Constant Matrix: (Units=GPa)
#
#
# Indices 1 2 3 4 5 6 
#
# 1 140.4421 -5.0945 2.2132 0.0000 20.5525 0.0000
# 2 -5.0945 23.3680 -9.9729 0.0000 2.0165 0.0000
# 3 2.2132 -9.9729 82.2022 0.0000 -12.5952 0.0000
# 4 0.0000 0.0000 0.0000 -11.9186 0.0000 10.2589
# 5 20.5525 2.0165 -12.5952 0.0000 50.8119 0.0000
# 6 0.0000 0.0000 0.0000 10.2589 0.0000 13.9899
#
#
#
# Elastic Compliance Matrix: (Units=1/GPa)
#
#
# Indices 1 2 3 4 5 6 
#
# 1 0.007674 0.001744 -0.000500 0.000000 -0.003297 0.000000
# 2 0.001744 0.045537 0.005294 0.000000 -0.001200 0.000000
# 3 -0.000500 0.005294 0.013326 0.000000 0.003295 0.000000
# 4 0.000000 0.000000 0.000000 -0.051436 0.000000 0.037719
# 5 -0.003297 -0.001200 0.003295 0.000000 0.021879 0.000000
# 6 0.000000 0.000000 0.000000 0.037719 0.000000 0.043821
#
#
# Mechanical properties :
#
#
# Convention : Reuss Voigt Hill
#
# Bulk Modulus (GPa) = 12.56100 24.47821 18.51961
# Shear Modulus (GPa) = 53.04402 27.83441 40.43921
#
# Velocity S-wave (km/s) = 4.94216 3.58005 4.31519
# Velocity P-wave (km/s) = 6.19278 5.32545 5.77542
#
# Compressibility (1/GPa) = 0.07961147
#
# Stress axis : x y z
#
# Youngs Moduli (GPa) = 130.30943 21.96036 75.04255
#
# Poissons Ratio (x) = -0.03830 0.03754
# Poissons Ratio (y) = -0.22727 -0.39725
# Poissons Ratio (z) = 0.06519 -0.11625
#
# Static dielectric constant tensor:
#      x y z
#    x 1.875580 0.000000 0.013670 
#    y 0.000000 2.160350 0.000000 
#    z 0.013670 0.000000 1.831530 
# 
# From -- ./inp_files/7358.got.cif
#   From: 2010.05.17/outbox.cif.g08.bks.cpg/sg13_4_cif.got.tgz:7358.got - 2010.06.03 16:44:36.
