data_PCOD9226583
_publ_section_title
;
Structure prediction by ZEFSAII (Michael W. Deem and Ramdas Pophale) SiO2 
 PCOD9226583
Probable space group: P 2/C
;
_chemical_formula_sum "Si O2"
_cell_formula_units_Z 24
_cell_length_a 13.753795
_cell_length_b 9.127136
_cell_length_c 14.042779
_cell_angle_alpha 90.000000
_cell_angle_beta 140.053169
_cell_angle_gamma 90.000000
_cell_volume 1131.870863
_symmetry_space_group_name_H-M "P 2/C"
_symmetry_group_IT_number 13
_symmetry_cell_setting 'monoclinic'
loop_
_space_group_symop_operation_xyz
x,y,z
-x,y,1/2-z
-x,-y,-z
x,-y,1/2+z
loop_
_atom_site_type_symbol
_atom_site_label
_atom_site_fract_x
_atom_site_fract_y
_atom_site_fract_z
Si Si1 0.535339 0.975652 0.673678
Si Si2 0.290244 0.691441 0.632707
Si Si3 0.161183 0.314236 0.832542
Si Si4 0.163600 0.419610 0.626790
Si Si5 0.029894 0.163965 0.057398
Si Si6 0.241564 0.992457 0.323645
O O1 0.500000 0.041141 0.750000
O O2 0.587728 0.806204 0.733480
O O3 0.381684 0.000774 0.500574
O O4 0.671718 0.035892 0.711591
O O5 0.274691 0.682732 0.507086
O O6 0.285067 0.526468 0.669170
O O7 0.134526 0.763445 0.554901
O O8 0.205873 0.395776 0.769056
O O9 0.146405 0.145698 0.787672
O O10 0.000000 0.369912 0.750000
O O11 0.000000 0.500000 0.500000
O O12 0.117115 0.265642 0.542417
O O13 0.136683 0.134772 0.229415
O O14 0.000000 0.000000 0.000000
#
# Coordination Sequence:
#
# PCOD9226583 Si02
#       6
#     4   4   4   4   4   4
#     4  10  20  39  65  86 123 168 218 265 319 381
#     4  10  21  36  62  84 120 170 211 255 323 383
#     4  12  19  35  65  87 121 171 210 251 336 399
#     4  10  20  34  58  86 127 158 208 258 309 393
#     4  10  17  33  58  86 123 154 195 264 321 373
#     4  10  21  34  62  98 118 161 215 269 314 391
#
# _framework density 21.203831000000001
#
# number of rings (size 3 to 8) (size 9 to 14) (size 15 to 20)
#    0.000    1.667    6.667    0.000    0.000    0.000 
#    0.000    0.833   47.667    0.000    0.000    0.000 
#    0.000    0.000    0.000    0.000    0.000    0.000 
#
# Total GULP energy -133649.514626 kJ/mol
# GULP energy per Si atom -5568.729776 kJ/mol
# Density = 2.115557 g / cm^3
# Si number density = 21.203831 Si / 1000 Ang^3
#
#
#
# Elastic Constant Matrix: (Units=GPa)
#
#
# Indices 1 2 3 4 5 6 
#
# 1 72.6718 22.3626 33.1003 0.0000 -26.7056 0.0000
# 2 22.3626 88.6518 43.9097 0.0000 -14.8674 0.0000
# 3 33.1003 43.9097 137.9983 0.0000 -24.5414 0.0000
# 4 0.0000 0.0000 0.0000 27.8657 0.0000 -2.9226
# 5 -26.7056 -14.8674 -24.5414 0.0000 37.0923 0.0000
# 6 0.0000 0.0000 0.0000 -2.9226 0.0000 33.8402
#
#
#
# Elastic Compliance Matrix: (Units=1/GPa)
#
#
# Indices 1 2 3 4 5 6 
#
# 1 0.019704 -0.001977 -0.001944 0.000000 0.012108 0.000000
# 2 -0.001977 0.013867 -0.003630 0.000000 0.001733 0.000000
# 3 -0.001944 -0.003630 0.009475 0.000000 0.003414 0.000000
# 4 0.000000 0.000000 0.000000 0.036215 0.000000 0.003128
# 5 0.012108 0.001733 0.003414 0.000000 0.038631 0.000000
# 6 0.000000 0.000000 0.000000 0.003128 0.000000 0.029821
#
#
# Mechanical properties :
#
#
# Convention : Reuss Voigt Hill
#
# Bulk Modulus (GPa) = 35.78560 55.34080 45.56320
# Shear Modulus (GPa) = 29.04808 33.08958 31.06883
#
# Velocity S-wave (km/s) = 3.70529 3.95466 3.83201
# Velocity P-wave (km/s) = 5.93457 6.85628 6.41201
#
# Compressibility (1/GPa) = 0.02794420
#
# Stress axis : x y z
#
# Youngs Moduli (GPa) = 50.75234 72.11138 105.54112
#
# Poissons Ratio (x) = 0.14256 0.20516
# Poissons Ratio (y) = 0.10033 0.38312
# Poissons Ratio (z) = 0.09866 0.26177
#
# Static dielectric constant tensor:
#      x y z
#    x 1.781970 0.000000 0.016970 
#    y 0.000000 1.821890 0.000000 
#    z 0.016970 0.000000 1.869710 
# 
# From -- ./inp_files/53181.got.cif
#   From: 2010.05.17/outbox.cif.g08.bks.cpg/sg13_27_cif.got.tgz:53181.got - 2010.06.03 16:44:36.
