data_PCOD9226389
_publ_section_title
;
Structure prediction by ZEFSAII (Michael W. Deem and Ramdas Pophale) SiO2 
 PCOD9226389
Probable space group: P 2/C
;
_chemical_formula_sum "Si O2"
_cell_formula_units_Z 28
_cell_length_a 26.219312
_cell_length_b 11.762048
_cell_length_c 26.323985
_cell_angle_alpha 90.000000
_cell_angle_beta 168.930848
_cell_angle_gamma 90.000000
_cell_volume 1558.628638
_symmetry_space_group_name_H-M "P 2/C"
_symmetry_group_IT_number 13
_symmetry_cell_setting 'monoclinic'
loop_
_space_group_symop_operation_xyz
x,y,z
-x,y,1/2-z
-x,-y,-z
x,-y,1/2+z
loop_
_atom_site_type_symbol
_atom_site_label
_atom_site_fract_x
_atom_site_fract_y
_atom_site_fract_z
Si Si1 0.274054 0.119173 0.633903
Si Si2 0.730042 0.536807 0.763335
Si Si3 0.307602 0.239043 0.321127
Si Si4 0.195322 0.891945 0.898563
Si Si5 0.520167 0.639466 0.130903
Si Si6 0.201645 0.905736 0.175489
Si Si7 0.737799 0.376664 0.019521
O O1 0.325613 0.254947 0.691930
O O2 0.292616 0.064250 0.707533
O O3 0.983375 0.105074 0.326660
O O4 0.506417 0.071528 0.824309
O O5 0.500000 0.500000 0.500000
O O6 0.697917 0.672875 0.731098
O O7 0.692419 0.464415 0.777574
O O8 0.000000 0.500000 0.000000
O O9 0.383142 0.302796 0.447701
O O10 0.533517 0.140302 0.537117
O O11 0.006126 0.198089 0.032391
O O12 0.236526 0.760915 0.955397
O O13 0.000000 0.945344 0.750000
O O14 0.320826 0.594946 0.979294
O O15 0.000000 0.000000 0.000000
O O16 0.000000 0.424341 0.250000
O O17 0.500000 0.408170 0.750000
#
# Coordination Sequence:
#
# PCOD9226389 Si02
#       7
#     4   4   4   4   4   4   4
#     4  10  18  28  43  64  89 121 153 176 220 277
#     4  10  19  30  47  69  93 121 153 188 224 266
#     4  10  20  33  48  69  92 121 162 192 230 283
#     4  10  17  27  41  61  89 119 149 183 215 262
#     4   9  18  30  46  65  95 126 148 182 224 267
#     4  11  21  34  49  66  93 125 155 196 237 279
#     4  10  18  26  38  60  89 123 153 175 206 260
#
# _framework density 17.964510000000001
#
# number of rings (size 3 to 8) (size 9 to 14) (size 15 to 20)
#    0.000    2.000    0.000    9.429    0.000    5.714 
#    0.000    0.000    0.000    0.000    0.000    0.000 
#    0.000   11.429    0.000    0.000    0.000    0.286 
#
# Total GULP energy -155916.207885 kJ/mol
# GULP energy per Si atom -5568.435996 kJ/mol
# Density = 1.792362 g / cm^3
# Si number density = 17.964510 Si / 1000 Ang^3
#
#
#
# Elastic Constant Matrix: (Units=GPa)
#
#
# Indices 1 2 3 4 5 6 
#
# 1 87.0568 22.2056 12.5503 0.0000 33.6791 0.0000
# 2 22.2056 23.5460 2.5210 0.0000 9.3421 0.0000
# 3 12.5503 2.5210 104.9872 0.0000 17.9270 0.0000
# 4 0.0000 0.0000 0.0000 17.6683 0.0000 5.2991
# 5 33.6791 9.3421 17.9270 0.0000 35.8049 0.0000
# 6 0.0000 0.0000 0.0000 5.2991 0.0000 16.7503
#
#
#
# Elastic Compliance Matrix: (Units=1/GPa)
#
#
# Indices 1 2 3 4 5 6 
#
# 1 0.021387 -0.013528 0.000657 0.000000 -0.016916 0.000000
# 2 -0.013528 0.056040 0.000651 0.000000 -0.002223 0.000000
# 3 0.000657 0.000651 0.010460 0.000000 -0.006025 0.000000
# 4 0.000000 0.000000 0.000000 0.062532 0.000000 -0.019782
# 5 -0.016916 -0.002223 -0.006025 0.000000 0.047438 0.000000
# 6 0.000000 0.000000 0.000000 -0.019782 0.000000 0.065959
#
#
# Mechanical properties :
#
#
# Convention : Reuss Voigt Hill
#
# Bulk Modulus (GPa) = 15.76138 32.23821 23.99979
# Shear Modulus (GPa) = 16.16009 25.93224 21.04617
#
# Velocity S-wave (km/s) = 3.00251 3.80350 3.42649
# Velocity P-wave (km/s) = 4.56210 6.10518 5.38916
#
# Compressibility (1/GPa) = 0.06344623
#
# Stress axis : x y z
#
# Youngs Moduli (GPa) = 46.75722 17.84431 95.60634
#
# Poissons Ratio (x) = 0.24140 -0.06279
# Poissons Ratio (y) = 0.63254 -0.06225
# Poissons Ratio (z) = -0.03071 -0.01162
#
# Static dielectric constant tensor:
#      x y z
#    x 1.690710 0.000000 -0.007760 
#    y 0.000000 1.668960 0.000000 
#    z -0.007760 0.000000 1.680250 
# 
# From -- ./inp_files/94177.got.cif
#   From: 2010.05.17/outbox.cif.g08.bks.cpg/sg13_48_cif.got.tgz:94177.got - 2010.06.03 16:44:36.
