data_PCOD9226141
_publ_section_title
;
Structure prediction by ZEFSAII (Michael W. Deem and Ramdas Pophale) SiO2 
 PCOD9226141
Probable space group: P 2/C
;
_chemical_formula_sum "Si O2"
_cell_formula_units_Z 26
_cell_length_a 23.828721
_cell_length_b 9.099377
_cell_length_c 5.596951
_cell_angle_alpha 90.000000
_cell_angle_beta 58.647242
_cell_angle_gamma 90.000000
_cell_volume 1036.362389
_symmetry_space_group_name_H-M "P 2/C"
_symmetry_group_IT_number 13
_symmetry_cell_setting 'monoclinic'
loop_
_space_group_symop_operation_xyz
x,y,z
-x,y,1/2-z
-x,-y,-z
x,-y,1/2+z
loop_
_atom_site_type_symbol
_atom_site_label
_atom_site_fract_x
_atom_site_fract_y
_atom_site_fract_z
Si Si1 0.525933 0.328453 0.942674
Si Si2 0.187458 0.947985 0.946141
Si Si3 0.732189 0.649599 0.440160
Si Si4 0.000000 0.642294 0.250000
Si Si5 0.871358 0.347296 0.809880
Si Si6 0.681024 0.674282 0.054944
Si Si7 0.937934 0.141820 0.271681
O O1 0.500000 0.265157 0.750000
O O2 0.604018 0.308118 0.765624
O O3 0.500000 0.265261 0.250000
O O4 0.500000 0.500000 0.000000
O O5 0.218962 0.025338 0.642498
O O6 0.163992 0.779453 0.950110
O O7 0.119081 0.030854 0.160700
O O8 0.806581 0.588760 0.325058
O O9 0.721316 0.721983 0.203825
O O10 0.690787 0.500896 0.511366
O O11 0.705721 0.730575 0.739486
O O12 0.066465 0.566972 0.211126
O O13 0.967128 0.750875 0.511336
O O14 0.906271 0.250743 0.532839
O O15 0.000000 0.060527 0.250000
#
# Coordination Sequence:
#
# PCOD9226141 Si02
#       7
#     4   4   4   2   4   4   4
#     4  10  16  26  49  76 103 117 150 181 220 270
#     4  10  19  30  44  65  93 114 145 178 250 296
#     4  10  20  33  50  66  94 125 174 190 228 275
#     4  10  18  32  46  66  90 112 154 206 260 288
#     4  10  21  30  47  67  89 122 156 209 239 292
#     4  10  20  35  51  72  96 134 160 191 219 274
#     4   9  19  30  45  67  91 116 142 191 259 310
#
# _framework density 25.087745999999999
#
# number of rings (size 3 to 8) (size 9 to 14) (size 15 to 20)
#    0.000    2.154    1.538    4.615    3.231    1.846 
#    0.000    0.000    0.000    3.692    0.000    0.000 
#    0.000    0.000    0.000    0.000    0.000  750.769 
#
# Total GULP energy -145068.951052 kJ/mol
# GULP energy per Si atom -5579.575040 kJ/mol
# Density = 2.503065 g / cm^3
# Si number density = 25.087746 Si / 1000 Ang^3
#
#
#
# Elastic Constant Matrix: (Units=GPa)
#
#
# Indices 1 2 3 4 5 6 
#
# 1 154.0987 19.2271 77.8790 0.0000 13.6807 0.0000
# 2 19.2271 45.4298 11.1285 0.0000 7.0376 0.0000
# 3 77.8790 11.1285 180.5572 0.0000 18.7506 0.0000
# 4 0.0000 0.0000 0.0000 26.9015 0.0000 11.0669
# 5 13.6807 7.0376 18.7506 0.0000 62.7788 0.0000
# 6 0.0000 0.0000 0.0000 11.0669 0.0000 29.6530
#
#
#
# Elastic Compliance Matrix: (Units=1/GPa)
#
#
# Indices 1 2 3 4 5 6 
#
# 1 0.008648 -0.002719 -0.003507 0.000000 -0.000532 0.000000
# 2 -0.002719 0.023492 -0.000065 0.000000 -0.002021 0.000000
# 3 -0.003507 -0.000065 0.007198 0.000000 -0.001378 0.000000
# 4 0.000000 0.000000 0.000000 0.043915 0.000000 -0.016390
# 5 -0.000532 -0.002021 -0.001378 0.000000 0.016683 0.000000
# 6 0.000000 0.000000 0.000000 -0.016390 0.000000 0.039840
#
#
# Mechanical properties :
#
#
# Convention : Reuss Voigt Hill
#
# Bulk Modulus (GPa) = 37.37512 66.28386 51.82949
# Shear Modulus (GPa) = 31.00222 41.99005 36.49613
#
# Velocity S-wave (km/s) = 3.51914 4.09556 3.81824
# Velocity P-wave (km/s) = 5.60737 6.98878 6.33583
#
# Compressibility (1/GPa) = 0.02675577
#
# Stress axis : x y z
#
# Youngs Moduli (GPa) = 115.62812 42.56815 138.91916
#
# Poissons Ratio (x) = 0.11573 0.48725
# Poissons Ratio (y) = 0.31435 0.00908
# Poissons Ratio (z) = 0.40556 0.00278
#
# Static dielectric constant tensor:
#      x y z
#    x 2.210610 0.000000 0.135960 
#    y 0.000000 2.057290 0.000000 
#    z 0.135960 0.000000 2.030500 
# 
# From -- ./inp_files/7024.got.cif
#   From: 2010.05.17/outbox.cif.g08.bks.cpg/sg13_4_cif.got.tgz:7024.got - 2010.06.03 16:44:36.
