data_PCOD9226180
_publ_section_title
;
Structure prediction by ZEFSAII (Michael W. Deem and Ramdas Pophale) SiO2 
 PCOD9226180
Probable space group: P 2/C
;
_chemical_formula_sum "Si O2"
_cell_formula_units_Z 20
_cell_length_a 8.069199
_cell_length_b 10.986191
_cell_length_c 18.598057
_cell_angle_alpha 90.000000
_cell_angle_beta 147.630922
_cell_angle_gamma 90.000000
_cell_volume 882.673364
_symmetry_space_group_name_H-M "P 2/C"
_symmetry_group_IT_number 13
_symmetry_cell_setting 'monoclinic'
loop_
_space_group_symop_operation_xyz
x,y,z
-x,y,1/2-z
-x,-y,-z
x,-y,1/2+z
loop_
_atom_site_type_symbol
_atom_site_label
_atom_site_fract_x
_atom_site_fract_y
_atom_site_fract_z
Si Si1 0.079566 0.324336 0.159166
Si Si2 0.160384 0.559659 0.385979
Si Si3 0.284495 0.019505 0.808528
Si Si4 0.538692 0.758353 0.572408
Si Si5 0.049502 0.905919 0.953963
O O1 0.017202 0.466673 0.126352
O O2 0.797114 0.273695 0.106742
O O3 0.364461 0.305607 0.317388
O O4 0.085687 0.231022 0.095376
O O5 0.500000 0.500000 0.500000
O O6 0.218842 0.696797 0.432763
O O7 0.000000 0.556277 0.250000
O O8 0.430142 0.901053 0.902245
O O9 0.000000 0.068975 0.750000
O O10 0.130659 0.968179 0.679240
O O11 0.577764 0.106305 0.911329
O O12 0.000000 0.000000 0.000000
#
# Coordination Sequence:
#
# PCOD9226180 Si02
#       5
#     4   4   4   4   4
#     4   9  16  32  52  79 121 153 193 244 303 361
#     4  10  16  29  52  84 123 150 195 251 317 356
#     4  11  21  40  61  85 122 159 211 263 312 369
#     4   9  16  31  53  82 117 156 191 255 300 358
#     4  11  23  39  60  86 123 166 208 254 320 379
#
# _framework density 22.658439000000001
#
# number of rings (size 3 to 8) (size 9 to 14) (size 15 to 20)
#    0.000    2.000    8.000    1.200    0.000    0.000 
#    7.200    0.000    0.000    1.200    0.000    2.800 
#    0.000    1.600    0.000    0.000    0.000    0.000 
#
# Total GULP energy -111603.503558 kJ/mol
# GULP energy per Si atom -5580.175178 kJ/mol
# Density = 2.260687 g / cm^3
# Si number density = 22.658439 Si / 1000 Ang^3
#
#
#
# Elastic Constant Matrix: (Units=GPa)
#
#
# Indices 1 2 3 4 5 6 
#
# 1 47.1139 25.5232 29.7232 0.0000 -1.1510 0.0000
# 2 25.5232 76.6210 47.0034 0.0000 -13.9380 0.0000
# 3 29.7232 47.0034 139.2407 0.0000 1.2167 0.0000
# 4 0.0000 0.0000 0.0000 46.2744 0.0000 -4.8884
# 5 -1.1510 -13.9380 1.2167 0.0000 21.6759 0.0000
# 6 0.0000 0.0000 0.0000 -4.8884 0.0000 18.4121
#
#
#
# Elastic Compliance Matrix: (Units=1/GPa)
#
#
# Indices 1 2 3 4 5 6 
#
# 1 0.027365 -0.007772 -0.003189 0.000000 -0.003365 0.000000
# 2 -0.007772 0.021719 -0.005794 0.000000 0.013878 0.000000
# 3 -0.003189 -0.005794 0.009857 0.000000 -0.004448 0.000000
# 4 0.000000 0.000000 0.000000 0.022234 0.000000 0.005903
# 5 -0.003365 0.013878 -0.004448 0.000000 0.055129 0.000000
# 6 0.000000 0.000000 0.000000 0.005903 0.000000 0.055879
#
#
# Mechanical properties :
#
#
# Convention : Reuss Voigt Hill
#
# Bulk Modulus (GPa) = 39.31961 51.94169 45.63065
# Shear Modulus (GPa) = 21.35211 27.98753 24.66982
#
# Velocity S-wave (km/s) = 3.07310 3.51834 3.30323
# Velocity P-wave (km/s) = 5.47565 6.28319 5.89327
#
# Compressibility (1/GPa) = 0.02543260
#
# Stress axis : x y z
#
# Youngs Moduli (GPa) = 36.54344 46.04283 101.44878
#
# Poissons Ratio (x) = 0.35782 0.32348
# Poissons Ratio (y) = 0.28400 0.58779
# Poissons Ratio (z) = 0.11652 0.26677
#
# Static dielectric constant tensor:
#      x y z
#    x 1.925030 0.000000 0.005730 
#    y 0.000000 1.932880 0.000000 
#    z 0.005730 0.000000 1.845610 
# 
# From -- ./inp_files/64476.got.cif
#   From: 2010.05.17/outbox.cif.g08.bks.cpg/sg13_33_cif.got.tgz:64476.got - 2010.06.03 16:44:36.
