data_PCOD9226113
_publ_section_title
;
Structure prediction by ZEFSAII (Michael W. Deem and Ramdas Pophale) SiO2 
 PCOD9226113
Probable space group: P 2/C
;
_chemical_formula_sum "Si O2"
_cell_formula_units_Z 28
_cell_length_a 18.540618
_cell_length_b 11.597285
_cell_length_c 5.680591
_cell_angle_alpha 90.000000
_cell_angle_beta 74.827571
_cell_angle_gamma 90.000000
_cell_volume 1178.868925
_symmetry_space_group_name_H-M "P 2/C"
_symmetry_group_IT_number 13
_symmetry_cell_setting 'monoclinic'
loop_
_space_group_symop_operation_xyz
x,y,z
-x,y,1/2-z
-x,-y,-z
x,-y,1/2+z
loop_
_atom_site_type_symbol
_atom_site_label
_atom_site_fract_x
_atom_site_fract_y
_atom_site_fract_z
Si Si1 0.243436 0.522994 0.201135
Si Si2 0.914625 0.042406 0.611866
Si Si3 0.292614 0.124370 0.674433
Si Si4 0.528899 0.868329 0.475323
Si Si5 0.232918 0.141137 0.224930
Si Si6 0.103580 0.315056 0.820505
Si Si7 0.113372 0.665717 0.813457
O O1 0.284093 0.500713 0.416703
O O2 0.189337 0.636114 0.246095
O O3 0.180343 0.424237 0.257334
O O4 0.906334 0.177805 0.651826
O O5 0.882529 0.006588 0.384933
O O6 0.000000 0.000000 0.500000
O O7 0.381804 0.122668 0.600734
O O8 0.268718 0.178430 0.444579
O O9 0.255717 0.995721 0.709669
O O10 0.267432 0.179305 0.944501
O O11 0.500000 0.816942 0.250000
O O12 0.500000 0.000000 0.500000
O O13 0.500000 0.816911 0.750000
O O14 0.152530 0.207594 0.295481
O O15 0.072026 0.349617 0.594238
O O16 0.074125 0.353476 0.098837
#
# Coordination Sequence:
#
# PCOD9226113 Si02
#       7
#     4   4   4   4   4   4   4
#     4   8  16  30  51  72  96 121 163 206 246 284
#     4  10  21  38  55  78 106 137 162 197 253 300
#     4  10  19  30  40  58  94 138 163 202 262 298
#     4  10  16  25  41  58  75 113 182 224 236 282
#     4  10  18  30  40  58  93 132 163 198 245 311
#     4  10  19  35  52  77  99 129 163 212 242 286
#     4  10  19  32  50  75  98 132 171 205 250 291
#
# _framework density 23.751581000000002
#
# number of rings (size 3 to 8) (size 9 to 14) (size 15 to 20)
#    0.000    2.286    0.000    6.000    0.000    0.000 
#   15.429    0.000    0.000    0.000    0.000  108.000 
#    0.000    0.000    0.000    0.000    0.000 1568.571 
#
# Total GULP energy -156077.906066 kJ/mol
# GULP energy per Si atom -5574.210931 kJ/mol
# Density = 2.369752 g / cm^3
# Si number density = 23.751581 Si / 1000 Ang^3
#
#
#
# Elastic Constant Matrix: (Units=GPa)
#
#
# Indices 1 2 3 4 5 6 
#
# 1 97.2122 4.9183 69.7458 0.0000 4.9441 0.0000
# 2 4.9183 80.0503 9.2707 0.0000 7.3650 0.0000
# 3 69.7458 9.2707 294.9231 0.0000 51.4079 0.0000
# 4 0.0000 0.0000 0.0000 27.6448 0.0000 -10.2044
# 5 4.9441 7.3650 51.4079 0.0000 47.2373 0.0000
# 6 0.0000 0.0000 0.0000 -10.2044 0.0000 75.7310
#
#
#
# Elastic Compliance Matrix: (Units=1/GPa)
#
#
# Indices 1 2 3 4 5 6 
#
# 1 0.012630 -0.000610 -0.003399 0.000000 0.002472 0.000000
# 2 -0.000610 0.012704 0.000098 0.000000 -0.002023 0.000000
# 3 -0.003399 0.000098 0.005099 0.000000 -0.005209 0.000000
# 4 0.000000 0.000000 0.000000 0.038067 0.000000 0.005129
# 5 0.002472 -0.002023 -0.005209 0.000000 0.026895 0.000000
# 6 0.000000 0.000000 0.000000 0.005129 0.000000 0.013896
#
#
# Mechanical properties :
#
#
# Convention : Reuss Voigt Hill
#
# Bulk Modulus (GPa) = 44.22381 71.11726 57.67054
# Shear Modulus (GPa) = 40.11196 56.00600 48.05898
#
# Velocity S-wave (km/s) = 4.11397 4.86118 4.50310
# Velocity P-wave (km/s) = 6.42076 7.84317 7.16733
#
# Compressibility (1/GPa) = 0.02261225
#
# Stress axis : x y z
#
# Youngs Moduli (GPa) = 79.17493 78.71255 196.10270
#
# Poissons Ratio (x) = 0.04800 0.66647
# Poissons Ratio (y) = 0.04828 -0.01912
# Poissons Ratio (z) = 0.26908 -0.00767
#
# Static dielectric constant tensor:
#      x y z
#    x 1.883070 0.000000 0.074500 
#    y 0.000000 1.947240 0.000000 
#    z 0.074500 0.000000 2.013890 
# 
# From -- ./inp_files/6903.got.cif
#   From: 2010.05.17/outbox.cif.g08.bks.cpg/sg13_4_cif.got.tgz:6903.got - 2010.06.03 16:44:36.
