data_PCOD9226003
_publ_section_title
;
Structure prediction by ZEFSAII (Michael W. Deem and Ramdas Pophale) SiO2 
 PCOD9226003
Probable space group: P 2/C
;
_chemical_formula_sum "Si O2"
_cell_formula_units_Z 20
_cell_length_a 27.003082
_cell_length_b 7.496233
_cell_length_c 5.288089
_cell_angle_alpha 90.000000
_cell_angle_beta 73.178012
_cell_angle_gamma 90.000000
_cell_volume 1024.617379
_symmetry_space_group_name_H-M "P 2/C"
_symmetry_group_IT_number 13
_symmetry_cell_setting 'monoclinic'
loop_
_space_group_symop_operation_xyz
x,y,z
-x,y,1/2-z
-x,-y,-z
x,-y,1/2+z
loop_
_atom_site_type_symbol
_atom_site_label
_atom_site_fract_x
_atom_site_fract_y
_atom_site_fract_z
Si Si1 0.347030 0.614542 0.033727
Si Si2 0.861045 0.885668 0.256375
Si Si3 0.748892 0.121023 0.836899
Si Si4 0.977268 0.206533 0.533626
Si Si5 0.559477 0.882373 0.681871
O O1 0.345876 0.467071 0.815583
O O2 0.398828 0.729240 0.918419
O O3 0.297468 0.741140 0.072500
O O4 0.806112 0.792922 0.283695
O O5 0.915514 0.791732 0.129627
O O6 0.861299 0.956463 0.544330
O O7 0.745435 0.021345 0.571871
O O8 0.000000 0.289712 0.750000
O O9 0.000000 0.000000 0.500000
O O10 0.000000 0.289196 0.250000
O O11 0.500000 0.818603 0.750000
O O12 0.566603 0.024575 0.443762
#
# Coordination Sequence:
#
# PCOD9226003 Si02
#       5
#     4   4   4   4   4
#     4  12  24  38  58  83 114 148 188 231 273 318
#     4  10  16  25  40  64  91 132 163 203 261 324
#     4  10  21  36  55  75 106 144 185 226 270 330
#     4  10  14  20  34  56  93 125 145 196 265 328
#     4  10  21  39  63  88 116 149 185 223 273 331
#
# _framework density 19.519482
#
# number of rings (size 3 to 8) (size 9 to 14) (size 15 to 20)
#    0.000    1.600    4.000    3.600    0.000    0.800 
#    0.000    0.000    0.000    0.000    0.000    0.000 
#    0.000    4.800    0.000    0.000    0.000    0.000 
#
# Total GULP energy -111590.858807 kJ/mol
# GULP energy per Si atom -5579.542940 kJ/mol
# Density = 1.947505 g / cm^3
# Si number density = 19.519482 Si / 1000 Ang^3
#
#
#
# Elastic Constant Matrix: (Units=GPa)
#
#
# Indices 1 2 3 4 5 6 
#
# 1 113.6136 32.3886 13.6472 0.0000 -26.6625 0.0000
# 2 32.3886 24.2457 -2.9983 0.0000 -14.5551 0.0000
# 3 13.6472 -2.9983 94.5227 0.0000 3.7237 0.0000
# 4 0.0000 0.0000 0.0000 11.5680 0.0000 10.9933
# 5 -26.6625 -14.5551 3.7237 0.0000 40.2831 0.0000
# 6 0.0000 0.0000 0.0000 10.9933 0.0000 -10.2395
#
#
#
# Elastic Compliance Matrix: (Units=1/GPa)
#
#
# Indices 1 2 3 4 5 6 
#
# 1 0.015334 -0.018634 -0.002950 0.000000 0.003689 0.000000
# 2 -0.018634 0.075394 0.004511 0.000000 0.014491 0.000000
# 3 -0.002950 0.004511 0.011202 0.000000 -0.001358 0.000000
# 4 0.000000 0.000000 0.000000 0.042789 0.000000 0.045939
# 5 0.003689 0.014491 -0.001358 0.000000 0.032627 0.000000
# 6 0.000000 0.000000 0.000000 0.045939 0.000000 -0.048340
#
#
# Mechanical properties :
#
#
# Convention : Reuss Voigt Hill
#
# Bulk Modulus (GPa) = 14.75301 35.38412 25.06856
# Shear Modulus (GPa) = 26.91830 20.94526 23.93178
#
# Velocity S-wave (km/s) = 3.71758 3.27929 3.50529
# Velocity P-wave (km/s) = 5.09919 5.70134 5.40865
#
# Compressibility (1/GPa) = 0.06778280
#
# Stress axis : x y z
#
# Youngs Moduli (GPa) = 65.21421 13.26371 89.26944
#
# Poissons Ratio (x) = 0.24716 0.26338
# Poissons Ratio (y) = 1.21522 -0.40270
# Poissons Ratio (z) = 0.19240 -0.05983
#
# Static dielectric constant tensor:
#      x y z
#    x 1.692720 0.000000 -0.000870 
#    y 0.000000 1.642760 0.000000 
#    z -0.000870 0.000000 1.689010 
# 
# From -- ./inp_files/7692.got.cif
#   From: 2010.05.17/outbox.cif.g08.bks.cpg/sg13_4_cif.got.tgz:7692.got - 2010.06.03 16:44:36.
