data_PCOD9226396
_publ_section_title
;
Structure prediction by ZEFSAII (Michael W. Deem and Ramdas Pophale) SiO2 
 PCOD9226396
Probable space group: P 2/C
;
_chemical_formula_sum "Si O2"
_cell_formula_units_Z 28
_cell_length_a 26.374262
_cell_length_b 10.157201
_cell_length_c 19.085355
_cell_angle_alpha 90.000000
_cell_angle_beta 160.309353
_cell_angle_gamma 90.000000
_cell_volume 1722.698191
_symmetry_space_group_name_H-M "P 2/C"
_symmetry_group_IT_number 13
_symmetry_cell_setting 'monoclinic'
loop_
_space_group_symop_operation_xyz
x,y,z
-x,y,1/2-z
-x,-y,-z
x,-y,1/2+z
loop_
_atom_site_type_symbol
_atom_site_label
_atom_site_fract_x
_atom_site_fract_y
_atom_site_fract_z
Si Si1 0.001723 0.615728 0.444309
Si Si2 0.007677 0.264384 0.180055
Si Si3 0.522964 0.530451 0.137102
Si Si4 0.084038 0.128145 0.137295
Si Si5 0.747592 0.459695 0.800486
Si Si6 0.608932 0.247892 0.956020
Si Si7 0.750673 0.474975 0.049310
O O1 0.021626 0.750574 0.510208
O O2 0.139997 0.578788 0.573269
O O3 0.000000 0.500000 0.500000
O O4 0.846473 0.596565 0.201305
O O5 0.000000 0.215226 0.250000
O O6 0.051855 0.160251 0.177401
O O7 0.133921 0.380640 0.343432
O O8 0.854265 0.335335 0.954677
O O9 0.644592 0.516023 0.233922
O O10 0.481021 0.684934 0.096977
O O11 0.607726 0.487297 0.317532
O O12 0.373345 0.452766 0.919893
O O13 0.265459 0.139558 0.364132
O O14 0.000000 0.000000 0.000000
O O15 0.500000 0.208290 0.750000
O O16 0.697958 0.376501 0.042096
#
# Coordination Sequence:
#
# PCOD9226396 Si02
#       7
#     4   4   4   4   4   4   4
#     4  11  17  32  53  80 107 134 182 232 266 320
#     4  10  18  33  54  77 102 136 187 222 263 325
#     4  10  17  27  45  84 113 136 169 220 282 324
#     4  11  22  36  59  78 104 148 193 225 271 325
#     4  10  18  26  50  81 109 137 170 224 272 317
#     4   9  17  31  52  79 106 137 181 223 265 324
#     4   9  17  27  51  79 104 137 176 227 263 312
#
# _framework density 16.253571999999998
#
# number of rings (size 3 to 8) (size 9 to 14) (size 15 to 20)
#    0.000    2.000    7.143    0.000    0.000    0.000 
#    0.000    0.000    6.286    0.857    0.000    0.000 
#    0.000    0.000    0.000    0.000    0.000    0.000 
#
# Total GULP energy -155873.996604 kJ/mol
# GULP energy per Si atom -5566.928450 kJ/mol
# Density = 1.621658 g / cm^3
# Si number density = 16.253572 Si / 1000 Ang^3
#
#
#
# Elastic Constant Matrix: (Units=GPa)
#
#
# Indices 1 2 3 4 5 6 
#
# 1 83.5201 29.1235 22.4425 0.0000 0.2771 0.0000
# 2 29.1235 68.9966 35.4242 0.0000 -8.4110 0.0000
# 3 22.4425 35.4242 118.6461 0.0000 -17.8696 0.0000
# 4 0.0000 0.0000 0.0000 24.6820 0.0000 -4.3881
# 5 0.2771 -8.4110 -17.8696 0.0000 30.1205 0.0000
# 6 0.0000 0.0000 0.0000 -4.3881 0.0000 11.5166
#
#
#
# Elastic Compliance Matrix: (Units=1/GPa)
#
#
# Indices 1 2 3 4 5 6 
#
# 1 0.014325 -0.005632 -0.001411 0.000000 -0.002541 0.000000
# 2 -0.005632 0.019433 -0.004296 0.000000 0.002930 0.000000
# 3 -0.001411 -0.004296 0.010761 0.000000 0.005197 0.000000
# 4 0.000000 0.000000 0.000000 0.043459 0.000000 0.016559
# 5 -0.002541 0.002930 0.005197 0.000000 0.037125 0.000000
# 6 0.000000 0.000000 0.000000 0.016559 0.000000 0.093141
#
#
# Mechanical properties :
#
#
# Convention : Reuss Voigt Hill
#
# Bulk Modulus (GPa) = 45.78363 49.46035 47.62199
# Shear Modulus (GPa) = 20.14497 25.54198 22.84347
#
# Velocity S-wave (km/s) = 3.52436 3.96848 3.75299
# Velocity P-wave (km/s) = 6.69260 7.17600 6.93851
#
# Compressibility (1/GPa) = 0.02184187
#
# Stress axis : x y z
#
# Youngs Moduli (GPa) = 69.81028 51.45799 92.93134
#
# Poissons Ratio (x) = 0.28980 0.13111
# Poissons Ratio (y) = 0.39316 0.39920
# Poissons Ratio (z) = 0.09849 0.22104
#
# Static dielectric constant tensor:
#      x y z
#    x 1.613150 0.000000 0.011920 
#    y 0.000000 1.503080 0.000000 
#    z 0.011920 0.000000 1.608080 
# 
# From -- ./inp_files/80872.got.cif
#   From: 2010.05.17/outbox.cif.g08.bks.cpg/sg13_41_cif.got.tgz:80872.got - 2010.06.03 16:44:36.
