data_PCOD9226893
_publ_section_title
;
Structure prediction by ZEFSAII (Michael W. Deem and Ramdas Pophale) SiO2 
 PCOD9226893
Probable space group: P 2/C
;
_chemical_formula_sum "Si O2"
_cell_formula_units_Z 32
_cell_length_a 17.664319
_cell_length_b 13.567298
_cell_length_c 10.278951
_cell_angle_alpha 90.000000
_cell_angle_beta 131.689582
_cell_angle_gamma 90.000000
_cell_volume 1839.583895
_symmetry_space_group_name_H-M "P 2/C"
_symmetry_group_IT_number 13
_symmetry_cell_setting 'monoclinic'
loop_
_space_group_symop_operation_xyz
x,y,z
-x,y,1/2-z
-x,-y,-z
x,-y,1/2+z
loop_
_atom_site_type_symbol
_atom_site_label
_atom_site_fract_x
_atom_site_fract_y
_atom_site_fract_z
Si Si1 0.897110 0.606520 0.458198
Si Si2 0.130725 0.964349 0.012389
Si Si3 0.431511 0.120163 0.047163
Si Si4 0.127002 0.573785 0.762898
Si Si5 0.426979 0.104966 0.543274
Si Si6 0.259177 0.747644 0.929062
Si Si7 0.903852 0.907101 0.793342
Si Si8 0.260434 0.221224 0.718590
O O1 0.873483 0.567709 0.579100
O O2 0.871976 0.526770 0.317973
O O3 0.830680 0.703794 0.355521
O O4 0.018507 0.622275 0.599512
O O5 0.219006 0.888747 0.144764
O O6 0.130734 0.057774 0.105303
O O7 0.128555 0.984908 0.856233
O O8 0.025072 0.907572 0.924330
O O9 0.500000 0.140655 0.250000
O O10 0.388395 0.008147 0.011867
O O11 0.505126 0.114864 0.006850
O O12 0.347057 0.202562 0.922954
O O13 0.223024 0.642185 0.837562
O O14 0.500000 0.121223 0.750000
O O15 0.337461 0.184573 0.441660
O O16 0.300191 0.741801 0.123591
O O17 0.153081 0.808583 0.813242
#
# Coordination Sequence:
#
# PCOD9226893 Si02
#       8
#     4   4   4   4   4   4   4   4
#     4   9  18  34  56  78 105 133 167 208 257 307
#     4   9  17  29  45  67  99 132 162 194 241 295
#     4  10  21  35  52  76 105 134 171 217 258 292
#     4   9  18  34  55  80 104 133 167 209 254 308
#     4  10  19  35  54  74 101 138 175 211 251 301
#     4  10  18  31  54  75  96 132 176 204 243 306
#     4   9  17  29  44  68 100 131 161 197 237 295
#     4  10  18  32  53  74  97 133 171 208 250 301
#
# _framework density 17.395237999999999
#
# number of rings (size 3 to 8) (size 9 to 14) (size 15 to 20)
#    0.000    2.500    1.250    1.500    0.000    3.000 
#    4.500    0.000    0.000    7.500    0.000    0.000 
#    0.000    0.000    0.000    0.000    0.000    0.000 
#
# Total GULP energy -178176.024431 kJ/mol
# GULP energy per Si atom -5568.000763 kJ/mol
# Density = 1.735565 g / cm^3
# Si number density = 17.395238 Si / 1000 Ang^3
#
#
#
# Elastic Constant Matrix: (Units=GPa)
#
#
# Indices 1 2 3 4 5 6 
#
# 1 30.9332 9.6636 16.2206 0.0000 -0.5581 0.0000
# 2 9.6636 43.6504 33.9758 0.0000 7.9495 0.0000
# 3 16.2206 33.9758 101.7052 0.0000 -7.5942 0.0000
# 4 0.0000 0.0000 0.0000 30.2777 0.0000 6.5028
# 5 -0.5581 7.9495 -7.5942 0.0000 22.4794 0.0000
# 6 0.0000 0.0000 0.0000 6.5028 0.0000 26.3065
#
#
#
# Elastic Compliance Matrix: (Units=1/GPa)
#
#
# Indices 1 2 3 4 5 6 
#
# 1 0.036023 -0.005192 -0.003905 0.000000 0.001411 0.000000
# 2 -0.005192 0.037403 -0.012992 0.000000 -0.017745 0.000000
# 3 -0.003905 -0.012992 0.015523 0.000000 0.009741 0.000000
# 4 0.000000 0.000000 0.000000 0.034879 0.000000 -0.008622
# 5 0.001411 -0.017745 0.009741 0.000000 0.054086 0.000000
# 6 0.000000 0.000000 0.000000 -0.008622 0.000000 0.040145
#
#
# Mechanical properties :
#
#
# Convention : Reuss Voigt Hill
#
# Bulk Modulus (GPa) = 22.33649 32.88989 27.61319
# Shear Modulus (GPa) = 18.04009 23.57464 20.80737
#
# Velocity S-wave (km/s) = 3.22385 3.68535 3.46230
# Velocity P-wave (km/s) = 5.16973 6.08749 5.64728
#
# Compressibility (1/GPa) = 0.04476978
#
# Stress axis : x y z
#
# Youngs Moduli (GPa) = 27.76000 26.73606 64.42222
#
# Poissons Ratio (x) = 0.13882 0.25159
# Poissons Ratio (y) = 0.14414 0.83695
# Poissons Ratio (z) = 0.10841 0.34735
#
# Static dielectric constant tensor:
#      x y z
#    x 1.615840 0.000000 0.007600 
#    y 0.000000 1.575860 0.000000 
#    z 0.007600 0.000000 1.617620 
# 
# From -- ./inp_files/40699.got.cif
#   From: 2010.05.17/outbox.cif.g08.bks.cpg/sg13_21_cif.got.tgz:40699.got - 2010.06.03 16:44:36.
