data_PCOD9226958
_publ_section_title
;
Structure prediction by ZEFSAII (Michael W. Deem and Ramdas Pophale) SiO2 
 PCOD9226958
Probable space group: P 2/C
;
_chemical_formula_sum "Si O2"
_cell_formula_units_Z 24
_cell_length_a 14.253254
_cell_length_b 11.247689
_cell_length_c 15.424708
_cell_angle_alpha 90.000000
_cell_angle_beta 27.583670
_cell_angle_gamma 90.000000
_cell_volume 1145.027742
_symmetry_space_group_name_H-M "P 2/C"
_symmetry_group_IT_number 13
_symmetry_cell_setting 'monoclinic'
loop_
_space_group_symop_operation_xyz
x,y,z
-x,y,1/2-z
-x,-y,-z
x,-y,1/2+z
loop_
_atom_site_type_symbol
_atom_site_label
_atom_site_fract_x
_atom_site_fract_y
_atom_site_fract_z
Si Si1 0.319203 0.960667 0.554622
Si Si2 0.788341 0.564791 0.693886
Si Si3 0.200829 0.766291 0.533720
Si Si4 0.703424 0.159776 0.814226
Si Si5 0.475961 0.384178 0.928507
Si Si6 0.944508 0.812982 0.587235
O O1 0.247798 0.902456 0.523543
O O2 0.548365 0.919793 0.384461
O O3 0.305931 0.100193 0.583232
O O4 0.186776 0.891318 0.738215
O O5 0.616710 0.492056 0.784284
O O6 0.000000 0.500000 0.500000
O O7 0.814267 0.704451 0.657331
O O8 0.703047 0.565782 0.862945
O O9 0.378006 0.689228 0.430521
O O10 0.131122 0.759530 0.492552
O O11 0.000000 0.729228 0.750000
O O12 0.614526 0.292270 0.872741
O O13 0.929376 0.135761 0.595129
#
# Coordination Sequence:
#
# PCOD9226958 Si02
#       6
#     4   4   4   4   4   4
#     4   9  19  32  49  78 109 136 174 222 274 322
#     4  11  20  33  50  80 109 139 181 226 264 326
#     4   9  17  34  53  81 109 137 181 232 276 314
#     4  10  18  32  51  79 108 139 175 222 270 322
#     4  10  20  33  52  78 111 141 176 224 274 318
#     4  11  19  33  55  83 107 138 187 230 268 318
#
# _framework density 20.960190000000001
#
# number of rings (size 3 to 8) (size 9 to 14) (size 15 to 20)
#    0.000    2.000    6.667    0.500    0.000    2.667 
#    0.000    0.000    0.000    0.000   26.000    2.333 
#    0.000    0.000    0.000    0.000    0.000    0.000 
#
# Total GULP energy -133678.899696 kJ/mol
# GULP energy per Si atom -5569.954154 kJ/mol
# Density = 2.091248 g / cm^3
# Si number density = 20.960190 Si / 1000 Ang^3
#
#
#
# Elastic Constant Matrix: (Units=GPa)
#
#
# Indices 1 2 3 4 5 6 
#
# 1 46.1822 29.4793 -5.7845 0.0000 -10.0993 0.0000
# 2 29.4793 83.4389 13.9383 0.0000 -4.8706 0.0000
# 3 -5.7845 13.9383 104.5419 0.0000 -13.4014 0.0000
# 4 0.0000 0.0000 0.0000 33.9342 0.0000 -7.4640
# 5 -10.0993 -4.8706 -13.4014 0.0000 23.1823 0.0000
# 6 0.0000 0.0000 0.0000 -7.4640 0.0000 14.9524
#
#
#
# Elastic Compliance Matrix: (Units=1/GPa)
#
#
# Indices 1 2 3 4 5 6 
#
# 1 0.033069 -0.011694 0.005315 0.000000 0.015022 0.000000
# 2 -0.011694 0.016460 -0.003296 0.000000 -0.003541 0.000000
# 3 0.005315 -0.003296 0.011348 0.000000 0.008183 0.000000
# 4 0.000000 0.000000 0.000000 0.033104 0.000000 0.016525
# 5 0.015022 -0.003541 0.008183 0.000000 0.053667 0.000000
# 6 0.000000 0.000000 0.000000 0.016525 0.000000 0.075128
#
#
# Mechanical properties :
#
#
# Convention : Reuss Voigt Hill
#
# Bulk Modulus (GPa) = 24.08111 34.38102 29.23107
# Shear Modulus (GPa) = 19.53368 27.51577 23.52472
#
# Velocity S-wave (km/s) = 3.05608 3.62714 3.35379
# Velocity P-wave (km/s) = 4.89559 5.82925 5.38270
#
# Compressibility (1/GPa) = 0.04152632
#
# Stress axis : x y z
#
# Youngs Moduli (GPa) = 30.24004 60.75236 88.12125
#
# Poissons Ratio (x) = 0.71045 -0.46833
# Poissons Ratio (y) = 0.35363 0.29042
# Poissons Ratio (z) = -0.16071 0.20022
#
# Static dielectric constant tensor:
#      x y z
#    x 1.750580 0.000000 -0.007060 
#    y 0.000000 1.826780 0.000000 
#    z -0.007060 0.000000 1.852320 
# 
# From -- ./inp_files/53612.got.cif
#   From: 2010.05.17/outbox.cif.g08.bks.cpg/sg13_27_cif.got.tgz:53612.got - 2010.06.03 16:44:36.
