data_PCOD9226483
_publ_section_title
;
Structure prediction by ZEFSAII (Michael W. Deem and Ramdas Pophale) SiO2 
 PCOD9226483
Probable space group: P 2/C
;
_chemical_formula_sum "Si O2"
_cell_formula_units_Z 32
_cell_length_a 12.747807
_cell_length_b 14.407282
_cell_length_c 10.481665
_cell_angle_alpha 90.000000
_cell_angle_beta 102.870598
_cell_angle_gamma 90.000000
_cell_volume 1876.709384
_symmetry_space_group_name_H-M "P 2/C"
_symmetry_group_IT_number 13
_symmetry_cell_setting 'monoclinic'
loop_
_space_group_symop_operation_xyz
x,y,z
-x,y,1/2-z
-x,-y,-z
x,-y,1/2+z
loop_
_atom_site_type_symbol
_atom_site_label
_atom_site_fract_x
_atom_site_fract_y
_atom_site_fract_z
Si Si1 0.923566 0.610877 0.109078
Si Si2 0.556380 0.035913 0.890816
Si Si3 0.198889 0.055569 0.517034
Si Si4 0.740773 0.729649 0.470674
Si Si5 0.060838 0.388911 0.396472
Si Si6 0.122415 0.080290 0.779396
Si Si7 0.507642 0.255201 0.894904
Si Si8 0.738009 0.736361 0.161622
O O1 0.915196 0.499228 0.099516
O O2 0.812036 0.663277 0.106347
O O3 0.000000 0.633558 0.250000
O O4 0.984430 0.637089 0.995263
O O5 0.500000 0.996872 0.750000
O O6 0.681791 0.014855 0.929944
O O7 0.536386 0.146457 0.885696
O O8 0.500000 0.000000 0.000000
O O9 0.220580 0.164455 0.494182
O O10 0.142222 0.048899 0.639061
O O11 0.140638 0.001480 0.387066
O O12 0.827641 0.663319 0.555948
O O13 0.619025 0.709380 0.485686
O O14 0.740592 0.717676 0.315787
O O15 0.000000 0.364972 0.250000
O O16 0.206721 0.162322 0.834415
O O17 0.000000 0.115776 0.750000
O O18 0.500000 0.296204 0.750000
O O19 0.387014 0.263682 0.915907
#
# Coordination Sequence:
#
# PCOD9226483 Si02
#       8
#     4   4   4   4   4   4   4   4
#     4  10  19  35  58  82 105 133 177 223 252 312
#     4  10  17  30  52  73  96 130 176 223 259 298
#     4  10  21  35  51  75 106 141 177 217 262 310
#     4   9  18  34  56  76 108 142 173 217 264 312
#     4  10  21  35  55  83 109 134 170 215 270 315
#     4  11  22  35  51  76 109 143 178 218 262 311
#     4   8  16  30  51  79  99 129 179 220 252 305
#     4  10  18  33  58  79 100 138 184 219 258 307
#
# _framework density 17.051120999999998
#
# number of rings (size 3 to 8) (size 9 to 14) (size 15 to 20)
#    0.000    2.250    1.250    4.500    1.750    0.500 
#    2.250    0.625    2.750    0.000    0.000    0.000 
#    0.000    0.000    0.000    0.000    0.000    0.000 
#
# Total GULP energy -178267.162654 kJ/mol
# GULP energy per Si atom -5570.848833 kJ/mol
# Density = 1.701231 g / cm^3
# Si number density = 17.051121 Si / 1000 Ang^3
#
#
#
# Elastic Constant Matrix: (Units=GPa)
#
#
# Indices 1 2 3 4 5 6 
#
# 1 152.6446 38.5310 51.2880 0.0000 13.0211 0.0000
# 2 38.5310 33.7834 30.5039 0.0000 8.0650 0.0000
# 3 51.2880 30.5039 86.1995 0.0000 5.5525 0.0000
# 4 0.0000 0.0000 0.0000 7.7880 0.0000 -6.0734
# 5 13.0211 8.0650 5.5525 0.0000 29.4104 0.0000
# 6 0.0000 0.0000 0.0000 -6.0734 0.0000 13.3500
#
#
#
# Elastic Compliance Matrix: (Units=1/GPa)
#
#
# Indices 1 2 3 4 5 6 
#
# 1 0.009673 -0.008173 -0.002765 0.000000 -0.001519 0.000000
# 2 -0.008173 0.052971 -0.013342 0.000000 -0.008389 0.000000
# 3 -0.002765 -0.013342 0.017871 0.000000 0.001509 0.000000
# 4 0.000000 0.000000 0.000000 0.199009 0.000000 0.090537
# 5 -0.001519 -0.008389 0.001509 0.000000 0.036690 0.000000
# 6 0.000000 0.000000 0.000000 0.090537 0.000000 0.116096
#
#
# Mechanical properties :
#
#
# Convention : Reuss Voigt Hill
#
# Bulk Modulus (GPa) = 31.29473 57.03037 44.16255
# Shear Modulus (GPa) = 10.17251 20.26330 15.21791
#
# Velocity S-wave (km/s) = 2.44517 3.45104 2.99069
# Velocity P-wave (km/s) = 5.13470 7.02843 6.15483
#
# Compressibility (1/GPa) = 0.03195427
#
# Stress axis : x y z
#
# Youngs Moduli (GPa) = 103.38196 18.87827 55.95793
#
# Poissons Ratio (x) = 0.15428 0.15474
# Poissons Ratio (y) = 0.84490 0.74660
# Poissons Ratio (z) = 0.28588 0.25188
#
# Static dielectric constant tensor:
#      x y z
#    x 1.548980 0.000000 -0.023110 
#    y 0.000000 1.534430 0.000000 
#    z -0.023110 0.000000 1.549370 
# 
# From -- ./inp_files/34401.got.cif
#   From: 2010.05.17/outbox.cif.g08.bks.cpg/sg13_18_cif.got.tgz:34401.got - 2010.06.03 16:44:36.
