data_PCOD9226961
_publ_section_title
;
Structure prediction by ZEFSAII (Michael W. Deem and Ramdas Pophale) SiO2 
 PCOD9226961
Probable space group: P 2/C
;
_chemical_formula_sum "Si O2"
_cell_formula_units_Z 28
_cell_length_a 21.226842
_cell_length_b 6.506513
_cell_length_c 17.579048
_cell_angle_alpha 90.000000
_cell_angle_beta 149.633129
_cell_angle_gamma 90.000000
_cell_volume 1227.383385
_symmetry_space_group_name_H-M "P 2/C"
_symmetry_group_IT_number 13
_symmetry_cell_setting 'monoclinic'
loop_
_space_group_symop_operation_xyz
x,y,z
-x,y,1/2-z
-x,-y,-z
x,-y,1/2+z
loop_
_atom_site_type_symbol
_atom_site_label
_atom_site_fract_x
_atom_site_fract_y
_atom_site_fract_z
Si Si1 0.219860 0.301516 0.005340
Si Si2 0.054615 0.404640 0.960590
Si Si3 0.740444 0.141363 0.239996
Si Si4 0.617151 0.693556 0.329538
Si Si5 0.085505 0.193505 0.565925
Si Si6 0.696819 0.030270 0.535548
Si Si7 0.566986 0.937829 0.676819
O O1 0.091073 0.309480 0.917996
O O2 0.273019 0.531869 0.063610
O O3 0.221610 0.198001 0.924359
O O4 0.323791 0.175332 0.161472
O O5 0.170909 0.320493 0.134989
O O6 0.051978 0.650528 0.963912
O O7 0.931464 0.327310 0.875418
O O8 0.788428 0.921210 0.322434
O O9 0.601257 0.143307 0.128054
O O10 0.752591 0.101512 0.163195
O O11 0.500000 0.587337 0.250000
O O12 0.656819 0.867574 0.430495
O O13 0.577717 0.821280 0.213161
O O14 0.000000 0.000000 0.500000
O O15 0.569910 0.127671 0.437638
#
# Coordination Sequence:
#
# PCOD9226961 Si02
#       7
#     4   4   4   4   4   4   4
#     4  10  18  32  52  72 101 140 177 210 254 310
#     4   9  19  34  55  78  97 128 176 220 260 313
#     4  10  19  32  52  76 104 134 167 215 267 310
#     4   9  17  30  47  68  98 135 172 207 245 301
#     4   9  18  35  57  77  97 125 170 221 265 310
#     4  10  20  31  47  76 110 138 168 209 259 311
#     4   9  18  32  50  73 101 139 180 211 246 304
#
# _framework density 22.812759
#
# number of rings (size 3 to 8) (size 9 to 14) (size 15 to 20)
#    0.000    2.571    0.000    3.429    0.000    2.286 
#    0.000    0.714    0.000    9.429    0.000    0.000 
#    0.000    0.000    0.000    0.000    0.000    0.000 
#
# Total GULP energy -155880.634502 kJ/mol
# GULP energy per Si atom -5567.165518 kJ/mol
# Density = 2.276084 g / cm^3
# Si number density = 22.812759 Si / 1000 Ang^3
#
#
#
# Elastic Constant Matrix: (Units=GPa)
#
#
# Indices 1 2 3 4 5 6 
#
# 1 138.5963 28.7497 11.1481 0.0000 -0.8259 0.0000
# 2 28.7497 57.5095 0.1428 0.0000 2.0922 0.0000
# 3 11.1481 0.1428 39.8521 0.0000 -14.3031 0.0000
# 4 0.0000 0.0000 0.0000 7.2395 0.0000 4.6537
# 5 -0.8259 2.0922 -14.3031 0.0000 29.3094 0.0000
# 6 0.0000 0.0000 0.0000 4.6537 0.0000 24.6456
#
#
#
# Elastic Compliance Matrix: (Units=1/GPa)
#
#
# Indices 1 2 3 4 5 6 
#
# 1 0.008267 -0.004100 -0.002557 0.000000 -0.000722 0.000000
# 2 -0.004100 0.019480 0.000651 0.000000 -0.001189 0.000000
# 3 -0.002557 0.000651 0.031234 0.000000 0.015124 0.000000
# 4 0.000000 0.000000 0.000000 0.157214 0.000000 -0.029686
# 5 -0.000722 -0.001189 0.015124 0.000000 0.041564 0.000000
# 6 0.000000 0.000000 0.000000 -0.029686 0.000000 0.046181
#
#
# Mechanical properties :
#
#
# Convention : Reuss Voigt Hill
#
# Bulk Modulus (GPa) = 21.29149 35.11545 28.20347
# Shear Modulus (GPa) = 15.07805 25.30006 20.18905
#
# Velocity S-wave (km/s) = 2.57368 3.33382 2.97810
# Velocity P-wave (km/s) = 4.26441 5.49959 4.92091
#
# Compressibility (1/GPa) = 0.04696711
#
# Stress axis : x y z
#
# Youngs Moduli (GPa) = 120.96136 51.33521 32.01671
#
# Poissons Ratio (x) = 0.21048 0.08187
# Poissons Ratio (y) = 0.49597 -0.02083
# Poissons Ratio (z) = 0.30932 -0.03340
#
# Static dielectric constant tensor:
#      x y z
#    x 1.976240 0.000000 0.017530 
#    y 0.000000 1.840940 0.000000 
#    z 0.017530 0.000000 1.954190 
# 
# From -- ./inp_files/70318.got.cif
#   From: 2010.05.17/outbox.cif.g08.bks.cpg/sg13_36_cif.got.tgz:70318.got - 2010.06.03 16:44:36.
