data_PCOD9226471
_publ_section_title
;
Structure prediction by ZEFSAII (Michael W. Deem and Ramdas Pophale) SiO2 
 PCOD9226471
Probable space group: P 2/C
;
_chemical_formula_sum "Si O2"
_cell_formula_units_Z 24
_cell_length_a 16.104051
_cell_length_b 11.724038
_cell_length_c 5.365687
_cell_angle_alpha 90.000000
_cell_angle_beta 91.852544
_cell_angle_gamma 90.000000
_cell_volume 1012.536388
_symmetry_space_group_name_H-M "P 2/C"
_symmetry_group_IT_number 13
_symmetry_cell_setting 'monoclinic'
loop_
_space_group_symop_operation_xyz
x,y,z
-x,y,1/2-z
-x,-y,-z
x,-y,1/2+z
loop_
_atom_site_type_symbol
_atom_site_label
_atom_site_fract_x
_atom_site_fract_y
_atom_site_fract_z
Si Si1 0.000000 0.402696 0.250000
Si Si2 0.077389 0.766257 0.137627
Si Si3 0.406382 0.453032 0.954004
Si Si4 0.500000 0.249043 0.750000
Si Si5 0.833218 0.546184 0.244853
Si Si6 0.203947 0.929164 0.893123
Si Si7 0.394520 0.074887 0.445858
O O1 0.919781 0.477349 0.290884
O O2 0.021512 0.321413 0.477599
O O3 0.143282 0.680186 0.282386
O O4 0.133883 0.839615 0.959921
O O5 0.000000 0.836696 0.250000
O O6 0.369769 0.526542 0.723247
O O7 0.425656 0.325382 0.861735
O O8 0.500000 0.500000 0.000000
O O9 0.457190 0.174204 0.530572
O O10 0.792244 0.514215 0.504345
O O11 0.298289 0.885226 0.938366
O O12 0.195265 0.026102 0.109226
O O13 0.405014 0.015391 0.177119
#
# Coordination Sequence:
#
# PCOD9226471 Si02
#       7
#     2   4   4   2   4   4   4
#     4  10  18  32  50  86 108 128 170 232 270 304
#     4  11  20  33  58  79 102 142 185 213 263 329
#     4   8  16  28  45  80 115 142 164 206 259 310
#     4  10  18  32  64  86 104 142 190 218 260 328
#     4  10  17  30  49  78 106 130 161 218 276 306
#     4  10  25  43  54  72 113 147 175 228 280 310
#     4  10  22  39  56  81 109 139 179 232 278 312
#
# _framework density 23.702853999999999
#
# number of rings (size 3 to 8) (size 9 to 14) (size 15 to 20)
#    0.000    2.333    2.500    1.500    2.333    6.000 
#    0.000    0.000    0.000   12.000    0.000    0.000 
#    0.000    0.000    0.000    0.000    0.000    0.000 
#
# Total GULP energy -133793.267497 kJ/mol
# GULP energy per Si atom -5574.719479 kJ/mol
# Density = 2.364890 g / cm^3
# Si number density = 23.702854 Si / 1000 Ang^3
#
#
#
# Elastic Constant Matrix: (Units=GPa)
#
#
# Indices 1 2 3 4 5 6 
#
# 1 76.0638 7.5458 12.5752 0.0000 -2.0748 0.0000
# 2 7.5458 37.5583 10.4202 0.0000 -4.5227 0.0000
# 3 12.5752 10.4202 128.3149 0.0000 -7.2922 0.0000
# 4 0.0000 0.0000 0.0000 69.4993 0.0000 -154.0351
# 5 -2.0748 -4.5227 -7.2922 0.0000 32.4351 0.0000
# 6 0.0000 0.0000 0.0000 -154.0351 0.0000 402.9726
#
#
#
# Elastic Compliance Matrix: (Units=1/GPa)
#
#
# Indices 1 2 3 4 5 6 
#
# 1 0.013576 -0.002382 -0.001121 0.000000 0.000284 0.000000
# 2 -0.002382 0.028020 -0.001852 0.000000 0.003338 0.000000
# 3 -0.001121 -0.001852 0.008139 0.000000 0.001500 0.000000
# 4 0.000000 0.000000 0.000000 0.094163 0.000000 0.035994
# 5 0.000284 0.003338 0.001500 0.000000 0.031652 0.000000
# 6 0.000000 0.000000 0.000000 0.035994 0.000000 0.016240
#
#
# Mechanical properties :
#
#
# Convention : Reuss Voigt Hill
#
# Bulk Modulus (GPa) = 25.62535 33.66882 29.64709
# Shear Modulus (GPa) = 23.20094 115.07447 69.13771
#
# Velocity S-wave (km/s) = 3.13201 6.97525 5.40665
# Velocity P-wave (km/s) = 4.89018 8.89425 7.17710
#
# Compressibility (1/GPa) = 0.03902385
#
# Stress axis : x y z
#
# Youngs Moduli (GPa) = 73.65803 35.68909 122.86772
#
# Poissons Ratio (x) = 0.08502 0.13772
# Poissons Ratio (y) = 0.17548 0.22758
# Poissons Ratio (z) = 0.08256 0.06611
#
# Static dielectric constant tensor:
#      x y z
#    x 1.759840 0.000000 0.012330 
#    y 0.000000 1.936640 0.000000 
#    z 0.012330 0.000000 2.057970 
# 
# From -- ./inp_files/6030.got.cif
#   From: 2010.05.17/outbox.cif.g08.bks.cpg/sg13_4_cif.got.tgz:6030.got - 2010.06.03 16:44:36.
