data_PCOD9226857
_publ_section_title
;
Structure prediction by ZEFSAII (Michael W. Deem and Ramdas Pophale) SiO2 
 PCOD9226857
Probable space group: P 2/C
;
_chemical_formula_sum "Si O2"
_cell_formula_units_Z 28
_cell_length_a 18.146732
_cell_length_b 6.343936
_cell_length_c 24.195111
_cell_angle_alpha 90.000000
_cell_angle_beta 143.775285
_cell_angle_gamma 90.000000
_cell_volume 1646.032078
_symmetry_space_group_name_H-M "P 2/C"
_symmetry_group_IT_number 13
_symmetry_cell_setting 'monoclinic'
loop_
_space_group_symop_operation_xyz
x,y,z
-x,y,1/2-z
-x,-y,-z
x,-y,1/2+z
loop_
_atom_site_type_symbol
_atom_site_label
_atom_site_fract_x
_atom_site_fract_y
_atom_site_fract_z
Si Si1 0.000000 0.228582 0.250000
Si Si2 0.500000 0.005223 0.250000
Si Si3 0.799174 0.094787 0.660200
Si Si4 0.400055 0.622005 0.256088
Si Si5 0.194425 0.464908 0.919710
Si Si6 0.339589 0.385212 0.844646
Si Si7 0.618796 0.274522 0.042507
Si Si8 0.654958 0.612209 0.884204
O O1 0.080412 0.377602 0.338990
O O2 0.092329 0.078168 0.271346
O O3 0.393682 0.153933 0.159291
O O4 0.437251 0.854802 0.257807
O O5 0.828125 0.249413 0.626965
O O6 0.769027 0.245180 0.693645
O O7 0.675793 0.956943 0.573560
O O8 0.337175 0.610478 0.277363
O O9 0.324170 0.509712 0.160823
O O10 0.531966 0.497731 0.336298
O O11 0.311318 0.579663 0.960294
O O12 0.233404 0.413615 0.005525
O O13 0.345742 0.614194 0.877781
O O14 0.472493 0.284176 0.942901
#
# Coordination Sequence:
#
# PCOD9226857 Si02
#       8
#     2   2   4   4   4   4   4   4
#     4  10  22  38  50  74 100 132 176 228 266 302
#     4   8  18  28  46  74 100 140 180 196 240 300
#     4  10  21  32  53  77  98 136 178 211 260 311
#     4   9  18  31  47  74 111 141 167 202 247 306
#     4  10  19  34  53  72 103 136 175 217 261 302
#     4  10  18  31  49  77 111 138 164 204 259 316
#     4   9  19  31  47  77 109 138 164 205 259 314
#     4   9  18  31  47  72 102 141 173 208 251 297
#
# _framework density 17.010604000000001
#
# number of rings (size 3 to 8) (size 9 to 14) (size 15 to 20)
#    0.000    2.857    1.429    0.857    2.000    3.429 
#    0.000    0.000    0.000    0.857    0.000   15.000 
#    0.000    0.000    0.000    0.000    0.000    0.000 
#
# Total GULP energy -156016.733082 kJ/mol
# GULP energy per Si atom -5572.026182 kJ/mol
# Density = 1.697189 g / cm^3
# Si number density = 17.010604 Si / 1000 Ang^3
#
#
#
# Elastic Constant Matrix: (Units=GPa)
#
#
# Indices 1 2 3 4 5 6 
#
# 1 53.2574 26.3375 49.6698 0.0000 -16.4512 0.0000
# 2 26.3375 92.9671 39.6255 0.0000 -8.9869 0.0000
# 3 49.6698 39.6255 99.7044 0.0000 -26.0196 0.0000
# 4 0.0000 0.0000 0.0000 1.9598 0.0000 5.5831
# 5 -16.4512 -8.9869 -26.0196 0.0000 34.8323 0.0000
# 6 0.0000 0.0000 0.0000 5.5831 0.0000 19.3504
#
#
#
# Elastic Compliance Matrix: (Units=1/GPa)
#
#
# Indices 1 2 3 4 5 6 
#
# 1 0.036382 -0.003190 -0.015635 0.000000 0.004681 0.000000
# 2 -0.003190 0.013241 -0.003943 0.000000 -0.001036 0.000000
# 3 -0.015635 -0.003943 0.021356 0.000000 0.007551 0.000000
# 4 0.000000 0.000000 0.000000 2.865957 0.000000 -0.826896
# 5 0.004681 -0.001036 0.007551 0.000000 0.036293 0.000000
# 6 0.000000 0.000000 0.000000 -0.826896 0.000000 0.290257
#
#
# Mechanical properties :
#
#
# Convention : Reuss Voigt Hill
#
# Bulk Modulus (GPa) = 39.30537 53.02162 46.16349
# Shear Modulus (GPa) = 1.50716 19.91491 10.71103
#
# Velocity S-wave (km/s) = 0.94230 3.42531 2.51204
# Velocity P-wave (km/s) = 4.93361 6.84698 5.96748
#
# Compressibility (1/GPa) = 0.02544181
#
# Stress axis : x y z
#
# Youngs Moduli (GPa) = 27.48602 75.52316 46.82428
#
# Poissons Ratio (x) = 0.24095 0.73210
# Poissons Ratio (y) = 0.08769 0.18465
# Poissons Ratio (z) = 0.42974 0.29782
#
# Static dielectric constant tensor:
#      x y z
#    x 1.579930 0.000000 0.001780 
#    y 0.000000 1.599230 0.000000 
#    z 0.001780 0.000000 1.574760 
# 
# From -- ./inp_files/81282.got.cif
#   From: 2010.05.17/outbox.cif.g08.bks.cpg/sg13_41_cif.got.tgz:81282.got - 2010.06.03 16:44:36.
