data_PCOD9226246
_publ_section_title
;
Structure prediction by ZEFSAII (Michael W. Deem and Ramdas Pophale) SiO2 
 PCOD9226246
Probable space group: P 2/C
;
_chemical_formula_sum "Si O2"
_cell_formula_units_Z 20
_cell_length_a 22.533494
_cell_length_b 6.946960
_cell_length_c 8.691495
_cell_angle_alpha 90.000000
_cell_angle_beta 134.070220
_cell_angle_gamma 90.000000
_cell_volume 977.546182
_symmetry_space_group_name_H-M "P 2/C"
_symmetry_group_IT_number 13
_symmetry_cell_setting 'monoclinic'
loop_
_space_group_symop_operation_xyz
x,y,z
-x,y,1/2-z
-x,-y,-z
x,-y,1/2+z
loop_
_atom_site_type_symbol
_atom_site_label
_atom_site_fract_x
_atom_site_fract_y
_atom_site_fract_z
Si Si1 0.000000 0.424693 0.250000
Si Si2 0.722568 0.544407 0.587960
Si Si3 0.885133 0.354802 0.780837
Si Si4 0.614462 0.148860 0.719120
Si Si5 0.725100 0.214336 0.401610
Si Si6 0.500000 0.922628 0.750000
O O1 0.942137 0.558840 0.251262
O O2 0.058189 0.307060 0.471182
O O3 0.818964 0.520154 0.714020
O O4 0.693093 0.326463 0.496966
O O5 0.670116 0.681465 0.383714
O O6 0.717403 0.636069 0.746607
O O7 0.822873 0.189742 0.609931
O O8 0.552310 0.196244 0.468722
O O9 0.559413 0.060171 0.757241
O O10 0.675422 0.976305 0.779240
#
# Coordination Sequence:
#
# PCOD9226246 Si02
#       6
#     2   4   4   4   4   2
#     4  10  16  30  56  88 120 146 176 254 280 336
#     4  10  21  38  61  90 109 159 201 231 280 359
#     4   9  18  32  58  87 112 152 196 221 298 332
#     4  11  22  42  62  79 128 144 200 239 290 342
#     4  10  21  38  61  90 109 159 201 231 280 359
#     4  10  24  38  58  90 110 164 180 246 306 332
#
# _framework density 20.459392000000001
#
# number of rings (size 3 to 8) (size 9 to 14) (size 15 to 20)
#    1.200    0.800    4.000    0.000    2.800    0.000 
#    0.000    6.000    0.000    7.200    0.000    0.000 
#    0.000    0.000    0.000    0.000    0.000    0.000 
#
# Total GULP energy -111415.083880 kJ/mol
# GULP energy per Si atom -5570.754194 kJ/mol
# Density = 2.041283 g / cm^3
# Si number density = 20.459392 Si / 1000 Ang^3
#
#
#
# Elastic Constant Matrix: (Units=GPa)
#
#
# Indices 1 2 3 4 5 6 
#
# 1 82.3412 0.1810 15.6085 0.0000 5.9987 0.0000
# 2 0.1810 16.5456 16.5385 0.0000 9.0694 0.0000
# 3 15.6085 16.5385 176.0945 0.0000 -2.9228 0.0000
# 4 0.0000 0.0000 0.0000 28.6930 0.0000 1.7519
# 5 5.9987 9.0694 -2.9228 0.0000 26.2483 0.0000
# 6 0.0000 0.0000 0.0000 1.7519 0.0000 12.3172
#
#
#
# Elastic Compliance Matrix: (Units=1/GPa)
#
#
# Indices 1 2 3 4 5 6 
#
# 1 0.012755 0.003847 -0.001565 0.000000 -0.004418 0.000000
# 2 0.003847 0.086924 -0.009035 0.000000 -0.031920 0.000000
# 3 -0.001565 -0.009035 0.006736 0.000000 0.004229 0.000000
# 4 0.000000 0.000000 0.000000 0.035157 0.000000 -0.005000
# 5 -0.004418 -0.031920 0.004229 0.000000 0.050607 0.000000
# 6 0.000000 0.000000 0.000000 -0.005000 0.000000 0.081899
#
#
# Mechanical properties :
#
#
# Convention : Reuss Voigt Hill
#
# Bulk Modulus (GPa) = 10.76317 37.73749 24.25033
# Shear Modulus (GPa) = 15.69595 29.62859 22.66227
#
# Velocity S-wave (km/s) = 2.77280 3.80961 3.33178
# Velocity P-wave (km/s) = 3.93997 6.15109 5.16523
#
# Compressibility (1/GPa) = 0.09290947
#
# Stress axis : x y z
#
# Youngs Moduli (GPa) = 78.40233 11.50428 148.45140
#
# Poissons Ratio (x) = -0.04426 0.23235
# Poissons Ratio (y) = -0.30161 1.34119
# Poissons Ratio (z) = 0.12271 0.10394
#
# Static dielectric constant tensor:
#      x y z
#    x 1.756060 0.000000 -0.011910 
#    y 0.000000 1.686550 0.000000 
#    z -0.011910 0.000000 1.766510 
# 
# From -- ./inp_files/17801.got.cif
#   From: 2010.05.17/outbox.cif.g08.bks.cpg/sg13_9_cif.got.tgz:17801.got - 2010.06.03 16:44:36.
