data_PCOD9226600
_publ_section_title
;
Structure prediction by ZEFSAII (Michael W. Deem and Ramdas Pophale) SiO2 
 PCOD9226600
Probable space group: P 2/C
;
_chemical_formula_sum "Si O2"
_cell_formula_units_Z 24
_cell_length_a 9.545055
_cell_length_b 7.930240
_cell_length_c 20.984333
_cell_angle_alpha 90.000000
_cell_angle_beta 127.247389
_cell_angle_gamma 90.000000
_cell_volume 1264.413560
_symmetry_space_group_name_H-M "P 2/C"
_symmetry_group_IT_number 13
_symmetry_cell_setting 'monoclinic'
loop_
_space_group_symop_operation_xyz
x,y,z
-x,y,1/2-z
-x,-y,-z
x,-y,1/2+z
loop_
_atom_site_type_symbol
_atom_site_label
_atom_site_fract_x
_atom_site_fract_y
_atom_site_fract_z
Si Si1 0.527059 0.361485 0.563479
Si Si2 0.812006 0.176284 0.986120
Si Si3 0.639159 0.826737 0.979946
Si Si4 0.991098 0.633671 0.054653
Si Si5 0.708806 0.659745 0.667945
Si Si6 0.975806 0.665752 0.847424
O O1 0.500000 0.500000 0.500000
O O2 0.341595 0.311493 0.542074
O O3 0.603708 0.199900 0.546188
O O4 0.646367 0.464018 0.645987
O O5 0.971057 0.213634 0.079372
O O6 0.887720 0.211996 0.936503
O O7 0.719927 0.001192 0.977971
O O8 0.458398 0.775319 0.895252
O O9 0.793102 0.695131 0.007322
O O10 0.040436 0.524700 0.129973
O O11 0.000000 0.500000 0.000000
O O12 0.801249 0.704861 0.759673
O O13 0.858633 0.677385 0.655037
#
# Coordination Sequence:
#
# PCOD9226600 Si02
#       6
#     4   4   4   4   4   4
#     4  10  17  34  56  80 105 145 193 224 263 338
#     4  11  21  35  58  85 116 148 183 234 287 339
#     4  11  20  35  59  85 112 146 189 230 283 342
#     4  10  20  37  58  81 108 149 194 226 274 344
#     4  10  19  34  59  82 112 146 196 237 277 325
#     4  10  19  35  57  83 112 149 191 240 278 324
#
# _framework density 18.981131000000001
#
# number of rings (size 3 to 8) (size 9 to 14) (size 15 to 20)
#    0.000    1.667    5.000    4.000    0.000    0.000 
#    0.000    9.167    0.000    4.000    0.000    0.000 
#    0.000    0.000    0.000    0.000    0.000    0.000 
#
# Total GULP energy -133737.764357 kJ/mol
# GULP energy per Si atom -5572.406848 kJ/mol
# Density = 1.893793 g / cm^3
# Si number density = 18.981131 Si / 1000 Ang^3
#
#
#
# Elastic Constant Matrix: (Units=GPa)
#
#
# Indices 1 2 3 4 5 6 
#
# 1 93.9191 22.8004 28.3674 0.0000 11.6628 0.0000
# 2 22.8004 81.9676 35.2529 0.0000 5.8841 0.0000
# 3 28.3674 35.2529 101.8253 0.0000 15.1231 0.0000
# 4 0.0000 0.0000 0.0000 13.7419 0.0000 9.1411
# 5 11.6628 5.8841 15.1231 0.0000 18.5354 0.0000
# 6 0.0000 0.0000 0.0000 9.1411 0.0000 44.0439
#
#
#
# Elastic Compliance Matrix: (Units=1/GPa)
#
#
# Indices 1 2 3 4 5 6 
#
# 1 0.012453 -0.002265 -0.001853 0.000000 -0.005605 0.000000
# 2 -0.002265 0.014751 -0.004543 0.000000 0.000449 0.000000
# 3 -0.001853 -0.004543 0.013111 0.000000 -0.008089 0.000000
# 4 0.000000 0.000000 0.000000 0.084426 0.000000 -0.017522
# 5 -0.005605 0.000449 -0.008089 0.000000 0.063935 0.000000
# 6 0.000000 0.000000 0.000000 -0.017522 0.000000 0.026341
#
#
# Mechanical properties :
#
#
# Convention : Reuss Voigt Hill
#
# Bulk Modulus (GPa) = 43.48781 50.06147 46.77464
# Shear Modulus (GPa) = 20.83302 28.01699 24.42501
#
# Velocity S-wave (km/s) = 3.31655 3.84610 3.59110
# Velocity P-wave (km/s) = 6.13407 6.79374 6.47231
#
# Compressibility (1/GPa) = 0.02299495
#
# Stress axis : x y z
#
# Youngs Moduli (GPa) = 80.30267 67.78980 76.27128
#
# Poissons Ratio (x) = 0.15353 0.14131
# Poissons Ratio (y) = 0.18187 0.34648
# Poissons Ratio (z) = 0.14878 0.30795
#
# Static dielectric constant tensor:
#      x y z
#    x 1.696610 0.000000 -0.020280 
#    y 0.000000 1.751070 0.000000 
#    z -0.020280 0.000000 1.667280 
# 
# From -- ./inp_files/84845.got.cif
#   From: 2010.05.17/outbox.cif.g08.bks.cpg/sg13_43_cif.got.tgz:84845.got - 2010.06.03 16:44:36.
