data_PCOD9226974
_publ_section_title
;
Structure prediction by ZEFSAII (Michael W. Deem and Ramdas Pophale) SiO2 
 PCOD9226974
Probable space group: P 2/C
;
_chemical_formula_sum "Si O2"
_cell_formula_units_Z 24
_cell_length_a 5.386316
_cell_length_b 12.731001
_cell_length_c 17.187159
_cell_angle_alpha 90.000000
_cell_angle_beta 128.801738
_cell_angle_gamma 90.000000
_cell_volume 918.488486
_symmetry_space_group_name_H-M "P 2/C"
_symmetry_group_IT_number 13
_symmetry_cell_setting 'monoclinic'
loop_
_space_group_symop_operation_xyz
x,y,z
-x,y,1/2-z
-x,-y,-z
x,-y,1/2+z
loop_
_atom_site_type_symbol
_atom_site_label
_atom_site_fract_x
_atom_site_fract_y
_atom_site_fract_z
Si Si1 0.757392 0.567505 0.631042
Si Si2 0.320816 0.201590 0.602159
Si Si3 0.732747 0.432535 0.868958
Si Si4 0.127519 0.114231 0.879631
Si Si5 0.108957 0.885765 0.620374
Si Si6 0.587775 0.201607 0.102159
O O1 0.480372 0.499903 0.614970
O O2 0.566099 0.675725 0.576442
O O3 0.000000 0.591877 0.750000
O O4 0.970252 0.500111 0.609935
O O5 0.239661 0.324255 0.576437
O O6 0.668863 0.153020 0.654089
O O7 0.105248 0.134965 0.499121
O O8 0.166552 0.186483 0.655788
O O9 0.500000 0.408180 0.750000
O O10 0.971188 0.999996 0.860570
O O11 0.391224 0.134982 0.999122
O O12 0.956507 0.813501 0.655780
O O13 0.447421 0.846965 0.654096
#
# Coordination Sequence:
#
# PCOD9226974 Si02
#       6
#     4   4   4   4   4   4
#     4  10  21  37  54  73 101 139 180 220 260 305
#     4  10  18  32  53  77 102 137 174 208 257 315
#     4  10  21  37  54  73 101 139 180 220 260 305
#     4  10  19  33  53  80 109 136 166 208 263 318
#     4  10  19  33  53  80 109 136 166 208 263 318
#     4  10  18  32  53  77 102 137 174 208 257 315
#
# _framework density 26.129888999999999
#
# number of rings (size 3 to 8) (size 9 to 14) (size 15 to 20)
#    0.000    2.000    0.000    7.000    0.000    0.000 
#    0.000   20.000    0.000    6.000    0.000    0.000 
#    0.000    0.000    0.000    0.000    0.000    0.000 
#
# Total GULP energy -133744.428923 kJ/mol
# GULP energy per Si atom -5572.684538 kJ/mol
# Density = 2.607042 g / cm^3
# Si number density = 26.129889 Si / 1000 Ang^3
#
#
#
# Elastic Constant Matrix: (Units=GPa)
#
#
# Indices 1 2 3 4 5 6 
#
# 1 276.6234 56.8935 27.6183 0.0000 -10.3927 0.0000
# 2 56.8935 171.0534 -23.2169 0.0000 -3.2921 0.0000
# 3 27.6183 -23.2169 75.7885 0.0000 1.8889 0.0000
# 4 0.0000 0.0000 0.0000 -11.5358 0.0000 -1.8831
# 5 -10.3927 -3.2921 1.8889 0.0000 5.4727 0.0000
# 6 0.0000 0.0000 0.0000 -1.8831 0.0000 29.6419
#
#
#
# Elastic Compliance Matrix: (Units=1/GPa)
#
#
# Indices 1 2 3 4 5 6 
#
# 1 0.004506 -0.001658 -0.002359 0.000000 0.008374 0.000000
# 2 -0.001658 0.006761 0.002675 0.000000 -0.000005 0.000000
# 3 -0.002359 0.002675 0.015075 0.000000 -0.008073 0.000000
# 4 0.000000 0.000000 0.000000 -0.085797 0.000000 -0.005450
# 5 0.008374 -0.000005 -0.008073 0.000000 0.201410 0.000000
# 6 0.000000 0.000000 0.000000 -0.005450 0.000000 0.033390
#
#
# Mechanical properties :
#
#
# Convention : Reuss Voigt Hill
#
# Bulk Modulus (GPa) = 42.26683 71.78389 57.02536
# Shear Modulus (GPa) = 26.89436 35.52712 31.21074
#
# Velocity S-wave (km/s) = 3.21168 3.69132 3.45983
# Velocity P-wave (km/s) = 5.47394 6.76013 6.15075
#
# Compressibility (1/GPa) = 0.02365922
#
# Stress axis : x y z
#
# Youngs Moduli (GPa) = 221.92343 147.91784 66.33571
#
# Poissons Ratio (x) = 0.24520 0.15646
# Poissons Ratio (y) = 0.36788 -0.17746
# Poissons Ratio (z) = 0.52343 -0.39571
#
# Static dielectric constant tensor:
#      x y z
#    x 1.991490 0.000000 0.017160 
#    y 0.000000 2.505910 0.000000 
#    z 0.017160 0.000000 2.349450 
# 
# From -- ./inp_files/73488.got.cif
#   From: 2010.05.17/outbox.cif.g08.bks.cpg/sg13_37_cif.got.tgz:73488.got - 2010.06.03 16:44:36.
