data_PCOD9226338
_publ_section_title
;
Structure prediction by ZEFSAII (Michael W. Deem and Ramdas Pophale) SiO2 
 PCOD9226338
Probable space group: P 2/C
;
_chemical_formula_sum "Si O2"
_cell_formula_units_Z 28
_cell_length_a 11.299034
_cell_length_b 21.484406
_cell_length_c 5.225213
_cell_angle_alpha 90.000000
_cell_angle_beta 70.786643
_cell_angle_gamma 90.000000
_cell_volume 1197.783998
_symmetry_space_group_name_H-M "P 2/C"
_symmetry_group_IT_number 13
_symmetry_cell_setting 'monoclinic'
loop_
_space_group_symop_operation_xyz
x,y,z
-x,y,1/2-z
-x,-y,-z
x,-y,1/2+z
loop_
_atom_site_type_symbol
_atom_site_label
_atom_site_fract_x
_atom_site_fract_y
_atom_site_fract_z
Si Si1 0.054919 0.571852 0.455550
Si Si2 0.352468 0.959348 0.374863
Si Si3 0.500000 0.633910 0.250000
Si Si4 0.500000 0.176677 0.250000
Si Si5 0.743925 0.151069 0.823804
Si Si6 0.920265 0.220746 0.043804
Si Si7 0.676713 0.742728 0.980861
Si Si8 0.666445 0.460003 0.886269
O O1 0.201031 0.568922 0.295693
O O2 0.000000 0.604644 0.250000
O O3 0.000000 0.500000 0.500000
O O4 0.000000 0.600977 0.750000
O O5 0.500000 0.939959 0.250000
O O6 0.257649 0.902344 0.387605
O O7 0.332632 0.991083 0.661823
O O8 0.385605 0.677433 0.414749
O O9 0.442912 0.588688 0.079904
O O10 0.384388 0.137535 0.433974
O O11 0.433801 0.219341 0.083894
O O12 0.719409 0.216619 0.695302
O O13 0.855332 0.161052 0.945954
O O14 0.799404 0.260376 0.216634
O O15 0.000000 0.209162 0.250000
O O16 0.000000 0.247684 0.750000
O O17 0.660634 0.514693 0.677288
#
# Coordination Sequence:
#
# PCOD9226338 Si02
#       8
#     4   4   2   2   4   4   4   4
#     4  10  16  34  69  92 123 164 235 258 305 385
#     4  10  23  36  58 100 148 184 233 289 349 423
#     4  12  28  46  67 109 144 176 232 278 362 418
#     4  10  20  34  69 101 136 174 240 262 368 408
#     4  11  22  40  72  96 142 188 236 290 362 422
#     4  11  24  45  74 102 130 182 247 292 351 424
#     4  11  23  44  69 102 139 184 227 297 344 433
#     4  12  24  45  69  99 138 185 219 279 337 418
#
# _framework density 23.376503
#
# number of rings (size 3 to 8) (size 9 to 14) (size 15 to 20)
#    0.000    1.143    5.714    1.286    7.000    1.143 
#    0.000    0.714    3.143    3.429    0.000    0.000 
#    0.000    0.000    0.000    0.000    0.000    0.000 
#
# Total GULP energy -156460.434983 kJ/mol
# GULP energy per Si atom -5587.872678 kJ/mol
# Density = 2.332330 g / cm^3
# Si number density = 23.376503 Si / 1000 Ang^3
#
#
#
# Elastic Constant Matrix: (Units=GPa)
#
#
# Indices 1 2 3 4 5 6 
#
# 1 149.0524 43.6026 55.9064 0.0000 6.9260 0.0000
# 2 43.6026 36.5668 18.5998 0.0000 -7.6286 0.0000
# 3 55.9064 18.5998 140.8116 0.0000 1.2086 0.0000
# 4 0.0000 0.0000 0.0000 20.9191 0.0000 6.9756
# 5 6.9260 -7.6286 1.2086 0.0000 51.8088 0.0000
# 6 0.0000 0.0000 0.0000 6.9756 0.0000 1.9594
#
#
#
# Elastic Compliance Matrix: (Units=1/GPa)
#
#
# Indices 1 2 3 4 5 6 
#
# 1 0.011895 -0.013429 -0.002919 0.000000 -0.003499 0.000000
# 2 -0.013429 0.045520 -0.000754 0.000000 0.008515 0.000000
# 3 -0.002919 -0.000754 0.008359 0.000000 0.000084 0.000000
# 4 0.000000 0.000000 0.000000 -0.255434 0.000000 0.909376
# 5 -0.003499 0.008515 0.000084 0.000000 0.021021 0.000000
# 6 0.000000 0.000000 0.000000 0.909376 0.000000 -2.727116
#
#
# Mechanical properties :
#
#
# Convention : Reuss Voigt Hill
#
# Bulk Modulus (GPa) = 31.67494 62.51648 47.09571
# Shear Modulus (GPa) = -1.75375 28.82561 13.53593
#
# Velocity S-wave (km/s) = -0.86709 3.51536 2.40894
# Velocity P-wave (km/s) = 3.54639 6.57863 5.28466
#
# Compressibility (1/GPa) = 0.03157070
#
# Stress axis : x y z
#
# Youngs Moduli (GPa) = 84.07050 21.96836 119.62580
#
# Poissons Ratio (x) = 0.29501 0.34916
# Poissons Ratio (y) = 1.12897 0.09022
# Poissons Ratio (z) = 0.24538 0.01657
#
# Static dielectric constant tensor:
#      x y z
#    x 1.838850 0.000000 0.032530 
#    y 0.000000 1.752030 0.000000 
#    z 0.032530 0.000000 1.916250 
# 
# From -- ./inp_files/4124.got.cif
#   From: 2010.05.17/outbox.cif.g08.bks.cpg/sg13_3_cif.got.tgz:4124.got - 2010.06.03 16:44:36.
