data_PCOD9226055
_publ_section_title
;
Structure prediction by ZEFSAII (Michael W. Deem and Ramdas Pophale) SiO2 
 PCOD9226055
Probable space group: P 2/C
;
_chemical_formula_sum "Si O2"
_cell_formula_units_Z 26
_cell_length_a 16.492219
_cell_length_b 17.339369
_cell_length_c 5.351010
_cell_angle_alpha 90.000000
_cell_angle_beta 77.765602
_cell_angle_gamma 90.000000
_cell_volume 1495.447212
_symmetry_space_group_name_H-M "P 2/C"
_symmetry_group_IT_number 13
_symmetry_cell_setting 'monoclinic'
loop_
_space_group_symop_operation_xyz
x,y,z
-x,y,1/2-z
-x,-y,-z
x,-y,1/2+z
loop_
_atom_site_type_symbol
_atom_site_label
_atom_site_fract_x
_atom_site_fract_y
_atom_site_fract_z
Si Si1 0.749504 0.199655 0.608224
Si Si2 0.316734 0.552145 0.871417
Si Si3 0.766511 0.288287 0.107246
Si Si4 0.881556 0.961687 0.471052
Si Si5 0.307487 0.974600 0.389750
Si Si6 0.500000 0.448467 0.250000
Si Si7 0.908803 0.199898 0.211503
O O1 0.739429 0.243151 0.875571
O O2 0.709300 0.115773 0.627492
O O3 0.847173 0.185410 0.486220
O O4 0.724415 0.251477 0.384044
O O5 0.308987 0.498662 0.629209
O O6 0.409599 0.589977 0.809447
O O7 0.253005 0.622281 0.904878
O O8 0.863461 0.269090 0.094328
O O9 0.781414 0.978349 0.532100
O O10 0.912681 0.984349 0.177502
O O11 0.900977 0.875644 0.543971
O O12 0.351294 0.992404 0.619452
O O13 0.500000 0.500000 0.500000
O O14 0.000000 0.213611 0.250000
#
# Coordination Sequence:
#
# PCOD9226055 Si02
#       7
#     4   4   4   4   4   2   4
#     4  10  19  32  45  65  91 129 166 203 243 284
#     4  10  19  34  58  82 104 127 150 179 225 288
#     4  10  20  34  48  68  96 127 158 193 236 286
#     4  10  17  29  40  59  84 116 156 202 247 290
#     4  10  15  26  42  58  85 120 160 204 239 286
#     4   8  16  30  52  86 112 122 138 168 216 288
#     4  10  22  32  45  63  89 126 168 207 246 282
#
# _framework density 17.386102999999999
#
# number of rings (size 3 to 8) (size 9 to 14) (size 15 to 20)
#    0.923    1.231    3.077    3.692    0.000    1.231 
#    0.000    0.000    0.000    0.923    0.000    0.000 
#    0.000    0.000    0.000   51.231    0.000    0.000 
#
# Total GULP energy -144748.694654 kJ/mol
# GULP energy per Si atom -5567.257487 kJ/mol
# Density = 1.734653 g / cm^3
# Si number density = 17.386103 Si / 1000 Ang^3
#
#
#
# Elastic Constant Matrix: (Units=GPa)
#
#
# Indices 1 2 3 4 5 6 
#
# 1 30.4961 37.5572 8.0251 0.0000 5.4785 0.0000
# 2 37.5572 103.6665 35.3484 0.0000 9.2787 0.0000
# 3 8.0251 35.3484 132.5655 0.0000 25.0706 0.0000
# 4 0.0000 0.0000 0.0000 24.1494 0.0000 5.8269
# 5 5.4785 9.2787 25.0706 0.0000 14.3298 0.0000
# 6 0.0000 0.0000 0.0000 5.8269 0.0000 -4.7796
#
#
#
# Elastic Compliance Matrix: (Units=1/GPa)
#
#
# Indices 1 2 3 4 5 6 
#
# 1 0.063440 -0.023294 0.006135 0.000000 -0.019905 0.000000
# 2 -0.023294 0.019244 -0.004556 0.000000 0.004417 0.000000
# 3 0.006135 -0.004556 0.012363 0.000000 -0.021025 0.000000
# 4 0.000000 0.000000 0.000000 0.031997 0.000000 0.039008
# 5 -0.019905 0.004417 -0.021025 0.000000 0.111319 0.000000
# 6 0.000000 0.000000 0.000000 0.039008 0.000000 -0.161668
#
#
# Mechanical properties :
#
#
# Convention : Reuss Voigt Hill
#
# Bulk Modulus (GPa) = 19.37371 47.62106 33.49738
# Shear Modulus (GPa) = 36.40865 19.12643 27.76754
#
# Velocity S-wave (km/s) = 4.58112 3.32037 4.00072
# Velocity P-wave (km/s) = 6.25697 6.49227 6.37571
#
# Compressibility (1/GPa) = 0.05161634
#
# Stress axis : x y z
#
# Youngs Moduli (GPa) = 15.76297 51.96479 80.88486
#
# Poissons Ratio (x) = 1.21046 -0.49624
# Poissons Ratio (y) = 0.36718 0.36855
# Poissons Ratio (z) = -0.09671 0.23678
#
# Static dielectric constant tensor:
#      x y z
#    x 1.616490 0.000000 0.010340 
#    y 0.000000 1.566240 0.000000 
#    z 0.010340 0.000000 1.663450 
# 
# From -- ./inp_files/6118.got.cif
#   From: 2010.05.17/outbox.cif.g08.bks.cpg/sg13_4_cif.got.tgz:6118.got - 2010.06.03 16:44:36.
