data_PCOD9226610
_publ_section_title
;
Structure prediction by ZEFSAII (Michael W. Deem and Ramdas Pophale) SiO2 
 PCOD9226610
Probable space group: P 2/C
;
_chemical_formula_sum "Si O2"
_cell_formula_units_Z 28
_cell_length_a 14.186844
_cell_length_b 7.472605
_cell_length_c 14.594044
_cell_angle_alpha 90.000000
_cell_angle_beta 62.017625
_cell_angle_gamma 90.000000
_cell_volume 1366.279037
_symmetry_space_group_name_H-M "P 2/C"
_symmetry_group_IT_number 13
_symmetry_cell_setting 'monoclinic'
loop_
_space_group_symop_operation_xyz
x,y,z
-x,y,1/2-z
-x,-y,-z
x,-y,1/2+z
loop_
_atom_site_type_symbol
_atom_site_label
_atom_site_fract_x
_atom_site_fract_y
_atom_site_fract_z
Si Si1 0.620425 0.424662 0.166079
Si Si2 0.782021 0.698321 0.126225
Si Si3 0.099265 0.574505 0.260315
Si Si4 0.254665 0.430832 0.043177
Si Si5 0.829562 0.061079 0.378735
Si Si6 0.218922 0.893677 0.926629
Si Si7 0.059661 0.169843 0.346331
O O1 0.500000 0.397960 0.250000
O O2 0.676600 0.583618 0.198986
O O3 0.692042 0.247394 0.144341
O O4 0.638900 0.492200 0.052209
O O5 0.867613 0.682374 0.165907
O O6 0.756530 0.901725 0.113141
O O7 0.816621 0.590668 0.017977
O O8 0.197270 0.544751 0.146253
O O9 0.069474 0.374039 0.307393
O O10 0.000000 0.652237 0.250000
O O11 0.253978 0.226290 0.078618
O O12 0.787704 0.899654 0.459813
O O13 0.866946 0.052798 0.257048
O O14 0.938716 0.112597 0.383606
O O15 0.109084 0.845714 0.924406
#
# Coordination Sequence:
#
# PCOD9226610 Si02
#       7
#     4   4   4   4   4   4   4
#     4  10  22  42  65  82 110 158 206 256 309 336
#     4   9  22  39  58  89 121 152 200 247 287 357
#     4  11  18  36  62  87 124 165 190 229 291 361
#     4   8  18  37  58  82 117 152 197 242 290 342
#     4   9  18  34  55  89 121 158 189 236 284 358
#     4  11  21  38  58  86 121 154 194 248 295 351
#     4  10  17  34  58  84 125 159 191 225 293 353
#
# _framework density 20.493618999999999
#
# number of rings (size 3 to 8) (size 9 to 14) (size 15 to 20)
#    0.857    1.429    4.286    0.429    0.000    2.286 
#   10.286    0.714    0.000    1.714    0.000    0.000 
#    0.000    0.000    0.000    0.000    0.000    0.000 
#
# Total GULP energy -155993.876856 kJ/mol
# GULP energy per Si atom -5571.209888 kJ/mol
# Density = 2.044697 g / cm^3
# Si number density = 20.493619 Si / 1000 Ang^3
#
#
#
# Elastic Constant Matrix: (Units=GPa)
#
#
# Indices 1 2 3 4 5 6 
#
# 1 19.3996 14.3750 0.9178 0.0000 -4.2339 0.0000
# 2 14.3750 87.9858 14.6452 0.0000 -2.1838 0.0000
# 3 0.9178 14.6452 61.6603 0.0000 -10.2922 0.0000
# 4 0.0000 0.0000 0.0000 -34.3328 0.0000 -13.4236
# 5 -4.2339 -2.1838 -10.2922 0.0000 30.9460 0.0000
# 6 0.0000 0.0000 0.0000 -13.4236 0.0000 10.5841
#
#
#
# Elastic Compliance Matrix: (Units=1/GPa)
#
#
# Indices 1 2 3 4 5 6 
#
# 1 0.060856 -0.010221 0.002955 0.000000 0.008588 0.000000
# 2 -0.010221 0.013550 -0.003325 0.000000 -0.001548 0.000000
# 3 0.002955 -0.003325 0.017991 0.000000 0.006153 0.000000
# 4 0.000000 0.000000 0.000000 -0.019471 0.000000 -0.024695
# 5 0.008588 -0.001548 0.006153 0.000000 0.035427 0.000000
# 6 0.000000 0.000000 0.000000 -0.024695 0.000000 0.063161
#
#
# Mechanical properties :
#
#
# Convention : Reuss Voigt Hill
#
# Bulk Modulus (GPa) = 14.04188 25.43573 19.73881
# Shear Modulus (GPa) = 23.10184 10.71329 16.90757
#
# Velocity S-wave (km/s) = 3.36113 2.28888 2.87543
# Velocity P-wave (km/s) = 4.68291 4.40724 4.54716
#
# Compressibility (1/GPa) = 0.07121551
#
# Stress axis : x y z
#
# Youngs Moduli (GPa) = 16.43230 73.79866 55.58447
#
# Poissons Ratio (x) = 0.75432 -0.16427
# Poissons Ratio (y) = 0.16796 0.18480
# Poissons Ratio (z) = -0.04856 0.24535
#
# Static dielectric constant tensor:
#      x y z
#    x 1.709150 0.000000 0.022450 
#    y 0.000000 1.788040 0.000000 
#    z 0.022450 0.000000 1.788630 
# 
# From -- ./inp_files/52741.got.cif
#   From: 2010.05.17/outbox.cif.g08.bks.cpg/sg13_27_cif.got.tgz:52741.got - 2010.06.03 16:44:36.
