data_PCOD9226371
_publ_section_title
;
Structure prediction by ZEFSAII (Michael W. Deem and Ramdas Pophale) SiO2 
 PCOD9226371
Probable space group: P 2/C
;
_chemical_formula_sum "Si O2"
_cell_formula_units_Z 32
_cell_length_a 6.903234
_cell_length_b 34.762997
_cell_length_c 5.451154
_cell_angle_alpha 90.000000
_cell_angle_beta 102.624919
_cell_angle_gamma 90.000000
_cell_volume 1276.523373
_symmetry_space_group_name_H-M "P 2/C"
_symmetry_group_IT_number 13
_symmetry_cell_setting 'monoclinic'
loop_
_space_group_symop_operation_xyz
x,y,z
-x,y,1/2-z
-x,-y,-z
x,-y,1/2+z
loop_
_atom_site_type_symbol
_atom_site_label
_atom_site_fract_x
_atom_site_fract_y
_atom_site_fract_z
Si Si1 0.740358 0.216700 0.816082
Si Si2 0.741895 0.740895 0.817551
Si Si3 0.742104 0.390270 0.818298
Si Si4 0.257874 0.652304 0.682169
Si Si5 0.768934 0.898257 0.731823
Si Si6 0.219407 0.871365 0.264546
Si Si7 0.228645 0.985583 0.587935
Si Si8 0.742136 0.478736 0.818762
O O1 0.500000 0.216593 0.750000
O O2 0.802077 0.236075 0.577275
O O3 0.801595 0.172324 0.831335
O O4 0.801439 0.239567 0.077222
O O5 0.500000 0.740758 0.750000
O O6 0.805137 0.696584 0.854333
O O7 0.500000 0.390285 0.750000
O O8 0.801286 0.371865 0.574423
O O9 0.805360 0.434501 0.859789
O O10 0.801436 0.366058 0.074216
O O11 0.500000 0.652222 0.750000
O O12 0.683539 0.893170 0.436571
O O13 0.756707 0.941889 0.819011
O O14 0.000000 0.887966 0.750000
O O15 0.692482 0.872784 0.937390
O O16 0.000000 0.888999 0.250000
O O17 0.311196 0.990033 0.338082
O O18 0.000000 0.000000 0.500000
O O19 0.500000 0.478758 0.750000
O O20 0.801359 0.496895 0.574314
#
# Coordination Sequence:
#
# PCOD9226371 Si02
#       8
#     4   4   4   4   4   4   4   4
#     4  10  19  33  49  66  87 116 152 182 217 265
#     4   9  17  28  45  63  81 104 137 182 223 266
#     4   9  15  21  30  43  63  87 115 157 210 262
#     4   9  15  23  34  51  69  87 115 159 219 261
#     4  10  18  29  43  65  96 127 143 176 219 263
#     4  10  21  32  47  67  96 125 146 181 223 259
#     4  10  17  24  41  63  92 125 145 174 215 260
#     4   9  15  21  27  36  53  82 119 154 193 245
#
# _framework density 25.068086999999998
#
# number of rings (size 3 to 8) (size 9 to 14) (size 15 to 20)
#    0.000    2.500    1.250    3.000    3.500    6.000 
#    0.000    0.000    0.000    0.000    0.000    0.000 
#    0.000   10.000    0.000    0.000    0.000    0.000 
#
# Total GULP energy -179174.272209 kJ/mol
# GULP energy per Si atom -5599.196007 kJ/mol
# Density = 2.501103 g / cm^3
# Si number density = 25.068087 Si / 1000 Ang^3
#
#
#
# Elastic Constant Matrix: (Units=GPa)
#
#
# Indices 1 2 3 4 5 6 
#
# 1 90.8342 -18.4756 27.4251 0.0000 -11.1803 0.0000
# 2 -18.4756 188.5130 107.0880 0.0000 -14.6507 0.0000
# 3 27.4251 107.0880 261.5009 0.0000 -29.5285 0.0000
# 4 0.0000 0.0000 0.0000 56.3297 0.0000 -1.3107
# 5 -11.1803 -14.6507 -29.5285 0.0000 52.3873 0.0000
# 6 0.0000 0.0000 0.0000 -1.3107 0.0000 9.4738
#
#
#
# Elastic Compliance Matrix: (Units=1/GPa)
#
#
# Indices 1 2 3 4 5 6 
#
# 1 0.012446 0.002595 -0.002121 0.000000 0.002186 0.000000
# 2 0.002595 0.007460 -0.003235 0.000000 0.000817 0.000000
# 3 -0.002121 -0.003235 0.005573 0.000000 0.001784 0.000000
# 4 0.000000 0.000000 0.000000 0.017810 0.000000 0.002464
# 5 0.002186 0.000817 0.001784 0.000000 0.020789 0.000000
# 6 0.000000 0.000000 0.000000 0.002464 0.000000 0.105896
#
#
# Mechanical properties :
#
#
# Convention : Reuss Voigt Hill
#
# Bulk Modulus (GPa) = 50.10898 85.88032 67.99465
# Shear Modulus (GPa) = 27.45017 51.95886 39.70451
#
# Velocity S-wave (km/s) = 3.31271 4.55764 3.98410
# Velocity P-wave (km/s) = 5.88766 7.87587 6.95320
#
# Compressibility (1/GPa) = 0.01995650
#
# Stress axis : x y z
#
# Youngs Moduli (GPa) = 80.34527 134.04715 179.44741
#
# Poissons Ratio (x) = -0.34780 0.38060
# Poissons Ratio (y) = -0.20846 0.58049
# Poissons Ratio (z) = 0.17041 0.43363
#
# Static dielectric constant tensor:
#      x y z
#    x 2.037000 0.000000 0.012370 
#    y 0.000000 1.871780 0.000000 
#    z 0.012370 0.000000 1.941280 
# 
# From -- ./inp_files/2723.got.cif
#   From: 2010.05.17/outbox.cif.g08.bks.cpg/sg13_2_cif.got.tgz:2723.got - 2010.06.03 16:44:36.
