data_PCOD9226032
_publ_section_title
;
Structure prediction by ZEFSAII (Michael W. Deem and Ramdas Pophale) SiO2 
 PCOD9226032
Probable space group: P 2/C
;
_chemical_formula_sum "Si O2"
_cell_formula_units_Z 30
_cell_length_a 14.048824
_cell_length_b 9.391373
_cell_length_c 12.821794
_cell_angle_alpha 90.000000
_cell_angle_beta 43.527011
_cell_angle_gamma 90.000000
_cell_volume 1165.053072
_symmetry_space_group_name_H-M "P 2/C"
_symmetry_group_IT_number 13
_symmetry_cell_setting 'monoclinic'
loop_
_space_group_symop_operation_xyz
x,y,z
-x,y,1/2-z
-x,-y,-z
x,-y,1/2+z
loop_
_atom_site_type_symbol
_atom_site_label
_atom_site_fract_x
_atom_site_fract_y
_atom_site_fract_z
Si Si1 0.754367 0.994768 0.672303
Si Si2 0.647160 0.488415 0.654703
Si Si3 0.632149 0.245165 0.009872
Si Si4 0.854721 0.651877 0.837540
Si Si5 0.082004 0.362151 0.792704
Si Si6 0.976695 0.077328 0.645479
Si Si7 0.500000 0.997562 0.250000
Si Si8 0.654763 0.298443 0.326787
O O1 0.619586 0.071749 0.729538
O O2 0.706554 0.830759 0.713324
O O3 0.893028 0.014415 0.495170
O O4 0.827055 0.022819 0.726648
O O5 0.500000 0.411616 0.750000
O O6 0.630040 0.630512 0.598001
O O7 0.780588 0.410895 0.500076
O O8 0.667028 0.551546 0.754676
O O9 0.593587 0.097639 0.097814
O O10 0.507663 0.274858 0.030165
O O11 0.774355 0.282251 0.841537
O O12 0.893630 0.529545 0.718584
O O13 0.732297 0.724366 0.873120
O O14 0.000000 0.722803 0.750000
O O15 0.004531 0.239074 0.918173
O O16 0.000000 0.367851 0.750000
O O17 0.000000 0.085318 0.750000
#
# Coordination Sequence:
#
# PCOD9226032 Si02
#       8
#     4   4   4   4   4   4   2   4
#     4  10  21  36  60  85 108 149 185 230 292 329
#     4   9  17  32  53  79 108 147 186 226 276 325
#     4   9  15  29  53  80 100 140 182 221 271 311
#     4  10  22  34  53  84 113 149 192 232 282 325
#     4   9  18  31  52  78 110 137 180 229 262 324
#     4  10  21  37  58  84 112 146 186 233 282 343
#     4  10  14  30  54  82 106 134 188 232 258 332
#     4  10  20  35  56  80 114 142 187 232 276 338
#
# _framework density 25.749901999999999
#
# number of rings (size 3 to 8) (size 9 to 14) (size 15 to 20)
#    0.000    2.400    3.333    1.600    5.600    5.867 
#    0.000    6.000    0.000    0.000    5.200    0.000 
#    0.000    0.000    0.000    0.000    0.000    0.000 
#
# Total GULP energy -167015.607265 kJ/mol
# GULP energy per Si atom -5567.186909 kJ/mol
# Density = 2.569129 g / cm^3
# Si number density = 25.749902 Si / 1000 Ang^3
#
#
#
# Elastic Constant Matrix: (Units=GPa)
#
#
# Indices 1 2 3 4 5 6 
#
# 1 200.0446 -4.5507 34.6869 0.0000 -51.0234 0.0000
# 2 -4.5507 15.9656 4.0471 0.0000 0.7752 0.0000
# 3 34.6869 4.0471 62.1299 0.0000 -28.5816 0.0000
# 4 0.0000 0.0000 0.0000 5.2527 0.0000 -0.2523
# 5 -51.0234 0.7752 -28.5816 0.0000 44.2458 0.0000
# 6 0.0000 0.0000 0.0000 -0.2523 0.0000 36.7168
#
#
#
# Elastic Compliance Matrix: (Units=1/GPa)
#
#
# Indices 1 2 3 4 5 6 
#
# 1 0.007133 0.001768 -0.000466 0.000000 0.007894 0.000000
# 2 0.001768 0.065045 -0.006844 0.000000 -0.003522 0.000000
# 3 -0.000466 -0.006844 0.023632 0.000000 0.014848 0.000000
# 4 0.000000 0.000000 0.000000 0.190441 0.000000 0.001309
# 5 0.007894 -0.003522 0.014848 0.000000 0.041357 0.000000
# 6 0.000000 0.000000 0.000000 0.001309 0.000000 0.027245
#
#
# Mechanical properties :
#
#
# Convention : Reuss Voigt Hill
#
# Bulk Modulus (GPa) = 11.80288 38.50073 25.15181
# Shear Modulus (GPa) = 12.68458 33.50684 23.09571
#
# Velocity S-wave (km/s) = 2.22188 3.61119 2.99812
# Velocity P-wave (km/s) = 3.34305 5.68962 4.66625
#
# Compressibility (1/GPa) = 0.08472505
#
# Stress axis : x y z
#
# Youngs Moduli (GPa) = 140.18608 15.37404 42.31562
#
# Poissons Ratio (x) = -0.02718 0.01973
# Poissons Ratio (y) = -0.24787 0.28962
# Poissons Ratio (z) = 0.06537 0.10523
#
# Static dielectric constant tensor:
#      x y z
#    x 2.053700 0.000000 0.048750 
#    y 0.000000 2.227520 0.000000 
#    z 0.048750 0.000000 2.154540 
# 
# From -- ./inp_files/51182.got.cif
#   From: 2010.05.17/outbox.cif.g08.bks.cpg/sg13_26_cif.got.tgz:51182.got - 2010.06.03 16:44:36.
