data_PCOD9226486
_publ_section_title
;
Structure prediction by ZEFSAII (Michael W. Deem and Ramdas Pophale) SiO2 
 PCOD9226486
Probable space group: P 2/C
;
_chemical_formula_sum "Si O2"
_cell_formula_units_Z 18
_cell_length_a 10.960036
_cell_length_b 4.957442
_cell_length_c 13.180676
_cell_angle_alpha 90.000000
_cell_angle_beta 115.080380
_cell_angle_gamma 90.000000
_cell_volume 648.632030
_symmetry_space_group_name_H-M "P 2/C"
_symmetry_group_IT_number 13
_symmetry_cell_setting 'monoclinic'
loop_
_space_group_symop_operation_xyz
x,y,z
-x,y,1/2-z
-x,-y,-z
x,-y,1/2+z
loop_
_atom_site_type_symbol
_atom_site_label
_atom_site_fract_x
_atom_site_fract_y
_atom_site_fract_z
Si Si1 0.398181 0.735914 0.999797
Si Si2 0.049315 0.118575 0.626926
Si Si3 0.757409 0.753599 0.057989
Si Si4 0.500000 0.395401 0.750000
Si Si5 0.230198 0.653553 0.674913
O O1 0.429821 0.760247 0.132128
O O2 0.500000 0.500000 0.000000
O O3 0.262865 0.562309 0.928032
O O4 0.358810 0.035129 0.947160
O O5 0.132512 0.394497 0.642428
O O6 0.909593 0.167663 0.635326
O O7 0.154373 0.896136 0.701918
O O8 0.000000 0.000000 0.500000
O O9 0.747285 0.751131 0.932517
O O10 0.380755 0.570364 0.758408
#
# Coordination Sequence:
#
# PCOD9226486 Si02
#       5
#     4   4   4   2   4
#     4  11  23  38  59  84 113 150 189 235 285 338
#     4  10  17  30  52  82 111 143 189 229 273 332
#     4  10  19  35  56  82 114 148 189 235 280 334
#     4  10  22  38  58  84 116 146 186 230 284 340
#     4  10  19  30  53  83 111 146 184 229 277 332
#
# _framework density 27.750707999999999
#
# number of rings (size 3 to 8) (size 9 to 14) (size 15 to 20)
#    0.000    1.778    0.000   10.000    0.000    8.000 
#    0.000    0.000    0.000    8.000    0.000    0.000 
#    0.000    0.000    0.000    0.000    0.000    0.000 
#
# Total GULP energy -100658.248032 kJ/mol
# GULP energy per Si atom -5592.124891 kJ/mol
# Density = 2.768755 g / cm^3
# Si number density = 27.750708 Si / 1000 Ang^3
#
#
#
# Elastic Constant Matrix: (Units=GPa)
#
#
# Indices 1 2 3 4 5 6 
#
# 1 71.0358 46.1333 32.7872 0.0000 7.1985 0.0000
# 2 46.1333 205.6773 39.1681 0.0000 5.3273 0.0000
# 3 32.7872 39.1681 130.3141 0.0000 6.0523 0.0000
# 4 0.0000 0.0000 0.0000 28.8370 0.0000 3.4902
# 5 7.1985 5.3273 6.0523 0.0000 37.5907 0.0000
# 6 0.0000 0.0000 0.0000 3.4902 0.0000 49.2492
#
#
#
# Elastic Compliance Matrix: (Units=1/GPa)
#
#
# Indices 1 2 3 4 5 6 
#
# 1 0.018076 -0.003338 -0.003432 0.000000 -0.002436 0.000000
# 2 -0.003338 0.005782 -0.000897 0.000000 -0.000036 0.000000
# 3 -0.003432 -0.000897 0.008836 0.000000 -0.000639 0.000000
# 4 0.000000 0.000000 0.000000 0.034978 0.000000 -0.002479
# 5 -0.002436 -0.000036 -0.000639 0.000000 0.027177 0.000000
# 6 0.000000 0.000000 0.000000 -0.002479 0.000000 0.020481
#
#
# Mechanical properties :
#
#
# Convention : Reuss Voigt Hill
#
# Bulk Modulus (GPa) = 57.59478 71.46713 64.53096
# Shear Modulus (GPa) = 36.64384 42.39795 39.52090
#
# Velocity S-wave (km/s) = 3.63776 3.91297 3.77787
# Velocity P-wave (km/s) = 6.20031 6.79884 6.50646
#
# Compressibility (1/GPa) = 0.01736268
#
# Stress axis : x y z
#
# Youngs Moduli (GPa) = 55.32255 172.94122 113.17003
#
# Poissons Ratio (x) = 0.57725 0.38835
# Poissons Ratio (y) = 0.18466 0.10146
# Poissons Ratio (z) = 0.18984 0.15504
#
# Static dielectric constant tensor:
#      x y z
#    x 2.415070 0.000000 -0.063570 
#    y 0.000000 2.089480 0.000000 
#    z -0.063570 0.000000 2.295820 
# 
# From -- ./inp_files/65195.got.cif
#   From: 2010.05.17/outbox.cif.g08.bks.cpg/sg13_33_cif.got.tgz:65195.got - 2010.06.03 16:44:36.
