data_PCOD9226386
_publ_section_title
;
Structure prediction by ZEFSAII (Michael W. Deem and Ramdas Pophale) SiO2 
 PCOD9226386
Probable space group: P 2/C
;
_chemical_formula_sum "Si O2"
_cell_formula_units_Z 32
_cell_length_a 9.258905
_cell_length_b 11.329011
_cell_length_c 24.165106
_cell_angle_alpha 90.000000
_cell_angle_beta 44.888616
_cell_angle_gamma 90.000000
_cell_volume 1788.872607
_symmetry_space_group_name_H-M "P 2/C"
_symmetry_group_IT_number 13
_symmetry_cell_setting 'monoclinic'
loop_
_space_group_symop_operation_xyz
x,y,z
-x,y,1/2-z
-x,-y,-z
x,-y,1/2+z
loop_
_atom_site_type_symbol
_atom_site_label
_atom_site_fract_x
_atom_site_fract_y
_atom_site_fract_z
Si Si1 0.918020 0.572120 0.597728
Si Si2 0.663348 0.943128 0.586798
Si Si3 0.577849 0.342653 0.791978
Si Si4 0.146400 0.431644 0.262098
Si Si5 0.471242 0.718105 0.818547
Si Si6 0.876489 0.319440 0.557514
Si Si7 0.020792 0.934249 0.416303
Si Si8 0.336708 0.920740 0.242953
O O1 0.968916 0.580020 0.648093
O O2 0.680440 0.609006 0.653195
O O3 0.950469 0.438075 0.568984
O O4 0.032632 0.666010 0.528185
O O5 0.622754 0.807185 0.612103
O O6 0.782763 0.958457 0.496008
O O7 0.835688 0.986761 0.583226
O O8 0.453507 0.010237 0.661772
O O9 0.500000 0.361691 0.750000
O O10 0.725654 0.446743 0.769891
O O11 0.366964 0.329801 0.882056
O O12 0.685226 0.216291 0.766082
O O13 0.315438 0.329121 0.217112
O O14 0.000000 0.427248 0.250000
O O15 0.500000 0.777779 0.750000
O O16 0.933057 0.200953 0.575556
O O17 0.118609 0.956702 0.329101
O O18 0.500000 0.924631 0.250000
#
# Coordination Sequence:
#
# PCOD9226386 Si02
#       8
#     4   4   4   4   4   4   4   4
#     4  10  20  31  53  79 103 133 171 214 266 315
#     4  10  18  27  43  77 113 133 166 211 266 314
#     4  11  16  32  55  75 100 135 173 217 265 312
#     4  11  22  36  51  73 105 141 179 214 261 316
#     4  10  18  31  50  74 103 138 173 210 254 311
#     4  11  17  30  53  81 105 129 172 218 265 315
#     4  10  17  26  44  77 113 135 159 217 271 303
#     4   9  16  27  46  74 104 135 168 209 262 306
#
# _framework density 17.888362999999998
#
# number of rings (size 3 to 8) (size 9 to 14) (size 15 to 20)
#    0.000    1.750    7.500    1.500    0.000    0.000 
#    0.000    0.625    0.000    0.750    0.000    0.875 
#    0.000    0.250    0.000    0.000    0.000    0.000 
#
# Total GULP energy -178191.145228 kJ/mol
# GULP energy per Si atom -5568.473288 kJ/mol
# Density = 1.784765 g / cm^3
# Si number density = 17.888363 Si / 1000 Ang^3
#
#
#
# Elastic Constant Matrix: (Units=GPa)
#
#
# Indices 1 2 3 4 5 6 
#
# 1 66.5983 13.1702 28.6016 0.0000 6.7219 0.0000
# 2 13.1702 63.8913 15.4271 0.0000 -0.9593 0.0000
# 3 28.6016 15.4271 153.3676 0.0000 -9.0359 0.0000
# 4 0.0000 0.0000 0.0000 24.4906 0.0000 -1.3607
# 5 6.7219 -0.9593 -9.0359 0.0000 10.3516 0.0000
# 6 0.0000 0.0000 0.0000 -1.3607 0.0000 3.2588
#
#
#
# Elastic Compliance Matrix: (Units=1/GPa)
#
#
# Indices 1 2 3 4 5 6 
#
# 1 0.019101 -0.003167 -0.004208 0.000000 -0.016370 0.000000
# 2 -0.003167 0.016566 -0.000911 0.000000 0.002797 0.000000
# 3 -0.004208 -0.000911 0.007962 0.000000 0.009598 0.000000
# 4 0.000000 0.000000 0.000000 0.041802 0.000000 0.017455
# 5 -0.016370 0.002797 0.009598 0.000000 0.115871 0.000000
# 6 0.000000 0.000000 0.000000 0.017455 0.000000 0.314147
#
#
# Mechanical properties :
#
#
# Convention : Reuss Voigt Hill
#
# Bulk Modulus (GPa) = 36.95852 44.25055 40.60454
# Shear Modulus (GPa) = 9.24145 22.73077 15.98611
#
# Velocity S-wave (km/s) = 2.27539 3.56856 2.99266
# Velocity P-wave (km/s) = 5.25440 6.46299 5.88978
#
# Compressibility (1/GPa) = 0.02705736
#
# Stress axis : x y z
#
# Youngs Moduli (GPa) = 52.35270 60.36317 125.59376
#
# Poissons Ratio (x) = 0.19118 0.52851
# Poissons Ratio (y) = 0.16581 0.11441
# Poissons Ratio (z) = 0.22030 0.05499
#
# Static dielectric constant tensor:
#      x y z
#    x 1.538700 0.000000 -0.017470 
#    y 0.000000 1.645310 0.000000 
#    z -0.017470 0.000000 1.743830 
# 
# From -- ./inp_files/64273.got.cif
#   From: 2010.05.17/outbox.cif.g08.bks.cpg/sg13_33_cif.got.tgz:64273.got - 2010.06.03 16:44:36.
