data_PCOD9226843
_publ_section_title
;
Structure prediction by ZEFSAII (Michael W. Deem and Ramdas Pophale) SiO2 
 PCOD9226843
Probable space group: P 2/C
;
_chemical_formula_sum "Si O2"
_cell_formula_units_Z 32
_cell_length_a 8.846458
_cell_length_b 5.394526
_cell_length_c 30.455565
_cell_angle_alpha 90.000000
_cell_angle_beta 88.109240
_cell_angle_gamma 90.000000
_cell_volume 1452.622796
_symmetry_space_group_name_H-M "P 2/C"
_symmetry_group_IT_number 13
_symmetry_cell_setting 'monoclinic'
loop_
_space_group_symop_operation_xyz
x,y,z
-x,y,1/2-z
-x,-y,-z
x,-y,1/2+z
loop_
_atom_site_type_symbol
_atom_site_label
_atom_site_fract_x
_atom_site_fract_y
_atom_site_fract_z
Si Si1 0.883772 0.399243 0.637960
Si Si2 0.821717 0.653921 0.238228
Si Si3 0.167165 0.843214 0.726122
Si Si4 0.748306 0.457260 0.476427
Si Si5 0.256077 0.855608 0.441702
Si Si6 0.972316 0.767810 0.568145
Si Si7 0.165479 0.920428 0.132043
Si Si8 0.606063 0.047395 0.938181
O O1 0.816206 0.404597 0.686867
O O2 0.797278 0.209369 0.606902
O O3 0.883078 0.647365 0.609650
O O4 0.060292 0.317695 0.641666
O O5 0.758450 0.421483 0.265698
O O6 0.000000 0.677877 0.250000
O O7 0.755935 0.920695 0.251413
O O8 0.000000 0.820634 0.750000
O O9 0.154111 0.912064 0.675285
O O10 0.753798 0.386827 0.527549
O O11 0.918937 0.432137 0.455891
O O12 0.671856 0.716914 0.464828
O O13 0.657852 0.222007 0.455877
O O14 0.426214 0.946501 0.441417
O O15 0.138664 0.064522 0.459655
O O16 0.087122 0.954890 0.590772
O O17 0.333897 0.896222 0.111947
#
# Coordination Sequence:
#
# PCOD9226843 Si02
#       8
#     4   4   4   4   4   4   4   4
#     4  11  21  37  60  92 128 155 207 260 320 370
#     4  10  19  31  55  88 116 151 194 253 305 364
#     4  10  18  30  56  87 115 145 201 250 303 355
#     4  11  24  44  65  89 126 170 226 261 310 382
#     4  11  26  39  62  94 127 175 207 270 324 383
#     4  10  22  38  62  91 127 162 209 268 318 364
#     4  10  20  38  59  94 119 163 208 260 306 376
#     4  11  25  43  65  90 127 172 219 260 318 387
#
# _framework density 22.029119999999999
#
# number of rings (size 3 to 8) (size 9 to 14) (size 15 to 20)
#    0.000    1.500    3.750    2.625    5.250    0.500 
#    0.000    0.000    0.000    0.750    0.000    0.000 
#    0.000    0.000    0.000    0.000    0.000    0.000 
#
# Total GULP energy -178708.278099 kJ/mol
# GULP energy per Si atom -5584.633691 kJ/mol
# Density = 2.197898 g / cm^3
# Si number density = 22.029120 Si / 1000 Ang^3
#
#
#
# Elastic Constant Matrix: (Units=GPa)
#
#
# Indices 1 2 3 4 5 6 
#
# 1 72.8156 4.7568 21.8631 0.0000 -4.6345 0.0000
# 2 4.7568 95.1652 -12.3646 0.0000 7.5725 0.0000
# 3 21.8631 -12.3646 87.5658 0.0000 2.0974 0.0000
# 4 0.0000 0.0000 0.0000 21.2709 0.0000 -2.7687
# 5 -4.6345 7.5725 2.0974 0.0000 14.9537 0.0000
# 6 0.0000 0.0000 0.0000 -2.7687 0.0000 15.4268
#
#
#
# Elastic Compliance Matrix: (Units=1/GPa)
#
#
# Indices 1 2 3 4 5 6 
#
# 1 0.015547 -0.001840 -0.004294 0.000000 0.006353 0.000000
# 2 -0.001840 0.011421 0.002232 0.000000 -0.006667 0.000000
# 3 -0.004294 0.002232 0.012909 0.000000 -0.004272 0.000000
# 4 0.000000 0.000000 0.000000 0.048137 0.000000 0.008639
# 5 0.006353 -0.006667 -0.004272 0.000000 0.072817 0.000000
# 6 0.000000 0.000000 0.000000 0.008639 0.000000 0.066373
#
#
# Mechanical properties :
#
#
# Convention : Reuss Voigt Hill
#
# Bulk Modulus (GPa) = 31.17964 31.56189 31.37076
# Shear Modulus (GPa) = 20.35004 26.41636 23.38320
#
# Velocity S-wave (km/s) = 3.04267 3.46664 3.26155
# Velocity P-wave (km/s) = 5.15057 5.51198 5.33434
#
# Compressibility (1/GPa) = 0.03207221
#
# Stress axis : x y z
#
# Youngs Moduli (GPa) = 64.32065 87.56175 77.46240
#
# Poissons Ratio (x) = 0.16116 0.33261
# Poissons Ratio (y) = 0.11838 -0.17288
# Poissons Ratio (z) = 0.27618 -0.19542
#
# Static dielectric constant tensor:
#      x y z
#    x 1.822970 0.000000 -0.001930 
#    y 0.000000 1.872170 0.000000 
#    z -0.001930 0.000000 1.827370 
# 
# From -- ./inp_files/95649.got.cif
#   From: 2010.05.17/outbox.cif.g08.bks.cpg/sg13_48_cif.got.tgz:95649.got - 2010.06.03 16:44:36.
