data_PCOD9226705
_publ_section_title
;
Structure prediction by ZEFSAII (Michael W. Deem and Ramdas Pophale) SiO2 
 PCOD9226705
Probable space group: P 2/C
;
_chemical_formula_sum "Si O2"
_cell_formula_units_Z 30
_cell_length_a 20.992892
_cell_length_b 6.337602
_cell_length_c 23.335449
_cell_angle_alpha 90.000000
_cell_angle_beta 154.882297
_cell_angle_gamma 90.000000
_cell_volume 1317.861621
_symmetry_space_group_name_H-M "P 2/C"
_symmetry_group_IT_number 13
_symmetry_cell_setting 'monoclinic'
loop_
_space_group_symop_operation_xyz
x,y,z
-x,y,1/2-z
-x,-y,-z
x,-y,1/2+z
loop_
_atom_site_type_symbol
_atom_site_label
_atom_site_fract_x
_atom_site_fract_y
_atom_site_fract_z
Si Si1 0.627657 0.325457 0.622347
Si Si2 0.115198 0.683268 0.092681
Si Si3 0.221925 0.907246 0.488897
Si Si4 0.901174 0.951509 0.993377
Si Si5 0.607829 0.715114 0.421145
Si Si6 0.299562 0.334917 0.939922
Si Si7 0.409471 0.951374 0.822652
Si Si8 0.500000 0.632623 0.750000
O O1 0.500000 0.500000 0.500000
O O2 0.726974 0.403352 0.756685
O O3 0.736428 0.308007 0.655889
O O4 0.593064 0.090010 0.620330
O O5 0.112156 0.798069 0.029173
O O6 0.000000 0.500000 0.000000
O O7 0.046492 0.856068 0.080867
O O8 0.100694 0.903335 0.440678
O O9 0.208565 0.788178 0.416157
O O10 0.358012 0.782924 0.630419
O O11 0.274304 0.146124 0.518713
O O12 0.750705 0.883822 0.834142
O O13 0.692533 0.583084 0.539242
O O14 0.486050 0.881546 0.342250
O O15 0.521699 0.529815 0.318919
O O16 0.467071 0.231304 0.075623
#
# Coordination Sequence:
#
# PCOD9226705 Si02
#       8
#     4   4   4   4   4   4   4   2
#     4  11  22  40  64  92 123 170 209 267 324 372
#     4  10  25  43  63  89 123 159 218 264 308 390
#     4  10  20  33  55  85 124 165 204 254 317 374
#     4  10  21  40  60  87 121 165 207 254 317 369
#     4  10  18  31  48  87 126 155 206 256 306 389
#     4  10  21  35  56  95 125 161 208 257 318 379
#     4  10  20  34  61  90 126 160 209 258 319 377
#     4  10  18  28  50  84 124 160 202 254 310 374
#
# _framework density 22.764150999999998
#
# number of rings (size 3 to 8) (size 9 to 14) (size 15 to 20)
#    0.000    1.867    1.333    4.000    1.867    4.267 
#    2.400    0.667    0.000    0.000    0.000    0.000 
#    0.000    0.000    0.000    0.000    0.000    0.000 
#
# Total GULP energy -167063.266119 kJ/mol
# GULP energy per Si atom -5568.775537 kJ/mol
# Density = 2.271234 g / cm^3
# Si number density = 22.764151 Si / 1000 Ang^3
#
#
#
# Elastic Constant Matrix: (Units=GPa)
#
#
# Indices 1 2 3 4 5 6 
#
# 1 118.5724 10.1782 -8.1427 0.0000 -6.9293 0.0000
# 2 10.1782 76.9230 13.2727 0.0000 0.3140 0.0000
# 3 -8.1427 13.2727 45.5957 0.0000 0.1908 0.0000
# 4 0.0000 0.0000 0.0000 26.2775 0.0000 2.5712
# 5 -6.9293 0.3140 0.1908 0.0000 18.0083 0.0000
# 6 0.0000 0.0000 0.0000 2.5712 0.0000 4.1712
#
#
#
# Elastic Compliance Matrix: (Units=1/GPa)
#
#
# Indices 1 2 3 4 5 6 
#
# 1 0.008906 -0.001542 0.002025 0.000000 0.003432 0.000000
# 2 -0.001542 0.013955 -0.004334 0.000000 -0.000791 0.000000
# 3 0.002025 -0.004334 0.023553 0.000000 0.000605 0.000000
# 4 0.000000 0.000000 0.000000 0.040498 0.000000 -0.024963
# 5 0.003432 -0.000791 0.000605 0.000000 0.056858 0.000000
# 6 0.000000 0.000000 0.000000 -0.024963 0.000000 0.255128
#
#
# Mechanical properties :
#
#
# Convention : Reuss Voigt Hill
#
# Bulk Modulus (GPa) = 25.83244 30.18972 28.01108
# Shear Modulus (GPa) = 11.91885 24.74358 18.33122
#
# Velocity S-wave (km/s) = 2.29067 3.30047 2.84080
# Velocity P-wave (km/s) = 4.28587 5.27399 4.80540
#
# Compressibility (1/GPa) = 0.03871102
#
# Stress axis : x y z
#
# Youngs Moduli (GPa) = 112.28848 71.65838 42.45799
#
# Poissons Ratio (x) = 0.11048 -0.08597
# Poissons Ratio (y) = 0.17312 0.18403
# Poissons Ratio (z) = -0.22737 0.31059
#
# Static dielectric constant tensor:
#      x y z
#    x 1.975680 0.000000 -0.081080 
#    y 0.000000 1.849730 0.000000 
#    z -0.081080 0.000000 1.955510 
# 
# From -- ./inp_files/88326.got.cif
#   From: 2010.05.17/outbox.cif.g08.bks.cpg/sg13_45_cif.got.tgz:88326.got - 2010.06.03 16:44:36.
