data_PCOD9226475
_publ_section_title
;
Structure prediction by ZEFSAII (Michael W. Deem and Ramdas Pophale) SiO2 
 PCOD9226475
Probable space group: P 2/C
;
_chemical_formula_sum "Si O2"
_cell_formula_units_Z 28
_cell_length_a 20.990085
_cell_length_b 12.062327
_cell_length_c 9.481968
_cell_angle_alpha 90.000000
_cell_angle_beta 36.778508
_cell_angle_gamma 90.000000
_cell_volume 1437.374266
_symmetry_space_group_name_H-M "P 2/C"
_symmetry_group_IT_number 13
_symmetry_cell_setting 'monoclinic'
loop_
_space_group_symop_operation_xyz
x,y,z
-x,y,1/2-z
-x,-y,-z
x,-y,1/2+z
loop_
_atom_site_type_symbol
_atom_site_label
_atom_site_fract_x
_atom_site_fract_y
_atom_site_fract_z
Si Si1 0.757386 0.545166 0.581105
Si Si2 0.308169 0.241284 0.696809
Si Si3 0.899881 0.678273 0.823873
Si Si4 0.537468 0.835639 0.334240
Si Si5 0.029603 0.387934 0.860324
Si Si6 0.624132 0.520712 0.552503
Si Si7 0.599273 0.916801 0.678370
O O1 0.831995 0.436126 0.455374
O O2 0.842980 0.630820 0.364106
O O3 0.659951 0.522316 0.650172
O O4 0.703753 0.562305 0.827641
O O5 0.387094 0.229094 0.691541
O O6 0.345683 0.357119 0.559979
O O7 0.313622 0.148512 0.564429
O O8 0.189392 0.237955 0.967626
O O9 0.000000 0.672359 0.750000
O O10 0.952190 0.696260 0.578269
O O11 0.500000 0.788068 0.250000
O O12 0.433312 0.867682 0.612153
O O13 0.600436 0.950866 0.191348
O O14 0.000000 0.397838 0.750000
O O15 0.000000 0.500000 0.000000
O O16 0.500000 0.498756 0.750000
O O17 0.500000 0.895044 0.750000
#
# Coordination Sequence:
#
# PCOD9226475 Si02
#       7
#     4   4   4   4   4   4   4
#     4  10  19  33  52  72  97 137 180 218 261 305
#     4  10  20  35  53  80 112 141 175 220 271 316
#     4  10  20  36  55  76  99 134 186 236 274 311
#     4   9  16  30  55  83 111 140 175 210 252 320
#     4  10  17  30  51  73  94 123 174 231 268 297
#     4  11  21  34  49  72 107 143 174 210 262 324
#     4   8  15  30  54  83 111 142 173 208 258 319
#
# _framework density 19.479965
#
# number of rings (size 3 to 8) (size 9 to 14) (size 15 to 20)
#    0.000    2.286    0.000    7.714    0.000    0.000 
#    0.000   12.857    0.000    0.857    0.000    0.000 
#    0.000    0.000    0.000    0.000    0.000    0.000 
#
# Total GULP energy -155917.438706 kJ/mol
# GULP energy per Si atom -5568.479954 kJ/mol
# Density = 1.943563 g / cm^3
# Si number density = 19.479965 Si / 1000 Ang^3
#
#
#
# Elastic Constant Matrix: (Units=GPa)
#
#
# Indices 1 2 3 4 5 6 
#
# 1 89.0282 12.0765 -3.4213 0.0000 3.9624 0.0000
# 2 12.0765 25.6223 32.3215 0.0000 6.9110 0.0000
# 3 -3.4213 32.3215 94.2313 0.0000 -0.0424 0.0000
# 4 0.0000 0.0000 0.0000 25.9333 0.0000 4.1649
# 5 3.9624 6.9110 -0.0424 0.0000 38.9842 0.0000
# 6 0.0000 0.0000 0.0000 4.1649 0.0000 6.7197
#
#
#
# Elastic Compliance Matrix: (Units=1/GPa)
#
#
# Indices 1 2 3 4 5 6 
#
# 1 0.013043 -0.012298 0.004692 0.000000 0.000860 0.000000
# 2 -0.012298 0.086752 -0.030209 0.000000 -0.014162 0.000000
# 3 0.004692 -0.030209 0.021147 0.000000 0.004901 0.000000
# 4 0.000000 0.000000 0.000000 0.042823 0.000000 -0.026542
# 5 0.000860 -0.014162 0.004901 0.000000 0.028080 0.000000
# 6 0.000000 0.000000 0.000000 -0.026542 0.000000 0.165268
#
#
# Mechanical properties :
#
#
# Convention : Reuss Voigt Hill
#
# Bulk Modulus (GPa) = 22.06957 32.31503 27.19230
# Shear Modulus (GPa) = 11.16454 25.52111 18.34283
#
# Velocity S-wave (km/s) = 2.39661 3.62349 3.07192
# Velocity P-wave (km/s) = 4.36031 5.84218 5.15477
#
# Compressibility (1/GPa) = 0.04531125
#
# Stress axis : x y z
#
# Youngs Moduli (GPa) = 76.67119 11.52706 47.28911
#
# Poissons Ratio (x) = 0.14176 -0.22189
# Poissons Ratio (y) = 0.94293 1.42856
# Poissons Ratio (z) = -0.35976 0.34822
#
# Static dielectric constant tensor:
#      x y z
#    x 1.700830 0.000000 0.017000 
#    y 0.000000 1.777690 0.000000 
#    z 0.017000 0.000000 1.807630 
# 
# From -- ./inp_files/21957.got.cif
#   From: 2010.05.17/outbox.cif.g08.bks.cpg/sg13_11_cif.got.tgz:21957.got - 2010.06.03 16:44:36.
