data_PCOD9226882
_publ_section_title
;
Structure prediction by ZEFSAII (Michael W. Deem and Ramdas Pophale) SiO2 
 PCOD9226882
Probable space group: P 2/C
;
_chemical_formula_sum "Si O2"
_cell_formula_units_Z 30
_cell_length_a 11.802130
_cell_length_b 26.718744
_cell_length_c 5.023356
_cell_angle_alpha 90.000000
_cell_angle_beta 75.728809
_cell_angle_gamma 90.000000
_cell_volume 1535.171223
_symmetry_space_group_name_H-M "P 2/C"
_symmetry_group_IT_number 13
_symmetry_cell_setting 'monoclinic'
loop_
_space_group_symop_operation_xyz
x,y,z
-x,y,1/2-z
-x,-y,-z
x,-y,1/2+z
loop_
_atom_site_type_symbol
_atom_site_label
_atom_site_fract_x
_atom_site_fract_y
_atom_site_fract_z
Si Si1 0.249070 0.862815 0.509358
Si Si2 0.500000 0.536678 0.750000
Si Si3 0.242583 0.464029 0.397201
Si Si4 0.110425 0.228275 0.000109
Si Si5 0.628004 0.181890 0.056277
Si Si6 0.221720 0.270425 0.428177
Si Si7 0.085130 0.368818 0.450361
Si Si8 0.861744 0.032747 0.317672
O O1 0.136216 0.830666 0.482782
O O2 0.285577 0.844287 0.781075
O O3 0.216074 0.920496 0.548728
O O4 0.346887 0.845049 0.239545
O O5 0.500000 0.500000 0.500000
O O6 0.627728 0.561594 0.686679
O O7 0.233406 0.491841 0.685013
O O8 0.144560 0.423025 0.399437
O O9 0.210198 0.252803 0.128986
O O10 0.000000 0.239015 0.250000
O O11 0.125574 0.248727 0.694708
O O12 0.500000 0.176243 0.250000
O O13 0.664597 0.240823 0.029329
O O14 0.189387 0.328650 0.432015
O O15 0.000000 0.357916 0.250000
O O16 0.000000 0.366635 0.750000
O O17 0.000000 0.045909 0.250000
O O18 0.839969 0.987078 0.533577
#
# Coordination Sequence:
#
# PCOD9226882 Si02
#       8
#     4   2   4   4   4   4   4   4
#     4  10  20  34  56  81 107 143 186 229 279 330
#     4   8  16  34  58  78 102 134 182 240 274 308
#     4  10  21  38  59  83 111 149 195 237 281 327
#     4  10  18  31  53  77 106 137 176 220 267 332
#     4  10  21  38  59  80 106 141 188 241 284 331
#     4  10  21  35  52  79 107 142 179 219 280 336
#     4  12  24  37  56  83 120 153 184 227 284 349
#     4  10  20  34  54  82 118 152 181 224 278 334
#
# _framework density 19.541792000000001
#
# number of rings (size 3 to 8) (size 9 to 14) (size 15 to 20)
#    0.000    1.867    0.000    4.800    0.000    1.600 
#    1.200    4.000    0.000    8.000    0.000    0.000 
#    0.000    0.000    0.000    0.000    0.000    0.000 
#
# Total GULP energy -167108.838959 kJ/mol
# GULP energy per Si atom -5570.294632 kJ/mol
# Density = 1.949731 g / cm^3
# Si number density = 19.541792 Si / 1000 Ang^3
#
#
#
# Elastic Constant Matrix: (Units=GPa)
#
#
# Indices 1 2 3 4 5 6 
#
# 1 36.0819 22.0004 11.4131 0.0000 -4.1684 0.0000
# 2 22.0004 77.7529 1.5783 0.0000 -12.0261 0.0000
# 3 11.4131 1.5783 110.3220 0.0000 9.2779 0.0000
# 4 0.0000 0.0000 0.0000 27.8230 0.0000 -4.6484
# 5 -4.1684 -12.0261 9.2779 0.0000 24.0496 0.0000
# 6 0.0000 0.0000 0.0000 -4.6484 0.0000 13.0754
#
#
#
# Elastic Compliance Matrix: (Units=1/GPa)
#
#
# Indices 1 2 3 4 5 6 
#
# 1 0.034929 -0.009375 -0.003715 0.000000 0.002799 0.000000
# 2 -0.009375 0.016526 0.000181 0.000000 0.006569 0.000000
# 3 -0.003715 0.000181 0.009811 0.000000 -0.004338 0.000000
# 4 0.000000 0.000000 0.000000 0.038211 0.000000 0.013584
# 5 0.002799 0.006569 -0.004338 0.000000 0.047025 0.000000
# 6 0.000000 0.000000 0.000000 0.013584 0.000000 0.081309
#
#
# Mechanical properties :
#
#
# Convention : Reuss Voigt Hill
#
# Bulk Modulus (GPa) = 28.20956 32.68225 30.44590
# Shear Modulus (GPa) = 18.83626 25.60059 22.21842
#
# Velocity S-wave (km/s) = 3.10804 3.62338 3.37556
# Velocity P-wave (km/s) = 5.22941 5.85370 5.55034
#
# Compressibility (1/GPa) = 0.03544898
#
# Stress axis : x y z
#
# Youngs Moduli (GPa) = 28.62919 60.50939 101.92707
#
# Poissons Ratio (x) = 0.56728 0.37864
# Poissons Ratio (y) = 0.26840 -0.01844
# Poissons Ratio (z) = 0.10635 -0.01095
#
# Static dielectric constant tensor:
#      x y z
#    x 1.750520 0.000000 -0.016360 
#    y 0.000000 1.684190 0.000000 
#    z -0.016360 0.000000 1.658010 
# 
# From -- ./inp_files/4347.got.cif
#   From: 2010.05.17/outbox.cif.g08.bks.cpg/sg13_3_cif.got.tgz:4347.got - 2010.06.03 16:44:36.
