data_PCOD9226867
_publ_section_title
;
Structure prediction by ZEFSAII (Michael W. Deem and Ramdas Pophale) SiO2 
 PCOD9226867
Probable space group: P 2/C
;
_chemical_formula_sum "Si O2"
_cell_formula_units_Z 28
_cell_length_a 6.648249
_cell_length_b 19.159255
_cell_length_c 13.911594
_cell_angle_alpha 90.000000
_cell_angle_beta 89.173268
_cell_angle_gamma 90.000000
_cell_volume 1771.811749
_symmetry_space_group_name_H-M "P 2/C"
_symmetry_group_IT_number 13
_symmetry_cell_setting 'monoclinic'
loop_
_space_group_symop_operation_xyz
x,y,z
-x,y,1/2-z
-x,-y,-z
x,-y,1/2+z
loop_
_atom_site_type_symbol
_atom_site_label
_atom_site_fract_x
_atom_site_fract_y
_atom_site_fract_z
Si Si1 0.827415 0.900091 0.038969
Si Si2 0.082905 0.980630 0.645449
Si Si3 0.079561 0.206053 0.640625
Si Si4 0.811226 0.551861 0.010822
Si Si5 0.570438 0.511447 0.358191
Si Si6 0.091759 0.367812 0.642491
Si Si7 0.418062 0.093115 0.643754
O O1 0.891418 0.918722 0.930698
O O2 0.593943 0.907794 0.064773
O O3 0.933910 0.960198 0.103205
O O4 0.906487 0.824948 0.073118
O O5 0.294459 0.021250 0.649293
O O6 0.000000 0.960332 0.750000
O O7 0.140351 0.286378 0.630107
O O8 0.265898 0.155316 0.621851
O O9 0.000000 0.195913 0.750000
O O10 0.700054 0.550447 0.907954
O O11 0.634214 0.524078 0.081134
O O12 0.000000 0.500000 0.000000
O O13 0.918967 0.615474 0.064689
O O14 0.500000 0.499388 0.250000
O O15 0.717043 0.579772 0.365538
O O16 0.000000 0.378366 0.750000
O O17 0.500000 0.106386 0.750000
#
# Coordination Sequence:
#
# PCOD9226867 Si02
#       7
#     4   4   4   4   4   4   4
#     4  10  19  32  47  68  98 126 159 202 249 288
#     4  10  19  31  48  70  91 122 165 205 247 295
#     4  10  20  31  46  71 101 132 158 186 237 300
#     4   9  19  32  48  74 106 129 161 205 242 288
#     4  10  18  31  51  77 102 129 163 202 245 293
#     4  10  19  31  48  73 105 136 164 196 244 302
#     4  11  17  30  47  69 102 126 153 201 249 299
#
# _framework density 15.803034
#
# number of rings (size 3 to 8) (size 9 to 14) (size 15 to 20)
#    0.000    2.000    4.286    1.286    0.000    1.714 
#    0.000    0.000    0.000    0.000   11.143    0.000 
#    0.000    0.000    0.000    0.000    0.000    0.000 
#
# Total GULP energy -155872.834275 kJ/mol
# GULP energy per Si atom -5566.886938 kJ/mol
# Density = 1.576707 g / cm^3
# Si number density = 15.803034 Si / 1000 Ang^3
#
#
#
# Elastic Constant Matrix: (Units=GPa)
#
#
# Indices 1 2 3 4 5 6 
#
# 1 85.6951 17.1042 36.2843 0.0000 -0.5728 0.0000
# 2 17.1042 48.9231 31.6703 0.0000 2.3442 0.0000
# 3 36.2843 31.6703 107.0841 0.0000 5.8993 0.0000
# 4 0.0000 0.0000 0.0000 7.4758 0.0000 -3.5989
# 5 -0.5728 2.3442 5.8993 0.0000 28.1147 0.0000
# 6 0.0000 0.0000 0.0000 -3.5989 0.0000 6.7115
#
#
#
# Elastic Compliance Matrix: (Units=1/GPa)
#
#
# Indices 1 2 3 4 5 6 
#
# 1 0.013866 -0.002254 -0.004105 0.000000 0.001332 0.000000
# 2 -0.002254 0.025655 -0.006782 0.000000 -0.000762 0.000000
# 3 -0.004105 -0.006782 0.012857 0.000000 -0.002216 0.000000
# 4 0.000000 0.000000 0.000000 0.180312 0.000000 0.096689
# 5 0.001332 -0.000762 -0.002216 0.000000 0.036124 0.000000
# 6 0.000000 0.000000 0.000000 0.096689 0.000000 0.200847
#
#
# Mechanical properties :
#
#
# Convention : Reuss Voigt Hill
#
# Bulk Modulus (GPa) = 38.31948 45.75778 42.03863
# Shear Modulus (GPa) = 9.90801 18.90329 14.40565
#
# Velocity S-wave (km/s) = 2.50665 3.46234 3.02251
# Velocity P-wave (km/s) = 5.71652 6.70833 6.23218
#
# Compressibility (1/GPa) = 0.02609639
#
# Stress axis : x y z
#
# Youngs Moduli (GPa) = 72.11743 38.97873 77.77737
#
# Poissons Ratio (x) = 0.08787 0.31929
# Poissons Ratio (y) = 0.16257 0.52746
# Poissons Ratio (z) = 0.29605 0.26434
#
# Static dielectric constant tensor:
#      x y z
#    x 1.558960 0.000000 0.025130 
#    y 0.000000 1.510170 0.000000 
#    z 0.025130 0.000000 1.538400 
# 
# From -- ./inp_files/26710.got.cif
#   From: 2010.05.17/outbox.cif.g08.bks.cpg/sg13_14_cif.got.tgz:26710.got - 2010.06.03 16:44:36.
