data_PCOD9226838
_publ_section_title
;
Structure prediction by ZEFSAII (Michael W. Deem and Ramdas Pophale) SiO2 
 PCOD9226838
Probable space group: P 2/C
;
_chemical_formula_sum "Si O2"
_cell_formula_units_Z 32
_cell_length_a 13.172394
_cell_length_b 8.655158
_cell_length_c 22.692305
_cell_angle_alpha 90.000000
_cell_angle_beta 40.147633
_cell_angle_gamma 90.000000
_cell_volume 1668.076477
_symmetry_space_group_name_H-M "P 2/C"
_symmetry_group_IT_number 13
_symmetry_cell_setting 'monoclinic'
loop_
_space_group_symop_operation_xyz
x,y,z
-x,y,1/2-z
-x,-y,-z
x,-y,1/2+z
loop_
_atom_site_type_symbol
_atom_site_label
_atom_site_fract_x
_atom_site_fract_y
_atom_site_fract_z
Si Si1 0.950896 0.678612 0.086794
Si Si2 0.505217 0.983301 0.428246
Si Si3 0.698059 0.101997 0.657800
Si Si4 0.620919 0.712574 0.082801
Si Si5 0.472604 0.606215 0.828962
Si Si6 0.282266 0.142719 0.253981
Si Si7 0.991732 0.675487 0.927239
Si Si8 0.235205 0.866319 0.967517
O O1 0.787142 0.769727 0.157009
O O2 0.956639 0.503407 0.107344
O O3 0.996146 0.681107 0.996770
O O4 0.077688 0.789197 0.061598
O O5 0.474519 0.807050 0.423017
O O6 0.500000 0.000000 0.500000
O O7 0.663905 0.054398 0.328933
O O8 0.357365 0.069027 0.461510
O O9 0.594570 0.196390 0.656559
O O10 0.649598 0.967810 0.724376
O O11 0.799686 0.999779 0.564995
O O12 0.565684 0.539350 0.114862
O O13 0.810154 0.703760 0.989707
O O14 0.500000 0.556296 0.750000
O O15 0.621538 0.698967 0.785833
O O16 0.329087 0.727240 0.894123
O O17 0.105392 0.196172 0.347749
#
# Coordination Sequence:
#
# PCOD9226838 Si02
#       8
#     4   4   4   4   4   4   4   4
#     4  10  18  30  55  89 131 156 184 225 306 385
#     4  10  25  44  60  82 110 160 216 258 300 341
#     4  10  20  30  52  94 122 158 188 237 307 365
#     4  10  23  36  62  84 124 160 198 241 302 377
#     4  11  20  33  54  88 128 156 193 234 302 372
#     4  11  23  36  58  86 125 155 199 254 300 358
#     4  10  20  35  54  93 125 160 185 237 308 377
#     4  10  18  35  56  83 120 161 194 240 296 364
#
# _framework density 19.183772000000001
#
# number of rings (size 3 to 8) (size 9 to 14) (size 15 to 20)
#    0.000    1.750    3.750    0.375    8.750    0.000 
#    0.000    3.125    0.000    0.000    3.250    0.000 
#    0.000    0.000    0.000    0.000    0.000    0.000 
#
# Total GULP energy -178465.152090 kJ/mol
# GULP energy per Si atom -5577.036003 kJ/mol
# Density = 1.914011 g / cm^3
# Si number density = 19.183772 Si / 1000 Ang^3
#
#
#
# Elastic Constant Matrix: (Units=GPa)
#
#
# Indices 1 2 3 4 5 6 
#
# 1 39.9143 21.0030 36.2313 0.0000 -0.5352 0.0000
# 2 21.0030 125.3915 37.9640 0.0000 -3.5069 0.0000
# 3 36.2313 37.9640 81.9647 0.0000 1.8709 0.0000
# 4 0.0000 0.0000 0.0000 32.6617 0.0000 -13.1724
# 5 -0.5352 -3.5069 1.8709 0.0000 27.0289 0.0000
# 6 0.0000 0.0000 0.0000 -13.1724 0.0000 20.6989
#
#
#
# Elastic Compliance Matrix: (Units=1/GPa)
#
#
# Indices 1 2 3 4 5 6 
#
# 1 0.042229 -0.001578 -0.017979 0.000000 0.001876 0.000000
# 2 -0.001578 0.009396 -0.003688 0.000000 0.001443 0.000000
# 3 -0.017979 -0.003688 0.021909 0.000000 -0.002351 0.000000
# 4 0.000000 0.000000 0.000000 0.041188 0.000000 0.026211
# 5 0.001876 0.001443 -0.002351 0.000000 0.037385 0.000000
# 6 0.000000 0.000000 0.000000 0.026211 0.000000 0.064992
#
#
# Mechanical properties :
#
#
# Convention : Reuss Voigt Hill
#
# Bulk Modulus (GPa) = 36.97368 48.62969 42.80168
# Shear Modulus (GPa) = 18.34176 26.21605 22.27890
#
# Velocity S-wave (km/s) = 3.09545 3.70073 3.41154
# Velocity P-wave (km/s) = 5.66490 6.60795 6.15451
#
# Compressibility (1/GPa) = 0.02704627
#
# Stress axis : x y z
#
# Youngs Moduli (GPa) = 23.68059 106.42702 45.64266
#
# Poissons Ratio (x) = 0.16789 0.82060
# Poissons Ratio (y) = 0.03736 0.16831
# Poissons Ratio (z) = 0.42575 0.39247
#
# Static dielectric constant tensor:
#      x y z
#    x 1.675730 0.000000 -0.091910 
#    y 0.000000 1.704990 0.000000 
#    z -0.091910 0.000000 1.769150 
# 
# From -- ./inp_files/78262.got.cif
#   From: 2010.05.17/outbox.cif.g08.bks.cpg/sg13_40_cif.got.tgz:78262.got - 2010.06.03 16:44:36.
