data_PCOD9226403
_publ_section_title
;
Structure prediction by ZEFSAII (Michael W. Deem and Ramdas Pophale) SiO2 
 PCOD9226403
Probable space group: P 2/C
;
_chemical_formula_sum "Si O2"
_cell_formula_units_Z 24
_cell_length_a 23.665196
_cell_length_b 9.296961
_cell_length_c 5.509681
_cell_angle_alpha 90.000000
_cell_angle_beta 117.625465
_cell_angle_gamma 90.000000
_cell_volume 1074.014403
_symmetry_space_group_name_H-M "P 2/C"
_symmetry_group_IT_number 13
_symmetry_cell_setting 'monoclinic'
loop_
_space_group_symop_operation_xyz
x,y,z
-x,y,1/2-z
-x,-y,-z
x,-y,1/2+z
loop_
_atom_site_type_symbol
_atom_site_label
_atom_site_fract_x
_atom_site_fract_y
_atom_site_fract_z
Si Si1 0.296030 0.498953 0.463644
Si Si2 0.381699 0.147594 0.935839
Si Si3 0.926621 0.589529 0.114768
Si Si4 0.758084 0.181419 0.676638
Si Si5 0.195978 0.234081 0.231869
Si Si6 0.428400 0.822885 0.028639
O O1 0.333455 0.499567 0.788091
O O2 0.255873 0.647010 0.378927
O O3 0.245205 0.368913 0.356385
O O4 0.309751 0.117770 0.876799
O O5 0.384496 0.216758 0.673324
O O6 0.411585 0.230789 0.225364
O O7 0.418386 0.996059 0.980790
O O8 0.917777 0.511986 0.358488
O O9 0.000000 0.640226 0.250000
O O10 0.873012 0.709275 0.980001
O O11 0.778935 0.141263 0.446315
O O12 0.804290 0.167538 0.999467
O O13 0.500000 0.791124 0.250000
#
# Coordination Sequence:
#
# PCOD9226403 Si02
#       6
#     4   4   4   4   4   4
#     4   8  14  23  36  51  76 108 136 164 203 236
#     4  10  18  29  45  68  89 112 143 169 201 263
#     4  10  18  27  41  60  82 118 164 194 215 256
#     4  10  18  26  41  62  86 113 144 178 212 251
#     4  10  17  28  40  57  88 120 146 181 221 248
#     4  10  19  33  50  66  92 117 131 162 216 266
#
# _framework density 22.346070000000001
#
# number of rings (size 3 to 8) (size 9 to 14) (size 15 to 20)
#    0.000    2.333    0.000    7.500    0.000    0.000 
#    0.000    0.000    0.000    0.000    0.000    0.000 
#    0.000  204.000    0.000   60.000    0.000    4.000 
#
# Total GULP energy -133889.636016 kJ/mol
# GULP energy per Si atom -5578.734834 kJ/mol
# Density = 2.229521 g / cm^3
# Si number density = 22.346070 Si / 1000 Ang^3
#
#
#
# Elastic Constant Matrix: (Units=GPa)
#
#
# Indices 1 2 3 4 5 6 
#
# 1 65.2062 0.2939 37.6568 0.0000 -13.6880 0.0000
# 2 0.2939 57.4532 0.8829 0.0000 -1.0957 0.0000
# 3 37.6568 0.8829 162.8377 0.0000 -35.5007 0.0000
# 4 0.0000 0.0000 0.0000 -27.6912 0.0000 11.7561
# 5 -13.6880 -1.0957 -35.5007 0.0000 65.7729 0.0000
# 6 0.0000 0.0000 0.0000 11.7561 0.0000 22.0349
#
#
#
# Elastic Compliance Matrix: (Units=1/GPa)
#
#
# Indices 1 2 3 4 5 6 
#
# 1 0.017863 -0.000001 -0.003763 0.000000 0.001686 0.000000
# 2 -0.000001 0.017411 -0.000035 0.000000 0.000271 0.000000
# 3 -0.003763 -0.000035 0.007753 0.000000 0.003401 0.000000
# 4 0.000000 0.000000 0.000000 -0.029444 0.000000 0.015709
# 5 0.001686 0.000271 0.003401 0.000000 0.017395 0.000000
# 6 0.000000 0.000000 0.000000 0.015709 0.000000 0.037002
#
#
# Mechanical properties :
#
#
# Convention : Reuss Voigt Hill
#
# Bulk Modulus (GPa) = 28.22628 40.35161 34.28895
# Shear Modulus (GPa) = 57.21525 28.46754 42.84139
#
# Velocity S-wave (km/s) = 5.06555 3.57310 4.38331
# Velocity P-wave (km/s) = 6.84630 5.92617 6.40279
#
# Compressibility (1/GPa) = 0.03542797
#
# Stress axis : x y z
#
# Youngs Moduli (GPa) = 55.98076 57.43440 128.98251
#
# Poissons Ratio (x) = 0.00008 0.48540
# Poissons Ratio (y) = 0.00008 0.00452
# Poissons Ratio (z) = 0.21067 0.00201
#
# Static dielectric constant tensor:
#      x y z
#    x 1.853910 0.000000 -0.094030 
#    y 0.000000 1.904400 0.000000 
#    z -0.094030 0.000000 1.894240 
# 
# From -- ./inp_files/4966.got.cif
#   From: 2010.05.17/outbox.cif.g08.bks.cpg/sg13_3_cif.got.tgz:4966.got - 2010.06.03 16:44:36.
