data_PCOD9226318
_publ_section_title
;
Structure prediction by ZEFSAII (Michael W. Deem and Ramdas Pophale) SiO2 
 PCOD9226318
Probable space group: P 2/C
;
_chemical_formula_sum "Si O2"
_cell_formula_units_Z 26
_cell_length_a 15.066484
_cell_length_b 17.921925
_cell_length_c 5.137502
_cell_angle_alpha 90.000000
_cell_angle_beta 61.048439
_cell_angle_gamma 90.000000
_cell_volume 1213.867129
_symmetry_space_group_name_H-M "P 2/C"
_symmetry_group_IT_number 13
_symmetry_cell_setting 'monoclinic'
loop_
_space_group_symop_operation_xyz
x,y,z
-x,y,1/2-z
-x,-y,-z
x,-y,1/2+z
loop_
_atom_site_type_symbol
_atom_site_label
_atom_site_fract_x
_atom_site_fract_y
_atom_site_fract_z
Si Si1 0.656261 0.241959 0.291491
Si Si2 0.832559 0.836361 0.809687
Si Si3 0.500000 0.860631 0.250000
Si Si4 0.107323 0.686722 0.478756
Si Si5 0.000000 0.790925 0.250000
Si Si6 0.683426 0.048591 0.743990
Si Si7 0.323332 0.660901 0.221993
Si Si8 0.500000 0.446071 0.250000
O O1 0.746234 0.184710 0.226114
O O2 0.556320 0.194816 0.474882
O O3 0.657642 0.309551 0.508603
O O4 0.668057 0.269178 0.983469
O O5 0.941405 0.846292 0.525124
O O6 0.854299 0.757377 0.913237
O O7 0.782067 0.900016 0.052711
O O8 0.417820 0.907721 0.203874
O O9 0.079042 0.730411 0.255495
O O10 0.205844 0.633905 0.350008
O O11 0.000000 0.658472 0.750000
O O12 0.684374 0.980146 0.536997
O O13 0.405188 0.606044 0.972610
O O14 0.500000 0.500000 0.500000
#
# Coordination Sequence:
#
# PCOD9226318 Si02
#       8
#     4   4   2   4   2   4   4   2
#     4  10  20  34  59  92 113 146 183 249 312 336
#     4   9  20  33  55  80 117 141 182 243 301 358
#     4  10  22  37  58  81 112 142 192 254 306 350
#     4   9  19  34  61  95 117 146 185 251 316 346
#     4  10  16  34  58  86 114 136 182 236 330 344
#     4  11  25  39  54  73 107 155 201 234 285 359
#     4  11  21  39  62  92 127 153 198 239 282 353
#     4  12  26  43  62  89 128 180 206 224 266 330
#
# _framework density 21.419146000000001
#
# number of rings (size 3 to 8) (size 9 to 14) (size 15 to 20)
#    0.000    1.846    1.538    2.308    2.154    4.923 
#    0.000    0.769    0.000    0.923    0.000    0.000 
#    0.000    0.000    0.000    0.000    0.000    0.000 
#
# Total GULP energy -144877.367871 kJ/mol
# GULP energy per Si atom -5572.206457 kJ/mol
# Density = 2.137040 g / cm^3
# Si number density = 21.419146 Si / 1000 Ang^3
#
#
#
# Elastic Constant Matrix: (Units=GPa)
#
#
# Indices 1 2 3 4 5 6 
#
# 1 67.4609 22.5333 34.1158 0.0000 -21.8784 0.0000
# 2 22.5333 31.4807 20.7770 0.0000 -19.4358 0.0000
# 3 34.1158 20.7770 103.2354 0.0000 -19.8701 0.0000
# 4 0.0000 0.0000 0.0000 12.9337 0.0000 9.5894
# 5 -21.8784 -19.4358 -19.8701 0.0000 45.0212 0.0000
# 6 0.0000 0.0000 0.0000 9.5894 0.0000 13.9733
#
#
#
# Elastic Compliance Matrix: (Units=1/GPa)
#
#
# Indices 1 2 3 4 5 6 
#
# 1 0.021780 -0.010052 -0.004341 0.000000 0.004329 0.000000
# 2 -0.010052 0.051119 -0.003999 0.000000 0.015419 0.000000
# 3 -0.004341 -0.003999 0.012226 0.000000 0.001560 0.000000
# 4 0.000000 0.000000 0.000000 0.157411 0.000000 -0.108026
# 5 0.004329 0.015419 0.001560 0.000000 0.031660 0.000000
# 6 0.000000 0.000000 0.000000 -0.108026 0.000000 0.145700
#
#
# Mechanical properties :
#
#
# Convention : Reuss Voigt Hill
#
# Bulk Modulus (GPa) = 20.68624 39.66992 30.17808
# Shear Modulus (GPa) = 10.57542 22.70236 16.63889
#
# Velocity S-wave (km/s) = 2.22443 3.25916 2.79018
# Velocity P-wave (km/s) = 4.03438 5.72047 4.94975
#
# Compressibility (1/GPa) = 0.04834132
#
# Stress axis : x y z
#
# Youngs Moduli (GPa) = 45.91281 19.56217 81.79077
#
# Poissons Ratio (x) = 0.19664 0.35509
# Poissons Ratio (y) = 0.46153 0.32704
# Poissons Ratio (z) = 0.19933 0.07822
#
# Static dielectric constant tensor:
#      x y z
#    x 2.040150 0.000000 -0.131190 
#    y 0.000000 1.810590 0.000000 
#    z -0.131190 0.000000 1.988150 
# 
# From -- ./inp_files/5210.got.cif
#   From: 2010.05.17/outbox.cif.g08.bks.cpg/sg13_3_cif.got.tgz:5210.got - 2010.06.03 16:44:36.
