data_PCOD9226960
_publ_section_title
;
Structure prediction by ZEFSAII (Michael W. Deem and Ramdas Pophale) SiO2 
 PCOD9226960
Probable space group: P 2/C
;
_chemical_formula_sum "Si O2"
_cell_formula_units_Z 28
_cell_length_a 8.751949
_cell_length_b 16.439785
_cell_length_c 9.519447
_cell_angle_alpha 90.000000
_cell_angle_beta 58.227994
_cell_angle_gamma 90.000000
_cell_volume 1164.416148
_symmetry_space_group_name_H-M "P 2/C"
_symmetry_group_IT_number 13
_symmetry_cell_setting 'monoclinic'
loop_
_space_group_symop_operation_xyz
x,y,z
-x,y,1/2-z
-x,-y,-z
x,-y,1/2+z
loop_
_atom_site_type_symbol
_atom_site_label
_atom_site_fract_x
_atom_site_fract_y
_atom_site_fract_z
Si Si1 0.711665 0.914003 0.496029
Si Si2 0.637666 0.333787 0.356601
Si Si3 0.279416 0.068576 0.183380
Si Si4 0.769260 0.601312 0.404578
Si Si5 0.711686 0.500696 0.178609
Si Si6 0.856034 0.754214 0.509361
Si Si7 0.846686 0.226633 0.424608
O O1 0.772692 0.929824 0.627727
O O2 0.495554 0.919743 0.585973
O O3 0.776301 0.822257 0.445254
O O4 0.775536 0.983554 0.359942
O O5 0.431409 0.362262 0.467209
O O6 0.729037 0.417300 0.261014
O O7 0.706152 0.267306 0.205357
O O8 0.688420 0.291094 0.479188
O O9 0.205703 0.140652 0.120055
O O10 0.780199 0.573537 0.240010
O O11 0.795405 0.521449 0.488902
O O12 0.885625 0.671553 0.414475
O O13 0.500000 0.514221 0.250000
O O14 0.044786 0.782277 0.484938
O O15 0.000000 0.264785 0.250000
#
# Coordination Sequence:
#
# PCOD9226960 Si02
#       7
#     4   4   4   4   4   4   4
#     4  10  20  35  58  81 110 135 181 223 271 314
#     4   9  16  28  51  77 101 130 177 222 255 302
#     4  10  20  34  56  83 109 138 174 229 267 313
#     4  10  19  32  57  82 104 140 177 230 269 314
#     4   9  17  30  52  83 107 131 177 225 272 313
#     4  10  19  31  52  78 105 141 183 215 253 321
#     4  10  18  32  51  83 106 139 185 222 253 318
#
# _framework density 24.046385999999998
#
# number of rings (size 3 to 8) (size 9 to 14) (size 15 to 20)
#    0.000    2.286    2.857    3.857    2.000    0.571 
#    0.000    0.714   12.571    6.857    0.000    0.000 
#    0.000    0.000    0.000    0.000    0.000    0.000 
#
# Total GULP energy -156283.791770 kJ/mol
# GULP energy per Si atom -5581.563992 kJ/mol
# Density = 2.399166 g / cm^3
# Si number density = 24.046386 Si / 1000 Ang^3
#
#
#
# Elastic Constant Matrix: (Units=GPa)
#
#
# Indices 1 2 3 4 5 6 
#
# 1 106.5447 68.9142 39.8625 0.0000 23.7345 0.0000
# 2 68.9142 118.8236 27.2720 0.0000 27.6725 0.0000
# 3 39.8625 27.2720 52.4591 0.0000 7.5195 0.0000
# 4 0.0000 0.0000 0.0000 23.9167 0.0000 24.0518
# 5 23.7345 27.6725 7.5195 0.0000 30.1072 0.0000
# 6 0.0000 0.0000 0.0000 24.0518 0.0000 41.1749
#
#
#
# Elastic Compliance Matrix: (Units=1/GPa)
#
#
# Indices 1 2 3 4 5 6 
#
# 1 0.019252 -0.007557 -0.009874 0.000000 -0.005765 0.000000
# 2 -0.007557 0.014704 -0.000849 0.000000 -0.007346 0.000000
# 3 -0.009874 -0.000849 0.026737 0.000000 0.001887 0.000000
# 4 0.000000 0.000000 0.000000 0.101346 0.000000 -0.059200
# 5 -0.005765 -0.007346 0.001887 0.000000 0.044040 0.000000
# 6 0.000000 0.000000 0.000000 -0.059200 0.000000 0.058868
#
#
# Mechanical properties :
#
#
# Convention : Reuss Voigt Hill
#
# Bulk Modulus (GPa) = 41.43769 61.10274 51.27021
# Shear Modulus (GPa) = 16.15236 28.49167 22.32202
#
# Velocity S-wave (km/s) = 2.59456 3.44592 3.05009
# Velocity P-wave (km/s) = 5.12303 6.42635 5.81135
#
# Compressibility (1/GPa) = 0.02413262
#
# Stress axis : x y z
#
# Youngs Moduli (GPa) = 51.94210 68.00809 37.40163
#
# Poissons Ratio (x) = 0.51392 0.36932
# Poissons Ratio (y) = 0.39251 0.03176
# Poissons Ratio (z) = 0.51290 0.05775
#
# Static dielectric constant tensor:
#      x y z
#    x 2.041890 0.000000 -0.019860 
#    y 0.000000 1.894830 0.000000 
#    z -0.019860 0.000000 1.986630 
# 
# From -- ./inp_files/30081.got.cif
#   From: 2010.05.17/outbox.cif.g08.bks.cpg/sg13_16_cif.got.tgz:30081.got - 2010.06.03 16:44:36.
