data_PCOD9226814
_publ_section_title
;
Structure prediction by ZEFSAII (Michael W. Deem and Ramdas Pophale) SiO2 
 PCOD9226814
Probable space group: P 2/C
;
_chemical_formula_sum "Si O2"
_cell_formula_units_Z 32
_cell_length_a 10.468855
_cell_length_b 10.453435
_cell_length_c 23.509704
_cell_angle_alpha 90.000000
_cell_angle_beta 50.090555
_cell_angle_gamma 90.000000
_cell_volume 1973.487435
_symmetry_space_group_name_H-M "P 2/C"
_symmetry_group_IT_number 13
_symmetry_cell_setting 'monoclinic'
loop_
_space_group_symop_operation_xyz
x,y,z
-x,y,1/2-z
-x,-y,-z
x,-y,1/2+z
loop_
_atom_site_type_symbol
_atom_site_label
_atom_site_fract_x
_atom_site_fract_y
_atom_site_fract_z
Si Si1 0.223578 0.623524 0.453917
Si Si2 0.924251 0.215612 0.209447
Si Si3 0.215254 0.128133 0.460346
Si Si4 0.462957 0.478268 0.694261
Si Si5 0.925148 0.520300 0.209546
Si Si6 0.935144 0.623751 0.443566
Si Si7 0.075564 0.128792 0.050730
Si Si8 0.465790 0.216856 0.193114
O O1 0.410765 0.602294 0.379943
O O2 0.164452 0.499199 0.505324
O O3 0.185431 0.749159 0.501187
O O4 0.105083 0.629544 0.432050
O O5 0.017129 0.141326 0.132373
O O6 0.000000 0.191324 0.250000
O O7 0.942668 0.368097 0.191487
O O8 0.726730 0.188230 0.264950
O O9 0.167250 0.249446 0.512734
O O10 0.401300 0.142472 0.383318
O O11 0.090142 0.133240 0.441671
O O12 0.173376 0.999307 0.506154
O O13 0.500000 0.453590 0.750000
O O14 0.271088 0.451754 0.736137
O O15 0.493853 0.630423 0.676112
O O16 0.000000 0.543161 0.250000
O O17 0.017580 0.600591 0.134883
O O18 0.500000 0.191416 0.250000
#
# Coordination Sequence:
#
# PCOD9226814 Si02
#       8
#     4   4   4   4   4   4   4   4
#     4  10  18  30  54  80 105 134 173 223 263 307
#     4  10  20  35  55  79 108 143 177 215 267 323
#     4  10  20  34  54  83 108 140 178 223 265 310
#     4  10  18  30  52  83 106 134 182 221 262 311
#     4  10  20  34  52  80 113 141 173 220 271 318
#     4  10  18  31  53  79 106 135 175 216 269 306
#     4  10  20  35  53  80 114 139 176 219 269 315
#     4  10  18  31  55  80 106 134 181 222 257 314
#
# _framework density 16.214950000000002
#
# number of rings (size 3 to 8) (size 9 to 14) (size 15 to 20)
#    0.000    2.000    5.000    0.000    0.000    0.000 
#    0.000    5.000    0.000    0.000    0.000    0.000 
#    0.000    0.000    0.000    0.000    0.000    0.000 
#
# Total GULP energy -178508.619306 kJ/mol
# GULP energy per Si atom -5578.394353 kJ/mol
# Density = 1.617804 g / cm^3
# Si number density = 16.214950 Si / 1000 Ang^3
#
#
#
# Elastic Constant Matrix: (Units=GPa)
#
#
# Indices 1 2 3 4 5 6 
#
# 1 93.7593 36.0513 66.9893 0.0000 -5.0961 0.0000
# 2 36.0513 93.6669 67.6192 0.0000 1.9520 0.0000
# 3 66.9893 67.6192 155.5791 0.0000 -1.9197 0.0000
# 4 0.0000 0.0000 0.0000 25.0306 0.0000 -1.4438
# 5 -5.0961 1.9520 -1.9197 0.0000 16.7570 0.0000
# 6 0.0000 0.0000 0.0000 -1.4438 0.0000 10.2280
#
#
#
# Elastic Compliance Matrix: (Units=1/GPa)
#
#
# Indices 1 2 3 4 5 6 
#
# 1 0.015896 -0.001905 -0.005963 0.000000 0.004373 0.000000
# 2 -0.001905 0.015899 -0.006129 0.000000 -0.003133 0.000000
# 3 -0.005963 -0.006129 0.011662 0.000000 0.000236 0.000000
# 4 0.000000 0.000000 0.000000 0.040279 0.000000 0.005686
# 5 0.004373 -0.003133 0.000236 0.000000 0.061399 0.000000
# 6 0.000000 0.000000 0.000000 0.005686 0.000000 0.098573
#
#
# Mechanical properties :
#
#
# Convention : Reuss Voigt Hill
#
# Bulk Modulus (GPa) = 64.66509 76.03612 70.35061
# Shear Modulus (GPa) = 18.06006 21.89282 19.97644
#
# Velocity S-wave (km/s) = 3.34097 3.67844 3.51376
# Velocity P-wave (km/s) = 7.40603 8.06447 7.74225
#
# Compressibility (1/GPa) = 0.01546429
#
# Stress axis : x y z
#
# Youngs Moduli (GPa) = 62.90928 62.89756 85.75169
#
# Poissons Ratio (x) = 0.11981 0.51131
# Poissons Ratio (y) = 0.11983 0.52554
# Poissons Ratio (z) = 0.37510 0.38547
#
# Static dielectric constant tensor:
#      x y z
#    x 1.528000 0.000000 -0.002370 
#    y 0.000000 1.533680 0.000000 
#    z -0.002370 0.000000 1.524530 
# 
# From -- ./inp_files/69856.got.cif
#   From: 2010.05.17/outbox.cif.g08.bks.cpg/sg13_35_cif.got.tgz:69856.got - 2010.06.03 16:44:36.
