data_PCOD9226873
_publ_section_title
;
Structure prediction by ZEFSAII (Michael W. Deem and Ramdas Pophale) SiO2 
 PCOD9226873
Probable space group: P 2/C
;
_chemical_formula_sum "Si O2"
_cell_formula_units_Z 24
_cell_length_a 19.153621
_cell_length_b 10.305698
_cell_length_c 15.169224
_cell_angle_alpha 90.000000
_cell_angle_beta 21.266392
_cell_angle_gamma 90.000000
_cell_volume 1086.037466
_symmetry_space_group_name_H-M "P 2/C"
_symmetry_group_IT_number 13
_symmetry_cell_setting 'monoclinic'
loop_
_space_group_symop_operation_xyz
x,y,z
-x,y,1/2-z
-x,-y,-z
x,-y,1/2+z
loop_
_atom_site_type_symbol
_atom_site_label
_atom_site_fract_x
_atom_site_fract_y
_atom_site_fract_z
Si Si1 0.596685 0.904351 0.315038
Si Si2 0.773540 0.396044 0.190757
Si Si3 0.368732 0.660580 0.102270
Si Si4 0.660162 0.252591 0.502245
Si Si5 0.097885 0.809173 0.315854
Si Si6 0.018373 0.081122 0.350356
O O1 0.625167 0.765363 0.327513
O O2 0.448130 0.873771 0.412322
O O3 0.500000 0.000000 0.500000
O O4 0.815608 0.944979 0.041273
O O5 0.788099 0.550075 0.189388
O O6 0.588478 0.387727 0.343603
O O7 0.720135 0.342285 0.350908
O O8 0.944052 0.298179 0.963484
O O9 0.295203 0.734804 0.102979
O O10 0.500000 0.319777 0.750000
O O11 0.838951 0.195832 0.346462
O O12 0.028976 0.866230 0.493423
O O13 0.113584 0.939611 0.242053
#
# Coordination Sequence:
#
# PCOD9226873 Si02
#       6
#     4   4   4   4   4   4
#     4  10  18  31  52  76  98 122 158 207 250 286
#     4   9  17  28  43  67  96 123 157 198 240 286
#     4   9  16  26  44  69  94 120 151 192 242 287
#     4  10  20  32  47  69  98 131 163 197 241 294
#     4   9  15  26  45  69  93 117 154 205 247 279
#     4   9  17  28  45  69  95 124 159 199 246 290
#
# _framework density 22.098686000000001
#
# number of rings (size 3 to 8) (size 9 to 14) (size 15 to 20)
#    0.000    2.667    0.000    5.500    0.000    0.667 
#    0.000    0.000    0.000    4.000    0.000    4.667 
#    0.000    0.000    0.000    0.000    0.000    0.000 
#
# Total GULP energy -133661.414360 kJ/mol
# GULP energy per Si atom -5569.225598 kJ/mol
# Density = 2.204839 g / cm^3
# Si number density = 22.098686 Si / 1000 Ang^3
#
#
#
# Elastic Constant Matrix: (Units=GPa)
#
#
# Indices 1 2 3 4 5 6 
#
# 1 31.6857 20.2953 14.0150 0.0000 -12.7176 0.0000
# 2 20.2953 103.1044 14.0006 0.0000 -14.5237 0.0000
# 3 14.0150 14.0006 59.8108 0.0000 -20.0518 0.0000
# 4 0.0000 0.0000 0.0000 24.1647 0.0000 -14.3988
# 5 -12.7176 -14.5237 -20.0518 0.0000 29.1769 0.0000
# 6 0.0000 0.0000 0.0000 -14.3988 0.0000 22.8591
#
#
#
# Elastic Compliance Matrix: (Units=1/GPa)
#
#
# Indices 1 2 3 4 5 6 
#
# 1 0.042321 -0.005983 -0.004327 0.000000 0.012495 0.000000
# 2 -0.005983 0.011314 -0.000302 0.000000 0.002816 0.000000
# 3 -0.004327 -0.000302 0.022247 0.000000 0.013253 0.000000
# 4 0.000000 0.000000 0.000000 0.066247 0.000000 0.041728
# 5 0.012495 0.002816 0.013253 0.000000 0.050230 0.000000
# 6 0.000000 0.000000 0.000000 0.041728 0.000000 0.070031
#
#
# Mechanical properties :
#
#
# Convention : Reuss Voigt Hill
#
# Bulk Modulus (GPa) = 18.29575 32.35809 25.32692
# Shear Modulus (GPa) = 16.56537 24.99281 20.77909
#
# Velocity S-wave (km/s) = 2.74087 3.36663 3.06974
# Velocity P-wave (km/s) = 4.27944 5.45771 4.90409
#
# Compressibility (1/GPa) = 0.05465749
#
# Stress axis : x y z
#
# Youngs Moduli (GPa) = 23.62883 88.38295 44.94953
#
# Poissons Ratio (x) = 0.52879 0.19451
# Poissons Ratio (y) = 0.14137 0.01359
# Poissons Ratio (z) = 0.10225 0.02672
#
# Static dielectric constant tensor:
#      x y z
#    x 1.878490 0.000000 -0.033080 
#    y 0.000000 1.846120 0.000000 
#    z -0.033080 0.000000 1.991220 
# 
# From -- ./inp_files/82048.got.cif
#   From: 2010.05.17/outbox.cif.g08.bks.cpg/sg13_42_cif.got.tgz:82048.got - 2010.06.03 16:44:36.
