data_PCOD9226673
_publ_section_title
;
Structure prediction by ZEFSAII (Michael W. Deem and Ramdas Pophale) SiO2 
 PCOD9226673
Probable space group: P 2/C
;
_chemical_formula_sum "Si O2"
_cell_formula_units_Z 20
_cell_length_a 7.049205
_cell_length_b 11.416884
_cell_length_c 14.622884
_cell_angle_alpha 90.000000
_cell_angle_beta 121.225664
_cell_angle_gamma 90.000000
_cell_volume 1006.361452
_symmetry_space_group_name_H-M "P 2/C"
_symmetry_group_IT_number 13
_symmetry_cell_setting 'monoclinic'
loop_
_space_group_symop_operation_xyz
x,y,z
-x,y,1/2-z
-x,-y,-z
x,-y,1/2+z
loop_
_atom_site_type_symbol
_atom_site_label
_atom_site_fract_x
_atom_site_fract_y
_atom_site_fract_z
Si Si1 0.476231 0.469591 0.599851
Si Si2 0.608576 0.728539 0.867526
Si Si3 0.498925 0.134779 0.973234
Si Si4 0.116532 0.728960 0.032497
Si Si5 0.285594 0.255478 0.761020
O O1 0.500000 0.500000 0.500000
O O2 0.467572 0.593918 0.645554
O O3 0.670925 0.384424 0.685606
O O4 0.252067 0.393263 0.557433
O O5 0.500000 0.783391 0.750000
O O6 0.536422 0.791585 0.943116
O O7 0.874417 0.728533 0.929802
O O8 0.310344 0.166578 0.850777
O O9 0.726000 0.178203 0.980684
O O10 0.500000 0.000000 0.000000
O O11 0.097093 0.750863 0.137368
O O12 0.500000 0.234358 0.750000
#
# Coordination Sequence:
#
# PCOD9226673 Si02
#       5
#     4   4   4   4   4
#     4  10  17  38  62  89 123 152 192 248 298 358
#     4  12  24  38  60  89 124 161 195 243 303 352
#     4  10  22  42  62  86 119 152 201 254 289 352
#     4  10  22  40  62  88 120 160 198 241 300 356
#     4   8  17  37  63  83 117 149 196 243 292 353
#
# _framework density 19.873574999999999
#
# number of rings (size 3 to 8) (size 9 to 14) (size 15 to 20)
#    0.000    2.400    4.000    2.400    0.000    4.800 
#    0.000    4.000    0.000    0.000    0.000    0.000 
#    0.000    0.000    0.000    0.000    0.000    0.000 
#
# Total GULP energy -111516.588723 kJ/mol
# GULP energy per Si atom -5575.829436 kJ/mol
# Density = 1.982834 g / cm^3
# Si number density = 19.873575 Si / 1000 Ang^3
#
#
#
# Elastic Constant Matrix: (Units=GPa)
#
#
# Indices 1 2 3 4 5 6 
#
# 1 32.3558 11.9573 33.0980 0.0000 -13.9910 0.0000
# 2 11.9573 131.9316 42.0807 0.0000 -24.3052 0.0000
# 3 33.0980 42.0807 179.3355 0.0000 -17.5318 0.0000
# 4 0.0000 0.0000 0.0000 11.2877 0.0000 -1.8882
# 5 -13.9910 -24.3052 -17.5318 0.0000 24.8062 0.0000
# 6 0.0000 0.0000 0.0000 -1.8882 0.0000 -2.7250
#
#
#
# Elastic Compliance Matrix: (Units=1/GPa)
#
#
# Indices 1 2 3 4 5 6 
#
# 1 0.047670 0.002380 -0.006983 0.000000 0.024284 0.000000
# 2 0.002380 0.009697 -0.001777 0.000000 0.009588 0.000000
# 3 -0.006983 -0.001777 0.007226 0.000000 -0.000573 0.000000
# 4 0.000000 0.000000 0.000000 0.079390 0.000000 -0.055010
# 5 0.024284 0.009588 -0.000573 0.000000 0.062998 0.000000
# 6 0.000000 0.000000 0.000000 -0.055010 0.000000 -0.328855
#
#
# Mechanical properties :
#
#
# Convention : Reuss Voigt Hill
#
# Bulk Modulus (GPa) = 19.29246 57.54390 38.41818
# Shear Modulus (GPa) = -54.44410 23.77291 -15.33559
#
# Velocity S-wave (km/s) = -5.23972 3.46237 -2.78089
# Velocity P-wave (km/s) = 5.18436 6.70835 3.01034
#
# Compressibility (1/GPa) = 0.05183373
#
# Stress axis : x y z
#
# Youngs Moduli (GPa) = 20.97761 103.12290 138.39100
#
# Poissons Ratio (x) = -0.24547 0.96632
# Poissons Ratio (y) = -0.04993 0.24598
# Poissons Ratio (z) = 0.14648 0.18330
#
# Static dielectric constant tensor:
#      x y z
#    x 1.831120 0.000000 -0.038580 
#    y 0.000000 1.681820 0.000000 
#    z -0.038580 0.000000 1.803180 
# 
# From -- ./inp_files/43674.got.cif
#   From: 2010.05.17/outbox.cif.g08.bks.cpg/sg13_22_cif.got.tgz:43674.got - 2010.06.03 16:44:36.
