data_PCOD9226195
_publ_section_title
;
Structure prediction by ZEFSAII (Michael W. Deem and Ramdas Pophale) SiO2 
 PCOD9226195
Probable space group: P 2/C
;
_chemical_formula_sum "Si O2"
_cell_formula_units_Z 20
_cell_length_a 10.201120
_cell_length_b 18.918297
_cell_length_c 5.314571
_cell_angle_alpha 90.000000
_cell_angle_beta 75.169032
_cell_angle_gamma 90.000000
_cell_volume 991.478200
_symmetry_space_group_name_H-M "P 2/C"
_symmetry_group_IT_number 13
_symmetry_cell_setting 'monoclinic'
loop_
_space_group_symop_operation_xyz
x,y,z
-x,y,1/2-z
-x,-y,-z
x,-y,1/2+z
loop_
_atom_site_type_symbol
_atom_site_label
_atom_site_fract_x
_atom_site_fract_y
_atom_site_fract_z
Si Si1 0.853210 0.293081 0.774400
Si Si2 0.346066 0.031052 0.570881
Si Si3 0.590093 0.803556 0.457125
Si Si4 0.143725 0.385121 0.228122
Si Si5 0.557786 0.420940 0.471444
O O1 0.722610 0.245127 0.878940
O O2 0.853023 0.324791 0.491821
O O3 0.000000 0.257250 0.750000
O O4 0.850341 0.353821 0.992727
O O5 0.360742 0.114898 0.556349
O O6 0.500000 0.000000 0.500000
O O7 0.279886 0.998240 0.356199
O O8 0.500000 0.795031 0.250000
O O9 0.500000 0.790161 0.750000
O O10 0.281394 0.426870 0.114595
O O11 0.000000 0.422924 0.250000
O O12 0.500000 0.384779 0.250000
O O13 0.500000 0.500000 0.500000
O O14 0.500000 0.384946 0.750000
#
# Coordination Sequence:
#
# PCOD9226195 Si02
#       5
#     4   4   4   4   4
#     4  10  23  39  55  80 116 151 185 228 279 329
#     4  10  16  30  48  73 105 141 174 229 275 320
#     4  12  21  32  55  86 106 140 192 237 276 323
#     4  10  21  40  60  78 110 158 189 214 271 346
#     4  10  21  37  58  87 117 144 178 233 283 308
#
# _framework density 20.171901999999999
#
# number of rings (size 3 to 8) (size 9 to 14) (size 15 to 20)
#    0.000    1.600    4.000    2.400    0.000    4.800 
#    0.000    4.000    0.000    1.200    0.000    0.000 
#    0.000    0.000    0.000    0.000    0.000    0.000 
#
# Total GULP energy -111639.003846 kJ/mol
# GULP energy per Si atom -5581.950192 kJ/mol
# Density = 2.012599 g / cm^3
# Si number density = 20.171902 Si / 1000 Ang^3
#
#
#
# Elastic Constant Matrix: (Units=GPa)
#
#
# Indices 1 2 3 4 5 6 
#
# 1 134.1670 28.0645 42.1184 0.0000 -24.7694 0.0000
# 2 28.0645 37.2639 -1.0841 0.0000 -5.7617 0.0000
# 3 42.1184 -1.0841 158.0442 0.0000 23.1168 0.0000
# 4 0.0000 0.0000 0.0000 -3.0031 0.0000 3.4917
# 5 -24.7694 -5.7617 23.1168 0.0000 40.0395 0.0000
# 6 0.0000 0.0000 0.0000 3.4917 0.0000 -0.6771
#
#
#
# Elastic Compliance Matrix: (Units=1/GPa)
#
#
# Indices 1 2 3 4 5 6 
#
# 1 0.012268 -0.007963 -0.004660 0.000000 0.009134 0.000000
# 2 -0.007963 0.032641 0.002599 0.000000 -0.001730 0.000000
# 3 -0.004660 0.002599 0.008688 0.000000 -0.007525 0.000000
# 4 0.000000 0.000000 0.000000 0.066647 0.000000 0.343713
# 5 0.009134 -0.001730 -0.007525 0.000000 0.034721 0.000000
# 6 0.000000 0.000000 0.000000 0.343713 0.000000 0.295612
#
#
# Mechanical properties :
#
#
# Convention : Reuss Voigt Hill
#
# Bulk Modulus (GPa) = 29.80731 51.96363 40.88547
# Shear Modulus (GPa) = 10.37756 24.63029 17.50393
#
# Velocity S-wave (km/s) = 2.27062 3.49810 2.94894
# Velocity P-wave (km/s) = 4.65650 6.49091 5.64867
#
# Compressibility (1/GPa) = 0.03354882
#
# Stress axis : x y z
#
# Youngs Moduli (GPa) = 81.51101 30.63643 115.10515
#
# Poissons Ratio (x) = 0.24395 0.53640
# Poissons Ratio (y) = 0.64906 -0.29915
# Poissons Ratio (z) = 0.37985 -0.07962
#
# Static dielectric constant tensor:
#      x y z
#    x 1.699730 0.000000 0.002390 
#    y 0.000000 1.478620 0.000000 
#    z 0.002390 0.000000 1.708840 
# 
# From -- ./inp_files/2035.got.cif
#   From: 2010.05.17/outbox.cif.g08.bks.cpg/sg13_2_cif.got.tgz:2035.got - 2010.06.03 16:44:36.
