data_PCOD9226658
_publ_section_title
;
Structure prediction by ZEFSAII (Michael W. Deem and Ramdas Pophale) SiO2 
 PCOD9226658
Probable space group: P 2/C
;
_chemical_formula_sum "Si O2"
_cell_formula_units_Z 30
_cell_length_a 17.630672
_cell_length_b 10.066750
_cell_length_c 19.009226
_cell_angle_alpha 90.000000
_cell_angle_beta 150.230220
_cell_angle_gamma 90.000000
_cell_volume 1675.158886
_symmetry_space_group_name_H-M "P 2/C"
_symmetry_group_IT_number 13
_symmetry_cell_setting 'monoclinic'
loop_
_space_group_symop_operation_xyz
x,y,z
-x,y,1/2-z
-x,-y,-z
x,-y,1/2+z
loop_
_atom_site_type_symbol
_atom_site_label
_atom_site_fract_x
_atom_site_fract_y
_atom_site_fract_z
Si Si1 0.705173 0.216955 0.068810
Si Si2 0.944711 0.441496 0.282454
Si Si3 0.500000 0.513075 0.750000
Si Si4 0.734028 0.588658 0.199395
Si Si5 0.545001 0.367801 0.131477
Si Si6 0.358644 0.918807 0.850888
Si Si7 0.342149 0.820667 0.264785
Si Si8 0.245605 0.714031 0.040156
O O1 0.789335 0.355764 0.150405
O O2 0.745260 0.121317 0.165944
O O3 0.521211 0.218429 0.920807
O O4 0.752232 0.191633 0.026547
O O5 0.897625 0.552671 0.299052
O O6 0.000000 0.487915 0.250000
O O7 0.077551 0.344535 0.415132
O O8 0.471786 0.597397 0.799033
O O9 0.641735 0.412865 0.879061
O O10 0.664374 0.472561 0.193082
O O11 0.743706 0.720707 0.252933
O O12 0.613426 0.610190 0.038561
O O13 0.595297 0.217625 0.151375
O O14 0.301387 0.028963 0.751015
O O15 0.500000 0.000000 0.000000
O O16 0.304839 0.789936 0.155050
#
# Coordination Sequence:
#
# PCOD9226658 Si02
#       8
#     4   4   2   4   4   4   4   4
#     4  10  17  37  59  79 114 152 199 234 276 355
#     4  10  21  33  57  87 114 151 198 239 297 347
#     4  12  22  36  56  90 122 140 192 250 296 336
#     4  11  18  35  61  82 110 156 194 235 286 346
#     4  11  20  35  60  86 116 151 194 241 286 338
#     4  10  20  36  57  88 109 153 207 227 277 355
#     4  11  20  36  60  90 115 152 198 240 288 346
#     4  11  21  36  57  90 120 150 190 252 300 338
#
# _framework density 17.908749
#
# number of rings (size 3 to 8) (size 9 to 14) (size 15 to 20)
#    0.000    1.333    6.667    2.400    0.000    0.533 
#    4.800    0.667    0.000    2.400    0.000    0.000 
#    0.000    0.000    0.000    0.000    0.000    0.000 
#
# Total GULP energy -167160.558617 kJ/mol
# GULP energy per Si atom -5572.018621 kJ/mol
# Density = 1.786799 g / cm^3
# Si number density = 17.908749 Si / 1000 Ang^3
#
#
#
# Elastic Constant Matrix: (Units=GPa)
#
#
# Indices 1 2 3 4 5 6 
#
# 1 107.8477 73.3108 36.5731 0.0000 -2.9922 0.0000
# 2 73.3108 126.6031 26.4949 0.0000 -5.3780 0.0000
# 3 36.5731 26.4949 31.4150 0.0000 -6.7951 0.0000
# 4 0.0000 0.0000 0.0000 14.9152 0.0000 -4.1712
# 5 -2.9922 -5.3780 -6.7951 0.0000 23.2535 0.0000
# 6 0.0000 0.0000 0.0000 -4.1712 0.0000 23.8534
#
#
#
# Elastic Compliance Matrix: (Units=1/GPa)
#
#
# Indices 1 2 3 4 5 6 
#
# 1 0.021310 -0.008664 -0.018512 0.000000 -0.004671 0.000000
# 2 -0.008664 0.013115 -0.000597 0.000000 0.001744 0.000000
# 3 -0.018512 -0.000597 0.056941 0.000000 0.014119 0.000000
# 4 0.000000 0.000000 0.000000 0.070493 0.000000 0.012327
# 5 -0.004671 0.001744 0.014119 0.000000 0.046932 0.000000
# 6 0.000000 0.000000 0.000000 0.012327 0.000000 0.044078
#
#
# Mechanical properties :
#
#
# Convention : Reuss Voigt Hill
#
# Bulk Modulus (GPa) = 27.91777 59.84705 43.88241
# Shear Modulus (GPa) = 15.60760 21.03688 18.32224
#
# Velocity S-wave (km/s) = 2.95533 3.43106 3.20205
# Velocity P-wave (km/s) = 5.22188 7.01332 6.18282
#
# Compressibility (1/GPa) = 0.03581949
#
# Stress axis : x y z
#
# Youngs Moduli (GPa) = 46.92595 76.25012 17.56194
#
# Poissons Ratio (x) = 0.66064 0.32511
# Poissons Ratio (y) = 0.40657 0.01048
# Poissons Ratio (z) = 0.86871 0.04551
#
# Static dielectric constant tensor:
#      x y z
#    x 1.652470 0.000000 -0.018910 
#    y 0.000000 1.623210 0.000000 
#    z -0.018910 0.000000 1.642100 
# 
# From -- ./inp_files/80941.got.cif
#   From: 2010.05.17/outbox.cif.g08.bks.cpg/sg13_41_cif.got.tgz:80941.got - 2010.06.03 16:44:36.
