data_PCOD9226964
_publ_section_title
;
Structure prediction by ZEFSAII (Michael W. Deem and Ramdas Pophale) SiO2 
 PCOD9226964
Probable space group: P 2/C
;
_chemical_formula_sum "Si O2"
_cell_formula_units_Z 24
_cell_length_a 27.202076
_cell_length_b 12.017697
_cell_length_c 10.087271
_cell_angle_alpha 90.000000
_cell_angle_beta 26.362880
_cell_angle_gamma 90.000000
_cell_volume 1464.311732
_symmetry_space_group_name_H-M "P 2/C"
_symmetry_group_IT_number 13
_symmetry_cell_setting 'monoclinic'
loop_
_space_group_symop_operation_xyz
x,y,z
-x,y,1/2-z
-x,-y,-z
x,-y,1/2+z
loop_
_atom_site_type_symbol
_atom_site_label
_atom_site_fract_x
_atom_site_fract_y
_atom_site_fract_z
Si Si1 0.440481 0.924507 0.032285
Si Si2 0.695317 0.274594 0.546893
Si Si3 0.420687 0.481318 0.566176
Si Si4 0.129259 0.910297 0.924797
Si Si5 0.369883 0.280648 0.091548
Si Si6 0.770676 0.930095 0.520586
O O1 0.407098 0.807949 0.176221
O O2 0.329704 0.985086 0.253559
O O3 0.500000 0.906871 0.750000
O O4 0.500000 0.000000 0.000000
O O5 0.670471 0.385656 0.689557
O O6 0.804006 0.196292 0.297344
O O7 0.684005 0.303755 0.420671
O O8 0.500000 0.500000 0.500000
O O9 0.370404 0.602894 0.664392
O O10 0.500000 0.453777 0.250000
O O11 0.180127 0.930497 0.949291
O O12 0.146445 0.019820 0.790328
O O13 0.000000 0.886047 0.250000
O O14 0.292583 0.187626 0.345920
O O15 0.500000 0.246462 0.750000
#
# Coordination Sequence:
#
# PCOD9226964 Si02
#       6
#     4   4   4   4   4   4
#     4  11  20  31  51  79 116 142 172 216 267 337
#     4  10  20  34  50  78 104 141 181 213 268 322
#     4  11  20  34  53  78 111 146 174 210 262 331
#     4  10  21  38  58  76 104 140 185 236 275 312
#     4  10  18  32  52  75 111 143 167 208 267 324
#     4  10  20  34  54  79 105 141 180 216 276 330
#
# _framework density 16.389952999999998
#
# number of rings (size 3 to 8) (size 9 to 14) (size 15 to 20)
#    0.000    1.667    3.333    5.500    0.000    0.000 
#    6.000    0.000    0.000    5.000    0.000    0.000 
#    0.000    0.000    0.000    0.000    0.000    0.000 
#
# Total GULP energy -133605.922190 kJ/mol
# GULP energy per Si atom -5566.913425 kJ/mol
# Density = 1.635265 g / cm^3
# Si number density = 16.389953 Si / 1000 Ang^3
#
#
#
# Elastic Constant Matrix: (Units=GPa)
#
#
# Indices 1 2 3 4 5 6 
#
# 1 75.3871 38.8851 28.6584 0.0000 9.8209 0.0000
# 2 38.8851 115.0820 47.9022 0.0000 16.6111 0.0000
# 3 28.6584 47.9022 91.0997 0.0000 7.3898 0.0000
# 4 0.0000 0.0000 0.0000 25.3808 0.0000 10.0055
# 5 9.8209 16.6111 7.3898 0.0000 16.3886 0.0000
# 6 0.0000 0.0000 0.0000 10.0055 0.0000 27.2044
#
#
#
# Elastic Compliance Matrix: (Units=1/GPa)
#
#
# Indices 1 2 3 4 5 6 
#
# 1 0.016994 -0.003793 -0.002945 0.000000 -0.005011 0.000000
# 2 -0.003793 0.013403 -0.005124 0.000000 -0.009002 0.000000
# 3 -0.002945 -0.005124 0.014566 0.000000 0.000391 0.000000
# 4 0.000000 0.000000 0.000000 0.046081 0.000000 -0.016948
# 5 -0.005011 -0.009002 0.000391 0.000000 0.072969 0.000000
# 6 0.000000 0.000000 0.000000 -0.016948 0.000000 0.042992
#
#
# Mechanical properties :
#
#
# Convention : Reuss Voigt Hill
#
# Bulk Modulus (GPa) = 47.08383 56.94002 52.01192
# Shear Modulus (GPa) = 21.02523 24.86965 22.94744
#
# Velocity S-wave (km/s) = 3.58552 3.89957 3.74584
# Velocity P-wave (km/s) = 6.77723 7.42238 7.10713
#
# Compressibility (1/GPa) = 0.02123872
#
# Stress axis : x y z
#
# Youngs Moduli (GPa) = 58.84571 74.60817 68.65168
#
# Poissons Ratio (x) = 0.28297 0.20218
# Poissons Ratio (y) = 0.22319 0.35180
# Poissons Ratio (z) = 0.17330 0.38232
#
# Static dielectric constant tensor:
#      x y z
#    x 1.586750 0.000000 0.064210 
#    y 0.000000 1.592080 0.000000 
#    z 0.064210 0.000000 1.572900 
# 
# From -- ./inp_files/18616.got.cif
#   From: 2010.05.17/outbox.cif.g08.bks.cpg/sg13_10_cif.got.tgz:18616.got - 2010.06.03 16:44:36.
