data_PCOD9226248
_publ_section_title
;
Structure prediction by ZEFSAII (Michael W. Deem and Ramdas Pophale) SiO2 
 PCOD9226248
Probable space group: P 2/C
;
_chemical_formula_sum "Si O2"
_cell_formula_units_Z 26
_cell_length_a 8.885953
_cell_length_b 11.870959
_cell_length_c 14.060500
_cell_angle_alpha 90.000000
_cell_angle_beta 70.784575
_cell_angle_gamma 90.000000
_cell_volume 1400.538204
_symmetry_space_group_name_H-M "P 2/C"
_symmetry_group_IT_number 13
_symmetry_cell_setting 'monoclinic'
loop_
_space_group_symop_operation_xyz
x,y,z
-x,y,1/2-z
-x,-y,-z
x,-y,1/2+z
loop_
_atom_site_type_symbol
_atom_site_label
_atom_site_fract_x
_atom_site_fract_y
_atom_site_fract_z
Si Si1 0.681111 0.965011 0.881705
Si Si2 0.344356 0.498886 0.172700
Si Si3 0.799674 0.306609 0.168468
Si Si4 0.500000 0.142033 0.250000
Si Si5 0.489700 0.184432 0.559099
Si Si6 0.339379 0.606164 0.978657
Si Si7 0.500000 0.690244 0.250000
Si Si8 0.000000 0.151549 0.250000
O O1 0.552273 0.932820 0.827642
O O2 0.851821 0.924961 0.810819
O O3 0.657367 0.096862 0.903752
O O4 0.628570 0.888796 0.981841
O O5 0.245677 0.401736 0.244659
O O6 0.525598 0.457363 0.112068
O O7 0.363409 0.606973 0.237179
O O8 0.283563 0.533856 0.080893
O O9 0.648624 0.222089 0.196670
O O10 0.800674 0.359325 0.063523
O O11 0.945848 0.233332 0.175498
O O12 0.433725 0.287806 0.504722
O O13 0.539968 0.233418 0.650648
#
# Coordination Sequence:
#
# PCOD9226248 Si02
#       8
#     4   4   4   2   4   4   2   2
#     4  10  20  37  56  88 111 152 192 250 284 348
#     4  10  18  29  55  87 114 141 189 239 292 327
#     4  11  17  35  52  83 107 154 184 237 272 355
#     4  10  16  30  58  74 108 140 196 234 284 322
#     4  10  20  33  60  84 116 144 204 237 293 331
#     4  10  17  30  54  84 109 146 187 243 279 340
#     4  10  18  32  56  96 114 144 184 260 278 330
#     4  10  24  36  60  80 126 150 196 230 300 338
#
# _framework density 18.564291999999998
#
# number of rings (size 3 to 8) (size 9 to 14) (size 15 to 20)
#    0.000    1.846    4.615    1.385    0.000    0.000 
#    0.000    1.538    0.000    1.846    0.000    0.000 
#    0.000    0.000    0.000    0.000    0.000    0.000 
#
# Total GULP energy -145005.541368 kJ/mol
# GULP energy per Si atom -5577.136206 kJ/mol
# Density = 1.852204 g / cm^3
# Si number density = 18.564292 Si / 1000 Ang^3
#
#
#
# Elastic Constant Matrix: (Units=GPa)
#
#
# Indices 1 2 3 4 5 6 
#
# 1 60.9083 21.7935 26.1184 0.0000 10.9040 0.0000
# 2 21.7935 78.8087 42.0096 0.0000 1.9707 0.0000
# 3 26.1184 42.0096 82.9757 0.0000 18.8640 0.0000
# 4 0.0000 0.0000 0.0000 28.1236 0.0000 -1.2249
# 5 10.9040 1.9707 18.8640 0.0000 22.9551 0.0000
# 6 0.0000 0.0000 0.0000 -1.2249 0.0000 -1.2486
#
#
#
# Elastic Compliance Matrix: (Units=1/GPa)
#
#
# Indices 1 2 3 4 5 6 
#
# 1 0.020281 -0.003942 -0.002797 0.000000 -0.006996 0.000000
# 2 -0.003942 0.019128 -0.010448 0.000000 0.008816 0.000000
# 3 -0.002797 -0.010448 0.021786 0.000000 -0.015677 0.000000
# 4 0.000000 0.000000 0.000000 0.034100 0.000000 -0.033454
# 5 -0.006996 0.008816 -0.015677 0.000000 0.059013 0.000000
# 6 0.000000 0.000000 0.000000 -0.033454 0.000000 -0.768107
#
#
# Mechanical properties :
#
#
# Convention : Reuss Voigt Hill
#
# Bulk Modulus (GPa) = 37.28531 44.72618 41.00574
# Shear Modulus (GPa) = -8.76447 18.81745 5.02649
#
# Velocity S-wave (km/s) = -2.17518 3.18722 1.64727
# Velocity P-wave (km/s) = 3.71746 6.13917 5.07488
#
# Compressibility (1/GPa) = 0.02682022
#
# Stress axis : x y z
#
# Youngs Moduli (GPa) = 49.30784 52.27982 45.90138
#
# Poissons Ratio (x) = 0.20610 0.12840
# Poissons Ratio (y) = 0.19439 0.47956
# Poissons Ratio (z) = 0.13793 0.54620
#
# Static dielectric constant tensor:
#      x y z
#    x 1.631830 0.000000 0.039860 
#    y 0.000000 1.671130 0.000000 
#    z 0.039860 0.000000 1.666480 
# 
# From -- ./inp_files/46575.got.cif
#   From: 2010.05.17/outbox.cif.g08.bks.cpg/sg13_24_cif.got.tgz:46575.got - 2010.06.03 16:44:36.
