data_PCOD9226490
_publ_section_title
;
Structure prediction by ZEFSAII (Michael W. Deem and Ramdas Pophale) SiO2 
 PCOD9226490
Probable space group: P 2/C
;
_chemical_formula_sum "Si O2"
_cell_formula_units_Z 28
_cell_length_a 18.829159
_cell_length_b 7.773018
_cell_length_c 8.542202
_cell_angle_alpha 90.000000
_cell_angle_beta 117.398251
_cell_angle_gamma 90.000000
_cell_volume 1109.992314
_symmetry_space_group_name_H-M "P 2/C"
_symmetry_group_IT_number 13
_symmetry_cell_setting 'monoclinic'
loop_
_space_group_symop_operation_xyz
x,y,z
-x,y,1/2-z
-x,-y,-z
x,-y,1/2+z
loop_
_atom_site_type_symbol
_atom_site_label
_atom_site_fract_x
_atom_site_fract_y
_atom_site_fract_z
Si Si1 0.144859 0.040137 0.627705
Si Si2 0.085814 0.758846 0.373396
Si Si3 0.606031 0.273403 0.584633
Si Si4 0.402095 0.617563 0.771834
Si Si5 0.735498 0.757362 0.436344
Si Si6 0.574916 0.105805 0.943656
Si Si7 0.773116 0.315724 0.289090
O O1 0.075313 0.921305 0.482363
O O2 0.183114 0.851092 0.026378
O O3 0.212278 0.890925 0.723183
O O4 0.123339 0.157116 0.753961
O O5 0.148591 0.639042 0.531164
O O6 0.000000 0.680023 0.250000
O O7 0.575809 0.421208 0.672233
O O8 0.582880 0.342704 0.391543
O O9 0.586805 0.072797 0.546323
O O10 0.699881 0.286210 0.728839
O O11 0.307190 0.650175 0.699156
O O12 0.436243 0.748621 0.935349
O O13 0.656547 0.853834 0.429160
O O14 0.757744 0.623798 0.596104
O O15 0.500000 0.097100 0.750000
#
# Coordination Sequence:
#
# PCOD9226490 Si02
#       7
#     4   4   4   4   4   4   4
#     4  10  17  30  53  84 126 171 217 274 323 399
#     4  10  19  30  52  92 133 174 217 277 338 400
#     4  12  25  41  70  97 134 176 235 281 343 410
#     4  11  24  44  67 101 135 178 234 282 340 412
#     4  11  20  38  62  93 127 174 229 279 338 401
#     4  11  26  47  71  99 138 180 226 292 352 401
#     4   9  18  33  54  83 125 165 214 269 323 391
#
# _framework density 25.225397999999998
#
# number of rings (size 3 to 8) (size 9 to 14) (size 15 to 20)
#    0.857    0.571    1.429    6.429    0.000    2.857 
#    0.000    2.143    0.000    0.000    0.000   10.000 
#    0.000    0.000    0.000    0.000    0.000    0.000 
#
# Total GULP energy -156322.888486 kJ/mol
# GULP energy per Si atom -5582.960303 kJ/mol
# Density = 2.516798 g / cm^3
# Si number density = 25.225398 Si / 1000 Ang^3
#
#
#
# Elastic Constant Matrix: (Units=GPa)
#
#
# Indices 1 2 3 4 5 6 
#
# 1 86.7241 22.5779 45.5800 0.0000 1.5104 0.0000
# 2 22.5779 101.7550 26.9487 0.0000 -6.4380 0.0000
# 3 45.5800 26.9487 185.7806 0.0000 16.5460 0.0000
# 4 0.0000 0.0000 0.0000 32.3774 0.0000 -16.1283
# 5 1.5104 -6.4380 16.5460 0.0000 56.3643 0.0000
# 6 0.0000 0.0000 0.0000 -16.1283 0.0000 29.2368
#
#
#
# Elastic Compliance Matrix: (Units=1/GPa)
#
#
# Indices 1 2 3 4 5 6 
#
# 1 0.013715 -0.002213 -0.003069 0.000000 0.000281 0.000000
# 2 -0.002213 0.010728 -0.001158 0.000000 0.001625 0.000000
# 3 -0.003069 -0.001158 0.006477 0.000000 -0.001952 0.000000
# 4 0.000000 0.000000 0.000000 0.042589 0.000000 0.023494
# 5 0.000281 0.001625 -0.001952 0.000000 0.018493 0.000000
# 6 0.000000 0.000000 0.000000 0.023494 0.000000 0.047164
#
#
# Mechanical properties :
#
#
# Convention : Reuss Voigt Hill
#
# Bulk Modulus (GPa) = 55.42857 62.71920 59.07389
# Shear Modulus (GPa) = 31.63394 42.20591 36.91993
#
# Velocity S-wave (km/s) = 3.54510 4.09486 3.82985
# Velocity P-wave (km/s) = 6.22720 6.87565 6.55944
#
# Compressibility (1/GPa) = 0.01804124
#
# Stress axis : x y z
#
# Youngs Moduli (GPa) = 72.91335 93.21455 154.38274
#
# Poissons Ratio (x) = 0.20625 0.47379
# Poissons Ratio (y) = 0.16133 0.17877
# Poissons Ratio (z) = 0.22376 0.10794
#
# Static dielectric constant tensor:
#      x y z
#    x 2.020000 0.000000 -0.001020 
#    y 0.000000 2.031480 0.000000 
#    z -0.001020 0.000000 2.130590 
# 
# From -- ./inp_files/23263.got.cif
#   From: 2010.05.17/outbox.cif.g08.bks.cpg/sg13_12_cif.got.tgz:23263.got - 2010.06.03 16:44:36.
