data_PCOD9226225
_publ_section_title
;
Structure prediction by ZEFSAII (Michael W. Deem and Ramdas Pophale) SiO2 
 PCOD9226225
Probable space group: P 2/C
;
_chemical_formula_sum "Si O2"
_cell_formula_units_Z 20
_cell_length_a 6.995908
_cell_length_b 22.606657
_cell_length_c 5.493029
_cell_angle_alpha 90.000000
_cell_angle_beta 101.314675
_cell_angle_gamma 90.000000
_cell_volume 851.860470
_symmetry_space_group_name_H-M "P 2/C"
_symmetry_group_IT_number 13
_symmetry_cell_setting 'monoclinic'
loop_
_space_group_symop_operation_xyz
x,y,z
-x,y,1/2-z
-x,-y,-z
x,-y,1/2+z
loop_
_atom_site_type_symbol
_atom_site_label
_atom_site_fract_x
_atom_site_fract_y
_atom_site_fract_z
Si Si1 0.271366 0.216096 0.676779
Si Si2 0.778688 0.976042 0.934348
Si Si3 0.226504 0.524052 0.048064
Si Si4 0.877990 0.343354 0.970482
Si Si5 0.735540 0.161712 0.324996
O O1 0.500000 0.201692 0.750000
O O2 0.246432 0.284629 0.603892
O O3 0.191786 0.179031 0.426550
O O4 0.194652 0.201476 0.928802
O O5 0.777833 0.905994 0.899113
O O6 0.691302 0.005463 0.671009
O O7 0.000000 0.000000 0.000000
O O8 0.309411 0.506141 0.328824
O O9 0.230180 0.594485 0.021010
O O10 0.000000 0.500000 0.000000
O O11 0.000000 0.350799 0.750000
O O12 0.000000 0.334522 0.250000
O O13 0.500000 0.168449 0.250000
#
# Coordination Sequence:
#
# PCOD9226225 Si02
#       5
#     4   4   4   4   4
#     4  10  23  42  59  83 120 155 191 236 289 341
#     4  10  21  38  56  84 117 144 178 235 290 325
#     4  10  16  30  51  77 113 150 182 237 283 334
#     4  12  21  35  57  92 113 146 200 245 283 336
#     4  10  21  41  63  80 109 159 195 220 277 358
#
# _framework density 23.478020999999998
#
# number of rings (size 3 to 8) (size 9 to 14) (size 15 to 20)
#    0.000    1.600    4.000    2.400    0.000    0.800 
#   21.600    0.000    0.000    1.200    0.000    0.000 
#    0.000    0.000    0.000    0.000    0.000    0.000 
#
# Total GULP energy -111873.088309 kJ/mol
# GULP energy per Si atom -5593.654415 kJ/mol
# Density = 2.342458 g / cm^3
# Si number density = 23.478021 Si / 1000 Ang^3
#
#
#
# Elastic Constant Matrix: (Units=GPa)
#
#
# Indices 1 2 3 4 5 6 
#
# 1 57.5888 -20.3845 49.7296 0.0000 -8.6887 0.0000
# 2 -20.3845 148.3550 82.8877 0.0000 2.1820 0.0000
# 3 49.7296 82.8877 262.9450 0.0000 -13.1729 0.0000
# 4 0.0000 0.0000 0.0000 53.8203 0.0000 -6.1970
# 5 -8.6887 2.1820 -13.1729 0.0000 43.5102 0.0000
# 6 0.0000 0.0000 0.0000 -6.1970 0.0000 16.6971
#
#
#
# Elastic Compliance Matrix: (Units=1/GPa)
#
#
# Indices 1 2 3 4 5 6 
#
# 1 0.026951 0.007809 -0.007421 0.000000 0.002744 0.000000
# 2 0.007809 0.010508 -0.004810 0.000000 -0.000424 0.000000
# 3 -0.007421 -0.004810 0.006763 0.000000 0.000807 0.000000
# 4 0.000000 0.000000 0.000000 0.019410 0.000000 0.007204
# 5 0.002744 -0.000424 0.000807 0.000000 0.023797 0.000000
# 6 0.000000 0.000000 0.000000 0.007204 0.000000 0.062564
#
#
# Mechanical properties :
#
#
# Convention : Reuss Voigt Hill
#
# Bulk Modulus (GPa) = 28.26688 77.03936 52.65312
# Shear Modulus (GPa) = 29.30310 46.58257 37.94284
#
# Velocity S-wave (km/s) = 3.53669 4.45915 4.02444
# Velocity P-wave (km/s) = 5.36129 7.70692 6.63853
#
# Compressibility (1/GPa) = 0.03537710
#
# Stress axis : x y z
#
# Youngs Moduli (GPa) = 37.10401 95.17011 147.85313
#
# Poissons Ratio (x) = -0.74321 1.09728
# Poissons Ratio (y) = -0.28976 0.71124
# Poissons Ratio (z) = 0.27537 0.45781
#
# Static dielectric constant tensor:
#      x y z
#    x 1.930090 0.000000 -0.011890 
#    y 0.000000 1.811140 0.000000 
#    z -0.011890 0.000000 1.866130 
# 
# From -- ./inp_files/2037.got.cif
#   From: 2010.05.17/outbox.cif.g08.bks.cpg/sg13_2_cif.got.tgz:2037.got - 2010.06.03 16:44:36.
