data_PCOD9226904
_publ_section_title
;
Structure prediction by ZEFSAII (Michael W. Deem and Ramdas Pophale) SiO2 
 PCOD9226904
Probable space group: P 2/C
;
_chemical_formula_sum "Si O2"
_cell_formula_units_Z 32
_cell_length_a 11.661767
_cell_length_b 15.725472
_cell_length_c 14.387690
_cell_angle_alpha 90.000000
_cell_angle_beta 29.754304
_cell_angle_gamma 90.000000
_cell_volume 1309.445419
_symmetry_space_group_name_H-M "P 2/C"
_symmetry_group_IT_number 13
_symmetry_cell_setting 'monoclinic'
loop_
_space_group_symop_operation_xyz
x,y,z
-x,y,1/2-z
-x,-y,-z
x,-y,1/2+z
loop_
_atom_site_type_symbol
_atom_site_label
_atom_site_fract_x
_atom_site_fract_y
_atom_site_fract_z
Si Si1 0.702554 0.690980 0.337281
Si Si2 0.353714 0.173465 0.276675
Si Si3 0.751780 0.877898 0.387441
Si Si4 0.241179 0.253247 0.902424
Si Si5 0.789470 0.302644 0.277343
Si Si6 0.249153 0.535789 0.052554
Si Si7 0.108261 0.911052 0.396442
Si Si8 0.751956 0.542551 0.662951
O O1 0.756477 0.775894 0.360190
O O2 0.819199 0.701038 0.154390
O O3 0.430287 0.692584 0.502541
O O4 0.751245 0.610691 0.369646
O O5 0.500000 0.225336 0.250000
O O6 0.273092 0.222665 0.243456
O O7 0.118289 0.138435 0.482960
O O8 0.543009 0.106933 0.105616
O O9 0.714474 0.918870 0.312797
O O10 0.000000 0.906446 0.250000
O O11 0.500000 0.270188 0.750000
O O12 0.209153 0.152349 0.903316
O O13 0.058284 0.288323 0.106010
O O14 0.756888 0.381595 0.231940
O O15 0.000000 0.489661 0.250000
O O16 0.510248 0.494872 0.864127
O O17 0.247217 0.567348 0.946721
O O18 0.000000 0.000000 0.500000
O O19 0.000000 0.500000 0.500000
#
# Coordination Sequence:
#
# PCOD9226904 Si02
#       8
#     4   4   4   4   4   4   4   4
#     4   9  19  33  59  92 120 146 201 262 310 372
#     4  10  19  31  58  87 114 146 192 254 313 361
#     4  10  18  31  54  87 115 142 188 247 303 362
#     4  10  21  39  59  86 117 164 208 259 311 377
#     4   9  20  35  58  87 120 155 199 253 312 375
#     4  10  20  36  63  93 124 169 208 257 320 375
#     4  10  22  38  55  81 122 159 199 248 306 379
#     4  10  22  38  59  94 136 166 207 259 321 396
#
# _framework density 24.437826000000001
#
# number of rings (size 3 to 8) (size 9 to 14) (size 15 to 20)
#    0.000    2.250    1.250    1.125    5.250    2.000 
#    2.250    0.000    0.000    0.000    0.000    0.000 
#    0.000    0.000    0.000    0.000    0.000    0.000 
#
# Total GULP energy -178334.934008 kJ/mol
# GULP energy per Si atom -5572.966688 kJ/mol
# Density = 2.438220 g / cm^3
# Si number density = 24.437826 Si / 1000 Ang^3
#
#
#
# Elastic Constant Matrix: (Units=GPa)
#
#
# Indices 1 2 3 4 5 6 
#
# 1 65.9013 13.5840 16.3606 0.0000 -10.9658 0.0000
# 2 13.5840 26.9667 8.5759 0.0000 5.8221 0.0000
# 3 16.3606 8.5759 172.6859 0.0000 -11.7398 0.0000
# 4 0.0000 0.0000 0.0000 31.0802 0.0000 -17.0613
# 5 -10.9658 5.8221 -11.7398 0.0000 56.9308 0.0000
# 6 0.0000 0.0000 0.0000 -17.0613 0.0000 44.3797
#
#
#
# Elastic Compliance Matrix: (Units=1/GPa)
#
#
# Indices 1 2 3 4 5 6 
#
# 1 0.018136 -0.009764 -0.000941 0.000000 0.004298 0.000000
# 2 -0.009764 0.044002 -0.001718 0.000000 -0.006735 0.000000
# 3 -0.000941 -0.001718 0.006050 0.000000 0.001242 0.000000
# 4 0.000000 0.000000 0.000000 0.040781 0.000000 0.015678
# 5 0.004298 -0.006735 0.001242 0.000000 0.019338 0.000000
# 6 0.000000 0.000000 0.000000 0.015678 0.000000 0.028560
#
#
# Mechanical properties :
#
#
# Convention : Reuss Voigt Hill
#
# Bulk Modulus (GPa) = 23.07304 38.06611 30.56958
# Shear Modulus (GPa) = 25.48952 41.61371 33.55162
#
# Velocity S-wave (km/s) = 3.23311 4.13103 3.70934
# Velocity P-wave (km/s) = 4.83729 6.19390 5.55714
#
# Compressibility (1/GPa) = 0.04334062
#
# Stress axis : x y z
#
# Youngs Moduli (GPa) = 55.14021 22.72645 165.29534
#
# Poissons Ratio (x) = 0.22190 0.15556
# Poissons Ratio (y) = 0.53839 0.28398
# Poissons Ratio (z) = 0.05189 0.03904
#
# Static dielectric constant tensor:
#      x y z
#    x 2.163030 0.000000 0.300980 
#    y 0.000000 1.915270 0.000000 
#    z 0.300980 0.000000 2.586400 
# 
# From -- ./inp_files/51654.got.cif
#   From: 2010.05.17/outbox.cif.g08.bks.cpg/sg13_26_cif.got.tgz:51654.got - 2010.06.03 16:44:36.
