data_PCOD9226157
_publ_section_title
;
Structure prediction by ZEFSAII (Michael W. Deem and Ramdas Pophale) SiO2 
 PCOD9226157
Probable space group: P 2/C
;
_chemical_formula_sum "Si O2"
_cell_formula_units_Z 22
_cell_length_a 8.005250
_cell_length_b 8.010902
_cell_length_c 18.080233
_cell_angle_alpha 90.000000
_cell_angle_beta 124.203794
_cell_angle_gamma 90.000000
_cell_volume 958.933777
_symmetry_space_group_name_H-M "P 2/C"
_symmetry_group_IT_number 13
_symmetry_cell_setting 'monoclinic'
loop_
_space_group_symop_operation_xyz
x,y,z
-x,y,1/2-z
-x,-y,-z
x,-y,1/2+z
loop_
_atom_site_type_symbol
_atom_site_label
_atom_site_fract_x
_atom_site_fract_y
_atom_site_fract_z
Si Si1 0.762641 0.469236 0.436514
Si Si2 0.223350 0.305913 0.284053
Si Si3 0.712418 0.914454 0.467002
Si Si4 0.500000 0.537525 0.250000
Si Si5 0.454614 0.744321 0.511153
Si Si6 0.828618 0.870862 0.871575
O O1 0.657839 0.598502 0.353238
O O2 0.671075 0.419840 0.494471
O O3 0.732906 0.293109 0.385671
O O4 0.000000 0.500000 0.500000
O O5 0.345804 0.443633 0.268384
O O6 0.350076 0.258729 0.387149
O O7 0.201718 0.149437 0.222823
O O8 0.000000 0.363036 0.250000
O O9 0.545368 0.783506 0.453181
O O10 0.936286 0.861872 0.547921
O O11 0.670912 0.089276 0.499839
O O12 0.727564 0.971922 0.385865
#
# Coordination Sequence:
#
# PCOD9226157 Si02
#       6
#     4   4   4   2   4   4
#     4   9  17  31  50  72  99 131 176 223 269 313
#     4  10  16  28  48  73 101 127 172 220 262 302
#     4   9  16  28  44  69 102 129 159 208 262 315
#     4   8  18  30  48  72  98 132 168 226 266 304
#     4   9  17  28  47  72 100 131 168 215 264 313
#     4   9  17  28  47  71 100 131 166 215 265 309
#
# _framework density 22.942146999999999
#
# number of rings (size 3 to 8) (size 9 to 14) (size 15 to 20)
#    0.000    2.909    1.818    1.091    0.000    0.000 
#    0.000    0.909    0.000    6.545    0.000    0.000 
#    0.000    0.000    0.000    0.000    0.000    0.000 
#
# Total GULP energy -122534.450274 kJ/mol
# GULP energy per Si atom -5569.747740 kJ/mol
# Density = 2.288993 g / cm^3
# Si number density = 22.942147 Si / 1000 Ang^3
#
#
#
# Elastic Constant Matrix: (Units=GPa)
#
#
# Indices 1 2 3 4 5 6 
#
# 1 154.4290 19.5423 26.2379 0.0000 -3.7050 0.0000
# 2 19.5423 75.8113 -1.2418 0.0000 -10.0636 0.0000
# 3 26.2379 -1.2418 69.0624 0.0000 -1.3256 0.0000
# 4 0.0000 0.0000 0.0000 17.7436 0.0000 -3.4776
# 5 -3.7050 -10.0636 -1.3256 0.0000 37.3184 0.0000
# 6 0.0000 0.0000 0.0000 -3.4776 0.0000 39.1276
#
#
#
# Elastic Compliance Matrix: (Units=1/GPa)
#
#
# Indices 1 2 3 4 5 6 
#
# 1 0.007186 -0.001883 -0.002762 0.000000 0.000107 0.000000
# 2 -0.001883 0.014181 0.001041 0.000000 0.003674 0.000000
# 3 -0.002762 0.001041 0.015558 0.000000 0.000559 0.000000
# 4 0.000000 0.000000 0.000000 0.057358 0.000000 0.005098
# 5 0.000107 0.003674 0.000559 0.000000 0.027818 0.000000
# 6 0.000000 0.000000 0.000000 0.005098 0.000000 0.026010
#
#
# Mechanical properties :
#
#
# Convention : Reuss Voigt Hill
#
# Bulk Modulus (GPa) = 33.65099 43.15329 38.40214
# Shear Modulus (GPa) = 30.26190 35.82220 33.04205
#
# Velocity S-wave (km/s) = 3.63582 3.95576 3.79916
# Velocity P-wave (km/s) = 5.68552 6.30194 6.00165
#
# Compressibility (1/GPa) = 0.02971681
#
# Stress axis : x y z
#
# Youngs Moduli (GPa) = 139.16749 70.51755 64.27424
#
# Poissons Ratio (x) = 0.13280 0.17751
# Poissons Ratio (y) = 0.26209 -0.06691
# Poissons Ratio (z) = 0.38434 -0.07341
#
# Static dielectric constant tensor:
#      x y z
#    x 1.871290 0.000000 -0.038380 
#    y 0.000000 1.935370 0.000000 
#    z -0.038380 0.000000 1.916700 
# 
# From -- ./inp_files/63536.got.cif
#   From: 2010.05.17/outbox.cif.g08.bks.cpg/sg13_32_cif.got.tgz:63536.got - 2010.06.03 16:44:36.
