data_PCOD9226065
_publ_section_title
;
Structure prediction by ZEFSAII (Michael W. Deem and Ramdas Pophale) SiO2 
 PCOD9226065
Probable space group: P 2/C
;
_chemical_formula_sum "Si O2"
_cell_formula_units_Z 20
_cell_length_a 9.160329
_cell_length_b 5.303653
_cell_length_c 17.307098
_cell_angle_alpha 90.000000
_cell_angle_beta 83.709431
_cell_angle_gamma 90.000000
_cell_volume 835.771654
_symmetry_space_group_name_H-M "P 2/C"
_symmetry_group_IT_number 13
_symmetry_cell_setting 'monoclinic'
loop_
_space_group_symop_operation_xyz
x,y,z
-x,y,1/2-z
-x,-y,-z
x,-y,1/2+z
loop_
_atom_site_type_symbol
_atom_site_label
_atom_site_fract_x
_atom_site_fract_y
_atom_site_fract_z
Si Si1 0.862698 0.700354 0.801852
Si Si2 0.150224 0.515585 0.038812
Si Si3 0.309609 0.022867 0.067060
Si Si4 0.424159 0.097542 0.341456
Si Si5 0.342127 0.600679 0.301165
O O1 0.772104 0.924302 0.845961
O O2 0.767025 0.523590 0.752691
O O3 0.000000 0.805444 0.750000
O O4 0.907198 0.524555 0.870346
O O5 0.260018 0.274480 0.023714
O O6 0.242452 0.774231 0.032880
O O7 0.000000 0.500000 0.000000
O O8 0.474262 0.016547 0.091805
O O9 0.500000 0.127602 0.250000
O O10 0.306989 0.875181 0.336037
O O11 0.365768 0.377225 0.361200
O O12 0.500000 0.638542 0.250000
#
# Coordination Sequence:
#
# PCOD9226065 Si02
#       5
#     4   4   4   4   4
#     4  10  22  34  52  84 117 140 172 226 282 326
#     4  10  20  35  53  76 109 146 184 220 262 319
#     4  10  19  33  52  79 104 135 182 225 266 311
#     4  10  15  28  48  71 100 127 172 221 259 305
#     4  10  17  29  48  74 104 136 173 214 267 314
#
# _framework density 23.929981000000002
#
# number of rings (size 3 to 8) (size 9 to 14) (size 15 to 20)
#    1.200    0.800    4.000    4.200    0.000    0.800 
#    0.000    0.000    0.000    0.000    0.000   15.400 
#    0.000    0.000    0.000    0.000    0.000    0.000 
#
# Total GULP energy -111484.990368 kJ/mol
# GULP energy per Si atom -5574.249518 kJ/mol
# Density = 2.387552 g / cm^3
# Si number density = 23.929981 Si / 1000 Ang^3
#
#
#
# Elastic Constant Matrix: (Units=GPa)
#
#
# Indices 1 2 3 4 5 6 
#
# 1 34.7747 1.6853 32.7950 0.0000 26.4204 0.0000
# 2 1.6853 179.6086 16.9707 0.0000 16.9362 0.0000
# 3 32.7950 16.9707 79.8496 0.0000 36.8623 0.0000
# 4 0.0000 0.0000 0.0000 -20.1328 0.0000 -4.6791
# 5 26.4204 16.9362 36.8623 0.0000 50.7542 0.0000
# 6 0.0000 0.0000 0.0000 -4.6791 0.0000 17.3120
#
#
#
# Elastic Compliance Matrix: (Units=1/GPa)
#
#
# Indices 1 2 3 4 5 6 
#
# 1 0.058364 0.002801 -0.015208 0.000000 -0.020271 0.000000
# 2 0.002801 0.005897 -0.001237 0.000000 -0.002527 0.000000
# 3 -0.015208 -0.001237 0.022848 0.000000 -0.008265 0.000000
# 4 0.000000 0.000000 0.000000 -0.046735 0.000000 -0.012631
# 5 -0.020271 -0.002527 -0.008265 0.000000 0.037101 0.000000
# 6 0.000000 0.000000 0.000000 -0.012631 0.000000 0.054349
#
#
# Mechanical properties :
#
#
# Convention : Reuss Voigt Hill
#
# Bulk Modulus (GPa) = 16.71662 44.12608 30.42135
# Shear Modulus (GPa) = 27.92482 25.77216 26.84849
#
# Velocity S-wave (km/s) = 3.41975 3.28530 3.35320
# Velocity P-wave (km/s) = 4.75329 5.73329 5.26614
#
# Compressibility (1/GPa) = 0.05982069
#
# Stress axis : x y z
#
# Youngs Moduli (GPa) = 17.13388 169.59058 43.76764
#
# Poissons Ratio (x) = -0.47498 0.66561
# Poissons Ratio (y) = -0.04799 0.05413
# Poissons Ratio (z) = 0.26057 0.20975
#
# Static dielectric constant tensor:
#      x y z
#    x 1.870610 0.000000 -0.009210 
#    y 0.000000 1.931450 0.000000 
#    z -0.009210 0.000000 1.931550 
# 
# From -- ./inp_files/74630.got.cif
#   From: 2010.05.17/outbox.cif.g08.bks.cpg/sg13_38_cif.got.tgz:74630.got - 2010.06.03 16:44:36.
