data_PCOD9226469
_publ_section_title
;
Structure prediction by ZEFSAII (Michael W. Deem and Ramdas Pophale) SiO2 
 PCOD9226469
Probable space group: P 2/C
;
_chemical_formula_sum "Si O2"
_cell_formula_units_Z 32
_cell_length_a 16.137674
_cell_length_b 8.821003
_cell_length_c 23.694802
_cell_angle_alpha 90.000000
_cell_angle_beta 159.140354
_cell_angle_gamma 90.000000
_cell_volume 1201.045613
_symmetry_space_group_name_H-M "P 2/C"
_symmetry_group_IT_number 13
_symmetry_cell_setting 'monoclinic'
loop_
_space_group_symop_operation_xyz
x,y,z
-x,y,1/2-z
-x,-y,-z
x,-y,1/2+z
loop_
_atom_site_type_symbol
_atom_site_label
_atom_site_fract_x
_atom_site_fract_y
_atom_site_fract_z
Si Si1 0.789037 0.061713 0.692621
Si Si2 0.447027 0.610830 0.082952
Si Si3 0.994768 0.069001 0.434328
Si Si4 0.256034 0.353254 0.629676
Si Si5 0.221146 0.410837 0.847127
Si Si6 0.690896 0.045252 0.015712
Si Si7 0.655866 0.134196 0.397124
Si Si8 0.883005 0.433495 0.543472
O O1 0.722610 0.237896 0.636042
O O2 0.648055 0.970560 0.554601
O O3 0.053644 0.016962 0.838964
O O4 0.815935 0.999281 0.773986
O O5 0.690362 0.648256 0.269363
O O6 0.400006 0.519827 0.994710
O O7 0.323436 0.502672 0.049778
O O8 0.327988 0.776151 0.007017
O O9 0.044227 0.245793 0.474687
O O10 0.241246 0.013556 0.566109
O O11 0.000000 0.000000 0.500000
O O12 0.500000 0.317561 0.750000
O O13 0.171243 0.514733 0.553467
O O14 0.000000 0.396954 0.750000
O O15 0.113179 0.486866 0.722264
O O16 0.542584 0.928891 0.881834
O O17 0.500000 0.208211 0.250000
O O18 0.858817 0.254970 0.535182
#
# Coordination Sequence:
#
# PCOD9226469 Si02
#       8
#     4   4   4   4   4   4   4   4
#     4  10  18  32  50  77 112 144 187 238 287 338
#     4  10  20  28  51  82 118 146 175 239 300 346
#     4  11  23  38  57  79 116 159 197 243 295 354
#     4  10  20  37  55  84 115 148 193 239 296 347
#     4  10  17  30  48  81 117 143 178 236 298 346
#     4  10  18  29  50  85 109 144 186 232 291 333
#     4  11  19  34  60  86 117 152 192 241 298 353
#     4  10  18  30  51  86 116 147 182 235 291 342
#
# _framework density 26.643450000000001
#
# number of rings (size 3 to 8) (size 9 to 14) (size 15 to 20)
#    0.000    1.750    3.750    6.000    7.000    0.000 
#    0.000    0.625    0.000    3.750    0.000    0.000 
#    0.000    0.000    0.000    0.000    0.000    0.000 
#
# Total GULP energy -178519.211866 kJ/mol
# GULP energy per Si atom -5578.725371 kJ/mol
# Density = 2.658281 g / cm^3
# Si number density = 26.643450 Si / 1000 Ang^3
#
#
#
# Elastic Constant Matrix: (Units=GPa)
#
#
# Indices 1 2 3 4 5 6 
#
# 1 117.0358 24.8497 43.5957 0.0000 -37.3273 0.0000
# 2 24.8497 156.2894 56.1262 0.0000 -23.2074 0.0000
# 3 43.5957 56.1262 151.3768 0.0000 -55.8708 0.0000
# 4 0.0000 0.0000 0.0000 36.8238 0.0000 -8.9557
# 5 -37.3273 -23.2074 -55.8708 0.0000 54.9574 0.0000
# 6 0.0000 0.0000 0.0000 -8.9557 0.0000 22.6549
#
#
#
# Elastic Compliance Matrix: (Units=1/GPa)
#
#
# Indices 1 2 3 4 5 6 
#
# 1 0.010993 -0.000580 -0.000457 0.000000 0.006757 0.000000
# 2 -0.000580 0.007422 -0.002518 0.000000 0.000180 0.000000
# 3 -0.000457 -0.002518 0.011467 0.000000 0.010284 0.000000
# 4 0.000000 0.000000 0.000000 0.030045 0.000000 0.011877
# 5 0.006757 0.000180 0.010284 0.000000 0.033316 0.000000
# 6 0.000000 0.000000 0.000000 0.011877 0.000000 0.048836
#
#
# Mechanical properties :
#
#
# Convention : Reuss Voigt Hill
#
# Bulk Modulus (GPa) = 43.91682 74.87168 59.39425
# Shear Modulus (GPa) = 31.89202 42.89590 37.39396
#
# Velocity S-wave (km/s) = 3.46351 4.01683 3.75039
# Velocity P-wave (km/s) = 5.70206 7.04809 6.41050
#
# Compressibility (1/GPa) = 0.02277032
#
# Stress axis : x y z
#
# Youngs Moduli (GPa) = 90.96839 134.73971 87.20763
#
# Poissons Ratio (x) = 0.07821 0.03984
# Poissons Ratio (y) = 0.05280 0.21961
# Poissons Ratio (z) = 0.04155 0.33931
#
# Static dielectric constant tensor:
#      x y z
#    x 2.220930 0.000000 -0.054760 
#    y 0.000000 1.968030 0.000000 
#    z -0.054760 0.000000 2.453360 
# 
# From -- ./inp_files/93607.got.cif
#   From: 2010.05.17/outbox.cif.g08.bks.cpg/sg13_47_cif.got.tgz:93607.got - 2010.06.03 16:44:36.
