data_PCOD9226263
_publ_section_title
;
Structure prediction by ZEFSAII (Michael W. Deem and Ramdas Pophale) SiO2 
 PCOD9226263
Probable space group: P 2/C
;
_chemical_formula_sum "Si O2"
_cell_formula_units_Z 26
_cell_length_a 17.230490
_cell_length_b 11.686443
_cell_length_c 8.864273
_cell_angle_alpha 90.000000
_cell_angle_beta 64.747038
_cell_angle_gamma 90.000000
_cell_volume 1614.356848
_symmetry_space_group_name_H-M "P 2/C"
_symmetry_group_IT_number 13
_symmetry_cell_setting 'monoclinic'
loop_
_space_group_symop_operation_xyz
x,y,z
-x,y,1/2-z
-x,-y,-z
x,-y,1/2+z
loop_
_atom_site_type_symbol
_atom_site_label
_atom_site_fract_x
_atom_site_fract_y
_atom_site_fract_z
Si Si1 0.000000 0.983535 0.750000
Si Si2 0.081093 0.843772 0.957647
Si Si3 0.938431 0.659652 0.078321
Si Si4 0.620956 0.075521 0.896901
Si Si5 0.206902 0.847268 0.341398
Si Si6 0.500000 0.971536 0.750000
Si Si7 0.224808 0.079619 0.175274
Si Si8 0.000000 0.519608 0.750000
O O1 0.960820 0.899687 0.657476
O O2 0.063115 0.067958 0.607002
O O3 0.180797 0.832553 0.829060
O O4 0.026211 0.731039 0.033706
O O5 0.859140 0.746963 0.138917
O O6 0.937289 0.561433 0.204878
O O7 0.948840 0.598381 0.909000
O O8 0.694122 0.166737 0.792656
O O9 0.557470 0.048590 0.813106
O O10 0.676519 0.958429 0.882621
O O11 0.564831 0.099109 0.090749
O O12 0.209022 0.881526 0.516991
O O13 0.181133 0.959662 0.266146
#
# Coordination Sequence:
#
# PCOD9226263 Si02
#       8
#     2   4   4   4   4   2   4   2
#     4  10  20  26  40  72  98 130 166 174 250 296
#     4  11  19  30  46  68  99 140 156 207 244 292
#     4  11  22  37  53  65  97 134 180 220 257 293
#     4   9  18  29  47  72 101 149 162 190 224 300
#     4  10  19  32  49  78 103 135 170 209 235 299
#     4  10  16  32  48  64 114 152 158 180 236 296
#     4  10  18  29  45  78 107 128 172 197 238 295
#     4  10  24  40  50  68  84 142 184 222 268 288
#
# _framework density 16.105485999999999
#
# number of rings (size 3 to 8) (size 9 to 14) (size 15 to 20)
#    0.923    0.923    1.538    5.538    0.000    1.231 
#    0.000    0.000    0.000    0.000    0.000    0.000 
#    0.000    3.692    0.000    0.000    0.000    0.000 
#
# Total GULP energy -144758.410619 kJ/mol
# GULP energy per Si atom -5567.631178 kJ/mol
# Density = 1.606883 g / cm^3
# Si number density = 16.105486 Si / 1000 Ang^3
#
#
#
# Elastic Constant Matrix: (Units=GPa)
#
#
# Indices 1 2 3 4 5 6 
#
# 1 55.9860 11.7733 22.0192 0.0000 -11.8701 0.0000
# 2 11.7733 45.6405 16.0264 0.0000 -11.5663 0.0000
# 3 22.0192 16.0264 110.1214 0.0000 -17.0625 0.0000
# 4 0.0000 0.0000 0.0000 18.2763 0.0000 4.5745
# 5 -11.8701 -11.5663 -17.0625 0.0000 28.9454 0.0000
# 6 0.0000 0.0000 0.0000 4.5745 0.0000 15.6105
#
#
#
# Elastic Compliance Matrix: (Units=1/GPa)
#
#
# Indices 1 2 3 4 5 6 
#
# 1 0.020803 -0.002925 -0.002854 0.000000 0.005680 0.000000
# 2 -0.002925 0.025305 -0.001890 0.000000 0.007798 0.000000
# 3 -0.002854 -0.001890 0.010596 0.000000 0.004321 0.000000
# 4 0.000000 0.000000 0.000000 0.059046 0.000000 -0.017303
# 5 0.005680 0.007798 0.004321 0.000000 0.042540 0.000000
# 6 0.000000 0.000000 0.000000 -0.017303 0.000000 0.069130
#
#
# Mechanical properties :
#
#
# Convention : Reuss Voigt Hill
#
# Bulk Modulus (GPa) = 24.17367 34.59843 29.38605
# Shear Modulus (GPa) = 19.48969 23.36172 21.42571
#
# Velocity S-wave (km/s) = 3.48246 3.81273 3.65133
# Velocity P-wave (km/s) = 5.58679 6.39622 6.00516
#
# Compressibility (1/GPa) = 0.04136732
#
# Stress axis : x y z
#
# Youngs Moduli (GPa) = 48.06905 39.51856 94.37528
#
# Poissons Ratio (x) = 0.11558 0.26934
# Poissons Ratio (y) = 0.14059 0.17833
# Poissons Ratio (z) = 0.13719 0.07467
#
# Static dielectric constant tensor:
#      x y z
#    x 1.593770 0.000000 -0.026160 
#    y 0.000000 1.523340 0.000000 
#    z -0.026160 0.000000 1.604110 
# 
# From -- ./inp_files/21366.got.cif
#   From: 2010.05.17/outbox.cif.g08.bks.cpg/sg13_11_cif.got.tgz:21366.got - 2010.06.03 16:44:36.
