data_PCOD9226526
_publ_section_title
;
Structure prediction by ZEFSAII (Michael W. Deem and Ramdas Pophale) SiO2 
 PCOD9226526
Probable space group: P 2/C
;
_chemical_formula_sum "Si O2"
_cell_formula_units_Z 22
_cell_length_a 8.768016
_cell_length_b 8.893573
_cell_length_c 17.057171
_cell_angle_alpha 90.000000
_cell_angle_beta 104.620961
_cell_angle_gamma 90.000000
_cell_volume 1287.028166
_symmetry_space_group_name_H-M "P 2/C"
_symmetry_group_IT_number 13
_symmetry_cell_setting 'monoclinic'
loop_
_space_group_symop_operation_xyz
x,y,z
-x,y,1/2-z
-x,-y,-z
x,-y,1/2+z
loop_
_atom_site_type_symbol
_atom_site_label
_atom_site_fract_x
_atom_site_fract_y
_atom_site_fract_z
Si Si1 0.669665 0.348240 0.994033
Si Si2 0.797823 0.597394 0.887389
Si Si3 0.367966 0.417740 0.882455
Si Si4 0.500000 0.559398 0.750000
Si Si5 0.010250 0.342447 0.842303
Si Si6 0.967220 0.175412 0.995115
O O1 0.741362 0.481756 0.948222
O O2 0.504117 0.309548 0.932449
O O3 0.801602 0.221830 0.013603
O O4 0.625408 0.423448 0.070501
O O5 0.639847 0.640406 0.817808
O O6 0.916578 0.498249 0.848346
O O7 0.897179 0.729087 0.941902
O O8 0.405218 0.454151 0.797966
O O9 0.195801 0.361076 0.877774
O O10 0.000000 0.297976 0.750000
O O11 0.954536 0.230202 0.903056
O O12 0.000000 0.000000 0.000000
#
# Coordination Sequence:
#
# PCOD9226526 Si02
#       6
#     4   4   4   2   4   4
#     4   9  18  33  57  81 107 139 189 234 282 331
#     4  10  18  34  57  82 109 139 191 232 285 334
#     4  10  17  31  56  88 108 133 184 247 285 324
#     4  10  20  28  54  92 106 134 178 258 288 312
#     4  11  19  35  60  86 107 142 189 242 284 328
#     4  11  22  38  56  80 117 159 188 224 282 359
#
# _framework density 17.093641999999999
#
# number of rings (size 3 to 8) (size 9 to 14) (size 15 to 20)
#    0.000    1.818    5.455    1.091    0.000    0.000 
#    0.000    3.636    4.000    0.000    0.000    0.000 
#    0.000    0.000    0.000    0.000    0.000    0.000 
#
# Total GULP energy -122477.067928 kJ/mol
# GULP energy per Si atom -5567.139451 kJ/mol
# Density = 1.705474 g / cm^3
# Si number density = 17.093642 Si / 1000 Ang^3
#
#
#
# Elastic Constant Matrix: (Units=GPa)
#
#
# Indices 1 2 3 4 5 6 
#
# 1 102.6379 26.6254 11.5692 0.0000 11.9836 0.0000
# 2 26.6254 72.6990 31.0680 0.0000 14.2534 0.0000
# 3 11.5692 31.0680 72.4552 0.0000 -1.2477 0.0000
# 4 0.0000 0.0000 0.0000 10.6157 0.0000 0.1910
# 5 11.9836 14.2534 -1.2477 0.0000 46.3737 0.0000
# 6 0.0000 0.0000 0.0000 0.1910 0.0000 11.3646
#
#
#
# Elastic Compliance Matrix: (Units=1/GPa)
#
#
# Indices 1 2 3 4 5 6 
#
# 1 0.010892 -0.003543 -0.000250 0.000000 -0.001733 0.000000
# 2 -0.003543 0.019447 -0.007864 0.000000 -0.005273 0.000000
# 3 -0.000250 -0.007864 0.017264 0.000000 0.002946 0.000000
# 4 0.000000 0.000000 0.000000 0.094229 0.000000 -0.001584
# 5 -0.001733 -0.005273 0.002946 0.000000 0.023712 0.000000
# 6 0.000000 0.000000 0.000000 -0.001584 0.000000 0.088020
#
#
# Mechanical properties :
#
#
# Convention : Reuss Voigt Hill
#
# Bulk Modulus (GPa) = 41.16791 42.92415 42.04603
# Shear Modulus (GPa) = 17.54542 25.57275 21.55908
#
# Velocity S-wave (km/s) = 3.20727 3.87206 3.55524
# Velocity P-wave (km/s) = 6.15236 6.71983 6.44235
#
# Compressibility (1/GPa) = 0.02429077
#
# Stress axis : x y z
#
# Youngs Moduli (GPa) = 91.80636 51.42065 57.92310
#
# Poissons Ratio (x) = 0.18217 0.01448
# Poissons Ratio (y) = 0.32525 0.45551
# Poissons Ratio (z) = 0.02295 0.40437
#
# Static dielectric constant tensor:
#      x y z
#    x 1.608670 0.000000 0.036260 
#    y 0.000000 1.536380 0.000000 
#    z 0.036260 0.000000 1.642770 
# 
# From -- ./inp_files/45771.got.cif
#   From: 2010.05.17/outbox.cif.g08.bks.cpg/sg13_23_cif.got.tgz:45771.got - 2010.06.03 16:44:36.
