data_PCOD9226185
_publ_section_title
;
Structure prediction by ZEFSAII (Michael W. Deem and Ramdas Pophale) SiO2 
 PCOD9226185
Probable space group: P 2/C
;
_chemical_formula_sum "Si O2"
_cell_formula_units_Z 32
_cell_length_a 27.395124
_cell_length_b 13.805194
_cell_length_c 5.288875
_cell_angle_alpha 90.000000
_cell_angle_beta 72.547351
_cell_angle_gamma 90.000000
_cell_volume 1908.145956
_symmetry_space_group_name_H-M "P 2/C"
_symmetry_group_IT_number 13
_symmetry_cell_setting 'monoclinic'
loop_
_space_group_symop_operation_xyz
x,y,z
-x,y,1/2-z
-x,-y,-z
x,-y,1/2+z
loop_
_atom_site_type_symbol
_atom_site_label
_atom_site_fract_x
_atom_site_fract_y
_atom_site_fract_z
Si Si1 0.445676 0.564941 0.783354
Si Si2 0.943425 0.464813 0.907126
Si Si3 0.338700 0.437769 0.566340
Si Si4 0.081538 0.740601 0.881600
Si Si5 0.223506 0.566421 0.187738
Si Si6 0.062370 0.047287 0.510578
Si Si7 0.178680 0.965407 0.320256
Si Si8 0.853388 0.255312 0.715681
O O1 0.500000 0.616331 0.750000
O O2 0.445649 0.520145 0.500412
O O3 0.391595 0.617288 0.920937
O O4 0.916814 0.477749 0.676800
O O5 0.948389 0.355221 0.991654
O O6 0.000000 0.503883 0.750000
O O7 0.340436 0.524287 0.352513
O O8 0.282386 0.395910 0.608449
O O9 0.124812 0.745605 0.033126
O O10 0.053357 0.843039 0.943324
O O11 0.103208 0.730122 0.566307
O O12 0.216243 0.496488 0.442830
O O13 0.186619 0.658326 0.250330
O O14 0.044853 0.025776 0.820045
O O15 0.124086 0.024649 0.421911
O O16 0.168029 0.851954 0.309314
O O17 0.206012 0.991471 0.535775
#
# Coordination Sequence:
#
# PCOD9226185 Si02
#       8
#     4   4   4   4   4   4   4   4
#     4   8  12  18  31  50  65  84 128 180 209 238
#     4  10  23  42  57  71  94 121 146 173 208 248
#     4   8  14  25  37  46  69 109 138 163 213 250
#     4  12  21  32  55  75  88 114 146 177 209 248
#     4  10  21  33  40  56  90 123 146 177 208 248
#     4  10  16  30  48  71  93 114 132 167 212 255
#     4  10  16  30  46  66  90 115 137 170 210 252
#     4  12  21  30  49  73  90 116 148 175 208 249
#
# _framework density 16.770206999999999
#
# number of rings (size 3 to 8) (size 9 to 14) (size 15 to 20)
#    0.000    2.000    5.000    1.500    0.000    3.000 
#    0.000    0.000    0.000    0.750    0.000    0.000 
#    0.000    0.000    0.000    0.000    0.000    1.250 
#
# Total GULP energy -178269.882482 kJ/mol
# GULP energy per Si atom -5570.933828 kJ/mol
# Density = 1.673204 g / cm^3
# Si number density = 16.770207 Si / 1000 Ang^3
#
#
#
# Elastic Constant Matrix: (Units=GPa)
#
#
# Indices 1 2 3 4 5 6 
#
# 1 40.9651 17.2448 8.3281 0.0000 -3.1191 0.0000
# 2 17.2448 81.2363 12.6767 0.0000 -6.8643 0.0000
# 3 8.3281 12.6767 82.2450 0.0000 14.4872 0.0000
# 4 0.0000 0.0000 0.0000 21.4861 0.0000 5.8592
# 5 -3.1191 -6.8643 14.4872 0.0000 24.2317 0.0000
# 6 0.0000 0.0000 0.0000 5.8592 0.0000 5.0885
#
#
#
# Elastic Compliance Matrix: (Units=1/GPa)
#
#
# Indices 1 2 3 4 5 6 
#
# 1 0.027367 -0.005090 -0.002630 0.000000 0.003653 0.000000
# 2 -0.005090 0.014198 -0.002533 0.000000 0.004881 0.000000
# 3 -0.002630 -0.002533 0.014532 0.000000 -0.009744 0.000000
# 4 0.000000 0.000000 0.000000 0.067844 0.000000 -0.078119
# 5 0.003653 0.004881 -0.009744 0.000000 0.048947 0.000000
# 6 0.000000 0.000000 0.000000 -0.078119 0.000000 0.286470
#
#
# Mechanical properties :
#
#
# Convention : Reuss Voigt Hill
#
# Bulk Modulus (GPa) = 28.09744 31.21620 29.65682
# Shear Modulus (GPa) = 10.16824 21.24105 15.70464
#
# Velocity S-wave (km/s) = 2.46504 3.56279 3.06348
# Velocity P-wave (km/s) = 4.98926 5.96482 5.49872
#
# Compressibility (1/GPa) = 0.03559042
#
# Stress axis : x y z
#
# Youngs Moduli (GPa) = 36.54081 70.43247 68.81426
#
# Poissons Ratio (x) = 0.35852 0.18098
# Poissons Ratio (y) = 0.18600 0.17429
# Poissons Ratio (z) = 0.09610 0.17838
#
# Static dielectric constant tensor:
#      x y z
#    x 1.668710 0.000000 0.034160 
#    y 0.000000 1.548040 0.000000 
#    z 0.034160 0.000000 1.677480 
# 
# From -- ./inp_files/8158.got.cif
#   From: 2010.05.17/outbox.cif.g08.bks.cpg/sg13_5_cif.got.tgz:8158.got - 2010.06.03 16:44:36.
