data_PCOD9226378
_publ_section_title
;
Structure prediction by ZEFSAII (Michael W. Deem and Ramdas Pophale) SiO2 
 PCOD9226378
Probable space group: P 2/C
;
_chemical_formula_sum "Si O2"
_cell_formula_units_Z 32
_cell_length_a 18.199378
_cell_length_b 5.622667
_cell_length_c 17.748211
_cell_angle_alpha 90.000000
_cell_angle_beta 45.232436
_cell_angle_gamma 90.000000
_cell_volume 1289.416432
_symmetry_space_group_name_H-M "P 2/C"
_symmetry_group_IT_number 13
_symmetry_cell_setting 'monoclinic'
loop_
_space_group_symop_operation_xyz
x,y,z
-x,y,1/2-z
-x,-y,-z
x,-y,1/2+z
loop_
_atom_site_type_symbol
_atom_site_label
_atom_site_fract_x
_atom_site_fract_y
_atom_site_fract_z
Si Si1 0.404346 0.685707 0.076024
Si Si2 0.101524 0.244560 0.082956
Si Si3 0.718826 0.556491 0.955272
Si Si4 0.824114 0.237649 0.642932
Si Si5 0.034397 0.255852 0.583551
Si Si6 0.236368 0.253830 0.330629
Si Si7 0.467096 0.922622 0.408799
Si Si8 0.601480 0.712961 0.662918
O O1 0.426414 0.794073 0.143509
O O2 0.500000 0.500000 0.000000
O O3 0.302196 0.579839 0.107893
O O4 0.435286 0.895456 0.997145
O O5 0.033866 0.486824 0.124750
O O6 0.044182 0.988106 0.125269
O O7 0.178220 0.299612 0.097149
O O8 0.165191 0.231214 0.956728
O O9 0.622994 0.731941 0.028880
O O10 0.694034 0.380496 0.042740
O O11 0.767028 0.484357 0.701471
O O12 0.937212 0.246490 0.598069
O O13 0.777451 0.988126 0.705868
O O14 0.135906 0.256776 0.457394
O O15 0.341238 0.232021 0.301407
O O16 0.450401 0.076815 0.346963
O O17 0.500000 0.546790 0.750000
#
# Coordination Sequence:
#
# PCOD9226378 Si02
#       8
#     4   4   4   4   4   4   4   4
#     4   8  16  29  48  68  86 113 161 204 257 300
#     4  10  17  25  41  62  92 117 154 196 232 294
#     4  10  18  30  45  64  93 127 166 205 248 300
#     4  10  17  28  45  61  86 121 165 201 241 296
#     4  10  17  27  43  65  87 121 162 197 244 296
#     4  10  18  30  42  62  87 122 168 207 235 279
#     4   9  17  31  48  65  86 121 170 203 249 295
#     4  11  22  32  44  64  95 136 179 212 239 278
#
# _framework density 24.817429000000001
#
# number of rings (size 3 to 8) (size 9 to 14) (size 15 to 20)
#    0.000    2.250    2.500    5.250    1.750    0.500 
#    0.000    0.000    0.000    0.000    0.000    0.000 
#    0.000    0.000    0.000    1.125   40.500    6.625 
#
# Total GULP energy -178457.684417 kJ/mol
# GULP energy per Si atom -5576.802638 kJ/mol
# Density = 2.476094 g / cm^3
# Si number density = 24.817429 Si / 1000 Ang^3
#
#
#
# Elastic Constant Matrix: (Units=GPa)
#
#
# Indices 1 2 3 4 5 6 
#
# 1 154.1713 39.8537 24.4399 0.0000 -15.3091 0.0000
# 2 39.8537 147.3167 12.5755 0.0000 7.6620 0.0000
# 3 24.4399 12.5755 32.4035 0.0000 2.3388 0.0000
# 4 0.0000 0.0000 0.0000 -30.5673 0.0000 -2.1533
# 5 -15.3091 7.6620 2.3388 0.0000 25.5838 0.0000
# 6 0.0000 0.0000 0.0000 -2.1533 0.0000 35.8500
#
#
#
# Elastic Compliance Matrix: (Units=1/GPa)
#
#
# Indices 1 2 3 4 5 6 
#
# 1 0.008650 -0.002147 -0.006152 0.000000 0.006382 0.000000
# 2 -0.002147 0.007643 -0.001096 0.000000 -0.003474 0.000000
# 3 -0.006152 -0.001096 0.036408 0.000000 -0.006681 0.000000
# 4 0.000000 0.000000 0.000000 -0.032577 0.000000 -0.001957
# 5 0.006382 -0.003474 -0.006681 0.000000 0.044557 0.000000
# 6 0.000000 0.000000 0.000000 -0.001957 0.000000 0.027776
#
#
# Mechanical properties :
#
#
# Convention : Reuss Voigt Hill
#
# Bulk Modulus (GPa) = 29.48813 54.18109 41.83461
# Shear Modulus (GPa) = 40.79910 23.30812 32.05361
#
# Velocity S-wave (km/s) = 4.05899 3.06793 3.59775
# Velocity P-wave (km/s) = 5.82022 5.86761 5.84397
#
# Compressibility (1/GPa) = 0.03391195
#
# Stress axis : x y z
#
# Youngs Moduli (GPa) = 115.60512 130.83634 27.46629
#
# Poissons Ratio (x) = 0.28089 0.16896
# Poissons Ratio (y) = 0.24819 0.03011
# Poissons Ratio (z) = 0.71116 0.14343
#
# Static dielectric constant tensor:
#      x y z
#    x 1.891130 0.000000 0.015780 
#    y 0.000000 2.079890 0.000000 
#    z 0.015780 0.000000 2.219150 
# 
# From -- ./inp_files/87659.got.cif
#   From: 2010.05.17/outbox.cif.g08.bks.cpg/sg13_44_cif.got.tgz:87659.got - 2010.06.03 16:44:36.
