data_PCOD9226082
_publ_section_title
;
Structure prediction by ZEFSAII (Michael W. Deem and Ramdas Pophale) SiO2 
 PCOD9226082
Probable space group: P 2/C
;
_chemical_formula_sum "Si O2"
_cell_formula_units_Z 32
_cell_length_a 25.382319
_cell_length_b 16.549784
_cell_length_c 5.487401
_cell_angle_alpha 90.000000
_cell_angle_beta 111.752952
_cell_angle_gamma 90.000000
_cell_volume 2140.957626
_symmetry_space_group_name_H-M "P 2/C"
_symmetry_group_IT_number 13
_symmetry_cell_setting 'monoclinic'
loop_
_space_group_symop_operation_xyz
x,y,z
-x,y,1/2-z
-x,-y,-z
x,-y,1/2+z
loop_
_atom_site_type_symbol
_atom_site_label
_atom_site_fract_x
_atom_site_fract_y
_atom_site_fract_z
Si Si1 0.065896 0.284005 0.909918
Si Si2 0.612411 0.902178 0.473138
Si Si3 0.934987 0.469233 0.424790
Si Si4 0.566802 0.914343 0.894889
Si Si5 0.062256 0.228738 0.403848
Si Si6 0.209344 0.916505 0.279472
Si Si7 0.745569 0.097870 0.143272
Si Si8 0.075979 0.045759 0.521011
O O1 0.091863 0.270625 0.685828
O O2 0.000000 0.259212 0.750000
O O3 0.066394 0.376751 0.993093
O O4 0.089482 0.234059 0.181411
O O5 0.589889 0.870724 0.693321
O O6 0.678998 0.888390 0.557290
O O7 0.598255 0.998549 0.460455
O O8 0.580427 0.872961 0.175504
O O9 0.909839 0.518475 0.611403
O O10 0.000000 0.500000 0.500000
O O11 0.500000 0.929304 0.750000
O O12 0.053701 0.136607 0.468829
O O13 0.000000 0.267855 0.250000
O O14 0.221479 0.874150 0.557690
O O15 0.244126 0.000749 0.351093
O O16 0.229794 0.871527 0.071338
O O17 0.144219 0.942344 0.141487
O O18 0.060602 0.001442 0.746560
#
# Coordination Sequence:
#
# PCOD9226082 Si02
#       8
#     4   4   4   4   4   4   4   4
#     4  10  18  32  45  61  92 102 122 138 169 210
#     4  10  16  22  31  44  59  77  99 124 153 215
#     4  10  17  24  44  72  85 108 121 141 157 188
#     4  10  16  22  28  39  59  85 105 119 136 174
#     4  10  23  34  46  61  78 109 120 149 186 212
#     4  10  16  27  39  55  63  77  94 145 190 224
#     4  10  16  25  38  53  64  75  94 133 203 213
#     4  12  21  35  49  59  71  90 130 162 190 225
#
# _framework density 14.946581999999999
#
# number of rings (size 3 to 8) (size 9 to 14) (size 15 to 20)
#    0.000    1.750    3.750    7.125    3.500    0.500 
#    0.000    0.000    0.000    0.000    0.000    0.000 
#    0.000    0.000    0.000    0.000    0.000    0.000 
#
# Total GULP energy -178213.872920 kJ/mol
# GULP energy per Si atom -5569.183529 kJ/mol
# Density = 1.491256 g / cm^3
# Si number density = 14.946582 Si / 1000 Ang^3
#
#
#
# Elastic Constant Matrix: (Units=GPa)
#
#
# Indices 1 2 3 4 5 6 
#
# 1 29.3154 0.1381 7.6644 0.0000 -7.1163 0.0000
# 2 0.1381 42.1761 22.4885 0.0000 -6.2015 0.0000
# 3 7.6644 22.4885 125.2088 0.0000 -34.3032 0.0000
# 4 0.0000 0.0000 0.0000 14.6883 0.0000 -5.4919
# 5 -7.1163 -6.2015 -34.3032 0.0000 27.6008 0.0000
# 6 0.0000 0.0000 0.0000 -5.4919 0.0000 0.9614
#
#
#
# Elastic Compliance Matrix: (Units=1/GPa)
#
#
# Indices 1 2 3 4 5 6 
#
# 1 0.036466 0.001195 0.000307 0.000000 0.010052 0.000000
# 2 0.001195 0.026260 -0.004684 0.000000 0.000388 0.000000
# 3 0.000307 -0.004684 0.012953 0.000000 0.015125 0.000000
# 4 0.000000 0.000000 0.000000 -0.059936 0.000000 -0.342386
# 5 0.010052 0.000388 0.015125 0.000000 0.057708 0.000000
# 6 0.000000 0.000000 0.000000 -0.342386 0.000000 -0.915720
#
#
# Mechanical properties :
#
#
# Convention : Reuss Voigt Hill
#
# Bulk Modulus (GPa) = 14.42660 28.58691 21.50675
# Shear Modulus (GPa) = -6.15157 19.74405 6.79624
#
# Velocity S-wave (km/s) = -2.03092 3.63846 2.13469
# Velocity P-wave (km/s) = 2.04292 6.06785 4.52727
#
# Compressibility (1/GPa) = 0.06931642
#
# Stress axis : x y z
#
# Youngs Moduli (GPa) = 27.42280 38.08005 77.20298
#
# Poissons Ratio (x) = -0.04550 -0.02372
# Poissons Ratio (y) = -0.03277 0.36158
# Poissons Ratio (z) = -0.00842 0.17835
#
# Static dielectric constant tensor:
#      x y z
#    x 1.530690 0.000000 -0.030300 
#    y 0.000000 1.465940 0.000000 
#    z -0.030300 0.000000 1.719580 
# 
# From -- ./inp_files/7911.got.cif
#   From: 2010.05.17/outbox.cif.g08.bks.cpg/sg13_4_cif.got.tgz:7911.got - 2010.06.03 16:44:36.
