data_PCOD9226118
_publ_section_title
;
Structure prediction by ZEFSAII (Michael W. Deem and Ramdas Pophale) SiO2 
 PCOD9226118
Probable space group: P 2/C
;
_chemical_formula_sum "Si O2"
_cell_formula_units_Z 28
_cell_length_a 25.513552
_cell_length_b 9.120405
_cell_length_c 5.524089
_cell_angle_alpha 90.000000
_cell_angle_beta 84.576096
_cell_angle_gamma 90.000000
_cell_volume 1279.666636
_symmetry_space_group_name_H-M "P 2/C"
_symmetry_group_IT_number 13
_symmetry_cell_setting 'monoclinic'
loop_
_space_group_symop_operation_xyz
x,y,z
-x,y,1/2-z
-x,-y,-z
x,-y,1/2+z
loop_
_atom_site_type_symbol
_atom_site_label
_atom_site_fract_x
_atom_site_fract_y
_atom_site_fract_z
Si Si1 0.137964 0.252246 0.511920
Si Si2 0.226007 0.997303 0.017997
Si Si3 0.558996 0.405351 0.225208
Si Si4 0.711724 0.648934 0.202265
Si Si5 0.670952 0.682217 0.721869
Si Si6 0.827533 0.686635 0.004447
Si Si7 0.979009 0.832589 0.508993
O O1 0.185885 0.138571 0.525115
O O2 0.134230 0.322391 0.781283
O O3 0.083910 0.171402 0.471555
O O4 0.151879 0.352100 0.272472
O O5 0.256360 0.000221 0.754667
O O6 0.188895 0.141833 0.024595
O O7 0.500000 0.340852 0.250000
O O8 0.563136 0.499314 0.474483
O O9 0.609069 0.298499 0.206543
O O10 0.703684 0.723384 0.467387
O O11 0.681527 0.494273 0.234789
O O12 0.772205 0.615617 0.109094
O O13 0.689526 0.733726 0.977840
O O14 0.000000 0.764667 0.750000
O O15 0.000000 0.000000 0.500000
O O16 0.000000 0.764038 0.250000
#
# Coordination Sequence:
#
# PCOD9226118 Si02
#       7
#     4   4   4   4   4   4   4
#     4  10  19  31  42  59  85 111 141 167 199 250
#     4   8  16  25  41  51  75 104 134 163 197 226
#     4  10  16  25  41  63  83 117 153 171 204 251
#     4  10  18  28  42  60  79 116 150 173 222 236
#     4  10  17  30  43  59  91 115 141 186 208 253
#     4  10  19  28  43  58  79 111 148 177 197 245
#     4  10  21  27  43  62  80 110 144 154 197 250
#
# _framework density 21.880700999999998
#
# number of rings (size 3 to 8) (size 9 to 14) (size 15 to 20)
#    0.000    2.286    2.857    1.714   12.000    0.000 
#    0.000    0.000    0.000    0.000    0.000    0.000 
#    0.000    0.000    0.000  180.000    0.000  218.571 
#
# Total GULP energy -156088.551052 kJ/mol
# GULP energy per Si atom -5574.591109 kJ/mol
# Density = 2.183090 g / cm^3
# Si number density = 21.880701 Si / 1000 Ang^3
#
#
#
# Elastic Constant Matrix: (Units=GPa)
#
#
# Indices 1 2 3 4 5 6 
#
# 1 125.9042 0.7760 25.6880 0.0000 2.5286 0.0000
# 2 0.7760 41.9533 6.8089 0.0000 0.5305 0.0000
# 3 25.6880 6.8089 227.3120 0.0000 27.2464 0.0000
# 4 0.0000 0.0000 0.0000 2.6924 0.0000 -12.8235
# 5 2.5286 0.5305 27.2464 0.0000 40.4495 0.0000
# 6 0.0000 0.0000 0.0000 -12.8235 0.0000 7.5321
#
#
#
# Elastic Compliance Matrix: (Units=1/GPa)
#
#
# Indices 1 2 3 4 5 6 
#
# 1 0.008131 0.000000 -0.000933 0.000000 0.000120 0.000000
# 2 0.000000 0.023954 -0.000740 0.000000 0.000184 0.000000
# 3 -0.000933 -0.000740 0.004916 0.000000 -0.003243 0.000000
# 4 0.000000 0.000000 0.000000 -0.052247 0.000000 -0.088952
# 5 0.000120 0.000184 -0.003243 0.000000 0.026897 0.000000
# 6 0.000000 0.000000 0.000000 -0.088952 0.000000 -0.018676
#
#
# Mechanical properties :
#
#
# Convention : Reuss Voigt Hill
#
# Bulk Modulus (GPa) = 29.71464 51.30171 40.50818
# Shear Modulus (GPa) = 663.35213 34.26124 348.80669
#
# Velocity S-wave (km/s) = 17.43060 3.96134 12.63958
# Velocity P-wave (km/s) = 20.46243 6.66483 15.21727
#
# Compressibility (1/GPa) = 0.03365344
#
# Stress axis : x y z
#
# Youngs Moduli (GPa) = 122.99315 41.74719 203.43497
#
# Poissons Ratio (x) = 0.00002 0.18985
# Poissons Ratio (y) = 0.00006 0.15044
# Poissons Ratio (z) = 0.11478 0.03087
#
# Static dielectric constant tensor:
#      x y z
#    x 1.780470 0.000000 0.008970 
#    y 0.000000 1.842150 0.000000 
#    z 0.008970 0.000000 1.961130 
# 
# From -- ./inp_files/6181.got.cif
#   From: 2010.05.17/outbox.cif.g08.bks.cpg/sg13_4_cif.got.tgz:6181.got - 2010.06.03 16:44:36.
