data_PCOD9226994
_publ_section_title
;
Structure prediction by ZEFSAII (Michael W. Deem and Ramdas Pophale) SiO2 
 PCOD9226994
Probable space group: P 2/C
;
_chemical_formula_sum "Si O2"
_cell_formula_units_Z 26
_cell_length_a 8.063886
_cell_length_b 9.667577
_cell_length_c 24.163719
_cell_angle_alpha 90.000000
_cell_angle_beta 47.910693
_cell_angle_gamma 90.000000
_cell_volume 1397.940807
_symmetry_space_group_name_H-M "P 2/C"
_symmetry_group_IT_number 13
_symmetry_cell_setting 'monoclinic'
loop_
_space_group_symop_operation_xyz
x,y,z
-x,y,1/2-z
-x,-y,-z
x,-y,1/2+z
loop_
_atom_site_type_symbol
_atom_site_label
_atom_site_fract_x
_atom_site_fract_y
_atom_site_fract_z
Si Si1 0.000000 0.276433 0.250000
Si Si2 0.829133 0.383538 0.403406
Si Si3 0.191204 0.970986 0.770211
Si Si4 0.695284 0.089807 0.860246
Si Si5 0.676077 0.684915 0.446914
Si Si6 0.096607 0.143844 0.404741
Si Si7 0.275651 0.079323 0.480082
O O1 0.888024 0.357149 0.325816
O O2 0.822542 0.173545 0.260382
O O3 0.824301 0.547418 0.415533
O O4 0.574973 0.341158 0.475025
O O5 0.994275 0.285965 0.402707
O O6 0.227727 0.933061 0.825553
O O7 0.333486 0.072023 0.699451
O O8 0.940730 0.035291 0.821905
O O9 0.664326 0.244283 0.889260
O O10 0.520115 0.987400 0.928158
O O11 0.770346 0.803915 0.464970
O O12 0.242353 0.148508 0.427416
O O13 0.890942 0.046972 0.469966
#
# Coordination Sequence:
#
# PCOD9226994 Si02
#       7
#     2   4   4   4   4   4   4
#     4   8  16  32  50  74 104 134 164 228 264 316
#     4  10  21  35  53  77 111 137 185 217 279 324
#     4   9  18  32  55  80 104 133 182 228 267 317
#     4  10  18  32  54  80 106 133 179 232 269 310
#     4  11  20  33  55  82 102 145 178 228 269 325
#     4  10  20  35  51  79 106 142 178 217 266 329
#     4  11  20  32  56  76 107 141 179 220 267 316
#
# _framework density 18.598784999999999
#
# number of rings (size 3 to 8) (size 9 to 14) (size 15 to 20)
#    0.000    2.154    3.077    3.231    0.000    2.462 
#    0.000    0.000    0.000    0.000    0.000    0.000 
#    0.000    0.000    0.000    0.000    0.000    0.000 
#
# Total GULP energy -144882.967084 kJ/mol
# GULP energy per Si atom -5572.421811 kJ/mol
# Density = 1.855645 g / cm^3
# Si number density = 18.598785 Si / 1000 Ang^3
#
#
#
# Elastic Constant Matrix: (Units=GPa)
#
#
# Indices 1 2 3 4 5 6 
#
# 1 33.3234 23.7228 20.6283 0.0000 15.4352 0.0000
# 2 23.7228 111.5834 42.9708 0.0000 4.3145 0.0000
# 3 20.6283 42.9708 109.1592 0.0000 19.9280 0.0000
# 4 0.0000 0.0000 0.0000 16.5966 0.0000 -3.7699
# 5 15.4352 4.3145 19.9280 0.0000 29.4247 0.0000
# 6 0.0000 0.0000 0.0000 -3.7699 0.0000 15.2444
#
#
#
# Elastic Compliance Matrix: (Units=1/GPa)
#
#
# Indices 1 2 3 4 5 6 
#
# 1 0.047612 -0.008695 -0.001424 0.000000 -0.022736 0.000000
# 2 -0.008695 0.012205 -0.004185 0.000000 0.005606 0.000000
# 3 -0.001424 -0.004185 0.012357 0.000000 -0.007008 0.000000
# 4 0.000000 0.000000 0.000000 0.063839 0.000000 0.015787
# 5 -0.022736 0.005606 -0.007008 0.000000 0.049836 0.000000
# 6 0.000000 0.000000 0.000000 0.015787 0.000000 0.069502
#
#
# Mechanical properties :
#
#
# Convention : Reuss Voigt Hill
#
# Bulk Modulus (GPa) = 22.95348 47.63439 35.29393
# Shear Modulus (GPa) = 16.75151 23.36941 20.06046
#
# Velocity S-wave (km/s) = 3.00438 3.54856 3.28775
# Velocity P-wave (km/s) = 4.93997 6.51590 5.78188
#
# Compressibility (1/GPa) = 0.04356638
#
# Stress axis : x y z
#
# Youngs Moduli (GPa) = 21.00332 81.93166 80.92696
#
# Poissons Ratio (x) = 0.71238 0.11523
# Poissons Ratio (y) = 0.18262 0.33867
# Poissons Ratio (z) = 0.02991 0.34288
#
# Static dielectric constant tensor:
#      x y z
#    x 1.666420 0.000000 0.015180 
#    y 0.000000 1.638020 0.000000 
#    z 0.015180 0.000000 1.696040 
# 
# From -- ./inp_files/84736.got.cif
#   From: 2010.05.17/outbox.cif.g08.bks.cpg/sg13_43_cif.got.tgz:84736.got - 2010.06.03 16:44:36.
