data_PCOD9226751
_publ_section_title
;
Structure prediction by ZEFSAII (Michael W. Deem and Ramdas Pophale) SiO2 
 PCOD9226751
Probable space group: P 2/C
;
_chemical_formula_sum "Si O2"
_cell_formula_units_Z 24
_cell_length_a 13.008225
_cell_length_b 12.899210
_cell_length_c 25.721951
_cell_angle_alpha 90.000000
_cell_angle_beta 162.260597
_cell_angle_gamma 90.000000
_cell_volume 1315.045010
_symmetry_space_group_name_H-M "P 2/C"
_symmetry_group_IT_number 13
_symmetry_cell_setting 'monoclinic'
loop_
_space_group_symop_operation_xyz
x,y,z
-x,y,1/2-z
-x,-y,-z
x,-y,1/2+z
loop_
_atom_site_type_symbol
_atom_site_label
_atom_site_fract_x
_atom_site_fract_y
_atom_site_fract_z
Si Si1 0.720900 0.944452 0.400145
Si Si2 0.800479 0.935528 0.783009
Si Si3 0.079877 0.218133 0.349295
Si Si4 0.152952 0.570287 0.765971
Si Si5 0.918974 0.355992 0.649324
Si Si6 0.163230 0.135740 0.771477
O O1 0.500000 0.886552 0.250000
O O2 0.500009 0.030300 0.324215
O O3 0.000000 0.000000 0.500000
O O4 0.912517 0.891167 0.539727
O O5 0.888883 0.039287 0.792587
O O6 0.777643 0.846815 0.729543
O O7 0.438097 0.160922 0.528801
O O8 0.000000 0.223798 0.250000
O O9 0.068493 0.336195 0.364310
O O10 0.000000 0.555188 0.750000
O O11 0.127625 0.455826 0.729717
O O12 0.531469 0.612213 0.954146
O O13 0.000000 0.344378 0.750000
O O14 0.009683 0.241552 0.673483
O O15 0.000000 0.113996 0.750000
#
# Coordination Sequence:
#
# PCOD9226751 Si02
#       6
#     4   4   4   4   4   4
#     4   9  20  38  56  74  96 128 170 219 262 307
#     4  11  21  34  55  76 107 136 165 209 258 311
#     4  11  22  32  47  74 110 145 176 202 243 303
#     4  10  18  30  47  65  96 138 180 213 241 277
#     4  10  18  30  47  65  96 138 180 213 241 278
#     4  11  22  32  47  74 110 145 176 202 243 302
#
# _framework density 18.250326999999999
#
# number of rings (size 3 to 8) (size 9 to 14) (size 15 to 20)
#    0.000    1.667    1.667    7.500    4.667    1.333 
#    0.000    0.000    0.000    0.000    0.000    0.000 
#    0.000   26.667    0.000    0.000    0.000    0.000 
#
# Total GULP energy -133601.520555 kJ/mol
# GULP energy per Si atom -5566.730023 kJ/mol
# Density = 1.820879 g / cm^3
# Si number density = 18.250327 Si / 1000 Ang^3
#
#
#
# Elastic Constant Matrix: (Units=GPa)
#
#
# Indices 1 2 3 4 5 6 
#
# 1 81.3000 33.1968 15.1648 0.0000 12.0044 0.0000
# 2 33.1968 111.6256 4.1026 0.0000 0.1733 0.0000
# 3 15.1648 4.1026 62.7593 0.0000 0.3951 0.0000
# 4 0.0000 0.0000 0.0000 17.2798 0.0000 5.4200
# 5 12.0044 0.1733 0.3951 0.0000 27.8676 0.0000
# 6 0.0000 0.0000 0.0000 5.4200 0.0000 -2.0225
#
#
#
# Elastic Compliance Matrix: (Units=1/GPa)
#
#
# Indices 1 2 3 4 5 6 
#
# 1 0.015806 -0.004562 -0.003479 0.000000 -0.006731 0.000000
# 2 -0.004562 0.010297 0.000417 0.000000 0.001895 0.000000
# 3 -0.003479 0.000417 0.016739 0.000000 0.001259 0.000000
# 4 0.000000 0.000000 0.000000 0.031442 0.000000 0.084260
# 5 -0.006731 0.001895 0.001259 0.000000 0.038754 0.000000
# 6 0.000000 0.000000 0.000000 0.084260 0.000000 -0.268633
#
#
# Mechanical properties :
#
#
# Convention : Reuss Voigt Hill
#
# Bulk Modulus (GPa) = 36.23844 40.06812 38.15328
# Shear Modulus (GPa) = -38.12431 22.17303 -7.97564
#
# Velocity S-wave (km/s) = -4.57548 3.48938 -2.09275
# Velocity P-wave (km/s) = 2.83089 6.18359 3.88734
#
# Compressibility (1/GPa) = 0.02759500
#
# Stress axis : x y z
#
# Youngs Moduli (GPa) = 63.26834 97.11555 59.73994
#
# Poissons Ratio (x) = 0.44306 0.20781
# Poissons Ratio (y) = 0.28864 -0.02493
# Poissons Ratio (z) = 0.22008 -0.04053
#
# Static dielectric constant tensor:
#      x y z
#    x 1.618940 0.000000 0.005340 
#    y 0.000000 1.666440 0.000000 
#    z 0.005340 0.000000 1.746370 
# 
# From -- ./inp_files/21506.got.cif
#   From: 2010.05.17/outbox.cif.g08.bks.cpg/sg13_11_cif.got.tgz:21506.got - 2010.06.03 16:44:36.
