data_PCOD9226742
_publ_section_title
;
Structure prediction by ZEFSAII (Michael W. Deem and Ramdas Pophale) SiO2 
 PCOD9226742
Probable space group: P 2/C
;
_chemical_formula_sum "Si O2"
_cell_formula_units_Z 30
_cell_length_a 12.247384
_cell_length_b 13.414782
_cell_length_c 8.734443
_cell_angle_alpha 90.000000
_cell_angle_beta 101.779974
_cell_angle_gamma 90.000000
_cell_volume 1404.810398
_symmetry_space_group_name_H-M "P 2/C"
_symmetry_group_IT_number 13
_symmetry_cell_setting 'monoclinic'
loop_
_space_group_symop_operation_xyz
x,y,z
-x,y,1/2-z
-x,-y,-z
x,-y,1/2+z
loop_
_atom_site_type_symbol
_atom_site_label
_atom_site_fract_x
_atom_site_fract_y
_atom_site_fract_z
Si Si1 0.627173 0.490873 0.485681
Si Si2 0.307091 0.301315 0.405880
Si Si3 0.918129 0.603696 0.377082
Si Si4 0.638861 0.902808 0.622528
Si Si5 0.500000 0.640785 0.750000
Si Si6 0.876365 0.626384 0.880449
Si Si7 0.372130 0.111929 0.017174
Si Si8 0.747951 0.305387 0.638002
O O1 0.500000 0.500000 0.500000
O O2 0.675192 0.600571 0.486844
O O3 0.605086 0.427371 0.327970
O O4 0.684722 0.411789 0.613779
O O5 0.300948 0.186665 0.452179
O O6 0.430174 0.297052 0.353179
O O7 0.197239 0.329666 0.277132
O O8 0.863235 0.494366 0.384494
O O9 0.829988 0.688110 0.305423
O O10 0.000000 0.590917 0.250000
O O11 0.991040 0.631629 0.547099
O O12 0.659579 0.887382 0.811043
O O13 0.506094 0.897031 0.552767
O O14 0.674037 0.012525 0.577264
O O15 0.825267 0.683398 0.010898
O O16 0.330108 0.211143 0.916950
#
# Coordination Sequence:
#
# PCOD9226742 Si02
#       8
#     4   4   4   4   2   4   4   4
#     4  10  19  27  45  76 108 139 170 210 261 330
#     4  11  18  31  53  75 106 143 182 217 273 331
#     4   9  20  33  51  81 110 135 178 224 279 335
#     4  10  20  36  53  81 107 149 191 232 271 322
#     4  10  18  30  44  74 114 142 174 210 270 338
#     4  10  18  32  54  78 105 140 177 225 270 336
#     4  10  20  35  58  76 111 148 191 230 273 326
#     4  11  18  33  54  78 105 147 184 221 272 340
#
# _framework density 21.355194000000001
#
# number of rings (size 3 to 8) (size 9 to 14) (size 15 to 20)
#    0.000    1.867    4.000    2.400    0.000    0.000 
#    0.000    6.667    0.000    0.800    0.000    0.000 
#    0.000    0.000    0.000    0.000    0.000    0.000 
#
# Total GULP energy -167093.312282 kJ/mol
# GULP energy per Si atom -5569.777076 kJ/mol
# Density = 2.130659 g / cm^3
# Si number density = 21.355194 Si / 1000 Ang^3
#
#
#
# Elastic Constant Matrix: (Units=GPa)
#
#
# Indices 1 2 3 4 5 6 
#
# 1 47.8678 23.1067 14.9802 0.0000 3.9090 0.0000
# 2 23.1067 138.4334 29.5799 0.0000 6.6140 0.0000
# 3 14.9802 29.5799 66.3628 0.0000 32.4302 0.0000
# 4 0.0000 0.0000 0.0000 35.6912 0.0000 5.0278
# 5 3.9090 6.6140 32.4302 0.0000 31.8487 0.0000
# 6 0.0000 0.0000 0.0000 5.0278 0.0000 26.1151
#
#
#
# Elastic Compliance Matrix: (Units=1/GPa)
#
#
# Indices 1 2 3 4 5 6 
#
# 1 0.023829 -0.002897 -0.005877 0.000000 0.003661 0.000000
# 2 -0.002897 0.008589 -0.004930 0.000000 0.003591 0.000000
# 3 -0.005877 -0.004930 0.035310 0.000000 -0.034210 0.000000
# 4 0.000000 0.000000 0.000000 0.028799 0.000000 -0.005545
# 5 0.003661 0.003591 -0.034210 0.000000 0.065038 0.000000
# 6 0.000000 0.000000 0.000000 -0.005545 0.000000 0.039359
#
#
# Mechanical properties :
#
#
# Convention : Reuss Voigt Hill
#
# Bulk Modulus (GPa) = 24.80026 43.11085 33.95556
# Shear Modulus (GPa) = 20.68064 31.06417 25.87241
#
# Velocity S-wave (km/s) = 3.11531 3.81812 3.48448
# Velocity P-wave (km/s) = 4.95768 6.29831 5.66777
#
# Compressibility (1/GPa) = 0.04032216
#
# Stress axis : x y z
#
# Youngs Moduli (GPa) = 41.96505 116.42915 28.32037
#
# Poissons Ratio (x) = 0.33725 0.16644
# Poissons Ratio (y) = 0.12156 0.13961
# Poissons Ratio (z) = 0.24663 0.57394
#
# Static dielectric constant tensor:
#      x y z
#    x 1.859420 0.000000 -0.083400 
#    y 0.000000 1.844170 0.000000 
#    z -0.083400 0.000000 2.047040 
# 
# From -- ./inp_files/33906.got.cif
#   From: 2010.05.17/outbox.cif.g08.bks.cpg/sg13_17_cif.got.tgz:33906.got - 2010.06.03 16:44:36.
