data_PCOD9226532
_publ_section_title
;
Structure prediction by ZEFSAII (Michael W. Deem and Ramdas Pophale) SiO2 
 PCOD9226532
Probable space group: P 2/C
;
_chemical_formula_sum "Si O2"
_cell_formula_units_Z 30
_cell_length_a 20.963790
_cell_length_b 11.568713
_cell_length_c 26.858205
_cell_angle_alpha 90.000000
_cell_angle_beta 11.066709
_cell_angle_gamma 90.000000
_cell_volume 1250.327964
_symmetry_space_group_name_H-M "P 2/C"
_symmetry_group_IT_number 13
_symmetry_cell_setting 'monoclinic'
loop_
_space_group_symop_operation_xyz
x,y,z
-x,y,1/2-z
-x,-y,-z
x,-y,1/2+z
loop_
_atom_site_type_symbol
_atom_site_label
_atom_site_fract_x
_atom_site_fract_y
_atom_site_fract_z
Si Si1 0.691105 0.241512 0.696663
Si Si2 0.028106 0.447106 0.560394
Si Si3 0.500000 0.384394 0.750000
Si Si4 0.668820 0.608081 0.773088
Si Si5 0.881487 0.051690 0.477421
Si Si6 0.720495 0.909075 0.920679
Si Si7 0.624089 0.163465 0.018350
Si Si8 0.807377 0.197686 0.052302
O O1 0.479199 0.302391 0.814847
O O2 0.856581 0.128423 0.545203
O O3 0.973983 0.330648 0.493796
O O4 0.510408 0.193268 0.883434
O O5 0.186897 0.531371 0.479897
O O6 0.312776 0.436670 0.297931
O O7 0.988427 0.315054 0.606361
O O8 0.699859 0.503010 0.787618
O O9 0.417567 0.712176 0.976186
O O10 0.103829 0.112358 0.265929
O O11 0.998595 0.919958 0.393591
O O12 0.500000 0.041731 0.750000
O O13 0.000000 0.914909 0.750000
O O14 0.566711 0.038626 0.037342
O O15 0.366549 0.173936 0.261371
O O16 0.000000 0.160621 0.750000
O O17 0.500000 0.213022 0.250000
#
# Coordination Sequence:
#
# PCOD9226532 Si02
#       8
#     4   4   2   4   4   4   4   4
#     4  11  20  37  61  95 130 166 202 259 320 379
#     4   9  18  36  59  93 115 169 214 252 311 374
#     4  10  18  34  64  92 120 162 218 252 306 378
#     4   9  21  36  61  88 127 166 214 258 321 371
#     4  11  19  34  59  96 127 162 210 258 307 381
#     4  11  19  34  59  92 129 161 207 257 312 381
#     4  10  19  35  58  85 122 163 208 257 313 381
#     4  10  17  31  59  92 119 160 213 255 304 377
#
# _framework density 23.993703
#
# number of rings (size 3 to 8) (size 9 to 14) (size 15 to 20)
#    0.000    1.867    4.000    2.400    0.000    0.533 
#    0.000    0.667    5.867   39.200    0.000    0.000 
#    0.000    0.000    0.000    0.000    0.000    0.000 
#
# Total GULP energy -167695.574540 kJ/mol
# GULP energy per Si atom -5589.852485 kJ/mol
# Density = 2.393909 g / cm^3
# Si number density = 23.993703 Si / 1000 Ang^3
#
#
#
# Elastic Constant Matrix: (Units=GPa)
#
#
# Indices 1 2 3 4 5 6 
#
# 1 65.5594 21.2382 21.3418 0.0000 6.8145 0.0000
# 2 21.2382 151.2319 25.7776 0.0000 -6.7928 0.0000
# 3 21.3418 25.7776 50.0140 0.0000 12.2609 0.0000
# 4 0.0000 0.0000 0.0000 22.5396 0.0000 -21.4005
# 5 6.8145 -6.7928 12.2609 0.0000 30.4614 0.0000
# 6 0.0000 0.0000 0.0000 -21.4005 0.0000 18.2068
#
#
#
# Elastic Compliance Matrix: (Units=1/GPa)
#
#
# Indices 1 2 3 4 5 6 
#
# 1 0.018036 -0.001506 -0.006489 0.000000 -0.001759 0.000000
# 2 -0.001506 0.007720 -0.004261 0.000000 0.003774 0.000000
# 3 -0.006489 -0.004261 0.027556 0.000000 -0.010590 0.000000
# 4 0.000000 0.000000 0.000000 -0.382427 0.000000 -0.449510
# 5 -0.001759 0.003774 -0.010590 0.000000 0.038326 0.000000
# 6 0.000000 0.000000 0.000000 -0.449510 0.000000 -0.473435
#
#
# Mechanical properties :
#
#
# Convention : Reuss Voigt Hill
#
# Bulk Modulus (GPa) = 34.72293 44.83560 39.77926
# Shear Modulus (GPa) = -6.84826 27.47140 10.31157
#
# Velocity S-wave (km/s) = -1.69127 3.38737 2.07532
# Velocity P-wave (km/s) = 3.26944 5.83318 4.72839
#
# Compressibility (1/GPa) = 0.02879942
#
# Stress axis : x y z
#
# Youngs Moduli (GPa) = 55.44337 129.53923 36.28994
#
# Poissons Ratio (x) = 0.19507 0.23549
# Poissons Ratio (y) = 0.08349 0.15464
# Poissons Ratio (z) = 0.35978 0.55200
#
# Static dielectric constant tensor:
#      x y z
#    x 2.014590 0.000000 -0.055590 
#    y 0.000000 1.965090 0.000000 
#    z -0.055590 0.000000 1.894850 
# 
# From -- ./inp_files/97742.got.cif
#   From: 2010.05.17/outbox.cif.g08.bks.cpg/sg13_49_cif.got.tgz:97742.got - 2010.06.03 16:44:36.
