data_PCOD9226153
_publ_section_title
;
Structure prediction by ZEFSAII (Michael W. Deem and Ramdas Pophale) SiO2 
 PCOD9226153
Probable space group: P 2/C
;
_chemical_formula_sum "Si O2"
_cell_formula_units_Z 28
_cell_length_a 13.957085
_cell_length_b 8.980979
_cell_length_c 17.217613
_cell_angle_alpha 90.000000
_cell_angle_beta 133.475297
_cell_angle_gamma 90.000000
_cell_volume 1566.142106
_symmetry_space_group_name_H-M "P 2/C"
_symmetry_group_IT_number 13
_symmetry_cell_setting 'monoclinic'
loop_
_space_group_symop_operation_xyz
x,y,z
-x,y,1/2-z
-x,-y,-z
x,-y,1/2+z
loop_
_atom_site_type_symbol
_atom_site_label
_atom_site_fract_x
_atom_site_fract_y
_atom_site_fract_z
Si Si1 0.707964 0.851617 0.162350
Si Si2 0.452963 0.353691 0.518144
Si Si3 0.633067 0.818349 0.672959
Si Si4 0.630523 0.231680 0.876333
Si Si5 0.337138 0.105277 0.040149
Si Si6 0.866785 0.816195 0.395791
Si Si7 0.838187 0.828844 0.914533
O O1 0.584857 0.742589 0.104315
O O2 0.826563 0.797115 0.283170
O O3 0.662535 0.010169 0.170433
O O4 0.724770 0.875196 0.079884
O O5 0.500000 0.500000 0.500000
O O6 0.363014 0.268732 0.405459
O O7 0.384523 0.353888 0.563995
O O8 0.482455 0.819363 0.620140
O O9 0.742127 0.765357 0.794686
O O10 0.500000 0.227684 0.750000
O O11 0.755950 0.253055 0.890215
O O12 0.644452 0.068920 0.925807
O O13 0.241918 0.177284 0.050250
O O14 0.014767 0.765526 0.497058
O O15 0.856901 0.994429 0.406552
#
# Coordination Sequence:
#
# PCOD9226153 Si02
#       7
#     4   4   4   4   4   4   4
#     4  10  17  32  54  79 107 142 171 224 273 320
#     4  11  21  33  52  84 105 131 182 235 268 312
#     4  10  17  33  53  77 109 137 178 220 277 317
#     4  11  17  32  54  78 103 148 178 216 273 333
#     4  10  16  27  53  81 109 138 180 212 272 318
#     4   9  18  30  50  79 114 138 183 211 269 326
#     4   9  18  29  47  83 113 140 170 230 257 319
#
# _framework density 17.878326999999999
#
# number of rings (size 3 to 8) (size 9 to 14) (size 15 to 20)
#    0.000    2.000    4.286    3.000    0.000    0.571 
#    0.000    3.571    0.000    0.857    7.429    0.000 
#    0.000    0.000    0.000    0.000    0.000    0.000 
#
# Total GULP energy -156050.352623 kJ/mol
# GULP energy per Si atom -5573.226879 kJ/mol
# Density = 1.783763 g / cm^3
# Si number density = 17.878327 Si / 1000 Ang^3
#
#
#
# Elastic Constant Matrix: (Units=GPa)
#
#
# Indices 1 2 3 4 5 6 
#
# 1 98.2740 10.5800 95.3526 0.0000 -7.8190 0.0000
# 2 10.5800 26.3073 19.9357 0.0000 -2.4906 0.0000
# 3 95.3526 19.9357 171.4630 0.0000 -7.0552 0.0000
# 4 0.0000 0.0000 0.0000 -6.2488 0.0000 -3.8366
# 5 -7.8190 -2.4906 -7.0552 0.0000 21.6278 0.0000
# 6 0.0000 0.0000 0.0000 -3.8366 0.0000 14.9700
#
#
#
# Elastic Compliance Matrix: (Units=1/GPa)
#
#
# Indices 1 2 3 4 5 6 
#
# 1 0.022468 0.000764 -0.012412 0.000000 0.004162 0.000000
# 2 0.000764 0.041940 -0.005160 0.000000 0.003423 0.000000
# 3 -0.012412 -0.005160 0.013304 0.000000 -0.000742 0.000000
# 4 0.000000 0.000000 0.000000 -0.138273 0.000000 -0.035438
# 5 0.004162 0.003423 -0.000742 0.000000 0.047894 0.000000
# 6 0.000000 0.000000 0.000000 -0.035438 0.000000 0.057718
#
#
# Mechanical properties :
#
#
# Convention : Reuss Voigt Hill
#
# Bulk Modulus (GPa) = 22.67848 60.86457 41.77152
# Shear Modulus (GPa) = 53.55349 17.41487 35.48418
#
# Velocity S-wave (km/s) = 5.47900 3.12441 4.45990
# Velocity P-wave (km/s) = 7.26212 6.86539 7.06654
#
# Compressibility (1/GPa) = 0.04409467
#
# Stress axis : x y z
#
# Youngs Moduli (GPa) = 44.50851 23.84382 75.16450
#
# Poissons Ratio (x) = -0.01822 0.93295
# Poissons Ratio (y) = -0.03401 0.38788
# Poissons Ratio (z) = 0.55244 0.12304
#
# Static dielectric constant tensor:
#      x y z
#    x 1.616310 0.000000 -0.018750 
#    y 0.000000 1.642670 0.000000 
#    z -0.018750 0.000000 1.636510 
# 
# From -- ./inp_files/68232.got.cif
#   From: 2010.05.17/outbox.cif.g08.bks.cpg/sg13_35_cif.got.tgz:68232.got - 2010.06.03 16:44:36.
