data_PCOD9226051
_publ_section_title
;
Structure prediction by ZEFSAII (Michael W. Deem and Ramdas Pophale) SiO2 
 PCOD9226051
Probable space group: P 2/C
;
_chemical_formula_sum "Si O2"
_cell_formula_units_Z 22
_cell_length_a 9.246938
_cell_length_b 22.432875
_cell_length_c 5.278131
_cell_angle_alpha 90.000000
_cell_angle_beta 81.845709
_cell_angle_gamma 90.000000
_cell_volume 1083.801763
_symmetry_space_group_name_H-M "P 2/C"
_symmetry_group_IT_number 13
_symmetry_cell_setting 'monoclinic'
loop_
_space_group_symop_operation_xyz
x,y,z
-x,y,1/2-z
-x,-y,-z
x,-y,1/2+z
loop_
_atom_site_type_symbol
_atom_site_label
_atom_site_fract_x
_atom_site_fract_y
_atom_site_fract_z
Si Si1 0.000000 0.870668 0.750000
Si Si2 0.805758 0.960414 0.517381
Si Si3 0.158074 0.212961 0.846469
Si Si4 0.097694 0.339022 0.979355
Si Si5 0.408823 0.857838 0.013630
Si Si6 0.168412 0.474164 0.972428
O O1 0.933180 0.913262 0.551330
O O2 0.125747 0.830044 0.593493
O O3 0.660062 0.920821 0.553189
O O4 0.813034 0.992964 0.246468
O O5 0.195585 0.280494 0.914614
O O6 0.276796 0.184983 0.632289
O O7 0.000000 0.216285 0.750000
O O8 0.167253 0.403510 0.007195
O O9 0.000000 0.346687 0.750000
O O10 0.000000 0.325637 0.250000
O O11 0.500000 0.834868 0.750000
O O12 0.500000 0.865607 0.250000
O O13 0.237682 0.493059 0.692264
O O14 0.000000 0.500000 0.000000
#
# Coordination Sequence:
#
# PCOD9226051 Si02
#       6
#     2   4   4   4   4   4
#     4  12  22  42  66  96 130 162 200 258 320 378
#     4  12  26  43  67  95 124 158 203 255 314 385
#     4  11  24  41  66  92 126 161 213 256 310 370
#     4  11  19  30  50  83 116 160 198 247 294 361
#     4  12  27  47  68  92 126 165 204 258 323 378
#     4  10  15  25  42  69 118 163 187 228 302 360
#
# _framework density 20.298915999999998
#
# number of rings (size 3 to 8) (size 9 to 14) (size 15 to 20)
#    0.000    0.727    6.364    3.818    0.000    2.182 
#    0.000    0.000    0.000    0.000    0.000    0.000 
#    0.000    4.364    0.000    0.000    0.000    0.000 
#
# Total GULP energy -122929.330653 kJ/mol
# GULP energy per Si atom -5587.696848 kJ/mol
# Density = 2.025271 g / cm^3
# Si number density = 20.298916 Si / 1000 Ang^3
#
#
#
# Elastic Constant Matrix: (Units=GPa)
#
#
# Indices 1 2 3 4 5 6 
#
# 1 59.0978 30.3257 28.5998 0.0000 -1.9312 0.0000
# 2 30.3257 143.3853 38.1843 0.0000 -18.1045 0.0000
# 3 28.5998 38.1843 146.5559 0.0000 -4.8267 0.0000
# 4 0.0000 0.0000 0.0000 59.2674 0.0000 13.4946
# 5 -1.9312 -18.1045 -4.8267 0.0000 32.2533 0.0000
# 6 0.0000 0.0000 0.0000 13.4946 0.0000 8.4273
#
#
#
# Elastic Compliance Matrix: (Units=1/GPa)
#
#
# Indices 1 2 3 4 5 6 
#
# 1 0.020212 -0.003627 -0.003042 0.000000 -0.001281 0.000000
# 2 -0.003627 0.008677 -0.001407 0.000000 0.004443 0.000000
# 3 -0.003042 -0.001407 0.007790 0.000000 0.000194 0.000000
# 4 0.000000 0.000000 0.000000 0.026554 0.000000 -0.042521
# 5 -0.001281 0.004443 0.000194 0.000000 0.033451 0.000000
# 6 0.000000 0.000000 0.000000 -0.042521 0.000000 0.186751
#
#
# Mechanical properties :
#
#
# Convention : Reuss Voigt Hill
#
# Bulk Modulus (GPa) = 48.71133 60.36206 54.53669
# Shear Modulus (GPa) = 16.31709 36.78488 26.55099
#
# Velocity S-wave (km/s) = 2.83828 4.26157 3.62055
# Velocity P-wave (km/s) = 5.89833 7.34954 6.66356
#
# Compressibility (1/GPa) = 0.02052911
#
# Stress axis : x y z
#
# Youngs Moduli (GPa) = 49.47520 115.24997 128.37325
#
# Poissons Ratio (x) = 0.41796 0.39046
# Poissons Ratio (y) = 0.17942 0.18058
# Poissons Ratio (z) = 0.15048 0.16212
#
# Static dielectric constant tensor:
#      x y z
#    x 1.740020 0.000000 0.059700 
#    y 0.000000 1.735630 0.000000 
#    z 0.059700 0.000000 1.757490 
# 
# From -- ./inp_files/2105.got.cif
#   From: 2010.05.17/outbox.cif.g08.bks.cpg/sg13_2_cif.got.tgz:2105.got - 2010.06.03 16:44:36.
