data_PCOD9226297
_publ_section_title
;
Structure prediction by ZEFSAII (Michael W. Deem and Ramdas Pophale) SiO2 
 PCOD9226297
Probable space group: P 2/C
;
_chemical_formula_sum "Si O2"
_cell_formula_units_Z 20
_cell_length_a 7.138175
_cell_length_b 23.388904
_cell_length_c 5.590785
_cell_angle_alpha 90.000000
_cell_angle_beta 108.164443
_cell_angle_gamma 90.000000
_cell_volume 886.888865
_symmetry_space_group_name_H-M "P 2/C"
_symmetry_group_IT_number 13
_symmetry_cell_setting 'monoclinic'
loop_
_space_group_symop_operation_xyz
x,y,z
-x,y,1/2-z
-x,-y,-z
x,-y,1/2+z
loop_
_atom_site_type_symbol
_atom_site_label
_atom_site_fract_x
_atom_site_fract_y
_atom_site_fract_z
Si Si1 0.281221 0.731757 0.768376
Si Si2 0.228664 0.977412 0.567031
Si Si3 0.500000 0.681248 0.250000
Si Si4 0.500000 0.534461 0.750000
Si Si5 0.804331 0.621625 0.026594
Si Si6 0.112179 0.853229 0.547687
O O1 0.500000 0.726320 0.750000
O O2 0.158456 0.678920 0.614139
O O3 0.203151 0.792682 0.658862
O O4 0.331705 0.721275 0.064948
O O5 0.242172 0.909087 0.548396
O O6 0.307846 0.004920 0.356016
O O7 0.000000 0.000000 0.500000
O O8 0.625978 0.640249 0.130640
O O9 0.500000 0.500000 0.500000
O O10 0.299750 0.572653 0.669587
O O11 0.000000 0.605605 0.250000
O O12 0.000000 0.870264 0.750000
O O13 0.000000 0.844706 0.250000
#
# Coordination Sequence:
#
# PCOD9226297 Si02
#       6
#     4   4   2   2   4   4
#     4  10  24  41  63  93 137 180 220 289 358 409
#     4  10  16  33  52  82 121 168 206 282 344 390
#     4  10  21  46  66  98 144 187 228 292 362 418
#     4  12  27  50  76 110 152 189 240 292 344 420
#     4  11  24  46  74 103 144 191 236 289 359 417
#     4  12  23  35  61  98 125 161 234 283 333 428
#
# _framework density 22.550740000000001
#
# number of rings (size 3 to 8) (size 9 to 14) (size 15 to 20)
#    0.000    1.200    7.000    1.200    8.400    0.800 
#    0.000    0.000    0.000    1.200    0.000    0.000 
#    0.000    0.000    0.000    0.000    0.000    0.000 
#
# Total GULP energy -111576.277148 kJ/mol
# GULP energy per Si atom -5578.813857 kJ/mol
# Density = 2.249941 g / cm^3
# Si number density = 22.550740 Si / 1000 Ang^3
#
#
#
# Elastic Constant Matrix: (Units=GPa)
#
#
# Indices 1 2 3 4 5 6 
#
# 1 48.3832 17.6622 49.5804 0.0000 12.9087 0.0000
# 2 17.6622 163.5180 81.5070 0.0000 21.1506 0.0000
# 3 49.5804 81.5070 191.0334 0.0000 12.3560 0.0000
# 4 0.0000 0.0000 0.0000 59.8228 0.0000 3.6286
# 5 12.9087 21.1506 12.3560 0.0000 47.4843 0.0000
# 6 0.0000 0.0000 0.0000 3.6286 0.0000 16.7541
#
#
#
# Elastic Compliance Matrix: (Units=1/GPa)
#
#
# Indices 1 2 3 4 5 6 
#
# 1 0.030189 0.001662 -0.008102 0.000000 -0.006839 0.000000
# 2 0.001662 0.008199 -0.003727 0.000000 -0.003134 0.000000
# 3 -0.008102 -0.003727 0.008826 0.000000 0.001566 0.000000
# 4 0.000000 0.000000 0.000000 0.016939 0.000000 -0.003669
# 5 -0.006839 -0.003134 0.001566 0.000000 0.023907 0.000000
# 6 0.000000 0.000000 0.000000 -0.003669 0.000000 0.060481
#
#
# Mechanical properties :
#
#
# Convention : Reuss Voigt Hill
#
# Bulk Modulus (GPa) = 37.20127 77.82599 57.51363
# Shear Modulus (GPa) = 28.11593 41.75791 34.93692
#
# Velocity S-wave (km/s) = 3.53482 4.30784 3.94033
# Velocity P-wave (km/s) = 5.76128 7.70258 6.80155
#
# Compressibility (1/GPa) = 0.02688080
#
# Stress axis : x y z
#
# Youngs Moduli (GPa) = 33.12503 121.96420 113.29707
#
# Poissons Ratio (x) = -0.20275 0.91793
# Poissons Ratio (y) = -0.05507 0.42226
# Poissons Ratio (z) = 0.26838 0.45456
#
# Static dielectric constant tensor:
#      x y z
#    x 1.873410 0.000000 -0.044620 
#    y 0.000000 1.839210 0.000000 
#    z -0.044620 0.000000 2.011930 
# 
# From -- ./inp_files/2246.got.cif
#   From: 2010.05.17/outbox.cif.g08.bks.cpg/sg13_2_cif.got.tgz:2246.got - 2010.06.03 16:44:36.
