data_PCOD9226192
_publ_section_title
;
Structure prediction by ZEFSAII (Michael W. Deem and Ramdas Pophale) SiO2 
 PCOD9226192
Probable space group: P 2/C
;
_chemical_formula_sum "Si O2"
_cell_formula_units_Z 22
_cell_length_a 14.652568
_cell_length_b 15.628487
_cell_length_c 5.553091
_cell_angle_alpha 90.000000
_cell_angle_beta 100.904273
_cell_angle_gamma 90.000000
_cell_volume 1248.683754
_symmetry_space_group_name_H-M "P 2/C"
_symmetry_group_IT_number 13
_symmetry_cell_setting 'monoclinic'
loop_
_space_group_symop_operation_xyz
x,y,z
-x,y,1/2-z
-x,-y,-z
x,-y,1/2+z
loop_
_atom_site_type_symbol
_atom_site_label
_atom_site_fract_x
_atom_site_fract_y
_atom_site_fract_z
Si Si1 0.606465 0.034766 0.053002
Si Si2 0.000000 0.446706 0.750000
Si Si3 0.330392 0.506028 0.413764
Si Si4 0.188187 0.338638 0.843218
Si Si5 0.557037 0.766808 0.528442
Si Si6 0.750588 0.675970 0.626197
O O1 0.597584 0.136730 0.048352
O O2 0.648723 0.000056 0.324158
O O3 0.500000 0.000000 0.000000
O O4 0.092209 0.389251 0.795948
O O5 0.000000 0.500000 0.500000
O O6 0.383577 0.500019 0.690316
O O7 0.274221 0.594281 0.385762
O O8 0.253896 0.428607 0.375648
O O9 0.200852 0.292503 0.593847
O O10 0.201210 0.292377 0.105108
O O11 0.500000 0.756339 0.750000
O O12 0.643646 0.703309 0.572105
O O13 0.500000 0.756139 0.250000
#
# Coordination Sequence:
#
# PCOD9226192 Si02
#       6
#     4   2   4   4   4   4
#     4  10  16  30  48  69  94 120 149 190 256 288
#     4  12  20  30  54  84  96 118 172 212 244 316
#     4   8  14  27  44  56  78 117 148 179 232 269
#     4  10  19  33  49  69  97 128 158 202 253 291
#     4  12  21  32  50  71  95 129 174 198 233 301
#     4  10  20  32  46  67  97 130 158 202 249 290
#
# _framework density 17.618552999999999
#
# number of rings (size 3 to 8) (size 9 to 14) (size 15 to 20)
#    0.000    1.818    3.636    5.455    0.000    0.000 
#    0.000    0.000    0.000   29.455    0.000    0.000 
#    0.000    0.000    0.000   16.364    0.000    0.545 
#
# Total GULP energy -122522.527967 kJ/mol
# GULP energy per Si atom -5569.205817 kJ/mol
# Density = 1.757845 g / cm^3
# Si number density = 17.618553 Si / 1000 Ang^3
#
#
#
# Elastic Constant Matrix: (Units=GPa)
#
#
# Indices 1 2 3 4 5 6 
#
# 1 60.5803 7.5505 55.7867 0.0000 -2.0397 0.0000
# 2 7.5505 21.0268 5.3494 0.0000 0.2761 0.0000
# 3 55.7867 5.3494 239.5344 0.0000 -31.9800 0.0000
# 4 0.0000 0.0000 0.0000 14.1036 0.0000 -0.8084
# 5 -2.0397 0.2761 -31.9800 0.0000 14.8427 0.0000
# 6 0.0000 0.0000 0.0000 -0.8084 0.0000 9.8156
#
#
#
# Elastic Compliance Matrix: (Units=1/GPa)
#
#
# Indices 1 2 3 4 5 6 
#
# 1 0.023145 -0.006447 -0.006746 0.000000 -0.011235 0.000000
# 2 -0.006447 0.049839 0.000206 0.000000 -0.001370 0.000000
# 3 -0.006746 0.000206 0.007885 0.000000 0.016059 0.000000
# 4 0.000000 0.000000 0.000000 0.071240 0.000000 0.005867
# 5 -0.011235 -0.001370 0.016059 0.000000 0.100455 0.000000
# 6 0.000000 0.000000 0.000000 0.005867 0.000000 0.102362
#
#
# Mechanical properties :
#
#
# Convention : Reuss Voigt Hill
#
# Bulk Modulus (GPa) = 18.21712 50.94608 34.58160
# Shear Modulus (GPa) = 12.52505 24.58272 18.55389
#
# Velocity S-wave (km/s) = 2.66917 3.73939 3.24865
# Velocity P-wave (km/s) = 4.45662 6.90094 5.80880
#
# Compressibility (1/GPa) = 0.05489342
#
# Stress axis : x y z
#
# Youngs Moduli (GPa) = 43.20626 20.06455 126.81708
#
# Poissons Ratio (x) = 0.12936 0.85555
# Poissons Ratio (y) = 0.27856 -0.02607
# Poissons Ratio (z) = 0.29148 -0.00412
#
# Static dielectric constant tensor:
#      x y z
#    x 1.551100 0.000000 -0.046400 
#    y 0.000000 1.810800 0.000000 
#    z -0.046400 0.000000 1.787210 
# 
# From -- ./inp_files/4891.got.cif
#   From: 2010.05.17/outbox.cif.g08.bks.cpg/sg13_3_cif.got.tgz:4891.got - 2010.06.03 16:44:36.
