data_PCOD9226868
_publ_section_title
;
Structure prediction by ZEFSAII (Michael W. Deem and Ramdas Pophale) SiO2 
 PCOD9226868
Probable space group: P 2/C
;
_chemical_formula_sum "Si O2"
_cell_formula_units_Z 32
_cell_length_a 17.900046
_cell_length_b 7.781710
_cell_length_c 22.585997
_cell_angle_alpha 90.000000
_cell_angle_beta 37.577569
_cell_angle_gamma 90.000000
_cell_volume 1918.583735
_symmetry_space_group_name_H-M "P 2/C"
_symmetry_group_IT_number 13
_symmetry_cell_setting 'monoclinic'
loop_
_space_group_symop_operation_xyz
x,y,z
-x,y,1/2-z
-x,-y,-z
x,-y,1/2+z
loop_
_atom_site_type_symbol
_atom_site_label
_atom_site_fract_x
_atom_site_fract_y
_atom_site_fract_z
Si Si1 0.382688 0.677715 0.867312
Si Si2 0.348918 0.124696 0.138774
Si Si3 0.544530 0.462119 0.364946
Si Si4 0.774420 0.462120 0.135055
Si Si5 0.616769 0.916667 0.133231
Si Si6 0.466313 0.176781 0.944376
Si Si7 0.126465 0.875304 0.861226
Si Si8 0.855067 0.176782 0.555624
O O1 0.500000 0.666556 0.750000
O O2 0.426177 0.590267 0.900394
O O3 0.273036 0.590264 0.900394
O O4 0.360590 0.879851 0.889409
O O5 0.411650 0.295501 0.126642
O O6 0.211899 0.116594 0.250000
O O7 0.425337 0.961771 0.114976
O O8 0.367015 0.133800 0.057115
O O9 0.654817 0.504650 0.250000
O O10 0.516301 0.630454 0.420390
O O11 0.835065 0.295500 0.126642
O O12 0.857081 0.630453 0.079611
O O13 0.500000 0.894289 0.250000
O O14 0.584857 0.838704 0.089748
O O15 0.735649 0.838703 0.089748
O O16 0.155289 0.038230 0.885024
O O17 0.981244 0.866198 0.942885
#
# Coordination Sequence:
#
# PCOD9226868 Si02
#       8
#     4   4   4   4   4   4   4   4
#     4   9  17  29  49  76 106 132 160 210 261 295
#     4  10  21  36  51  75 109 137 170 212 252 301
#     4  10  18  31  51  77 107 136 167 209 256 302
#     4  10  18  31  51  77 107 136 167 209 256 302
#     4  11  19  33  54  78 104 130 167 216 264 301
#     4  11  21  33  55  80 101 137 174 207 257 310
#     4  10  21  36  51  75 109 137 170 212 252 301
#     4  11  21  33  55  80 101 137 174 207 257 310
#
# _framework density 16.67897
#
# number of rings (size 3 to 8) (size 9 to 14) (size 15 to 20)
#    0.000    1.750    2.500    3.750    0.000    1.000 
#    0.000    0.625    0.000    0.000    0.000    0.000 
#    0.000    0.000    0.000    0.000    0.000    0.000 
#
# Total GULP energy -178583.029248 kJ/mol
# GULP energy per Si atom -5580.719664 kJ/mol
# Density = 1.664101 g / cm^3
# Si number density = 16.678970 Si / 1000 Ang^3
#
#
#
# Elastic Constant Matrix: (Units=GPa)
#
#
# Indices 1 2 3 4 5 6 
#
# 1 55.3496 7.2430 37.5585 0.0000 0.8189 0.0000
# 2 7.2430 97.5577 25.3109 0.0000 0.7855 0.0000
# 3 37.5585 25.3109 99.6553 0.0000 1.1080 0.0000
# 4 0.0000 0.0000 0.0000 20.9671 0.0000 0.4491
# 5 0.8189 0.7855 1.1080 0.0000 18.3243 0.0000
# 6 0.0000 0.0000 0.0000 0.4491 0.0000 10.6379
#
#
#
# Elastic Compliance Matrix: (Units=1/GPa)
#
#
# Indices 1 2 3 4 5 6 
#
# 1 0.024315 0.000616 -0.009314 0.000000 -0.000550 0.000000
# 2 0.000616 0.010991 -0.003020 0.000000 -0.000316 0.000000
# 3 -0.009314 -0.003020 0.014316 0.000000 -0.000320 0.000000
# 4 0.000000 0.000000 0.000000 0.047737 0.000000 -0.002015
# 5 -0.000550 -0.000316 -0.000320 0.000000 0.054630 0.000000
# 6 0.000000 0.000000 0.000000 -0.002015 0.000000 0.094089
#
#
# Mechanical properties :
#
#
# Convention : Reuss Voigt Hill
#
# Bulk Modulus (GPa) = 38.19094 43.64303 40.91698
# Shear Modulus (GPa) = 17.97001 22.14921 20.05961
#
# Velocity S-wave (km/s) = 3.28595 3.64809 3.47174
# Velocity P-wave (km/s) = 6.11097 6.63084 6.37621
#
# Compressibility (1/GPa) = 0.02618422
#
# Stress axis : x y z
#
# Youngs Moduli (GPa) = 41.12716 90.98595 69.85416
#
# Poissons Ratio (x) = -0.05602 0.65063
# Poissons Ratio (y) = -0.02532 0.21096
# Poissons Ratio (z) = 0.38306 0.27478
#
# Static dielectric constant tensor:
#      x y z
#    x 1.554700 0.000000 -0.000070 
#    y 0.000000 1.581340 0.000000 
#    z -0.000070 0.000000 1.552990 
# 
# From -- ./inp_files/79796.got.cif
#   From: 2010.05.17/outbox.cif.g08.bks.cpg/sg13_40_cif.got.tgz:79796.got - 2010.06.03 16:44:36.
