data_PCOD9226841
_publ_section_title
;
Structure prediction by ZEFSAII (Michael W. Deem and Ramdas Pophale) SiO2 
 PCOD9226841
Probable space group: P 2/C
;
_chemical_formula_sum "Si O2"
_cell_formula_units_Z 30
_cell_length_a 17.597540
_cell_length_b 8.443124
_cell_length_c 13.888291
_cell_angle_alpha 90.000000
_cell_angle_beta 137.012136
_cell_angle_gamma 90.000000
_cell_volume 1406.982187
_symmetry_space_group_name_H-M "P 2/C"
_symmetry_group_IT_number 13
_symmetry_cell_setting 'monoclinic'
loop_
_space_group_symop_operation_xyz
x,y,z
-x,y,1/2-z
-x,-y,-z
x,-y,1/2+z
loop_
_atom_site_type_symbol
_atom_site_label
_atom_site_fract_x
_atom_site_fract_y
_atom_site_fract_z
Si Si1 0.763588 0.925737 0.161686
Si Si2 0.349550 0.401165 0.362725
Si Si3 0.873866 0.307373 0.607939
Si Si4 0.411234 0.300921 0.979852
Si Si5 0.302272 0.552696 0.127752
Si Si6 0.220393 0.112432 0.150591
Si Si7 0.364233 0.089607 0.630657
Si Si8 0.500000 0.673938 0.750000
O O1 0.823944 0.795818 0.150340
O O2 0.668796 0.831278 0.132769
O O3 0.830968 0.004973 0.311848
O O4 0.701522 0.043578 0.029308
O O5 0.476388 0.336846 0.473150
O O6 0.358848 0.525850 0.458754
O O7 0.303164 0.533576 0.244207
O O8 0.277783 0.250709 0.267837
O O9 0.803315 0.464725 0.517046
O O10 0.861394 0.195901 0.501597
O O11 0.000000 0.345923 0.750000
O O12 0.448132 0.228675 0.116449
O O13 0.327231 0.729714 0.119324
O O14 0.405821 0.435537 0.206063
O O15 0.311537 0.025507 0.165150
O O16 0.500000 0.088669 0.750000
#
# Coordination Sequence:
#
# PCOD9226841 Si02
#       8
#     4   4   4   4   4   4   4   2
#     4  11  23  36  61  88 126 162 199 260 308 366
#     4   9  20  33  56  81 122 163 203 244 291 366
#     4  10  23  45  66  85 114 162 213 261 308 360
#     4  10  19  32  54  82 119 166 200 238 298 356
#     4  10  19  37  58  85 118 156 205 250 297 367
#     4  10  23  40  57  92 125 156 207 253 310 373
#     4  11  23  35  59  94 134 167 195 245 312 376
#     4  10  18  30  56  82 118 150 198 242 288 366
#
# _framework density 21.322232
#
# number of rings (size 3 to 8) (size 9 to 14) (size 15 to 20)
#    0.000    1.867    2.000    1.600    4.667    3.733 
#    0.000    2.667    0.000   11.200    0.000    0.000 
#    0.000    0.000    0.000    0.000    0.000    0.000 
#
# Total GULP energy -167040.459382 kJ/mol
# GULP energy per Si atom -5568.015313 kJ/mol
# Density = 2.127370 g / cm^3
# Si number density = 21.322232 Si / 1000 Ang^3
#
#
#
# Elastic Constant Matrix: (Units=GPa)
#
#
# Indices 1 2 3 4 5 6 
#
# 1 32.2502 16.0048 36.5736 0.0000 -6.6586 0.0000
# 2 16.0048 101.1987 34.7005 0.0000 2.9960 0.0000
# 3 36.5736 34.7005 94.5481 0.0000 7.8986 0.0000
# 4 0.0000 0.0000 0.0000 5.0714 0.0000 -16.7665
# 5 -6.6586 2.9960 7.8986 0.0000 36.3991 0.0000
# 6 0.0000 0.0000 0.0000 -16.7665 0.0000 19.4931
#
#
#
# Elastic Compliance Matrix: (Units=1/GPa)
#
#
# Indices 1 2 3 4 5 6 
#
# 1 0.064996 -0.001916 -0.025915 0.000000 0.017671 0.000000
# 2 -0.001916 0.011361 -0.003382 0.000000 -0.000552 0.000000
# 3 -0.025915 -0.003382 0.022626 0.000000 -0.009372 0.000000
# 4 0.000000 0.000000 0.000000 -0.106953 0.000000 -0.091993
# 5 0.017671 -0.000552 -0.009372 0.000000 0.032785 0.000000
# 6 0.000000 0.000000 0.000000 -0.091993 0.000000 -0.027826
#
#
# Mechanical properties :
#
#
# Convention : Reuss Voigt Hill
#
# Bulk Modulus (GPa) = 27.35580 44.72830 36.04205
# Shear Modulus (GPa) = 69.83121 21.57395 45.70258
#
# Velocity S-wave (km/s) = 5.72901 3.18434 4.63474
# Velocity P-wave (km/s) = 7.52460 5.87732 6.75139
#
# Compressibility (1/GPa) = 0.03655532
#
# Stress axis : x y z
#
# Youngs Moduli (GPa) = 15.38545 88.02293 44.19787
#
# Poissons Ratio (x) = 0.16868 1.14540
# Poissons Ratio (y) = 0.02948 0.14948
# Poissons Ratio (z) = 0.39872 0.29771
#
# Static dielectric constant tensor:
#      x y z
#    x 1.827650 0.000000 -0.073080 
#    y 0.000000 1.821270 0.000000 
#    z -0.073080 0.000000 1.843180 
# 
# From -- ./inp_files/57056.got.cif
#   From: 2010.05.17/outbox.cif.g08.bks.cpg/sg13_29_cif.got.tgz:57056.got - 2010.06.03 16:44:36.
