data_PCOD9226069
_publ_section_title
;
Structure prediction by ZEFSAII (Michael W. Deem and Ramdas Pophale) SiO2 
 PCOD9226069
Probable space group: P 2/C
;
_chemical_formula_sum "Si O2"
_cell_formula_units_Z 30
_cell_length_a 17.830140
_cell_length_b 8.718488
_cell_length_c 20.147293
_cell_angle_alpha 90.000000
_cell_angle_beta 157.337292
_cell_angle_gamma 90.000000
_cell_volume 1206.751505
_symmetry_space_group_name_H-M "P 2/C"
_symmetry_group_IT_number 13
_symmetry_cell_setting 'monoclinic'
loop_
_space_group_symop_operation_xyz
x,y,z
-x,y,1/2-z
-x,-y,-z
x,-y,1/2+z
loop_
_atom_site_type_symbol
_atom_site_label
_atom_site_fract_x
_atom_site_fract_y
_atom_site_fract_z
Si Si1 0.616148 0.795466 0.998910
Si Si2 0.802823 0.540591 0.785427
Si Si3 0.875622 0.509626 0.209002
Si Si4 0.729839 0.937841 0.959860
Si Si5 0.771865 0.717141 0.885664
Si Si6 0.470318 0.258679 0.935835
Si Si7 0.500000 0.507423 0.250000
Si Si8 0.294642 0.760944 0.993578
O O1 0.684835 0.616665 0.055522
O O2 0.625084 0.842044 0.083314
O O3 0.398049 0.806682 0.793897
O O4 0.744435 0.869965 0.046065
O O5 0.945529 0.488998 0.841903
O O6 0.878074 0.635373 0.909986
O O7 0.681733 0.391183 0.709172
O O8 0.644409 0.649278 0.616803
O O9 0.000000 0.573335 0.250000
O O10 0.852497 0.331395 0.172755
O O11 0.500000 0.931978 0.750000
O O12 0.774938 0.114792 0.010763
O O13 0.849580 0.841046 0.002991
O O14 0.647759 0.599316 0.830035
O O15 0.550475 0.177815 0.934995
O O16 0.387643 0.620122 0.109391
#
# Coordination Sequence:
#
# PCOD9226069 Si02
#       8
#     4   4   4   4   4   4   2   4
#     4   9  16  30  47  71  96 126 161 201 244 297
#     4   8  14  26  47  71  93 124 166 206 242 280
#     4  10  19  33  53  72  95 130 174 210 236 278
#     4  10  19  28  45  74 107 128 152 192 256 310
#     4  10  15  28  48  73  99 128 156 196 251 299
#     4   8  14  25  45  69  98 122 153 203 250 290
#     4  12  16  26  52  72  96 130 154 202 238 288
#     4  11  19  29  45  77 103 127 157 199 254 293
#
# _framework density 24.860130000000002
#
# number of rings (size 3 to 8) (size 9 to 14) (size 15 to 20)
#    0.000    2.400    5.333    1.600    0.000    0.533 
#    0.000    0.667    0.000    4.000    0.000    0.000 
#    0.000    5.333    0.000    0.000    0.000    0.000 
#
# Total GULP energy -167272.995460 kJ/mol
# GULP energy per Si atom -5575.766515 kJ/mol
# Density = 2.480355 g / cm^3
# Si number density = 24.860130 Si / 1000 Ang^3
#
#
#
# Elastic Constant Matrix: (Units=GPa)
#
#
# Indices 1 2 3 4 5 6 
#
# 1 153.9697 35.3012 21.8764 0.0000 -15.1416 0.0000
# 2 35.3012 91.5117 8.7779 0.0000 -15.4560 0.0000
# 3 21.8764 8.7779 39.8373 0.0000 -15.8826 0.0000
# 4 0.0000 0.0000 0.0000 13.8575 0.0000 -18.5284
# 5 -15.1416 -15.4560 -15.8826 0.0000 32.0734 0.0000
# 6 0.0000 0.0000 0.0000 -18.5284 0.0000 35.5223
#
#
#
# Elastic Compliance Matrix: (Units=1/GPa)
#
#
# Indices 1 2 3 4 5 6 
#
# 1 0.007613 -0.002492 -0.003336 0.000000 0.000741 0.000000
# 2 -0.002492 0.012717 0.000673 0.000000 0.005285 0.000000
# 3 -0.003336 0.000673 0.032754 0.000000 0.014969 0.000000
# 4 0.000000 0.000000 0.000000 0.238492 0.000000 0.124398
# 5 0.000741 0.005285 0.014969 0.000000 0.041488 0.000000
# 6 0.000000 0.000000 0.000000 0.124398 0.000000 0.093037
#
#
# Mechanical properties :
#
#
# Convention : Reuss Voigt Hill
#
# Bulk Modulus (GPa) = 23.37817 46.35885 34.86851
# Shear Modulus (GPa) = 11.09464 30.91482 21.00473
#
# Velocity S-wave (km/s) = 2.11483 3.53023 2.90990
# Velocity P-wave (km/s) = 3.92271 5.94180 5.03451
#
# Compressibility (1/GPa) = 0.04277495
#
# Stress axis : x y z
#
# Youngs Moduli (GPa) = 131.35550 78.63626 30.53093
#
# Poissons Ratio (x) = 0.19592 0.10185
# Poissons Ratio (y) = 0.32728 -0.02056
# Poissons Ratio (z) = 0.43821 -0.05295
#
# Static dielectric constant tensor:
#      x y z
#    x 2.098970 0.000000 0.047310 
#    y 0.000000 1.992910 0.000000 
#    z 0.047310 0.000000 2.116410 
# 
# From -- ./inp_files/80895.got.cif
#   From: 2010.05.17/outbox.cif.g08.bks.cpg/sg13_41_cif.got.tgz:80895.got - 2010.06.03 16:44:36.
