data_PCOD9226294
_publ_section_title
;
Structure prediction by ZEFSAII (Michael W. Deem and Ramdas Pophale) SiO2 
 PCOD9226294
Probable space group: P 2/C
;
_chemical_formula_sum "Si O2"
_cell_formula_units_Z 26
_cell_length_a 7.769910
_cell_length_b 20.406904
_cell_length_c 9.048067
_cell_angle_alpha 90.000000
_cell_angle_beta 53.981444
_cell_angle_gamma 90.000000
_cell_volume 1160.390962
_symmetry_space_group_name_H-M "P 2/C"
_symmetry_group_IT_number 13
_symmetry_cell_setting 'monoclinic'
loop_
_space_group_symop_operation_xyz
x,y,z
-x,y,1/2-z
-x,-y,-z
x,-y,1/2+z
loop_
_atom_site_type_symbol
_atom_site_label
_atom_site_fract_x
_atom_site_fract_y
_atom_site_fract_z
Si Si1 0.583919 0.905835 0.561996
Si Si2 0.203589 0.959391 0.548043
Si Si3 0.000000 0.630877 0.750000
Si Si4 0.246883 0.701123 0.353909
Si Si5 0.247702 0.582943 0.137693
Si Si6 0.769529 0.468691 0.163154
Si Si7 0.259931 0.846955 0.301454
O O1 0.500000 0.870213 0.750000
O O2 0.386008 0.929210 0.561352
O O3 0.724350 0.864072 0.378832
O O4 0.704916 0.971534 0.553198
O O5 0.157208 0.907426 0.442079
O O6 0.000000 0.971202 0.750000
O O7 0.119080 0.670094 0.557589
O O8 0.174636 0.584793 0.740526
O O9 0.500000 0.705286 0.250000
O O10 0.241169 0.654467 0.213067
O O11 0.165269 0.775181 0.372936
O O12 0.344034 0.531146 0.204607
O O13 0.000000 0.566597 0.250000
O O14 0.324329 0.567711 0.933690
O O15 0.000000 0.500000 0.000000
O O16 0.500000 0.845367 0.250000
#
# Coordination Sequence:
#
# PCOD9226294 Si02
#       7
#     4   4   2   4   4   4   4
#     4  10  20  37  61  88 118 156 197 258 312 349
#     4  10  20  36  62  89 118 158 203 246 307 375
#     4  12  20  38  68  88 116 170 202 244 314 370
#     4  11  24  41  61  88 124 164 208 255 306 375
#     4  10  17  35  61  87 123 159 198 254 308 359
#     4  10  16  32  65  89 118 161 199 250 313 353
#     4   9  21  41  58  82 126 162 196 252 311 367
#
# _framework density 22.406244000000001
#
# number of rings (size 3 to 8) (size 9 to 14) (size 15 to 20)
#    0.000    1.846    5.385    2.308    1.077    2.462 
#    0.000   10.769    0.000    0.000    0.000    0.000 
#    0.000    0.000    0.000    0.000    0.000    0.000 
#
# Total GULP energy -145183.376602 kJ/mol
# GULP energy per Si atom -5583.976023 kJ/mol
# Density = 2.235525 g / cm^3
# Si number density = 22.406244 Si / 1000 Ang^3
#
#
#
# Elastic Constant Matrix: (Units=GPa)
#
#
# Indices 1 2 3 4 5 6 
#
# 1 57.4437 33.4394 24.6824 0.0000 17.9787 0.0000
# 2 33.4394 127.4378 64.3087 0.0000 30.6793 0.0000
# 3 24.6824 64.3087 136.4400 0.0000 26.8526 0.0000
# 4 0.0000 0.0000 0.0000 32.7125 0.0000 -0.5690
# 5 17.9787 30.6793 26.8526 0.0000 45.8017 0.0000
# 6 0.0000 0.0000 0.0000 -0.5690 0.0000 15.2504
#
#
#
# Elastic Compliance Matrix: (Units=1/GPa)
#
#
# Indices 1 2 3 4 5 6 
#
# 1 0.021802 -0.003907 -0.001055 0.000000 -0.005322 0.000000
# 2 -0.003907 0.011922 -0.004118 0.000000 -0.004038 0.000000
# 3 -0.001055 -0.004118 0.009989 0.000000 -0.002684 0.000000
# 4 0.000000 0.000000 0.000000 0.030589 0.000000 0.001141
# 5 -0.005322 -0.004038 -0.002684 0.000000 0.028201 0.000000
# 6 0.000000 0.000000 0.000000 0.001141 0.000000 0.065615
#
#
# Mechanical properties :
#
#
# Convention : Reuss Voigt Hill
#
# Bulk Modulus (GPa) = 39.13355 62.90916 51.02135
# Shear Modulus (GPa) = 25.66793 32.01233 28.84013
#
# Velocity S-wave (km/s) = 3.38830 3.78395 3.59158
# Velocity P-wave (km/s) = 5.72807 6.87231 6.32611
#
# Compressibility (1/GPa) = 0.02555352
#
# Stress axis : x y z
#
# Youngs Moduli (GPa) = 45.86767 83.87674 100.10805
#
# Poissons Ratio (x) = 0.32771 0.10561
# Poissons Ratio (y) = 0.17921 0.41223
# Poissons Ratio (z) = 0.04839 0.34539
#
# Static dielectric constant tensor:
#      x y z
#    x 2.019800 0.000000 -0.059290 
#    y 0.000000 1.832170 0.000000 
#    z -0.059290 0.000000 1.914680 
# 
# From -- ./inp_files/13633.got.cif
#   From: 2010.05.17/outbox.cif.g08.bks.cpg/sg13_7_cif.got.tgz:13633.got - 2010.06.03 16:44:36.
