data_PCOD9226186
_publ_section_title
;
Structure prediction by ZEFSAII (Michael W. Deem and Ramdas Pophale) SiO2 
 PCOD9226186
Probable space group: P 2/C
;
_chemical_formula_sum "Si O2"
_cell_formula_units_Z 20
_cell_length_a 10.268815
_cell_length_b 15.613240
_cell_length_c 5.282528
_cell_angle_alpha 90.000000
_cell_angle_beta 82.715858
_cell_angle_gamma 90.000000
_cell_volume 840.109724
_symmetry_space_group_name_H-M "P 2/C"
_symmetry_group_IT_number 13
_symmetry_cell_setting 'monoclinic'
loop_
_space_group_symop_operation_xyz
x,y,z
-x,y,1/2-z
-x,-y,-z
x,-y,1/2+z
loop_
_atom_site_type_symbol
_atom_site_label
_atom_site_fract_x
_atom_site_fract_y
_atom_site_fract_z
Si Si1 0.138442 0.053097 0.546797
Si Si2 0.841435 0.294872 0.736634
Si Si3 0.355045 0.443206 0.833088
Si Si4 0.443988 0.096923 0.511348
Si Si5 0.865582 0.225822 0.226728
O O1 0.291422 0.078741 0.519823
O O2 0.086494 0.140067 0.431420
O O3 0.113531 0.020347 0.839745
O O4 0.766519 0.378772 0.665283
O O5 0.810263 0.223703 0.524615
O O6 0.000000 0.301222 0.750000
O O7 0.784191 0.271124 0.027615
O O8 0.500000 0.402333 0.750000
O O9 0.348103 0.513798 0.611003
O O10 0.500000 0.141744 0.250000
O O11 0.500000 0.000000 0.500000
O O12 0.500000 0.138422 0.750000
O O13 0.000000 0.277135 0.250000
#
# Coordination Sequence:
#
# PCOD9226186 Si02
#       5
#     4   4   4   4   4
#     4  12  21  33  56  77 102 144 196 251 304 360
#     4  10  21  41  63  84 124 164 198 241 286 357
#     4  10  21  38  65  98 130 159 188 239 290 339
#     4  10  16  30  47  67  96 128 163 228 289 352
#     4  10  23  40  56  80 114 155 198 251 308 346
#
# _framework density 23.806415000000001
#
# number of rings (size 3 to 8) (size 9 to 14) (size 15 to 20)
#    0.000    1.600    4.000    2.400    0.000    1.600 
#    0.000    3.000    0.000    0.000    0.000    0.000 
#    0.000    0.000    0.000    0.000    0.000    0.000 
#
# Total GULP energy -111446.168571 kJ/mol
# GULP energy per Si atom -5572.308429 kJ/mol
# Density = 2.375223 g / cm^3
# Si number density = 23.806415 Si / 1000 Ang^3
#
#
#
# Elastic Constant Matrix: (Units=GPa)
#
#
# Indices 1 2 3 4 5 6 
#
# 1 79.6877 24.0721 38.6821 0.0000 12.4561 0.0000
# 2 24.0721 39.8719 6.9590 0.0000 3.2440 0.0000
# 3 38.6821 6.9590 220.3389 0.0000 11.6310 0.0000
# 4 0.0000 0.0000 0.0000 -1.3649 0.0000 -25.5881
# 5 12.4561 3.2440 11.6310 0.0000 34.5194 0.0000
# 6 0.0000 0.0000 0.0000 -25.5881 0.0000 -10.6972
#
#
#
# Elastic Compliance Matrix: (Units=1/GPa)
#
#
# Indices 1 2 3 4 5 6 
#
# 1 0.017405 -0.009702 -0.002510 0.000000 -0.004523 0.000000
# 2 -0.009702 0.030784 0.000712 0.000000 0.000368 0.000000
# 3 -0.002510 0.000712 0.005001 0.000000 -0.000846 0.000000
# 4 0.000000 0.000000 0.000000 0.016710 0.000000 -0.039972
# 5 -0.004523 0.000368 -0.000846 0.000000 0.030852 0.000000
# 6 0.000000 0.000000 0.000000 -0.039972 0.000000 0.002132
#
#
# Mechanical properties :
#
#
# Convention : Reuss Voigt Hill
#
# Bulk Modulus (GPa) = 33.12520 53.25833 43.19177
# Shear Modulus (GPa) = 36.77827 22.50380 29.64104
#
# Velocity S-wave (km/s) = 3.93477 3.07788 3.53241
# Velocity P-wave (km/s) = 5.88114 5.92040 5.90080
#
# Compressibility (1/GPa) = 0.03018849
#
# Stress axis : x y z
#
# Youngs Moduli (GPa) = 57.45324 32.48470 199.94457
#
# Poissons Ratio (x) = 0.31517 0.50196
# Poissons Ratio (y) = 0.55742 -0.14228
# Poissons Ratio (z) = 0.14423 -0.02312
#
# Static dielectric constant tensor:
#      x y z
#    x 1.984000 0.000000 -0.090150 
#    y 0.000000 1.841440 0.000000 
#    z -0.090150 0.000000 2.056010 
# 
# From -- ./inp_files/3339.got.cif
#   From: 2010.05.17/outbox.cif.g08.bks.cpg/sg13_2_cif.got.tgz:3339.got - 2010.06.03 16:44:36.
