data_PCOD9227435
_publ_section_title
;
Structure prediction by ZEFSAII (Michael W. Deem and Ramdas Pophale) SiO2 
 PCOD9227435
Probable space group: P 2/C
;
_chemical_formula_sum "Si O2"
_cell_formula_units_Z 20
_cell_length_a 11.889199
_cell_length_b 13.958977
_cell_length_c 8.106519
_cell_angle_alpha 90.000000
_cell_angle_beta 49.038231
_cell_angle_gamma 90.000000
_cell_volume 1015.949669
_symmetry_space_group_name_H-M "P 2/C"
_symmetry_group_IT_number 13
_symmetry_cell_setting 'monoclinic'
loop_
_space_group_symop_operation_xyz
x,y,z
-x,y,1/2-z
-x,-y,-z
x,-y,1/2+z
loop_
_atom_site_type_symbol
_atom_site_label
_atom_site_fract_x
_atom_site_fract_y
_atom_site_fract_z
Si Si1 0.058929 0.400039 0.507408
Si Si2 0.706318 0.925005 0.182288
Si Si3 0.660436 0.686189 0.654331
Si Si4 0.897638 0.219172 0.691679
Si Si5 0.374933 0.879629 0.611959
O O1 0.236148 0.390226 0.351284
O O2 0.000000 0.395847 0.750000
O O3 0.000000 0.500000 0.500000
O O4 0.989577 0.301040 0.502959
O O5 0.840777 0.869732 0.140287
O O6 0.552079 0.898499 0.425248
O O7 0.704481 0.040005 0.198878
O O8 0.689285 0.892179 0.010110
O O9 0.500000 0.651667 0.750000
O O10 0.753950 0.727227 0.408669
O O11 0.643677 0.776423 0.791484
O O12 0.000000 0.189734 0.750000
#
# Coordination Sequence:
#
# PCOD9227435 Si02
#       5
#     4   4   4   4   4
#     4   9  21  39  59  80 108 145 175 226 289 331
#     4  10  19  33  50  83 116 149 185 220 275 316
#     4  10  18  35  59  82 107 143 187 226 271 324
#     4   9  19  36  56  79 113 148 181 227 274 328
#     4  10  20  30  55  81 112 149 183 231 263 319
#
# _framework density 19.686015000000001
#
# number of rings (size 3 to 8) (size 9 to 14) (size 15 to 20)
#    0.000    2.800    2.000    1.200    2.800    1.600 
#    0.000   16.000    4.400    0.000    0.000    0.000 
#    0.000    0.000    0.000    0.000    0.000    0.000 
#
# Total GULP energy -111511.901629 kJ/mol
# GULP energy per Si atom -5575.595081 kJ/mol
# Density = 1.964121 g / cm^3
# Si number density = 19.686015 Si / 1000 Ang^3
#
#
#
# Elastic Constant Matrix: (Units=GPa)
#
#
# Indices 1 2 3 4 5 6 
#
# 1 136.9239 73.6932 19.0321 0.0000 -28.2660 0.0000
# 2 73.6932 104.0382 6.7587 0.0000 -6.2220 0.0000
# 3 19.0321 6.7587 30.0717 0.0000 -13.5366 0.0000
# 4 0.0000 0.0000 0.0000 16.4814 0.0000 0.1888
# 5 -28.2660 -6.2220 -13.5366 0.0000 24.2297 0.0000
# 6 0.0000 0.0000 0.0000 0.1888 0.0000 41.2320
#
#
#
# Elastic Compliance Matrix: (Units=1/GPa)
#
#
# Indices 1 2 3 4 5 6 
#
# 1 0.016445 -0.010639 -0.000816 0.000000 0.015996 0.000000
# 2 -0.010639 0.016690 -0.000902 0.000000 -0.008629 0.000000
# 3 -0.000816 -0.000902 0.044676 0.000000 0.023776 0.000000
# 4 0.000000 0.000000 0.000000 0.060678 0.000000 -0.000278
# 5 0.015996 -0.008629 0.023776 0.000000 0.071000 0.000000
# 6 0.000000 0.000000 0.000000 -0.000278 0.000000 0.024254
#
#
# Mechanical properties :
#
#
# Convention : Reuss Voigt Hill
#
# Bulk Modulus (GPa) = 18.83369 52.22242 35.52805
# Shear Modulus (GPa) = 18.10578 27.82526 22.96552
#
# Velocity S-wave (km/s) = 3.03599 3.76367 3.41924
# Velocity P-wave (km/s) = 4.67734 6.74331 5.80300
#
# Compressibility (1/GPa) = 0.05309635
#
# Stress axis : x y z
#
# Youngs Moduli (GPa) = 60.80973 59.91598 22.38360
#
# Poissons Ratio (x) = 0.63742 0.01827
# Poissons Ratio (y) = 0.64693 0.02020
# Poissons Ratio (z) = 0.04962 0.05407
#
# Static dielectric constant tensor:
#      x y z
#    x 1.728320 0.000000 -0.029340 
#    y 0.000000 1.777390 0.000000 
#    z -0.029340 0.000000 1.710150 
# 
# From -- ./inp_files/16222.got.cif
#   From: 2010.05.17/outbox.cif.g08.bks.cpg/sg13_9_cif.got.tgz:16222.got - 2010.06.03 16:44:36.
