data_PCOD9227814
_publ_section_title
;
Structure prediction by ZEFSAII (Michael W. Deem and Ramdas Pophale) SiO2 
 PCOD9227814
Probable space group: P 2/C
;
_chemical_formula_sum "Si O2"
_cell_formula_units_Z 20
_cell_length_a 8.166313
_cell_length_b 19.116126
_cell_length_c 8.048525
_cell_angle_alpha 90.000000
_cell_angle_beta 59.295440
_cell_angle_gamma 90.000000
_cell_volume 1080.302850
_symmetry_space_group_name_H-M "P 2/C"
_symmetry_group_IT_number 13
_symmetry_cell_setting 'monoclinic'
loop_
_space_group_symop_operation_xyz
x,y,z
-x,y,1/2-z
-x,-y,-z
x,-y,1/2+z
loop_
_atom_site_type_symbol
_atom_site_label
_atom_site_fract_x
_atom_site_fract_y
_atom_site_fract_z
Si Si1 0.500000 0.207881 0.750000
Si Si2 0.487590 0.692056 0.942554
Si Si3 0.000000 0.015025 0.750000
Si Si4 0.780497 0.571513 0.311877
Si Si5 0.720615 0.073066 0.627283
Si Si6 0.781776 0.417483 0.416365
O O1 0.461287 0.253419 0.606221
O O2 0.675360 0.154807 0.623265
O O3 0.500000 0.722035 0.750000
O O4 0.673138 0.646706 0.890998
O O5 0.325048 0.632790 0.035965
O O6 0.146312 0.061562 0.781302
O O7 0.148295 0.965352 0.575240
O O8 0.711986 0.493351 0.390349
O O9 0.000000 0.573088 0.250000
O O10 0.758656 0.584224 0.126886
O O11 0.500000 0.043583 0.750000
O O12 0.000000 0.413353 0.250000
#
# Coordination Sequence:
#
# PCOD9227814 Si02
#       6
#     2   4   2   4   4   4
#     4  10  24  46  54  94 136 164 206 266 314 392
#     4  12  23  43  59  84 123 172 203 252 328 378
#     4  10  18  42  72 100 124 178 208 258 324 368
#     4  11  21  37  59  87 114 154 218 274 318 373
#     4   9  21  40  67 101 136 162 214 264 310 385
#     4  11  21  37  59  87 114 154 218 274 318 373
#
# _framework density 18.513327
#
# number of rings (size 3 to 8) (size 9 to 14) (size 15 to 20)
#    0.600    0.800    2.000    6.000    0.000    0.000 
#   10.800    0.000    0.000    0.000    0.000    0.000 
#    0.000    0.000    0.000    0.000    0.000    0.000 
#
# Total GULP energy -111460.788526 kJ/mol
# GULP energy per Si atom -5573.039426 kJ/mol
# Density = 1.847119 g / cm^3
# Si number density = 18.513327 Si / 1000 Ang^3
#
#
#
# Elastic Constant Matrix: (Units=GPa)
#
#
# Indices 1 2 3 4 5 6 
#
# 1 95.0874 7.6288 14.5599 0.0000 -9.4030 0.0000
# 2 7.6288 51.6582 -17.4714 0.0000 -4.5983 0.0000
# 3 14.5599 -17.4714 42.9218 0.0000 2.6826 0.0000
# 4 0.0000 0.0000 0.0000 16.4572 0.0000 -3.4810
# 5 -9.4030 -4.5983 2.6826 0.0000 50.8777 0.0000
# 6 0.0000 0.0000 0.0000 -3.4810 0.0000 26.8928
#
#
#
# Elastic Compliance Matrix: (Units=1/GPa)
#
#
# Indices 1 2 3 4 5 6 
#
# 1 0.011858 -0.003437 -0.005558 0.000000 0.002174 0.000000
# 2 -0.003437 0.023568 0.010701 0.000000 0.000931 0.000000
# 3 -0.005558 0.010701 0.029641 0.000000 -0.001623 0.000000
# 4 0.000000 0.000000 0.000000 0.062474 0.000000 0.008087
# 5 0.002174 0.000931 -0.001623 0.000000 0.020226 0.000000
# 6 0.000000 0.000000 0.000000 0.008087 0.000000 0.038231
#
#
# Mechanical properties :
#
#
# Convention : Reuss Voigt Hill
#
# Bulk Modulus (GPa) = 14.60298 22.12243 18.36270
# Shear Modulus (GPa) = 24.34124 31.17556 27.75840
#
# Velocity S-wave (km/s) = 3.62994 4.10805 3.87638
# Velocity P-wave (km/s) = 5.04714 5.87170 5.47496
#
# Compressibility (1/GPa) = 0.06847918
#
# Stress axis : x y z
#
# Youngs Moduli (GPa) = 84.32842 42.43091 33.73729
#
# Poissons Ratio (x) = 0.14585 0.18750
# Poissons Ratio (y) = 0.28987 -0.36103
# Poissons Ratio (z) = 0.46867 -0.45406
#
# Static dielectric constant tensor:
#      x y z
#    x 1.646820 0.000000 0.016020 
#    y 0.000000 1.606160 0.000000 
#    z 0.016020 0.000000 1.666940 
# 
# From -- ./inp_files/13037.got.cif
#   From: 2010.05.17/outbox.cif.g08.bks.cpg/sg13_7_cif.got.tgz:13037.got - 2010.06.03 16:44:36.
