data_PCOD9227956
_publ_section_title
;
Structure prediction by ZEFSAII (Michael W. Deem and Ramdas Pophale) SiO2 
 PCOD9227956
Probable space group: P 2/C
;
_chemical_formula_sum "Si O2"
_cell_formula_units_Z 24
_cell_length_a 30.313046
_cell_length_b 8.155620
_cell_length_c 5.130974
_cell_angle_alpha 90.000000
_cell_angle_beta 99.044325
_cell_angle_gamma 90.000000
_cell_volume 1252.716954
_symmetry_space_group_name_H-M "P 2/C"
_symmetry_group_IT_number 13
_symmetry_cell_setting 'monoclinic'
loop_
_space_group_symop_operation_xyz
x,y,z
-x,y,1/2-z
-x,-y,-z
x,-y,1/2+z
loop_
_atom_site_type_symbol
_atom_site_label
_atom_site_fract_x
_atom_site_fract_y
_atom_site_fract_z
Si Si1 0.449950 0.434098 0.002339
Si Si2 0.953195 0.388558 0.768278
Si Si3 0.779436 0.884367 0.017845
Si Si4 0.316975 0.107468 0.968919
Si Si5 0.855805 0.615470 0.088045
Si Si6 0.415117 0.109358 0.160311
O O1 0.428105 0.550778 0.199042
O O2 0.500000 0.500000 0.000000
O O3 0.448404 0.253139 0.114615
O O4 0.953622 0.540892 0.561832
O O5 0.905482 0.307223 0.668511
O O6 0.000000 0.299291 0.750000
O O7 0.729766 0.807154 0.008010
O O8 0.782731 0.022585 0.245434
O O9 0.817638 0.750004 0.080065
O O10 0.365125 0.183011 0.074843
O O11 0.316561 0.048140 0.669128
O O12 0.852456 0.522826 0.809113
O O13 0.419950 0.964744 0.951584
#
# Coordination Sequence:
#
# PCOD9227956 Si02
#       6
#     4   4   4   4   4   4
#     4  10  21  38  53  74 109 137 156 196 255 298
#     4   8  14  25  42  63  87 119 158 198 240 282
#     4  10  19  33  51  71  99 134 162 192 246 304
#     4   8  16  30  50  73  96 124 164 204 234 278
#     4  10  19  31  48  72  99 124 161 210 244 282
#     4  10  19  35  58  79  96 128 176 210 230 276
#
# _framework density 19.158359999999998
#
# number of rings (size 3 to 8) (size 9 to 14) (size 15 to 20)
#    0.000    2.667    0.000    2.000    0.000    0.000 
#    0.000   11.667    0.000    1.000    0.000    0.000 
#    0.000    0.000    0.000    0.000    0.000    0.000 
#
# Total GULP energy -133610.312271 kJ/mol
# GULP energy per Si atom -5567.096345 kJ/mol
# Density = 1.911475 g / cm^3
# Si number density = 19.158360 Si / 1000 Ang^3
#
#
#
# Elastic Constant Matrix: (Units=GPa)
#
#
# Indices 1 2 3 4 5 6 
#
# 1 133.6209 39.5486 -5.4770 0.0000 0.9143 0.0000
# 2 39.5486 30.1347 -6.0757 0.0000 -1.3028 0.0000
# 3 -5.4770 -6.0757 95.5014 0.0000 -13.0436 0.0000
# 4 0.0000 0.0000 0.0000 17.5037 0.0000 -2.3477
# 5 0.9143 -1.3028 -13.0436 0.0000 21.8667 0.0000
# 6 0.0000 0.0000 0.0000 -2.3477 0.0000 29.2937
#
#
#
# Elastic Compliance Matrix: (Units=1/GPa)
#
#
# Indices 1 2 3 4 5 6 
#
# 1 0.012314 -0.016359 -0.000586 0.000000 -0.001839 0.000000
# 2 -0.016359 0.055605 0.003424 0.000000 0.006039 0.000000
# 3 -0.000586 0.003424 0.011634 0.000000 0.007168 0.000000
# 4 0.000000 0.000000 0.000000 0.057752 0.000000 0.004628
# 5 -0.001839 0.006039 0.007168 0.000000 0.050444 0.000000
# 6 0.000000 0.000000 0.000000 0.004628 0.000000 0.034508
#
#
# Mechanical properties :
#
#
# Convention : Reuss Voigt Hill
#
# Bulk Modulus (GPa) = 19.04285 35.02764 27.03524
# Shear Modulus (GPa) = 18.74052 29.15024 23.94538
#
# Velocity S-wave (km/s) = 3.13100 3.90493 3.53918
# Velocity P-wave (km/s) = 4.79918 6.21725 5.55366
#
# Compressibility (1/GPa) = 0.05251316
#
# Stress axis : x y z
#
# Youngs Moduli (GPa) = 81.20711 17.98410 85.95223
#
# Poissons Ratio (x) = 0.29419 0.05034
# Poissons Ratio (y) = 1.32844 -0.29432
# Poissons Ratio (z) = 0.04756 -0.06158
#
# Static dielectric constant tensor:
#      x y z
#    x 1.772630 0.000000 0.043350 
#    y 0.000000 1.635040 0.000000 
#    z 0.043350 0.000000 1.757050 
# 
# From -- ./inp_files/7744.got.cif
#   From: 2010.05.17/outbox.cif.g08.bks.cpg/sg13_4_cif.got.tgz:7744.got - 2010.06.03 16:44:36.
