data_PCOD9227876
_publ_section_title
;
Structure prediction by ZEFSAII (Michael W. Deem and Ramdas Pophale) SiO2 
 PCOD9227876
Probable space group: P 2/C
;
_chemical_formula_sum "Si O2"
_cell_formula_units_Z 24
_cell_length_a 11.662751
_cell_length_b 22.141327
_cell_length_c 15.860109
_cell_angle_alpha 90.000000
_cell_angle_beta 14.858697
_cell_angle_gamma 90.000000
_cell_volume 1050.243413
_symmetry_space_group_name_H-M "P 2/C"
_symmetry_group_IT_number 13
_symmetry_cell_setting 'monoclinic'
loop_
_space_group_symop_operation_xyz
x,y,z
-x,y,1/2-z
-x,-y,-z
x,-y,1/2+z
loop_
_atom_site_type_symbol
_atom_site_label
_atom_site_fract_x
_atom_site_fract_y
_atom_site_fract_z
Si Si1 0.934447 0.231758 0.502996
Si Si2 0.597221 0.818652 0.978875
Si Si3 0.884604 0.049892 0.224322
Si Si4 0.564499 0.435293 0.497995
Si Si5 0.064895 0.372754 0.999127
Si Si6 0.425263 0.059991 0.395487
O O1 0.500000 0.221528 0.750000
O O2 0.968657 0.302342 0.498869
O O3 0.347947 0.209668 0.152424
O O4 0.836531 0.195901 0.658345
O O5 0.000000 0.790960 0.750000
O O6 0.717177 0.888943 0.884919
O O7 0.714820 0.010665 0.522433
O O8 0.500000 0.000000 0.500000
O O9 0.865869 0.066125 0.138518
O O10 0.500000 0.500000 0.500000
O O11 0.167230 0.412142 0.842356
O O12 0.000000 0.436925 0.250000
O O13 0.667550 0.392244 0.344514
O O14 0.500000 0.379240 0.750000
O O15 0.500000 0.085623 0.250000
O O16 0.000000 0.085520 0.750000
#
# Coordination Sequence:
#
# PCOD9227876 Si02
#       6
#     4   4   4   4   4   4
#     4   9  18  31  48  72 100 133 168 210 259 295
#     4  10  19  30  47  72 100 126 165 214 256 305
#     4  10  21  36  53  76 103 131 163 207 264 318
#     4  10  19  31  51  81 112 140 171 207 247 295
#     4   9  17  31  50  73 107 141 171 210 254 296
#     4  10  21  35  52  72  98 129 161 196 252 317
#
# _framework density 22.851845000000001
#
# number of rings (size 3 to 8) (size 9 to 14) (size 15 to 20)
#    0.000    2.333    0.000    3.500    0.000   11.333 
#    0.000    0.000    0.000    0.000    0.000   25.667 
#    0.000    0.000    0.000    0.000    0.000    0.000 
#
# Total GULP energy -133776.049253 kJ/mol
# GULP energy per Si atom -5574.002052 kJ/mol
# Density = 2.279983 g / cm^3
# Si number density = 22.851845 Si / 1000 Ang^3
#
#
#
# Elastic Constant Matrix: (Units=GPa)
#
#
# Indices 1 2 3 4 5 6 
#
# 1 94.1319 41.0137 53.4401 0.0000 45.2142 0.0000
# 2 41.0137 102.9981 41.5209 0.0000 39.0543 0.0000
# 3 53.4401 41.5209 108.7342 0.0000 57.7246 0.0000
# 4 0.0000 0.0000 0.0000 23.5204 0.0000 7.7537
# 5 45.2142 39.0543 57.7246 0.0000 52.0709 0.0000
# 6 0.0000 0.0000 0.0000 7.7537 0.0000 23.1919
#
#
#
# Elastic Compliance Matrix: (Units=1/GPa)
#
#
# Indices 1 2 3 4 5 6 
#
# 1 0.018548 -0.001822 -0.001447 0.000000 -0.013135 0.000000
# 2 -0.001822 0.013759 0.000681 0.000000 -0.009492 0.000000
# 3 -0.001447 0.000681 0.022485 0.000000 -0.024180 0.000000
# 4 0.000000 0.000000 0.000000 0.047783 0.000000 -0.015975
# 5 -0.013135 -0.009492 -0.024180 0.000000 0.064534 0.000000
# 6 0.000000 0.000000 0.000000 -0.015975 0.000000 0.048459
#
#
# Mechanical properties :
#
#
# Convention : Reuss Voigt Hill
#
# Bulk Modulus (GPa) = 20.15545 64.20149 42.17847
# Shear Modulus (GPa) = 21.07190 31.08261 26.07725
#
# Velocity S-wave (km/s) = 3.03992 3.69206 3.38175
# Velocity P-wave (km/s) = 4.60007 6.80667 5.80911
#
# Compressibility (1/GPa) = 0.04961436
#
# Stress axis : x y z
#
# Youngs Moduli (GPa) = 53.91507 72.67823 44.47497
#
# Poissons Ratio (x) = 0.13242 0.06436
# Poissons Ratio (y) = 0.09823 -0.03027
# Poissons Ratio (z) = 0.07802 -0.04946
#
# Static dielectric constant tensor:
#      x y z
#    x 2.014820 0.000000 0.059170 
#    y 0.000000 1.839750 0.000000 
#    z 0.059170 0.000000 1.995030 
# 
# From -- ./inp_files/51690.got.cif
#   From: 2010.05.17/outbox.cif.g08.bks.cpg/sg13_26_cif.got.tgz:51690.got - 2010.06.03 16:44:36.
