data_PCOD9227302
_publ_section_title
;
Structure prediction by ZEFSAII (Michael W. Deem and Ramdas Pophale) SiO2 
 PCOD9227302
Probable space group: P 2/C
;
_chemical_formula_sum "Si O2"
_cell_formula_units_Z 32
_cell_length_a 7.744642
_cell_length_b 5.428499
_cell_length_c 34.685521
_cell_angle_alpha 90.000000
_cell_angle_beta 83.553742
_cell_angle_gamma 90.000000
_cell_volume 1449.021507
_symmetry_space_group_name_H-M "P 2/C"
_symmetry_group_IT_number 13
_symmetry_cell_setting 'monoclinic'
loop_
_space_group_symop_operation_xyz
x,y,z
-x,y,1/2-z
-x,-y,-z
x,-y,1/2+z
loop_
_atom_site_type_symbol
_atom_site_label
_atom_site_fract_x
_atom_site_fract_y
_atom_site_fract_z
Si Si1 0.205793 0.122560 0.911086
Si Si2 0.386822 0.519519 0.358617
Si Si3 0.874296 0.893022 0.325316
Si Si4 0.111905 0.422888 0.555671
Si Si5 0.220603 0.123053 0.326584
Si Si6 0.245641 0.618875 0.630648
Si Si7 0.463574 0.122385 0.709582
Si Si8 0.858872 0.191623 0.020251
O O1 0.322454 0.360243 0.899814
O O2 0.007954 0.209438 0.922631
O O3 0.222372 0.986861 0.869957
O O4 0.256351 0.957242 0.946284
O O5 0.223263 0.408275 0.339297
O O6 0.550516 0.350185 0.364817
O O7 0.472711 0.710830 0.327212
O O8 0.835430 0.619935 0.343982
O O9 0.736438 0.930800 0.294230
O O10 0.835717 0.119154 0.355884
O O11 0.070826 0.968025 0.309478
O O12 0.216809 0.552361 0.586839
O O13 0.216799 0.319472 0.516169
O O14 0.970030 0.609724 0.541367
O O15 0.399078 0.100254 0.298026
O O16 0.500000 0.238382 0.750000
O O17 0.000000 0.000000 0.000000
#
# Coordination Sequence:
#
# PCOD9227302 Si02
#       8
#     4   4   4   4   4   4   4   4
#     4  10  18  34  58  86 119 163 215 267 313 391
#     4  10  22  38  62  95 124 169 213 270 327 388
#     4  11  23  41  68  96 130 169 222 267 324 386
#     4  10  19  34  57  86 123 166 215 275 324 386
#     4  11  21  39  67  92 125 171 219 265 322 385
#     4  11  22  40  62  98 128 168 220 277 320 386
#     4  10  24  44  64  94 134 169 210 267 330 396
#     4   9  19  32  53  87 122 164 216 267 333 384
#
# _framework density 22.083867999999999
#
# number of rings (size 3 to 8) (size 9 to 14) (size 15 to 20)
#    0.000    1.750    2.500    2.250    3.500    1.000 
#    0.000    0.625    0.000   10.500    0.000    0.000 
#    0.000    0.000    0.000    0.000    0.000    0.000 
#
# Total GULP energy -178231.486114 kJ/mol
# GULP energy per Si atom -5569.733941 kJ/mol
# Density = 2.203360 g / cm^3
# Si number density = 22.083868 Si / 1000 Ang^3
#
#
#
# Elastic Constant Matrix: (Units=GPa)
#
#
# Indices 1 2 3 4 5 6 
#
# 1 69.6455 8.1003 13.6149 0.0000 11.9594 0.0000
# 2 8.1003 56.1192 -12.9747 0.0000 -1.1022 0.0000
# 3 13.6149 -12.9747 59.2391 0.0000 8.7018 0.0000
# 4 0.0000 0.0000 0.0000 9.2292 0.0000 4.3431
# 5 11.9594 -1.1022 8.7018 0.0000 27.4951 0.0000
# 6 0.0000 0.0000 0.0000 4.3431 0.0000 24.1029
#
#
#
# Elastic Compliance Matrix: (Units=1/GPa)
#
#
# Indices 1 2 3 4 5 6 
#
# 1 0.016515 -0.003342 -0.003621 0.000000 -0.006171 0.000000
# 2 -0.003342 0.019455 0.004930 0.000000 0.000673 0.000000
# 3 -0.003621 0.004930 0.019436 0.000000 -0.004379 0.000000
# 4 0.000000 0.000000 0.000000 0.118391 0.000000 -0.021333
# 5 -0.006171 0.000673 -0.004379 0.000000 0.040467 0.000000
# 6 0.000000 0.000000 0.000000 -0.021333 0.000000 0.045333
#
#
# Mechanical properties :
#
#
# Convention : Reuss Voigt Hill
#
# Bulk Modulus (GPa) = 19.47817 22.49832 20.98824
# Shear Modulus (GPa) = 17.80785 23.91633 20.86209
#
# Velocity S-wave (km/s) = 2.84275 3.29443 3.07689
# Velocity P-wave (km/s) = 4.42880 4.96798 4.70612
#
# Compressibility (1/GPa) = 0.05133952
#
# Stress axis : x y z
#
# Youngs Moduli (GPa) = 60.55193 51.40145 51.45100
#
# Poissons Ratio (x) = 0.17179 0.18631
# Poissons Ratio (y) = 0.20237 -0.25367
# Poissons Ratio (z) = 0.21926 -0.25342
#
# Static dielectric constant tensor:
#      x y z
#    x 1.894460 0.000000 -0.004300 
#    y 0.000000 1.983530 0.000000 
#    z -0.004300 0.000000 1.814340 
# 
# From -- ./inp_files/95647.got.cif
#   From: 2010.05.17/outbox.cif.g08.bks.cpg/sg13_48_cif.got.tgz:95647.got - 2010.06.03 16:44:36.
