data_PCOD9227146
_publ_section_title
;
Structure prediction by ZEFSAII (Michael W. Deem and Ramdas Pophale) SiO2 
 PCOD9227146
Probable space group: P 2/C
;
_chemical_formula_sum "Si O2"
_cell_formula_units_Z 28
_cell_length_a 18.693631
_cell_length_b 8.702937
_cell_length_c 8.698108
_cell_angle_alpha 90.000000
_cell_angle_beta 103.919955
_cell_angle_gamma 90.000000
_cell_volume 1373.533463
_symmetry_space_group_name_H-M "P 2/C"
_symmetry_group_IT_number 13
_symmetry_cell_setting 'monoclinic'
loop_
_space_group_symop_operation_xyz
x,y,z
-x,y,1/2-z
-x,-y,-z
x,-y,1/2+z
loop_
_atom_site_type_symbol
_atom_site_label
_atom_site_fract_x
_atom_site_fract_y
_atom_site_fract_z
Si Si1 0.645945 0.642070 0.730124
Si Si2 0.802557 0.526459 0.362899
Si Si3 0.147082 0.275807 0.901553
Si Si4 0.055588 0.022592 0.392208
Si Si5 0.552511 0.578452 0.400612
Si Si6 0.734379 0.904191 0.849147
Si Si7 0.788915 0.176447 0.035850
O O1 0.725271 0.554812 0.776847
O O2 0.613601 0.655347 0.541492
O O3 0.593685 0.547453 0.817022
O O4 0.658787 0.812938 0.800263
O O5 0.857828 0.397973 0.460509
O O6 0.836061 0.627098 0.242092
O O7 0.785626 0.646030 0.491585
O O8 0.084190 0.146529 0.853225
O O9 0.218108 0.176488 0.991478
O O10 0.000000 0.107311 0.250000
O O11 0.128824 0.117925 0.460751
O O12 0.000000 0.000000 0.500000
O O13 0.500000 0.665714 0.250000
O O14 0.500000 0.500000 0.500000
O O15 0.772593 0.870014 0.703719
O O16 0.735214 0.081222 0.895104
#
# Coordination Sequence:
#
# PCOD9227146 Si02
#       7
#     4   4   4   4   4   4   4
#     4  10  18  33  55  84 111 144 183 227 287 334
#     4  11  20  35  59  85 116 141 180 247 294 330
#     4  10  21  36  54  82 109 140 182 238 290 329
#     4  11  22  39  57  74 106 152 192 226 281 361
#     4   9  18  31  51  83 117 147 183 225 264 323
#     4  10  20  34  54  81 112 143 184 235 284 334
#     4  11  21  36  56  83 111 145 189 242 289 335
#
# _framework density 20.385377999999999
#
# number of rings (size 3 to 8) (size 9 to 14) (size 15 to 20)
#    0.000    1.714    0.000    8.571    0.000    0.000 
#    0.000    3.571    0.000    0.000    0.000   63.000 
#    0.000    0.000    0.000    0.000    0.000    0.000 
#
# Total GULP energy -156036.833581 kJ/mol
# GULP energy per Si atom -5572.744056 kJ/mol
# Density = 2.033898 g / cm^3
# Si number density = 20.385378 Si / 1000 Ang^3
#
#
#
# Elastic Constant Matrix: (Units=GPa)
#
#
# Indices 1 2 3 4 5 6 
#
# 1 66.6424 11.7267 19.7164 0.0000 -0.0579 0.0000
# 2 11.7267 77.1306 8.0927 0.0000 13.2290 0.0000
# 3 19.7164 8.0927 86.6935 0.0000 5.5472 0.0000
# 4 0.0000 0.0000 0.0000 29.5823 0.0000 -14.5876
# 5 -0.0579 13.2290 5.5472 0.0000 41.3906 0.0000
# 6 0.0000 0.0000 0.0000 -14.5876 0.0000 -4.8318
#
#
#
# Elastic Compliance Matrix: (Units=1/GPa)
#
#
# Indices 1 2 3 4 5 6 
#
# 1 0.016487 -0.002343 -0.003611 0.000000 0.001256 0.000000
# 2 -0.002343 0.014138 -0.000502 0.000000 -0.004455 0.000000
# 3 -0.003611 -0.000502 0.012500 0.000000 -0.001520 0.000000
# 4 0.000000 0.000000 0.000000 0.013583 0.000000 -0.041007
# 5 0.001256 -0.004455 -0.001520 0.000000 0.025789 0.000000
# 6 0.000000 0.000000 0.000000 -0.041007 0.000000 -0.083159
#
#
# Mechanical properties :
#
#
# Convention : Reuss Voigt Hill
#
# Bulk Modulus (GPa) = 33.09834 34.39312 33.74573
# Shear Modulus (GPa) = 223.98858 25.95692 124.97275
#
# Velocity S-wave (km/s) = 10.49360 3.57222 7.83825
# Velocity P-wave (km/s) = 12.77076 5.82430 9.92509
#
# Compressibility (1/GPa) = 0.03021299
#
# Stress axis : x y z
#
# Youngs Moduli (GPa) = 60.65280 70.73147 79.99814
#
# Poissons Ratio (x) = 0.16574 0.28890
# Poissons Ratio (y) = 0.14212 0.04014
# Poissons Ratio (z) = 0.21903 0.03549
#
# Static dielectric constant tensor:
#      x y z
#    x 1.716590 0.000000 0.010350 
#    y 0.000000 1.755130 0.000000 
#    z 0.010350 0.000000 1.766290 
# 
# From -- ./inp_files/21210.got.cif
#   From: 2010.05.17/outbox.cif.g08.bks.cpg/sg13_11_cif.got.tgz:21210.got - 2010.06.03 16:44:36.
