data_PCOD9227283
_publ_section_title
;
Structure prediction by ZEFSAII (Michael W. Deem and Ramdas Pophale) SiO2 
 PCOD9227283
Probable space group: P 2/C
;
_chemical_formula_sum "Si O2"
_cell_formula_units_Z 28
_cell_length_a 23.660203
_cell_length_b 9.522450
_cell_length_c 8.135639
_cell_angle_alpha 90.000000
_cell_angle_beta 135.565924
_cell_angle_gamma 90.000000
_cell_volume 1283.250843
_symmetry_space_group_name_H-M "P 2/C"
_symmetry_group_IT_number 13
_symmetry_cell_setting 'monoclinic'
loop_
_space_group_symop_operation_xyz
x,y,z
-x,y,1/2-z
-x,-y,-z
x,-y,1/2+z
loop_
_atom_site_type_symbol
_atom_site_label
_atom_site_fract_x
_atom_site_fract_y
_atom_site_fract_z
Si Si1 0.155757 0.288725 0.826815
Si Si2 0.092154 0.054995 0.494672
Si Si3 0.672528 0.330001 0.394944
Si Si4 0.847543 0.790399 0.698596
Si Si5 0.322307 0.343295 0.699065
Si Si6 0.909845 0.454280 0.501558
Si Si7 0.502446 0.336689 0.453209
O O1 0.100675 0.155548 0.671771
O O2 0.136019 0.369915 0.951823
O O3 0.135304 0.405373 0.645303
O O4 0.249843 0.249841 0.012402
O O5 0.139554 0.134828 0.448990
O O6 0.000000 0.041533 0.250000
O O7 0.129369 0.906510 0.619472
O O8 0.677299 0.331016 0.602538
O O9 0.681429 0.491665 0.353906
O O10 0.582894 0.276756 0.160932
O O11 0.756867 0.734309 0.528354
O O12 0.906275 0.655940 0.842668
O O13 0.408443 0.285678 0.811671
O O14 0.000000 0.480306 0.750000
O O15 0.500000 0.329515 0.250000
O O16 0.500000 0.500000 0.500000
#
# Coordination Sequence:
#
# PCOD9227283 Si02
#       7
#     4   4   4   4   4   4   4
#     4  12  22  38  61  88 120 154 200 248 299 360
#     4  12  25  43  61  84 116 161 208 253 301 359
#     4  10  18  34  57  91 122 150 189 237 299 350
#     4  12  24  42  61  84 117 157 207 249 302 361
#     4  10  19  35  58  90 122 154 191 239 300 357
#     4  12  24  39  59  88 120 158 198 253 305 350
#     4   8  16  29  53  85 121 152 179 233 289 357
#
# _framework density 21.819583999999999
#
# number of rings (size 3 to 8) (size 9 to 14) (size 15 to 20)
#    0.000    1.143    2.857    5.143    0.000    0.000 
#    0.000    0.000    0.000    0.857    0.000    0.000 
#    0.000    0.000    0.000    0.000    0.000    0.000 
#
# Total GULP energy -156610.557845 kJ/mol
# GULP energy per Si atom -5593.234209 kJ/mol
# Density = 2.176992 g / cm^3
# Si number density = 21.819584 Si / 1000 Ang^3
#
#
#
# Elastic Constant Matrix: (Units=GPa)
#
#
# Indices 1 2 3 4 5 6 
#
# 1 81.7010 3.3403 28.5935 0.0000 22.5387 0.0000
# 2 3.3403 62.6755 16.6124 0.0000 6.5571 0.0000
# 3 28.5935 16.6124 84.7960 0.0000 29.5318 0.0000
# 4 0.0000 0.0000 0.0000 33.1174 0.0000 -1.6656
# 5 22.5387 6.5571 29.5318 0.0000 45.3922 0.0000
# 6 0.0000 0.0000 0.0000 -1.6656 0.0000 19.1482
#
#
#
# Elastic Compliance Matrix: (Units=1/GPa)
#
#
# Indices 1 2 3 4 5 6 
#
# 1 0.014827 0.000633 -0.003269 0.000000 -0.005327 0.000000
# 2 0.000633 0.016861 -0.003309 0.000000 -0.000598 0.000000
# 3 -0.003269 -0.003309 0.016565 0.000000 -0.008676 0.000000
# 4 0.000000 0.000000 0.000000 0.030328 0.000000 0.002638
# 5 -0.005327 -0.000598 -0.008676 0.000000 0.030406 0.000000
# 6 0.000000 0.000000 0.000000 0.002638 0.000000 0.052454
#
#
# Mechanical properties :
#
#
# Convention : Reuss Voigt Hill
#
# Bulk Modulus (GPa) = 27.49851 36.25163 31.87507
# Shear Modulus (GPa) = 26.96126 31.57333 29.26729
#
# Velocity S-wave (km/s) = 3.51899 3.80810 3.66639
# Velocity P-wave (km/s) = 5.39825 5.99882 5.70644
#
# Compressibility (1/GPa) = 0.03636560
#
# Stress axis : x y z
#
# Youngs Moduli (GPa) = 67.44265 59.30871 60.36804
#
# Poissons Ratio (x) = -0.03757 0.19732
# Poissons Ratio (y) = -0.04272 0.19974
# Poissons Ratio (z) = 0.22045 0.19624
#
# Static dielectric constant tensor:
#      x y z
#    x 1.866080 0.000000 -0.021240 
#    y 0.000000 1.767090 0.000000 
#    z -0.021240 0.000000 1.853630 
# 
# From -- ./inp_files/24617.got.cif
#   From: 2010.05.17/outbox.cif.g08.bks.cpg/sg13_13_cif.got.tgz:24617.got - 2010.06.03 16:44:36.
