data_PCOD9227358
_publ_section_title
;
Structure prediction by ZEFSAII (Michael W. Deem and Ramdas Pophale) SiO2 
 PCOD9227358
Probable space group: P 2/C
;
_chemical_formula_sum "Si O2"
_cell_formula_units_Z 28
_cell_length_a 6.367158
_cell_length_b 13.028062
_cell_length_c 15.757426
_cell_angle_alpha 90.000000
_cell_angle_beta 78.650168
_cell_angle_gamma 90.000000
_cell_volume 1281.543801
_symmetry_space_group_name_H-M "P 2/C"
_symmetry_group_IT_number 13
_symmetry_cell_setting 'monoclinic'
loop_
_space_group_symop_operation_xyz
x,y,z
-x,y,1/2-z
-x,-y,-z
x,-y,1/2+z
loop_
_atom_site_type_symbol
_atom_site_label
_atom_site_fract_x
_atom_site_fract_y
_atom_site_fract_z
Si Si1 0.687400 0.378132 0.904149
Si Si2 0.498039 0.232292 0.148521
Si Si3 0.158212 0.069021 0.171570
Si Si4 0.919667 0.756802 0.526832
Si Si5 0.500000 0.942241 0.250000
Si Si6 0.292438 0.389170 0.044911
Si Si7 0.000000 0.285219 0.750000
Si Si8 0.875638 0.885255 0.121094
O O1 0.747216 0.492547 0.930051
O O2 0.800591 0.350827 0.805105
O O3 0.790658 0.297091 0.960806
O O4 0.432133 0.375247 0.946588
O O5 0.500000 0.235649 0.250000
O O6 0.325740 0.151898 0.124130
O O7 0.737037 0.201693 0.102718
O O8 0.432908 0.339464 0.109752
O O9 0.000000 0.125590 0.250000
O O10 0.309586 0.002211 0.220809
O O11 0.020935 0.986101 0.129307
O O12 0.071962 0.671708 0.555099
O O13 0.063547 0.845910 0.476071
O O14 0.623242 0.893813 0.160183
O O15 0.932308 0.206420 0.681890
#
# Coordination Sequence:
#
# PCOD9227358 Si02
#       8
#     4   4   4   4   2   4   2   4
#     4   9  21  40  61  92 127 165 205 255 312 366
#     4  11  25  40  63  88 118 164 218 253 307 377
#     4  10  21  39  61  86 122 160 201 258 308 368
#     4  10  23  39  62  94 123 163 204 257 311 372
#     4  10  18  34  62  84 118 158 194 240 312 360
#     4  10  22  42  63  86 130 168 202 261 316 363
#     4  10  18  36  60  92 120 152 208 254 290 374
#     4  10  21  36  61  93 123 156 201 253 316 367
#
# _framework density 21.848648000000001
#
# number of rings (size 3 to 8) (size 9 to 14) (size 15 to 20)
#    0.000    2.000    2.857    0.429    4.000    2.857 
#    0.000    4.286    0.000    0.000    0.000    0.000 
#    0.000    0.000    0.000    0.000    0.000    0.000 
#
# Total GULP energy -156066.999978 kJ/mol
# GULP energy per Si atom -5573.821428 kJ/mol
# Density = 2.179892 g / cm^3
# Si number density = 21.848648 Si / 1000 Ang^3
#
#
#
# Elastic Constant Matrix: (Units=GPa)
#
#
# Indices 1 2 3 4 5 6 
#
# 1 61.9256 5.3976 39.7423 0.0000 -40.1123 0.0000
# 2 5.3976 62.1136 39.2967 0.0000 -26.5932 0.0000
# 3 39.7423 39.2967 133.3077 0.0000 -37.9445 0.0000
# 4 0.0000 0.0000 0.0000 24.9796 0.0000 -9.8048
# 5 -40.1123 -26.5932 -37.9445 0.0000 39.4855 0.0000
# 6 0.0000 0.0000 0.0000 -9.8048 0.0000 28.9038
#
#
#
# Elastic Compliance Matrix: (Units=1/GPa)
#
#
# Indices 1 2 3 4 5 6 
#
# 1 0.100730 0.051940 -0.008613 0.000000 0.129033 0.000000
# 2 0.051940 0.050449 -0.007799 0.000000 0.079246 0.000000
# 3 -0.008613 -0.007799 0.011539 0.000000 -0.002914 0.000000
# 4 0.000000 0.000000 0.000000 0.046182 0.000000 0.015666
# 5 0.129033 0.079246 -0.002914 0.000000 0.206978 0.000000
# 6 0.000000 0.000000 0.000000 0.015666 0.000000 0.039912
#
#
# Mechanical properties :
#
#
# Convention : Reuss Voigt Hill
#
# Bulk Modulus (GPa) = 4.27768 47.35780 25.81774
# Shear Modulus (GPa) = 10.80711 30.20112 20.50411
#
# Velocity S-wave (km/s) = 2.22645 3.72195 3.06676
# Velocity P-wave (km/s) = 2.92772 6.33979 4.93784
#
# Compressibility (1/GPa) = 0.23377162
#
# Stress axis : x y z
#
# Youngs Moduli (GPa) = 9.92754 19.82213 86.66348
#
# Poissons Ratio (x) = -1.02956 0.74646
# Poissons Ratio (y) = -0.51563 0.67593
# Poissons Ratio (z) = 0.08551 0.15460
#
# Static dielectric constant tensor:
#      x y z
#    x 1.830050 0.000000 -0.037400 
#    y 0.000000 1.832300 0.000000 
#    z -0.037400 0.000000 1.906270 
# 
# From -- ./inp_files/61370.got.cif
#   From: 2010.05.17/outbox.cif.g08.bks.cpg/sg13_31_cif.got.tgz:61370.got - 2010.06.03 16:44:36.
