data_PCOD9227569
_publ_section_title
;
Structure prediction by ZEFSAII (Michael W. Deem and Ramdas Pophale) SiO2 
 PCOD9227569
Probable space group: P 2/C
;
_chemical_formula_sum "Si O2"
_cell_formula_units_Z 30
_cell_length_a 14.945438
_cell_length_b 15.742381
_cell_length_c 13.331607
_cell_angle_alpha 90.000000
_cell_angle_beta 151.189205
_cell_angle_gamma 90.000000
_cell_volume 1511.594872
_symmetry_space_group_name_H-M "P 2/C"
_symmetry_group_IT_number 13
_symmetry_cell_setting 'monoclinic'
loop_
_space_group_symop_operation_xyz
x,y,z
-x,y,1/2-z
-x,-y,-z
x,-y,1/2+z
loop_
_atom_site_type_symbol
_atom_site_label
_atom_site_fract_x
_atom_site_fract_y
_atom_site_fract_z
Si Si1 0.369553 0.002087 0.710773
Si Si2 0.000000 0.955702 0.750000
Si Si3 0.707032 0.518441 0.946654
Si Si4 0.975962 0.565793 0.386936
Si Si5 0.566959 0.875791 0.044610
Si Si6 0.785416 0.816945 0.675618
Si Si7 0.217507 0.322978 0.490864
Si Si8 0.860848 0.742339 0.370475
O O1 0.500000 0.040614 0.750000
O O2 0.161738 0.991077 0.463845
O O3 0.346719 0.059643 0.788043
O O4 0.488828 0.923001 0.869789
O O5 0.884172 0.892672 0.709817
O O6 0.500000 0.552258 0.750000
O O7 0.700684 0.416964 0.922521
O O8 0.818330 0.531227 0.158303
O O9 0.831247 0.563998 0.984572
O O10 0.912358 0.656702 0.363743
O O11 0.000000 0.500000 0.500000
O O12 0.720357 0.804367 0.175520
O O13 0.388075 0.842702 0.928590
O O14 0.722135 0.743056 0.535650
O O15 0.946388 0.784737 0.907585
O O16 0.233003 0.280438 0.614607
O O17 0.000000 0.335852 0.250000
#
# Coordination Sequence:
#
# PCOD9227569 Si02
#       8
#     4   2   4   4   4   4   4   4
#     4  11  24  43  65  96 134 175 219 274 329 416
#     4  12  20  38  68  94 130 176 210 272 338 388
#     4  11  24  40  63  98 132 180 228 276 333 407
#     4  11  22  43  65  92 138 177 223 278 338 405
#     4  11  25  40  65 100 132 170 224 278 337 397
#     4  11  21  36  64 100 130 164 221 276 336 389
#     4  10  18  36  61  93 131 167 215 282 333 381
#     4  11  22  39  63  95 132 172 216 283 341 387
#
# _framework density 19.846589000000002
#
# number of rings (size 3 to 8) (size 9 to 14) (size 15 to 20)
#    0.000    1.067    7.333    0.800    1.867    3.200 
#    0.000    3.333    0.000    0.000    0.000    0.000 
#    0.000    0.000    0.000    0.000    0.000    0.000 
#
# Total GULP energy -167538.278047 kJ/mol
# GULP energy per Si atom -5584.609268 kJ/mol
# Density = 1.980142 g / cm^3
# Si number density = 19.846589 Si / 1000 Ang^3
#
#
#
# Elastic Constant Matrix: (Units=GPa)
#
#
# Indices 1 2 3 4 5 6 
#
# 1 40.2693 8.1103 33.5725 0.0000 5.6036 0.0000
# 2 8.1103 80.8537 40.7335 0.0000 1.5205 0.0000
# 3 33.5725 40.7335 108.5772 0.0000 14.5887 0.0000
# 4 0.0000 0.0000 0.0000 17.1274 0.0000 -1.3531
# 5 5.6036 1.5205 14.5887 0.0000 25.2550 0.0000
# 6 0.0000 0.0000 0.0000 -1.3531 0.0000 28.5445
#
#
#
# Elastic Compliance Matrix: (Units=1/GPa)
#
#
# Indices 1 2 3 4 5 6 
#
# 1 0.033838 0.002242 -0.011142 0.000000 -0.001207 0.000000
# 2 0.002242 0.015556 -0.006870 0.000000 0.002534 0.000000
# 3 -0.011142 -0.006870 0.016094 0.000000 -0.006411 0.000000
# 4 0.000000 0.000000 0.000000 0.058605 0.000000 0.002778
# 5 -0.001207 0.002534 -0.006411 0.000000 0.043415 0.000000
# 6 0.000000 0.000000 0.000000 0.002778 0.000000 0.035165
#
#
# Mechanical properties :
#
#
# Convention : Reuss Voigt Hill
#
# Bulk Modulus (GPa) = 29.45633 43.83699 36.64666
# Shear Modulus (GPa) = 20.36420 24.00429 22.18425
#
# Velocity S-wave (km/s) = 3.20672 3.48155 3.34696
# Velocity P-wave (km/s) = 5.34649 6.18849 5.78284
#
# Compressibility (1/GPa) = 0.03394856
#
# Stress axis : x y z
#
# Youngs Moduli (GPa) = 29.55246 64.28207 62.13618
#
# Poissons Ratio (x) = -0.14409 0.69230
# Poissons Ratio (y) = -0.06624 0.42686
# Poissons Ratio (z) = 0.32926 0.44160
#
# Static dielectric constant tensor:
#      x y z
#    x 1.695550 0.000000 -0.002010 
#    y 0.000000 1.734680 0.000000 
#    z -0.002010 0.000000 1.702850 
# 
# From -- ./inp_files/37667.got.cif
#   From: 2010.05.17/outbox.cif.g08.bks.cpg/sg13_19_cif.got.tgz:37667.got - 2010.06.03 16:44:36.
