data_PCOD9227056
_publ_section_title
;
Structure prediction by ZEFSAII (Michael W. Deem and Ramdas Pophale) SiO2 
 PCOD9227056
Probable space group: P 2/C
;
_chemical_formula_sum "Si O2"
_cell_formula_units_Z 32
_cell_length_a 15.607312
_cell_length_b 10.953385
_cell_length_c 14.078850
_cell_angle_alpha 90.000000
_cell_angle_beta 146.726273
_cell_angle_gamma 90.000000
_cell_volume 1320.476630
_symmetry_space_group_name_H-M "P 2/C"
_symmetry_group_IT_number 13
_symmetry_cell_setting 'monoclinic'
loop_
_space_group_symop_operation_xyz
x,y,z
-x,y,1/2-z
-x,-y,-z
x,-y,1/2+z
loop_
_atom_site_type_symbol
_atom_site_label
_atom_site_fract_x
_atom_site_fract_y
_atom_site_fract_z
Si Si1 0.842056 0.153907 0.069003
Si Si2 0.478684 0.074352 0.116810
Si Si3 0.446565 0.195868 0.590736
Si Si4 0.519578 0.470971 0.882504
Si Si5 0.804831 0.064627 0.395676
Si Si6 0.066395 0.324096 0.507972
Si Si7 0.755482 0.554749 0.752977
Si Si8 0.854652 0.116487 0.776701
O O1 0.000000 0.094332 0.250000
O O2 0.737834 0.190223 0.061208
O O3 0.772384 0.051974 0.934683
O O4 0.890229 0.272638 0.054650
O O5 0.500000 0.075288 0.250000
O O6 0.487383 0.934305 0.084237
O O7 0.641332 0.136329 0.234774
O O8 0.303319 0.120098 0.931770
O O9 0.500000 0.193017 0.750000
O O10 0.507223 0.326762 0.613148
O O11 0.500000 0.480049 0.750000
O O12 0.398338 0.559702 0.823212
O O13 0.689298 0.489304 0.088625
O O14 0.843435 0.007810 0.328533
O O15 0.962593 0.122689 0.585085
O O16 0.145091 0.452452 0.600589
O O17 0.147851 0.229235 0.653898
O O18 0.880873 0.337437 0.354858
#
# Coordination Sequence:
#
# PCOD9227056 Si02
#       8
#     4   4   4   4   4   4   4   4
#     4  11  19  32  60  94 121 155 200 269 334 387
#     4  11  21  37  61  93 128 164 206 261 314 386
#     4  10  18  32  57  93 121 147 194 259 333 377
#     4  10  21  38  65  95 123 157 205 271 341 394
#     4  10  21  37  56  91 127 163 201 253 314 392
#     4  10  22  41  60  86 125 166 215 262 322 381
#     4  10  22  41  64  91 123 164 215 279 325 380
#     4  10  23  39  58  86 127 174 207 245 312 386
#
# _framework density 24.233675000000002
#
# number of rings (size 3 to 8) (size 9 to 14) (size 15 to 20)
#    0.000    1.750    2.500    3.375    1.750    2.000 
#    4.500    2.500    2.750    0.000    0.000    0.000 
#    0.000    0.000    0.000    0.000    0.000    0.000 
#
# Total GULP energy -178411.344480 kJ/mol
# GULP energy per Si atom -5575.354515 kJ/mol
# Density = 2.417852 g / cm^3
# Si number density = 24.233675 Si / 1000 Ang^3
#
#
#
# Elastic Constant Matrix: (Units=GPa)
#
#
# Indices 1 2 3 4 5 6 
#
# 1 76.4569 17.1694 59.0418 0.0000 16.6434 0.0000
# 2 17.1694 40.7545 11.0154 0.0000 -0.9203 0.0000
# 3 59.0418 11.0154 200.5586 0.0000 20.0677 0.0000
# 4 0.0000 0.0000 0.0000 33.6406 0.0000 3.4447
# 5 16.6434 -0.9203 20.0677 0.0000 51.6427 0.0000
# 6 0.0000 0.0000 0.0000 3.4447 0.0000 30.7303
#
#
#
# Elastic Compliance Matrix: (Units=1/GPa)
#
#
# Indices 1 2 3 4 5 6 
#
# 1 0.019378 -0.006947 -0.004875 0.000000 -0.004474 0.000000
# 2 -0.006947 0.027449 0.000275 0.000000 0.002621 0.000000
# 3 -0.004875 0.000275 0.006501 0.000000 -0.000950 0.000000
# 4 0.000000 0.000000 0.000000 0.030071 0.000000 -0.003371
# 5 -0.004474 0.002621 -0.000950 0.000000 0.021222 0.000000
# 6 0.000000 0.000000 0.000000 -0.003371 0.000000 0.032919
#
#
# Mechanical properties :
#
#
# Convention : Reuss Voigt Hill
#
# Bulk Modulus (GPa) = 33.07563 54.69145 43.88354
# Shear Modulus (GPa) = 29.28900 38.57228 33.93064
#
# Velocity S-wave (km/s) = 3.48027 3.99392 3.74591
# Velocity P-wave (km/s) = 5.46150 6.62464 6.07099
#
# Compressibility (1/GPa) = 0.03023374
#
# Stress axis : x y z
#
# Youngs Moduli (GPa) = 51.60425 36.43164 153.81570
#
# Poissons Ratio (x) = 0.25309 0.74992
# Poissons Ratio (y) = 0.35850 -0.04234
# Poissons Ratio (z) = 0.25159 -0.01003
#
# Static dielectric constant tensor:
#      x y z
#    x 2.140330 0.000000 0.094890 
#    y 0.000000 1.932810 0.000000 
#    z 0.094890 0.000000 2.052290 
# 
# From -- ./inp_files/55838.got.cif
#   From: 2010.05.17/outbox.cif.g08.bks.cpg/sg13_28_cif.got.tgz:55838.got - 2010.06.03 16:44:36.
