data_PCOD9227736
_publ_section_title
;
Structure prediction by ZEFSAII (Michael W. Deem and Ramdas Pophale) SiO2 
 PCOD9227736
Probable space group: P 2/C
;
_chemical_formula_sum "Si O2"
_cell_formula_units_Z 14
_cell_length_a 7.638176
_cell_length_b 20.205123
_cell_length_c 4.904416
_cell_angle_alpha 90.000000
_cell_angle_beta 67.590956
_cell_angle_gamma 90.000000
_cell_volume 699.743284
_symmetry_space_group_name_H-M "P 2/C"
_symmetry_group_IT_number 13
_symmetry_cell_setting 'monoclinic'
loop_
_space_group_symop_operation_xyz
x,y,z
-x,y,1/2-z
-x,-y,-z
x,-y,1/2+z
loop_
_atom_site_type_symbol
_atom_site_label
_atom_site_fract_x
_atom_site_fract_y
_atom_site_fract_z
Si Si1 0.500000 0.151908 0.250000
Si Si2 0.223580 0.956909 0.148311
Si Si3 0.500000 0.243389 0.750000
Si Si4 0.000000 0.549606 0.750000
Si Si5 0.872328 0.675503 0.055379
O O1 0.340133 0.104736 0.471868
O O2 0.564695 0.198192 0.459406
O O3 0.000000 0.944062 0.250000
O O4 0.266623 0.979912 0.428777
O O5 0.321204 0.287627 0.769004
O O6 0.839659 0.395873 0.426608
O O7 0.000000 0.500000 0.500000
O O8 0.000000 0.666203 0.250000
O O9 0.000000 0.712335 0.750000
#
# Coordination Sequence:
#
# PCOD9227736 Si02
#       5
#     2   4   2   2   4
#     4  12  24  37  62  89 122 160 214 248 298 380
#     4  10  21  39  61  86 119 154 199 261 316 354
#     4  12  26  41  60  93 126 172 210 242 308 380
#     4  10  18  38  68  94 118 160 208 252 308 362
#     4  10  22  41  64  86 130 164 198 259 307 354
#
# _framework density 20.007335999999999
#
# number of rings (size 3 to 8) (size 9 to 14) (size 15 to 20)
#    0.857    0.571    1.429    4.286    0.000    3.429 
#    0.000    1.429    0.000    0.000    0.000    0.000 
#    0.000    0.000    0.000    0.000    0.000    0.000 
#
# Total GULP energy -78040.456588 kJ/mol
# GULP energy per Si atom -5574.318328 kJ/mol
# Density = 1.996180 g / cm^3
# Si number density = 20.007336 Si / 1000 Ang^3
#
#
#
# Elastic Constant Matrix: (Units=GPa)
#
#
# Indices 1 2 3 4 5 6 
#
# 1 67.2900 37.8970 31.8831 0.0000 -8.0914 0.0000
# 2 37.8970 101.0614 33.2432 0.0000 -14.1533 0.0000
# 3 31.8831 33.2432 104.3881 0.0000 7.7447 0.0000
# 4 0.0000 0.0000 0.0000 145.3296 0.0000 -41.8370
# 5 -8.0914 -14.1533 7.7447 0.0000 40.8583 0.0000
# 6 0.0000 0.0000 0.0000 -41.8370 0.0000 31.1361
#
#
#
# Elastic Compliance Matrix: (Units=1/GPa)
#
#
# Indices 1 2 3 4 5 6 
#
# 1 0.020716 -0.005804 -0.004700 0.000000 0.002983 0.000000
# 2 -0.005804 0.013586 -0.002858 0.000000 0.004098 0.000000
# 3 -0.004700 -0.002858 0.012240 0.000000 -0.004241 0.000000
# 4 0.000000 0.000000 0.000000 0.011222 0.000000 0.015078
# 5 0.002983 0.004098 -0.004241 0.000000 0.027289 0.000000
# 6 0.000000 0.000000 0.000000 0.015078 0.000000 0.052377
#
#
# Mechanical properties :
#
#
# Convention : Reuss Voigt Hill
#
# Bulk Modulus (GPa) = 50.46200 53.19845 51.83023
# Shear Modulus (GPa) = 29.28115 54.77923 42.03019
#
# Velocity S-wave (km/s) = 3.82975 5.23823 4.58835
# Velocity P-wave (km/s) = 6.69571 7.95189 7.35068
#
# Compressibility (1/GPa) = 0.01981689
#
# Stress axis : x y z
#
# Youngs Moduli (GPa) = 48.27274 73.60786 81.70080
#
# Poissons Ratio (x) = 0.42725 0.38399
# Poissons Ratio (y) = 0.28020 0.23347
# Poissons Ratio (z) = 0.22688 0.21034
#
# Static dielectric constant tensor:
#      x y z
#    x 1.706230 0.000000 -0.000500 
#    y 0.000000 1.726150 0.000000 
#    z -0.000500 0.000000 1.730950 
# 
# From -- ./inp_files/1265.got.cif
#   From: 2010.05.17/outbox.cif.g08.bks.cpg/sg13_1_cif.got.tgz:1265.got - 2010.06.03 16:44:36.
