data_PCOD9227425
_publ_section_title
;
Structure prediction by ZEFSAII (Michael W. Deem and Ramdas Pophale) SiO2 
 PCOD9227425
Probable space group: P 2/C
;
_chemical_formula_sum "Si O2"
_cell_formula_units_Z 32
_cell_length_a 11.053932
_cell_length_b 16.846019
_cell_length_c 13.384047
_cell_angle_alpha 90.000000
_cell_angle_beta 146.784435
_cell_angle_gamma 90.000000
_cell_volume 1365.262116
_symmetry_space_group_name_H-M "P 2/C"
_symmetry_group_IT_number 13
_symmetry_cell_setting 'monoclinic'
loop_
_space_group_symop_operation_xyz
x,y,z
-x,y,1/2-z
-x,-y,-z
x,-y,1/2+z
loop_
_atom_site_type_symbol
_atom_site_label
_atom_site_fract_x
_atom_site_fract_y
_atom_site_fract_z
Si Si1 0.049008 0.113166 0.032287
Si Si2 0.529196 0.122981 0.658026
Si Si3 0.463289 0.270554 0.955369
Si Si4 0.002217 0.708392 0.476603
Si Si5 0.775352 0.501278 0.595771
Si Si6 0.640683 0.597404 0.706161
Si Si7 0.729002 0.342927 0.964365
Si Si8 0.870251 0.012136 0.069144
O O1 0.786179 0.102828 0.828103
O O2 0.035758 0.079526 0.136205
O O3 0.173587 0.052706 0.046188
O O4 0.108422 0.203844 0.047659
O O5 0.500000 0.164844 0.750000
O O6 0.501225 0.178135 0.541599
O O7 0.352600 0.053595 0.546597
O O8 0.653121 0.303826 0.013284
O O9 0.214642 0.292788 0.745339
O O10 0.520332 0.319432 0.092353
O O11 0.161132 0.631155 0.588022
O O12 0.894022 0.706607 0.512294
O O13 0.720019 0.543519 0.664620
O O14 0.565244 0.456676 0.405937
O O15 0.827307 0.572415 0.556190
O O16 0.000000 0.450888 0.750000
O O17 0.500000 0.355845 0.750000
O O18 0.000000 0.973396 0.250000
#
# Coordination Sequence:
#
# PCOD9227425 Si02
#       8
#     4   4   4   4   4   4   4   4
#     4   9  20  36  55  88 126 156 208 267 312 376
#     4   9  17  34  55  83 122 153 192 263 311 360
#     4   9  18  31  52  84 116 148 198 248 310 362
#     4  10  18  35  58  82 120 153 200 263 303 358
#     4  10  19  36  50  83 125 147 193 259 302 376
#     4  10  21  33  56  86 112 157 202 243 317 368
#     4   9  16  30  51  81 108 150 192 245 308 359
#     4  10  20  33  56  92 122 163 203 254 330 386
#
# _framework density 23.438723
#
# number of rings (size 3 to 8) (size 9 to 14) (size 15 to 20)
#    0.000    2.500    1.250    2.625    1.750    0.500 
#    2.250    2.500    0.000    3.000    9.750    0.000 
#    0.000    0.000    0.000    0.000    0.000    0.000 
#
# Total GULP energy -178179.494593 kJ/mol
# GULP energy per Si atom -5568.109206 kJ/mol
# Density = 2.338538 g / cm^3
# Si number density = 23.438723 Si / 1000 Ang^3
#
#
#
# Elastic Constant Matrix: (Units=GPa)
#
#
# Indices 1 2 3 4 5 6 
#
# 1 17.7935 28.8500 19.8835 0.0000 9.0032 0.0000
# 2 28.8500 70.5261 36.1705 0.0000 23.7553 0.0000
# 3 19.8835 36.1705 77.5706 0.0000 17.7763 0.0000
# 4 0.0000 0.0000 0.0000 17.2405 0.0000 -14.2955
# 5 9.0032 23.7553 17.7763 0.0000 19.5947 0.0000
# 6 0.0000 0.0000 0.0000 -14.2955 0.0000 -10.3806
#
#
#
# Elastic Compliance Matrix: (Units=1/GPa)
#
#
# Indices 1 2 3 4 5 6 
#
# 1 0.184366 -0.073015 -0.017781 0.000000 0.019938 0.000000
# 2 -0.073015 0.055061 0.000821 0.000000 -0.033949 0.000000
# 3 -0.017781 0.000821 0.019470 0.000000 -0.010489 0.000000
# 4 0.000000 0.000000 0.000000 0.027080 0.000000 -0.037293
# 5 0.019938 -0.033949 -0.010489 0.000000 0.092546 0.000000
# 6 0.000000 0.000000 0.000000 -0.037293 0.000000 -0.044976
#
#
# Mechanical properties :
#
#
# Convention : Reuss Voigt Hill
#
# Bulk Modulus (GPa) = 12.66663 37.29980 24.98322
# Shear Modulus (GPa) = 9.26245 10.69000 9.97623
#
# Velocity S-wave (km/s) = 1.99006 2.13793 2.06532
# Velocity P-wave (km/s) = 3.27053 4.69496 4.04592
#
# Compressibility (1/GPa) = 0.07894762
#
# Stress axis : x y z
#
# Youngs Moduli (GPa) = 5.42399 18.16158 51.36099
#
# Poissons Ratio (x) = 1.32607 0.91325
# Poissons Ratio (y) = 0.39603 -0.04217
# Poissons Ratio (z) = 0.09644 -0.01491
#
# Static dielectric constant tensor:
#      x y z
#    x 1.938880 0.000000 -0.024880 
#    y 0.000000 1.976450 0.000000 
#    z -0.024880 0.000000 1.984790 
# 
# From -- ./inp_files/51679.got.cif
#   From: 2010.05.17/outbox.cif.g08.bks.cpg/sg13_26_cif.got.tgz:51679.got - 2010.06.03 16:44:36.
