data_PCOD9227889
_publ_section_title
;
Structure prediction by ZEFSAII (Michael W. Deem and Ramdas Pophale) SiO2 
 PCOD9227889
Probable space group: P 2/C
;
_chemical_formula_sum "Si O2"
_cell_formula_units_Z 26
_cell_length_a 23.209274
_cell_length_b 9.847400
_cell_length_c 8.908881
_cell_angle_alpha 90.000000
_cell_angle_beta 147.401775
_cell_angle_gamma 90.000000
_cell_volume 1096.956213
_symmetry_space_group_name_H-M "P 2/C"
_symmetry_group_IT_number 13
_symmetry_cell_setting 'monoclinic'
loop_
_space_group_symop_operation_xyz
x,y,z
-x,y,1/2-z
-x,-y,-z
x,-y,1/2+z
loop_
_atom_site_type_symbol
_atom_site_label
_atom_site_fract_x
_atom_site_fract_y
_atom_site_fract_z
Si Si1 0.217152 0.926621 0.847270
Si Si2 0.500000 0.322809 0.750000
Si Si3 0.409229 0.115036 0.306956
Si Si4 0.656769 0.638482 0.351086
Si Si5 0.500000 0.276436 0.250000
Si Si6 0.104937 0.107053 0.378813
Si Si7 0.000000 0.579573 0.250000
Si Si8 0.861082 0.609912 0.659535
O O1 0.110044 0.924352 0.713558
O O2 0.176298 0.988171 0.603843
O O3 0.283991 0.785262 0.988735
O O4 0.299454 0.038162 0.090340
O O5 0.439890 0.223997 0.500374
O O6 0.409573 0.400489 0.647058
O O7 0.416615 0.185747 0.161379
O O8 0.500000 0.000000 0.500000
O O9 0.753635 0.550819 0.498069
O O10 0.569415 0.650574 0.028667
O O11 0.158960 0.256622 0.485909
O O12 0.000000 0.122854 0.250000
O O13 0.918671 0.491046 0.171989
O O14 0.066190 0.646677 0.533134
#
# Coordination Sequence:
#
# PCOD9227889 Si02
#       8
#     4   2   4   4   2   4   2   4
#     4  11  21  33  55  80 129 176 206 235 285 350
#     4  10  19  30  48  81 124 158 200 239 282 343
#     4  11  18  27  48  73 114 168 216 234 258 324
#     4  10  21  36  57  91 129 166 207 242 291 371
#     4  10  19  32  54  81 128 168 210 249 282 333
#     4  11  23  41  53  86 129 168 204 249 299 371
#     4  10  22  48  80  90 106 150 204 290 332 368
#     4  10  22  45  71  95 115 147 214 268 325 371
#
# _framework density 23.70195
#
# number of rings (size 3 to 8) (size 9 to 14) (size 15 to 20)
#    0.000    1.538    3.846    3.692    0.000    0.000 
#   13.846    4.615    0.000    2.769    0.000    0.000 
#    0.000    0.000    0.000    0.000    0.000    0.000 
#
# Total GULP energy -145010.454750 kJ/mol
# GULP energy per Si atom -5577.325183 kJ/mol
# Density = 2.364800 g / cm^3
# Si number density = 23.701950 Si / 1000 Ang^3
#
#
#
# Elastic Constant Matrix: (Units=GPa)
#
#
# Indices 1 2 3 4 5 6 
#
# 1 229.5870 36.4811 46.3352 0.0000 19.0377 0.0000
# 2 36.4811 39.4332 21.2821 0.0000 -6.4326 0.0000
# 3 46.3352 21.2821 49.4234 0.0000 -3.8662 0.0000
# 4 0.0000 0.0000 0.0000 36.7500 0.0000 4.0992
# 5 19.0377 -6.4326 -3.8662 0.0000 46.9780 0.0000
# 6 0.0000 0.0000 0.0000 4.0992 0.0000 -14.3101
#
#
#
# Elastic Compliance Matrix: (Units=1/GPa)
#
#
# Indices 1 2 3 4 5 6 
#
# 1 0.006127 -0.003876 -0.004338 0.000000 -0.003371 0.000000
# 2 -0.003876 0.036030 -0.011445 0.000000 0.005563 0.000000
# 3 -0.004338 -0.011445 0.029433 0.000000 0.002613 0.000000
# 4 0.000000 0.000000 0.000000 0.026368 0.000000 0.007553
# 5 -0.003371 0.005563 0.002613 0.000000 0.023629 0.000000
# 6 0.000000 0.000000 0.000000 0.007553 0.000000 -0.067717
#
#
# Mechanical properties :
#
#
# Convention : Reuss Voigt Hill
#
# Bulk Modulus (GPa) = 30.98873 58.51561 44.75217
# Shear Modulus (GPa) = 48.10104 28.17326 38.13715
#
# Velocity S-wave (km/s) = 4.50979 3.45142 4.01562
# Velocity P-wave (km/s) = 6.34195 6.37375 6.35787
#
# Compressibility (1/GPa) = 0.03226979
#
# Stress axis : x y z
#
# Youngs Moduli (GPa) = 163.22111 27.75458 33.97500
#
# Poissons Ratio (x) = 0.10759 0.14739
# Poissons Ratio (y) = 0.63272 0.38886
# Poissons Ratio (z) = 0.70809 0.31766
#
# Static dielectric constant tensor:
#      x y z
#    x 1.744770 0.000000 -0.044620 
#    y 0.000000 1.940420 0.000000 
#    z -0.044620 0.000000 1.886390 
# 
# From -- ./inp_files/24087.got.cif
#   From: 2010.05.17/outbox.cif.g08.bks.cpg/sg13_13_cif.got.tgz:24087.got - 2010.06.03 16:44:36.
