data_PCOD9227629
_publ_section_title
;
Structure prediction by ZEFSAII (Michael W. Deem and Ramdas Pophale) SiO2 
 PCOD9227629
Probable space group: P 2/C
;
_chemical_formula_sum "Si O2"
_cell_formula_units_Z 26
_cell_length_a 10.051626
_cell_length_b 8.579213
_cell_length_c 21.473361
_cell_angle_alpha 90.000000
_cell_angle_beta 141.608472
_cell_angle_gamma 90.000000
_cell_volume 1149.999630
_symmetry_space_group_name_H-M "P 2/C"
_symmetry_group_IT_number 13
_symmetry_cell_setting 'monoclinic'
loop_
_space_group_symop_operation_xyz
x,y,z
-x,y,1/2-z
-x,-y,-z
x,-y,1/2+z
loop_
_atom_site_type_symbol
_atom_site_label
_atom_site_fract_x
_atom_site_fract_y
_atom_site_fract_z
Si Si1 0.103670 0.883933 0.933632
Si Si2 0.838211 0.609431 0.901587
Si Si3 0.814676 0.923355 0.229202
Si Si4 0.369816 0.800976 0.917583
Si Si5 0.000000 0.438938 0.250000
Si Si6 0.169112 0.632945 0.197857
Si Si7 0.770772 0.793290 0.988625
O O1 0.298725 0.824270 0.962292
O O2 0.982326 0.742922 0.921816
O O3 0.936728 0.968128 0.824708
O O4 0.192672 0.023186 0.009213
O O5 0.695665 0.701026 0.899918
O O6 0.732498 0.497971 0.810999
O O7 0.000000 0.500000 0.000000
O O8 0.000000 0.864808 0.250000
O O9 0.706337 0.773935 0.222109
O O10 0.675991 0.039894 0.137021
O O11 0.206872 0.670615 0.833329
O O12 0.611210 0.764475 0.987726
O O13 0.042006 0.539797 0.204374
O O14 0.997373 0.725194 0.093071
#
# Coordination Sequence:
#
# PCOD9227629 Si02
#       7
#     4   4   4   4   2   4   4
#     4  10  18  37  59  81 115 154 194 233 291 347
#     4  10  20  38  57  83 119 157 190 231 302 356
#     4   9  17  33  59  84 111 147 194 234 293 347
#     4  11  20  37  60  91 114 153 198 251 288 344
#     4  12  20  36  62  82 124 154 186 240 310 348
#     4  10  20  37  59  85 116 159 191 240 296 359
#     4  10  23  36  60  90 118 151 204 246 280 349
#
# _framework density 22.608702000000001
#
# number of rings (size 3 to 8) (size 9 to 14) (size 15 to 20)
#    0.000    1.846    4.615    0.923    0.000    0.615 
#    0.000    3.077    0.000    5.538    0.000    0.000 
#    0.000    0.000    0.000    0.000    0.000    0.000 
#
# Total GULP energy -145156.440005 kJ/mol
# GULP energy per Si atom -5582.940000 kJ/mol
# Density = 2.255724 g / cm^3
# Si number density = 22.608702 Si / 1000 Ang^3
#
#
#
# Elastic Constant Matrix: (Units=GPa)
#
#
# Indices 1 2 3 4 5 6 
#
# 1 86.7661 49.2596 10.5005 0.0000 -13.8604 0.0000
# 2 49.2596 132.7496 18.3488 0.0000 -19.2638 0.0000
# 3 10.5005 18.3488 20.9464 0.0000 -8.9727 0.0000
# 4 0.0000 0.0000 0.0000 0.4282 0.0000 -11.3376
# 5 -13.8604 -19.2638 -8.9727 0.0000 28.8910 0.0000
# 6 0.0000 0.0000 0.0000 -11.3376 0.0000 36.8987
#
#
#
# Elastic Compliance Matrix: (Units=1/GPa)
#
#
# Indices 1 2 3 4 5 6 
#
# 1 0.015036 -0.004828 -0.001842 0.000000 0.003422 0.000000
# 2 -0.004828 0.010520 -0.005517 0.000000 0.002985 0.000000
# 3 -0.001842 -0.005517 0.059452 0.000000 0.013902 0.000000
# 4 0.000000 0.000000 0.000000 -0.327283 0.000000 -0.100562
# 5 0.003422 0.002985 0.013902 0.000000 0.042562 0.000000
# 6 0.000000 0.000000 0.000000 -0.100562 0.000000 -0.003798
#
#
# Mechanical properties :
#
#
# Convention : Reuss Voigt Hill
#
# Bulk Modulus (GPa) = 16.49232 44.07555 30.28393
# Shear Modulus (GPa) = -31.46149 24.06714 -3.69718
#
# Velocity S-wave (km/s) = -3.73442 3.26622 -1.28017
# Velocity P-wave (km/s) = 3.35916 5.81047 3.35243
#
# Compressibility (1/GPa) = 0.06063427
#
# Stress axis : x y z
#
# Youngs Moduli (GPa) = 66.50736 95.05469 16.82029
#
# Poissons Ratio (x) = 0.45894 0.03099
# Poissons Ratio (y) = 0.32111 0.09279
# Poissons Ratio (z) = 0.12252 0.52437
#
# Static dielectric constant tensor:
#      x y z
#    x 1.861650 0.000000 -0.047300 
#    y 0.000000 1.867860 0.000000 
#    z -0.047300 0.000000 2.007720 
# 
# From -- ./inp_files/63734.got.cif
#   From: 2010.05.17/outbox.cif.g08.bks.cpg/sg13_32_cif.got.tgz:63734.got - 2010.06.03 16:44:36.
