data_PCOD9227423
_publ_section_title
;
Structure prediction by ZEFSAII (Michael W. Deem and Ramdas Pophale) SiO2 
 PCOD9227423
Probable space group: P 2/C
;
_chemical_formula_sum "Si O2"
_cell_formula_units_Z 20
_cell_length_a 19.613008
_cell_length_b 9.333159
_cell_length_c 18.285782
_cell_angle_alpha 90.000000
_cell_angle_beta 21.096498
_cell_angle_gamma 90.000000
_cell_volume 1204.803608
_symmetry_space_group_name_H-M "P 2/C"
_symmetry_group_IT_number 13
_symmetry_cell_setting 'monoclinic'
loop_
_space_group_symop_operation_xyz
x,y,z
-x,y,1/2-z
-x,-y,-z
x,-y,1/2+z
loop_
_atom_site_type_symbol
_atom_site_label
_atom_site_fract_x
_atom_site_fract_y
_atom_site_fract_z
Si Si1 0.455618 0.189841 0.104147
Si Si2 0.158974 0.622867 0.423668
Si Si3 0.199991 0.069274 0.825662
Si Si4 0.722350 0.578770 0.825845
Si Si5 0.555722 0.549249 0.778186
O O1 0.368295 0.284841 0.124602
O O2 0.441423 0.293380 0.187989
O O3 0.319850 0.053628 0.245021
O O4 0.665070 0.130315 0.874998
O O5 0.182454 0.792837 0.395314
O O6 0.262320 0.547391 0.250246
O O7 0.250443 0.537874 0.399685
O O8 0.936480 0.600164 0.636818
O O9 0.000000 0.000000 0.000000
O O10 0.598425 0.534218 0.018575
O O11 0.500000 0.553379 0.750000
#
# Coordination Sequence:
#
# PCOD9227423 Si02
#       5
#     4   4   4   4   4
#     4  10  20  34  57  84 109 139 187 228 273 325
#     4  10  19  34  58  83 107 138 186 231 272 315
#     4  11  19  32  58  88 106 135 176 238 283 312
#     4  10  18  35  58  82 106 137 187 238 262 313
#     4  11  22  37  55  78 114 151 181 223 274 334
#
# _framework density 16.600214999999999
#
# number of rings (size 3 to 8) (size 9 to 14) (size 15 to 20)
#    0.000    1.600    6.000    1.200    0.000    0.800 
#    0.000    1.000    0.000    0.000    0.000    0.000 
#    0.000    0.000    0.000    0.000    0.000    0.000 
#
# Total GULP energy -111458.351695 kJ/mol
# GULP energy per Si atom -5572.917585 kJ/mol
# Density = 1.656243 g / cm^3
# Si number density = 16.600215 Si / 1000 Ang^3
#
#
#
# Elastic Constant Matrix: (Units=GPa)
#
#
# Indices 1 2 3 4 5 6 
#
# 1 124.8908 56.5739 42.9948 0.0000 -14.1182 0.0000
# 2 56.5739 138.7302 37.9678 0.0000 -14.1437 0.0000
# 3 42.9948 37.9678 92.0310 0.0000 -24.5752 0.0000
# 4 0.0000 0.0000 0.0000 33.1930 0.0000 -5.8063
# 5 -14.1182 -14.1437 -24.5752 0.0000 19.1177 0.0000
# 6 0.0000 0.0000 0.0000 -5.8063 0.0000 13.6576
#
#
#
# Elastic Compliance Matrix: (Units=1/GPa)
#
#
# Indices 1 2 3 4 5 6 
#
# 1 0.010823 -0.003376 -0.003344 0.000000 0.001196 0.000000
# 2 -0.003376 0.009264 -0.001645 0.000000 0.002246 0.000000
# 3 -0.003344 -0.001645 0.018458 0.000000 0.020041 0.000000
# 4 0.000000 0.000000 0.000000 0.032547 0.000000 0.013837
# 5 0.001196 0.002246 0.020041 0.000000 0.080615 0.000000
# 6 0.000000 0.000000 0.000000 0.013837 0.000000 0.079102
#
#
# Mechanical properties :
#
#
# Convention : Reuss Voigt Hill
#
# Bulk Modulus (GPa) = 45.83934 70.08055 57.95994
# Shear Modulus (GPa) = 19.62231 27.73469 23.67850
#
# Velocity S-wave (km/s) = 3.44183 4.09191 3.78086
# Velocity P-wave (km/s) = 6.59307 8.03948 7.35193
#
# Compressibility (1/GPa) = 0.02181532
#
# Stress axis : x y z
#
# Youngs Moduli (GPa) = 92.39724 107.94128 54.17600
#
# Poissons Ratio (x) = 0.36446 0.18115
# Poissons Ratio (y) = 0.31197 0.08911
# Poissons Ratio (z) = 0.30896 0.17755
#
# Static dielectric constant tensor:
#      x y z
#    x 1.526360 0.000000 -0.015860 
#    y 0.000000 1.582540 0.000000 
#    z -0.015860 0.000000 1.593140 
# 
# From -- ./inp_files/81473.got.cif
#   From: 2010.05.17/outbox.cif.g08.bks.cpg/sg13_41_cif.got.tgz:81473.got - 2010.06.03 16:44:36.
