data_PCOD9227733
_publ_section_title
;
Structure prediction by ZEFSAII (Michael W. Deem and Ramdas Pophale) SiO2 
 PCOD9227733
Probable space group: P 2/C
;
_chemical_formula_sum "Si O2"
_cell_formula_units_Z 22
_cell_length_a 22.548558
_cell_length_b 9.172169
_cell_length_c 15.364499
_cell_angle_alpha 90.000000
_cell_angle_beta 160.887635
_cell_angle_gamma 90.000000
_cell_volume 1040.439531
_symmetry_space_group_name_H-M "P 2/C"
_symmetry_group_IT_number 13
_symmetry_cell_setting 'monoclinic'
loop_
_space_group_symop_operation_xyz
x,y,z
-x,y,1/2-z
-x,-y,-z
x,-y,1/2+z
loop_
_atom_site_type_symbol
_atom_site_label
_atom_site_fract_x
_atom_site_fract_y
_atom_site_fract_z
Si Si1 0.875597 0.374035 0.785031
Si Si2 0.000000 0.380413 0.250000
Si Si3 0.638830 0.505853 0.809179
Si Si4 0.494320 0.741895 0.007255
Si Si5 0.847629 0.827770 0.405781
Si Si6 0.094416 0.855810 0.474470
O O1 0.711130 0.446693 0.503180
O O2 0.807272 0.259336 0.762002
O O3 0.000000 0.500000 0.000000
O O4 0.998171 0.277569 0.890016
O O5 0.177083 0.478023 0.490981
O O6 0.008991 0.275065 0.345289
O O7 0.532512 0.630070 0.610438
O O8 0.532951 0.355042 0.647001
O O9 0.307165 0.824514 0.758499
O O10 0.672215 0.831193 0.226265
O O11 0.920915 0.990178 0.497075
O O12 0.000000 0.872770 0.250000
#
# Coordination Sequence:
#
# PCOD9227733 Si02
#       6
#     4   2   4   4   4   4
#     4  12  25  41  69 101 133 171 223 279 330 383
#     4  10  18  38  66  96 128 178 218 264 328 400
#     4  10  20  38  65  99 131 165 224 270 323 381
#     4  10  23  41  70  96 130 174 226 269 325 397
#     4  11  24  42  67  98 135 171 221 274 331 392
#     4  12  24  46  69  96 132 183 220 267 336 411
#
# _framework density 21.144908999999998
#
# number of rings (size 3 to 8) (size 9 to 14) (size 15 to 20)
#    0.000    1.091    4.545    2.182    5.091    0.727 
#    0.000    0.000    4.000    0.000    0.000    0.000 
#    0.000    0.000    0.000    0.000    0.000    0.000 
#
# Total GULP energy -122947.496722 kJ/mol
# GULP energy per Si atom -5588.522578 kJ/mol
# Density = 2.109678 g / cm^3
# Si number density = 21.144909 Si / 1000 Ang^3
#
#
#
# Elastic Constant Matrix: (Units=GPa)
#
#
# Indices 1 2 3 4 5 6 
#
# 1 62.5727 42.7953 29.4312 0.0000 -15.3425 0.0000
# 2 42.7953 118.0908 48.3305 0.0000 -16.5090 0.0000
# 3 29.4312 48.3305 106.6495 0.0000 -21.3559 0.0000
# 4 0.0000 0.0000 0.0000 6.7909 0.0000 -10.8758
# 5 -15.3425 -16.5090 -21.3559 0.0000 42.7150 0.0000
# 6 0.0000 0.0000 0.0000 -10.8758 0.0000 30.9646
#
#
#
# Elastic Compliance Matrix: (Units=1/GPa)
#
#
# Indices 1 2 3 4 5 6 
#
# 1 0.022726 -0.006647 -0.002377 0.000000 0.004405 0.000000
# 2 -0.006647 0.012473 -0.003702 0.000000 0.000583 0.000000
# 3 -0.002377 -0.003702 0.012504 0.000000 0.003967 0.000000
# 4 0.000000 0.000000 0.000000 0.336588 0.000000 0.118221
# 5 0.004405 0.000583 0.003967 0.000000 0.027202 0.000000
# 6 0.000000 0.000000 0.000000 0.118221 0.000000 0.073818
#
#
# Mechanical properties :
#
#
# Convention : Reuss Voigt Hill
#
# Bulk Modulus (GPa) = 44.93949 58.71410 51.82679
# Shear Modulus (GPa) = 9.64915 27.21117 18.43016
#
# Velocity S-wave (km/s) = 2.13852 3.59122 2.95551
# Velocity P-wave (km/s) = 5.23421 6.70996 6.01749
#
# Compressibility (1/GPa) = 0.02225215
#
# Stress axis : x y z
#
# Youngs Moduli (GPa) = 44.00320 80.17182 79.97217
#
# Poissons Ratio (x) = 0.53289 0.19010
# Poissons Ratio (y) = 0.29248 0.29602
# Poissons Ratio (z) = 0.10460 0.29676
#
# Static dielectric constant tensor:
#      x y z
#    x 1.786180 0.000000 -0.005640 
#    y 0.000000 1.767190 0.000000 
#    z -0.005640 0.000000 1.747910 
# 
# From -- ./inp_files/58631.got.cif
#   From: 2010.05.17/outbox.cif.g08.bks.cpg/sg13_30_cif.got.tgz:58631.got - 2010.06.03 16:44:36.
