data_PCOD9227527
_publ_section_title
;
Structure prediction by ZEFSAII (Michael W. Deem and Ramdas Pophale) SiO2 
 PCOD9227527
Probable space group: P 2/C
;
_chemical_formula_sum "Si O2"
_cell_formula_units_Z 28
_cell_length_a 4.853968
_cell_length_b 9.915916
_cell_length_c 29.685879
_cell_angle_alpha 90.000000
_cell_angle_beta 60.433744
_cell_angle_gamma 90.000000
_cell_volume 1242.773304
_symmetry_space_group_name_H-M "P 2/C"
_symmetry_group_IT_number 13
_symmetry_cell_setting 'monoclinic'
loop_
_space_group_symop_operation_xyz
x,y,z
-x,y,1/2-z
-x,-y,-z
x,-y,1/2+z
loop_
_atom_site_type_symbol
_atom_site_label
_atom_site_fract_x
_atom_site_fract_y
_atom_site_fract_z
Si Si1 0.171988 0.528886 0.357524
Si Si2 0.616462 0.807401 0.942931
Si Si3 0.462854 0.515492 0.925828
Si Si4 0.401393 0.782478 0.454470
Si Si5 0.633361 0.307207 0.284986
Si Si6 0.324296 0.887015 0.877109
Si Si7 0.110031 0.174986 0.885812
O O1 0.204880 0.484032 0.407172
O O2 0.416790 0.438745 0.310639
O O3 0.242393 0.688531 0.353036
O O4 0.807113 0.504071 0.374283
O O5 0.475653 0.657133 0.949474
O O6 0.418582 0.891517 0.922232
O O7 0.983349 0.816037 0.899056
O O8 0.623830 0.846780 0.994592
O O9 0.409571 0.380698 0.958760
O O10 0.139984 0.810681 0.437836
O O11 0.737288 0.825738 0.406083
O O12 0.500000 0.241946 0.250000
O O13 0.574927 0.205449 0.330992
O O14 0.000000 0.339953 0.250000
O O15 0.281982 0.036323 0.860804
#
# Coordination Sequence:
#
# PCOD9227527 Si02
#       7
#     4   4   4   4   4   4   4
#     4  10  20  40  63  84 115 154 190 245 299 348
#     4  12  21  36  60  89 127 161 208 238 290 337
#     4  10  18  36  58  87 122 152 203 243 289 332
#     4  10  22  35  59  89 122 170 205 243 265 344
#     4  12  24  42  66  92 111 143 199 251 307 365
#     4  12  25  40  61  88 125 162 190 249 304 352
#     4  10  23  41  58  86 127 163 197 232 295 347
#
# _framework density 22.530255
#
# number of rings (size 3 to 8) (size 9 to 14) (size 15 to 20)
#    0.000    1.143    2.857    3.857    0.000    3.429 
#    0.000    7.143    0.000    0.000    0.000    0.000 
#    0.000    0.000    0.000    0.000    0.000    0.000 
#
# Total GULP energy -156644.780994 kJ/mol
# GULP energy per Si atom -5594.456464 kJ/mol
# Density = 2.247898 g / cm^3
# Si number density = 22.530255 Si / 1000 Ang^3
#
#
#
# Elastic Constant Matrix: (Units=GPa)
#
#
# Indices 1 2 3 4 5 6 
#
# 1 71.1508 -8.2430 -13.0966 0.0000 0.5385 0.0000
# 2 -8.2430 116.2192 8.5011 0.0000 -2.0049 0.0000
# 3 -13.0966 8.5011 41.1746 0.0000 -6.5864 0.0000
# 4 0.0000 0.0000 0.0000 5.6724 0.0000 6.7406
# 5 0.5385 -2.0049 -6.5864 0.0000 23.0247 0.0000
# 6 0.0000 0.0000 0.0000 6.7406 0.0000 30.7330
#
#
#
# Elastic Compliance Matrix: (Units=1/GPa)
#
#
# Indices 1 2 3 4 5 6 
#
# 1 0.015014 0.000733 0.004798 0.000000 0.001085 0.000000
# 2 0.000733 0.008774 -0.001529 0.000000 0.000309 0.000000
# 3 0.004798 -0.001529 0.027340 0.000000 0.007576 0.000000
# 4 0.000000 0.000000 0.000000 0.238435 0.000000 -0.052295
# 5 0.001085 0.000309 0.007576 0.000000 0.045600 0.000000
# 6 0.000000 0.000000 0.000000 -0.052295 0.000000 0.044008
#
#
# Mechanical properties :
#
#
# Convention : Reuss Voigt Hill
#
# Bulk Modulus (GPa) = 16.91127 22.54084 19.72606
# Shear Modulus (GPa) = 12.79170 27.97824 20.38497
#
# Velocity S-wave (km/s) = 2.38535 3.52775 3.01122
# Velocity P-wave (km/s) = 3.88701 5.15944 4.56775
#
# Compressibility (1/GPa) = 0.05913215
#
# Stress axis : x y z
#
# Youngs Moduli (GPa) = 66.60233 113.97868 36.57587
#
# Poissons Ratio (x) = -0.08351 -0.17549
# Poissons Ratio (y) = -0.04880 0.05592
# Poissons Ratio (z) = -0.31956 0.17426
#
# Static dielectric constant tensor:
#      x y z
#    x 1.803180 0.000000 0.017730 
#    y 0.000000 1.871780 0.000000 
#    z 0.017730 0.000000 1.832820 
# 
# From -- ./inp_files/94957.got.cif
#   From: 2010.05.17/outbox.cif.g08.bks.cpg/sg13_48_cif.got.tgz:94957.got - 2010.06.03 16:44:36.
