data_PCOD9227128
_publ_section_title
;
Structure prediction by ZEFSAII (Michael W. Deem and Ramdas Pophale) SiO2 
 PCOD9227128
Probable space group: P 2/C
;
_chemical_formula_sum "Si O2"
_cell_formula_units_Z 28
_cell_length_a 13.551351
_cell_length_b 9.322180
_cell_length_c 16.920790
_cell_angle_alpha 90.000000
_cell_angle_beta 41.072574
_cell_angle_gamma 90.000000
_cell_volume 1404.415590
_symmetry_space_group_name_H-M "P 2/C"
_symmetry_group_IT_number 13
_symmetry_cell_setting 'monoclinic'
loop_
_space_group_symop_operation_xyz
x,y,z
-x,y,1/2-z
-x,-y,-z
x,-y,1/2+z
loop_
_atom_site_type_symbol
_atom_site_label
_atom_site_fract_x
_atom_site_fract_y
_atom_site_fract_z
Si Si1 0.351913 0.144101 0.024091
Si Si2 0.862241 0.913588 0.984269
Si Si3 0.337281 0.879332 0.809222
Si Si4 0.905515 0.271906 0.232843
Si Si5 0.180619 0.596246 0.876988
Si Si6 0.687836 0.091750 0.826713
Si Si7 0.113277 0.705310 0.382508
O O1 0.272292 0.148094 0.987787
O O2 0.261193 0.249716 0.135226
O O3 0.318292 0.989396 0.085662
O O4 0.527271 0.169286 0.915455
O O5 0.011551 0.878860 0.842748
O O6 0.886568 0.823308 0.048520
O O7 0.798498 0.065399 0.051967
O O8 0.500000 0.907030 0.750000
O O9 0.311864 0.711571 0.808591
O O10 0.318692 0.971007 0.739465
O O11 0.896710 0.366006 0.160567
O O12 0.000000 0.328787 0.250000
O O13 0.215369 0.428569 0.850090
O O14 0.052323 0.635284 0.018915
O O15 0.818643 0.206704 0.731818
#
# Coordination Sequence:
#
# PCOD9227128 Si02
#       7
#     4   4   4   4   4   4   4
#     4  10  18  33  54  80 112 139 180 230 273 328
#     4   9  19  33  57  83 105 139 189 227 271 326
#     4  11  20  34  55  84 111 142 181 238 277 320
#     4   9  18  32  57  82 105 144 186 224 278 330
#     4  10  20  38  58  78 114 144 189 231 275 326
#     4  10  20  33  57  79 110 147 182 227 282 325
#     4   9  21  37  58  81 104 147 191 228 275 331
#
# _framework density 19.937117000000001
#
# number of rings (size 3 to 8) (size 9 to 14) (size 15 to 20)
#    0.000    2.286    2.857    0.000    2.000    1.714 
#    2.571    0.714   12.571    0.000    0.000    0.000 
#    0.000    0.000    0.000    0.000    0.000    0.000 
#
# Total GULP energy -155909.217308 kJ/mol
# GULP energy per Si atom -5568.186332 kJ/mol
# Density = 1.989174 g / cm^3
# Si number density = 19.937117 Si / 1000 Ang^3
#
#
#
# Elastic Constant Matrix: (Units=GPa)
#
#
# Indices 1 2 3 4 5 6 
#
# 1 41.9209 -13.5672 -0.1916 0.0000 -3.9881 0.0000
# 2 -13.5672 55.0008 -4.9350 0.0000 -7.2498 0.0000
# 3 -0.1916 -4.9350 56.5020 0.0000 -3.4024 0.0000
# 4 0.0000 0.0000 0.0000 18.0700 0.0000 -4.9375
# 5 -3.9881 -7.2498 -3.4024 0.0000 15.5268 0.0000
# 6 0.0000 0.0000 0.0000 -4.9375 0.0000 12.4100
#
#
#
# Elastic Compliance Matrix: (Units=1/GPa)
#
#
# Indices 1 2 3 4 5 6 
#
# 1 0.027686 0.008468 0.001520 0.000000 0.011399 0.000000
# 2 0.008468 0.022255 0.002766 0.000000 0.013172 0.000000
# 3 0.001520 0.002766 0.018288 0.000000 0.005689 0.000000
# 4 0.000000 0.000000 0.000000 0.062090 0.000000 0.024703
# 5 0.011399 0.013172 0.005689 0.000000 0.074730 0.000000
# 6 0.000000 0.000000 0.000000 0.024703 0.000000 0.090409
#
#
# Mechanical properties :
#
#
# Convention : Reuss Voigt Hill
#
# Bulk Modulus (GPa) = 10.66813 12.89289 11.78051
# Shear Modulus (GPa) = 16.60051 20.67586 18.63819
#
# Velocity S-wave (km/s) = 2.88869 3.22383 3.06085
# Velocity P-wave (km/s) = 4.06061 4.50979 4.29108
#
# Compressibility (1/GPa) = 0.09373711
#
# Stress axis : x y z
#
# Youngs Moduli (GPa) = 36.11875 44.93392 54.68131
#
# Poissons Ratio (x) = -0.38052 -0.08311
# Poissons Ratio (y) = -0.30587 -0.15123
# Poissons Ratio (z) = -0.05490 -0.12427
#
# Static dielectric constant tensor:
#      x y z
#    x 1.707010 0.000000 -0.003240 
#    y 0.000000 1.731940 0.000000 
#    z -0.003240 0.000000 1.759660 
# 
# From -- ./inp_files/68163.got.cif
#   From: 2010.05.17/outbox.cif.g08.bks.cpg/sg13_35_cif.got.tgz:68163.got - 2010.06.03 16:44:36.
