data_PCOD9227821
_publ_section_title
;
Structure prediction by ZEFSAII (Michael W. Deem and Ramdas Pophale) SiO2 
 PCOD9227821
Probable space group: P 2/C
;
_chemical_formula_sum "Si O2"
_cell_formula_units_Z 26
_cell_length_a 10.294595
_cell_length_b 4.845404
_cell_length_c 26.575353
_cell_angle_alpha 90.000000
_cell_angle_beta 134.394793
_cell_angle_gamma 90.000000
_cell_volume 947.201931
_symmetry_space_group_name_H-M "P 2/C"
_symmetry_group_IT_number 13
_symmetry_cell_setting 'monoclinic'
loop_
_space_group_symop_operation_xyz
x,y,z
-x,y,1/2-z
-x,-y,-z
x,-y,1/2+z
loop_
_atom_site_type_symbol
_atom_site_label
_atom_site_fract_x
_atom_site_fract_y
_atom_site_fract_z
Si Si1 0.609444 0.159517 0.953668
Si Si2 0.152256 0.313582 0.111232
Si Si3 0.682904 0.884168 0.203459
Si Si4 0.739376 0.444836 0.625561
Si Si5 0.856633 0.693741 0.006069
Si Si6 0.500000 0.062842 0.250000
Si Si7 0.963639 0.943841 0.656770
O O1 0.742169 0.407666 0.973397
O O2 0.737026 0.910408 0.004899
O O3 0.453939 0.314665 0.943378
O O4 0.487892 0.020582 0.876463
O O5 0.358237 0.260977 0.182955
O O6 0.041185 0.164851 0.125328
O O7 0.055648 0.612839 0.080560
O O8 0.131043 0.208324 0.048345
O O9 0.605165 0.871773 0.238457
O O10 0.863658 0.064531 0.258633
O O11 0.735654 0.616021 0.184745
O O12 0.896219 0.255948 0.644294
O O13 0.793916 0.248495 0.126177
#
# Coordination Sequence:
#
# PCOD9227821 Si02
#       7
#     4   4   4   4   4   2   4
#     4  10  23  43  72  93 135 184 232 270 343 414
#     4  10  24  42  75 101 144 176 233 288 344 413
#     4   9  22  39  71  92 141 175 228 280 343 403
#     4  10  23  41  66  98 138 183 223 281 341 412
#     4  11  23  46  71 103 137 185 227 283 356 402
#     4  10  18  48  68 110 130 180 230 296 344 404
#     4  11  23  42  66 102 139 178 233 280 340 407
#
# _framework density 27.449269999999999
#
# number of rings (size 3 to 8) (size 9 to 14) (size 15 to 20)
#    0.923    0.923    1.538    1.385    0.000    8.615 
#    0.000    4.615    0.000    0.000    0.000    0.000 
#    0.000    0.000    0.000    0.000    0.000    0.000 
#
# Total GULP energy -145443.651929 kJ/mol
# GULP energy per Si atom -5593.986613 kJ/mol
# Density = 2.738679 g / cm^3
# Si number density = 27.449270 Si / 1000 Ang^3
#
#
#
# Elastic Constant Matrix: (Units=GPa)
#
#
# Indices 1 2 3 4 5 6 
#
# 1 150.3401 41.1698 45.2180 0.0000 -13.7469 0.0000
# 2 41.1698 110.5796 42.3412 0.0000 4.7196 0.0000
# 3 45.2180 42.3412 138.3933 0.0000 3.5996 0.0000
# 4 0.0000 0.0000 0.0000 34.6250 0.0000 -1.7658
# 5 -13.7469 4.7196 3.5996 0.0000 35.1866 0.0000
# 6 0.0000 0.0000 0.0000 -1.7658 0.0000 26.9385
#
#
#
# Elastic Compliance Matrix: (Units=1/GPa)
#
#
# Indices 1 2 3 4 5 6 
#
# 1 0.008289 -0.002461 -0.002054 0.000000 0.003778 0.000000
# 2 -0.002461 0.011013 -0.002509 0.000000 -0.002182 0.000000
# 3 -0.002054 -0.002509 0.008700 0.000000 -0.001356 0.000000
# 4 0.000000 0.000000 0.000000 0.028978 0.000000 0.001899
# 5 0.003778 -0.002182 -0.001356 0.000000 0.030327 0.000000
# 6 0.000000 0.000000 0.000000 0.001899 0.000000 0.037246
#
#
# Mechanical properties :
#
#
# Convention : Reuss Voigt Hill
#
# Bulk Modulus (GPa) = 71.65817 72.97455 72.31636
# Shear Modulus (GPa) = 34.90389 37.38896 36.14643
#
# Velocity S-wave (km/s) = 3.56979 3.69468 3.63277
# Velocity P-wave (km/s) = 6.56913 6.69656 6.63315
#
# Compressibility (1/GPa) = 0.01395514
#
# Stress axis : x y z
#
# Youngs Moduli (GPa) = 120.64719 90.80042 114.94868
#
# Poissons Ratio (x) = 0.22345 0.23605
# Poissons Ratio (y) = 0.29690 0.28837
# Poissons Ratio (z) = 0.24776 0.22779
#
# Static dielectric constant tensor:
#      x y z
#    x 2.125650 0.000000 -0.031570 
#    y 0.000000 2.087600 0.000000 
#    z -0.031570 0.000000 2.181860 
# 
# From -- ./inp_files/86043.got.cif
#   From: 2010.05.17/outbox.cif.g08.bks.cpg/sg13_44_cif.got.tgz:86043.got - 2010.06.03 16:44:36.
