data_PCOD9227887
_publ_section_title
;
Structure prediction by ZEFSAII (Michael W. Deem and Ramdas Pophale) SiO2 
 PCOD9227887
Probable space group: P 2/C
;
_chemical_formula_sum "Si O2"
_cell_formula_units_Z 26
_cell_length_a 17.464023
_cell_length_b 5.289269
_cell_length_c 21.198754
_cell_angle_alpha 90.000000
_cell_angle_beta 52.632097
_cell_angle_gamma 90.000000
_cell_volume 1556.264515
_symmetry_space_group_name_H-M "P 2/C"
_symmetry_group_IT_number 13
_symmetry_cell_setting 'monoclinic'
loop_
_space_group_symop_operation_xyz
x,y,z
-x,y,1/2-z
-x,-y,-z
x,-y,1/2+z
loop_
_atom_site_type_symbol
_atom_site_label
_atom_site_fract_x
_atom_site_fract_y
_atom_site_fract_z
Si Si1 0.273943 0.271060 0.786779
Si Si2 0.388977 0.229429 0.228673
Si Si3 0.058647 0.758135 0.343339
Si Si4 0.726059 0.271060 0.560722
Si Si5 0.058645 0.241866 0.098014
Si Si6 0.611025 0.770571 0.617649
Si Si7 0.000000 1.000000 0.750000
O O1 0.330105 0.523061 0.738223
O O2 0.165353 0.262693 0.816423
O O3 0.270810 0.271920 0.864594
O O4 0.333463 0.023715 0.736942
O O5 0.390644 0.230341 0.304678
O O6 0.500001 0.233812 0.152263
O O7 0.000001 0.500000 0.382750
O O8 0.060344 0.826444 0.267809
O O9 0.000001 0.000000 0.400403
O O10 0.834649 0.262693 0.481777
O O11 0.669898 0.523061 0.568327
O O12 0.666540 0.023715 0.570405
O O13 0.060343 0.173557 0.171847
#
# Coordination Sequence:
#
# PCOD9227887 Si02
#       7
#     4   4   4   4   4   4   2
#     4  10  19  30  48  76 103 131 161 192 244 292
#     4   9  17  30  47  70 103 135 163 193 229 287
#     4  10  20  34  51  71  99 126 167 203 240 288
#     4  10  19  30  48  76 103 131 161 192 244 292
#     4  10  20  34  51  71  99 126 167 203 240 288
#     4   9  17  30  47  70 103 135 163 193 229 287
#     4   8  22  36  52  68  92 128 174 206 238 284
#
# _framework density 16.706669999999999
#
# number of rings (size 3 to 8) (size 9 to 14) (size 15 to 20)
#    0.923    1.538    0.000    3.231    0.000    4.923 
#    0.000    0.000    0.000    0.000    0.000    6.462 
#    0.000    0.000    0.000    0.000    0.000    0.000 
#
# Total GULP energy -144778.967893 kJ/mol
# GULP energy per Si atom -5568.421842 kJ/mol
# Density = 1.666864 g / cm^3
# Si number density = 16.706670 Si / 1000 Ang^3
#
#
#
# Elastic Constant Matrix: (Units=GPa)
#
#
# Indices 1 2 3 4 5 6 
#
# 1 57.1384 68.1451 72.3192 0.0000 -44.3044 0.0000
# 2 68.1451 193.3221 67.9925 0.0000 -46.5840 0.0000
# 3 72.3192 67.9925 56.8469 0.0000 -44.1529 0.0000
# 4 0.0000 0.0000 0.0000 18.9306 0.0000 -14.5425
# 5 -44.3044 -46.5840 -44.1529 0.0000 39.2239 0.0000
# 6 0.0000 0.0000 0.0000 -14.5425 0.0000 18.9782
#
#
#
# Elastic Compliance Matrix: (Units=1/GPa)
#
#
# Indices 1 2 3 4 5 6 
#
# 1 -0.013497 -0.004320 0.051803 0.000000 0.037937 0.000000
# 2 -0.004320 0.008220 -0.004320 0.000000 0.000019 0.000000
# 3 0.051803 -0.004320 -0.013386 0.000000 0.038314 0.000000
# 4 0.000000 0.000000 0.000000 0.128418 0.000000 0.098404
# 5 0.037937 0.000019 0.038314 0.000000 0.111497 0.000000
# 6 0.000000 0.000000 0.000000 0.098404 0.000000 0.128097
#
#
# Mechanical properties :
#
#
# Convention : Reuss Voigt Hill
#
# Bulk Modulus (GPa) = 14.77927 80.46898 47.62413
# Shear Modulus (GPa) = 17.50843 22.01659 19.76251
#
# Velocity S-wave (km/s) = 3.24078 3.63413 3.44308
# Velocity P-wave (km/s) = 4.78216 8.11662 6.66141
#
# Compressibility (1/GPa) = 0.06766232
#
# Stress axis : x y z
#
# Youngs Moduli (GPa) = -74.09126 121.66021 -74.70391
#
# Poissons Ratio (x) = 0.52563 3.86991
# Poissons Ratio (y) = -0.32011 -0.32272
# Poissons Ratio (z) = 3.83818 0.52557
#
# Static dielectric constant tensor:
#      x y z
#    x 1.537890 0.000000 0.011580 
#    y 0.000000 1.578660 0.000000 
#    z 0.011580 0.000000 1.537920 
# 
# From -- ./inp_files/86839.got.cif
#   From: 2010.05.17/outbox.cif.g08.bks.cpg/sg13_44_cif.got.tgz:86839.got - 2010.06.03 16:44:36.
