data_PCOD9227552
_publ_section_title
;
Structure prediction by ZEFSAII (Michael W. Deem and Ramdas Pophale) SiO2 
 PCOD9227552
Probable space group: P 2/C
;
_chemical_formula_sum "Si O2"
_cell_formula_units_Z 30
_cell_length_a 8.450206
_cell_length_b 16.746254
_cell_length_c 16.849960
_cell_angle_alpha 90.000000
_cell_angle_beta 145.746058
_cell_angle_gamma 90.000000
_cell_volume 1342.102289
_symmetry_space_group_name_H-M "P 2/C"
_symmetry_group_IT_number 13
_symmetry_cell_setting 'monoclinic'
loop_
_space_group_symop_operation_xyz
x,y,z
-x,y,1/2-z
-x,-y,-z
x,-y,1/2+z
loop_
_atom_site_type_symbol
_atom_site_label
_atom_site_fract_x
_atom_site_fract_y
_atom_site_fract_z
Si Si1 0.525340 0.488604 0.103082
Si Si2 0.000000 0.391317 0.250000
Si Si3 0.639548 0.832744 0.431311
Si Si4 0.194082 0.080048 0.165466
Si Si5 0.052079 0.917919 0.175488
Si Si6 0.542588 0.908793 0.555351
Si Si7 0.195983 0.422336 0.082505
Si Si8 0.727740 0.344262 0.980825
O O1 0.829835 0.449852 0.238865
O O2 0.302244 0.420944 0.036497
O O3 0.500000 0.500000 0.000000
O O4 0.460885 0.576212 0.111417
O O5 0.811010 0.343074 0.109247
O O6 0.353366 0.877309 0.286783
O O7 0.649194 0.855181 0.528345
O O8 0.597240 0.739117 0.402433
O O9 0.946132 0.863178 0.529379
O O10 0.500000 0.080724 0.250000
O O11 0.263191 0.093411 0.287556
O O12 0.055377 0.992756 0.117435
O O13 0.000000 0.933506 0.250000
O O14 0.757339 0.875327 0.038341
O O15 0.500000 0.000000 0.500000
O O16 0.500000 0.435467 0.250000
O O17 0.013119 0.355199 0.047828
O O18 0.000000 0.500000 0.000000
#
# Coordination Sequence:
#
# PCOD9227552 Si02
#       8
#     4   2   4   4   4   4   4   4
#     4   9  19  37  61  91 117 162 206 252 303 390
#     4  10  18  36  60  88 120 158 214 252 304 390
#     4  11  23  39  63  93 131 160 217 275 323 381
#     4  12  23  37  61  95 123 166 221 273 320 385
#     4  10  19  40  64  86 119 170 219 259 323 390
#     4  11  20  41  68  89 117 171 225 263 319 401
#     4  10  19  37  64  90 122 165 209 252 309 383
#     4  10  22  36  59  94 128 160 206 268 326 364
#
# _framework density 22.352990999999999
#
# number of rings (size 3 to 8) (size 9 to 14) (size 15 to 20)
#    0.000    1.600    5.333    0.400    1.867    2.667 
#    3.600    0.000    0.000   12.800    0.000    0.000 
#    0.000    0.000    0.000    0.000    0.000    0.000 
#
# Total GULP energy -167017.685317 kJ/mol
# GULP energy per Si atom -5567.256177 kJ/mol
# Density = 2.230211 g / cm^3
# Si number density = 22.352991 Si / 1000 Ang^3
#
#
#
# Elastic Constant Matrix: (Units=GPa)
#
#
# Indices 1 2 3 4 5 6 
#
# 1 91.8854 17.3905 9.7952 0.0000 28.8632 0.0000
# 2 17.3905 81.2572 6.8304 0.0000 15.6886 0.0000
# 3 9.7952 6.8304 76.4235 0.0000 25.1495 0.0000
# 4 0.0000 0.0000 0.0000 16.6651 0.0000 6.1309
# 5 28.8632 15.6886 25.1495 0.0000 46.9461 0.0000
# 6 0.0000 0.0000 0.0000 6.1309 0.0000 15.3911
#
#
#
# Elastic Compliance Matrix: (Units=1/GPa)
#
#
# Indices 1 2 3 4 5 6 
#
# 1 0.013723 -0.001373 0.001201 0.000000 -0.008622 0.000000
# 2 -0.001373 0.013300 0.000209 0.000000 -0.003712 0.000000
# 3 0.001201 0.000209 0.015999 0.000000 -0.009379 0.000000
# 4 0.000000 0.000000 0.000000 0.070309 0.000000 -0.028007
# 5 -0.008622 -0.003712 -0.009379 0.000000 0.032867 0.000000
# 6 0.000000 0.000000 0.000000 -0.028007 0.000000 0.076129
#
#
# Mechanical properties :
#
#
# Convention : Reuss Voigt Hill
#
# Bulk Modulus (GPa) = 23.20447 35.28871 29.24659
# Shear Modulus (GPa) = 21.13109 30.17045 25.65077
#
# Velocity S-wave (km/s) = 3.07797 3.67785 3.39120
# Velocity P-wave (km/s) = 4.79951 5.81865 5.33348
#
# Compressibility (1/GPa) = 0.04309515
#
# Stress axis : x y z
#
# Youngs Moduli (GPa) = 72.86868 75.18988 62.50459
#
# Poissons Ratio (x) = 0.10326 -0.07507
# Poissons Ratio (y) = 0.10007 -0.01306
# Poissons Ratio (z) = -0.08752 -0.01571
#
# Static dielectric constant tensor:
#      x y z
#    x 1.946080 0.000000 0.013510 
#    y 0.000000 1.869820 0.000000 
#    z 0.013510 0.000000 2.025400 
# 
# From -- ./inp_files/76818.got.cif
#   From: 2010.05.17/outbox.cif.g08.bks.cpg/sg13_39_cif.got.tgz:76818.got - 2010.06.03 16:44:36.
