data_PCOD9227255
_publ_section_title
;
Structure prediction by ZEFSAII (Michael W. Deem and Ramdas Pophale) SiO2 
 PCOD9227255
Probable space group: P 2/C
;
_chemical_formula_sum "Si O2"
_cell_formula_units_Z 24
_cell_length_a 14.608066
_cell_length_b 9.258154
_cell_length_c 7.485310
_cell_angle_alpha 90.000000
_cell_angle_beta 79.525693
_cell_angle_gamma 90.000000
_cell_volume 995.472086
_symmetry_space_group_name_H-M "P 2/C"
_symmetry_group_IT_number 13
_symmetry_cell_setting 'monoclinic'
loop_
_space_group_symop_operation_xyz
x,y,z
-x,y,1/2-z
-x,-y,-z
x,-y,1/2+z
loop_
_atom_site_type_symbol
_atom_site_label
_atom_site_fract_x
_atom_site_fract_y
_atom_site_fract_z
Si Si1 0.000000 0.991640 0.250000
Si Si2 0.886423 0.239358 0.435100
Si Si3 0.000000 0.512156 0.750000
Si Si4 0.323869 0.678458 0.060081
Si Si5 0.126523 0.238842 0.656116
Si Si6 0.508239 0.831103 0.033392
Si Si7 0.686305 0.657717 0.008830
O O1 0.949863 0.870557 0.398036
O O2 0.917619 0.109652 0.298227
O O3 0.866570 0.180861 0.641841
O O4 0.789452 0.306564 0.404356
O O5 0.964456 0.367793 0.407500
O O6 0.914152 0.399518 0.796430
O O7 0.226488 0.747982 0.029986
O O8 0.418792 0.757089 0.975843
O O9 0.314647 0.685311 0.278420
O O10 0.331322 0.511348 0.008648
O O11 0.500000 0.809486 0.250000
O O12 0.605674 0.755076 0.950456
O O13 0.500000 0.000000 0.000000
#
# Coordination Sequence:
#
# PCOD9227255 Si02
#       7
#     2   4   2   4   4   4   4
#     4  10  22  34  52  78 112 150 194 218 288 322
#     4  10  20  35  54  79 112 145 186 231 276 330
#     4  10  18  34  56  78 108 142 190 218 286 320
#     4  10  21  39  60  86 113 147 188 235 282 333
#     4  10  20  35  54  79 112 145 186 231 276 330
#     4  10  23  40  62  86 118 148 183 230 282 340
#     4  10  21  39  60  86 113 147 188 235 282 333
#
# _framework density 24.109161
#
# number of rings (size 3 to 8) (size 9 to 14) (size 15 to 20)
#    0.000    2.000    1.667    1.500    2.333    1.333 
#    0.000    1.667    0.000    0.000    0.000    0.000 
#    0.000    0.000    0.000    0.000    0.000    0.000 
#
# Total GULP energy -133734.501227 kJ/mol
# GULP energy per Si atom -5572.270884 kJ/mol
# Density = 2.405429 g / cm^3
# Si number density = 24.109161 Si / 1000 Ang^3
#
#
#
# Elastic Constant Matrix: (Units=GPa)
#
#
# Indices 1 2 3 4 5 6 
#
# 1 152.8176 72.1098 -4.6590 0.0000 -19.8698 0.0000
# 2 72.1098 176.8706 -7.3801 0.0000 -14.5378 0.0000
# 3 -4.6590 -7.3801 56.3558 0.0000 9.1673 0.0000
# 4 0.0000 0.0000 0.0000 20.8897 0.0000 -14.5120
# 5 -19.8698 -14.5378 9.1673 0.0000 13.5738 0.0000
# 6 0.0000 0.0000 0.0000 -14.5120 0.0000 43.7766
#
#
#
# Elastic Compliance Matrix: (Units=1/GPa)
#
#
# Indices 1 2 3 4 5 6 
#
# 1 0.009395 -0.002938 -0.001498 0.000000 0.011618 0.000000
# 2 -0.002938 0.007123 0.000167 0.000000 0.003215 0.000000
# 3 -0.001498 0.000167 0.020188 0.000000 -0.015648 0.000000
# 4 0.000000 0.000000 0.000000 0.062193 0.000000 0.020617
# 5 0.011618 0.003215 -0.015648 0.000000 0.104689 0.000000
# 6 0.000000 0.000000 0.000000 0.020617 0.000000 0.029678
#
#
# Mechanical properties :
#
#
# Convention : Reuss Voigt Hill
#
# Bulk Modulus (GPa) = 35.50142 56.24282 45.87212
# Shear Modulus (GPa) = 19.90500 37.37958 28.64229
#
# Velocity S-wave (km/s) = 2.87648 3.94182 3.45051
# Velocity P-wave (km/s) = 5.07833 6.64051 5.91125
#
# Compressibility (1/GPa) = 0.02816788
#
# Stress axis : x y z
#
# Youngs Moduli (GPa) = 106.44029 140.39263 49.53472
#
# Poissons Ratio (x) = 0.41246 0.07420
# Poissons Ratio (y) = 0.31271 -0.00826
# Poissons Ratio (z) = 0.15943 -0.02342
#
# Static dielectric constant tensor:
#      x y z
#    x 2.366780 0.000000 0.328970 
#    y 0.000000 1.864500 0.000000 
#    z 0.328970 0.000000 2.188650 
# 
# From -- ./inp_files/18078.got.cif
#   From: 2010.05.17/outbox.cif.g08.bks.cpg/sg13_10_cif.got.tgz:18078.got - 2010.06.03 16:44:36.
