data_PCOD9227860
_publ_section_title
;
Structure prediction by ZEFSAII (Michael W. Deem and Ramdas Pophale) SiO2 
 PCOD9227860
Probable space group: P 2/C
;
_chemical_formula_sum "Si O2"
_cell_formula_units_Z 24
_cell_length_a 11.696006
_cell_length_b 9.016258
_cell_length_c 25.198595
_cell_angle_alpha 90.000000
_cell_angle_beta 28.746312
_cell_angle_gamma 90.000000
_cell_volume 1277.980469
_symmetry_space_group_name_H-M "P 2/C"
_symmetry_group_IT_number 13
_symmetry_cell_setting 'monoclinic'
loop_
_space_group_symop_operation_xyz
x,y,z
-x,y,1/2-z
-x,-y,-z
x,-y,1/2+z
loop_
_atom_site_type_symbol
_atom_site_label
_atom_site_fract_x
_atom_site_fract_y
_atom_site_fract_z
Si Si1 0.465234 0.501335 0.406537
Si Si2 0.406354 0.250000 0.560887
Si Si3 0.545538 0.250000 0.793620
Si Si4 0.534766 0.001335 0.593463
Si Si5 0.241997 0.750000 0.682630
Si Si6 0.894109 0.250000 0.910546
O O1 0.529552 0.608688 0.429584
O O2 0.438675 0.605899 0.366665
O O3 0.693425 0.393124 0.309175
O O4 0.240394 0.395245 0.510551
O O5 0.470448 0.108688 0.570416
O O6 0.572719 0.250000 0.441549
O O7 0.152813 0.250000 0.634158
O O8 0.500000 0.250000 0.750000
O O9 0.438675 0.105899 0.866665
O O10 0.828186 0.250000 0.690497
O O11 0.306575 0.893124 0.690824
O O12 0.759606 0.895245 0.489449
O O13 0.000000 0.750000 0.750000
#
# Coordination Sequence:
#
# PCOD9227860 Si02
#       6
#     4   4   4   4   4   4
#     4   9  21  37  55  88 113 146 191 226 290 347
#     4   9  18  34  55  86 119 143 176 226 298 354
#     4  11  25  40  59  80 109 161 207 229 273 324
#     4   9  21  37  55  88 113 146 191 226 290 347
#     4  10  19  29  56  88 118 138 175 226 291 355
#     4  10  20  38  59  80 124 142 180 249 282 329
#
# _framework density 18.779630000000001
#
# number of rings (size 3 to 8) (size 9 to 14) (size 15 to 20)
#    0.000    2.667    0.000    4.000    9.333    2.667 
#    0.000    3.333    0.000    0.000    0.000    0.000 
#    0.000    0.000    0.000    0.000    0.000    0.000 
#
# Total GULP energy -133782.527010 kJ/mol
# GULP energy per Si atom -5574.271959 kJ/mol
# Density = 1.873689 g / cm^3
# Si number density = 18.779630 Si / 1000 Ang^3
#
#
#
# Elastic Constant Matrix: (Units=GPa)
#
#
# Indices 1 2 3 4 5 6 
#
# 1 96.8607 32.7905 23.7870 0.0000 28.5741 0.0000
# 2 32.7905 137.0044 22.7670 0.0000 17.7074 0.0000
# 3 23.7870 22.7670 47.2296 0.0000 -1.7661 0.0000
# 4 0.0000 0.0000 0.0000 12.1990 0.0000 0.3894
# 5 28.5741 17.7074 -1.7661 0.0000 31.8598 0.0000
# 6 0.0000 0.0000 0.0000 0.3894 0.0000 7.3512
#
#
#
# Elastic Compliance Matrix: (Units=1/GPa)
#
#
# Indices 1 2 3 4 5 6 
#
# 1 0.017413 -0.000624 -0.009059 0.000000 -0.015773 0.000000
# 2 -0.000624 0.008703 -0.004050 0.000000 -0.004502 0.000000
# 3 -0.009059 -0.004050 0.028134 0.000000 0.011935 0.000000
# 4 0.000000 0.000000 0.000000 0.082113 0.000000 -0.004349
# 5 -0.015773 -0.004502 0.011935 0.000000 0.048697 0.000000
# 6 0.000000 0.000000 0.000000 -0.004349 0.000000 0.136263
#
#
# Mechanical properties :
#
#
# Convention : Reuss Voigt Hill
#
# Bulk Modulus (GPa) = 37.33362 48.86485 43.09924
# Shear Modulus (GPa) = 13.97752 23.73202 18.85477
#
# Velocity S-wave (km/s) = 2.73113 3.55873 3.17204
# Velocity P-wave (km/s) = 5.46520 6.55459 6.03453
#
# Compressibility (1/GPa) = 0.02678551
#
# Stress axis : x y z
#
# Youngs Moduli (GPa) = 57.42864 114.90088 35.54397
#
# Poissons Ratio (x) = 0.07165 0.32200
# Poissons Ratio (y) = 0.03581 0.14394
# Poissons Ratio (z) = 0.52025 0.46531
#
# Static dielectric constant tensor:
#      x y z
#    x 1.657550 0.000000 -0.043800 
#    y 0.000000 1.728200 0.000000 
#    z -0.043800 0.000000 1.714090 
# 
# From -- ./inp_files/92069.got.cif
#   From: 2010.05.17/outbox.cif.g08.bks.cpg/sg13_47_cif.got.tgz:92069.got - 2010.06.03 16:44:36.
