data_PCOD9227126
_publ_section_title
;
Structure prediction by ZEFSAII (Michael W. Deem and Ramdas Pophale) SiO2 
 PCOD9227126
Probable space group: P 2/C
;
_chemical_formula_sum "Si O2"
_cell_formula_units_Z 32
_cell_length_a 8.629752
_cell_length_b 11.657613
_cell_length_c 20.706878
_cell_angle_alpha 90.000000
_cell_angle_beta 59.511636
_cell_angle_gamma 90.000000
_cell_volume 1795.125862
_symmetry_space_group_name_H-M "P 2/C"
_symmetry_group_IT_number 13
_symmetry_cell_setting 'monoclinic'
loop_
_space_group_symop_operation_xyz
x,y,z
-x,y,1/2-z
-x,-y,-z
x,-y,1/2+z
loop_
_atom_site_type_symbol
_atom_site_label
_atom_site_fract_x
_atom_site_fract_y
_atom_site_fract_z
Si Si1 0.115266 0.936332 0.420101
Si Si2 0.525373 0.088104 0.821681
Si Si3 0.295995 0.695963 0.769435
Si Si4 0.887967 0.332611 0.557263
Si Si5 0.522979 0.651940 0.323045
Si Si6 0.204192 0.537185 0.682051
Si Si7 0.143173 0.941881 0.776961
Si Si8 0.012193 0.557535 0.596396
O O1 0.330208 0.947864 0.389362
O O2 0.080901 0.799121 0.429714
O O3 0.086587 0.984672 0.352934
O O4 0.000000 0.000000 0.500000
O O5 0.500000 0.093725 0.750000
O O6 0.577549 0.217600 0.828769
O O7 0.687096 0.000709 0.794633
O O8 0.500000 0.696336 0.750000
O O9 0.279023 0.651327 0.699982
O O10 0.207855 0.820475 0.791570
O O11 0.172456 0.605632 0.834085
O O12 0.676928 0.360842 0.607234
O O13 0.986097 0.426165 0.580879
O O14 0.948794 0.361591 0.472358
O O15 0.500000 0.639017 0.250000
O O16 0.663736 0.563272 0.323015
O O17 0.000000 0.513563 0.750000
O O18 0.173422 0.559017 0.613428
O O19 0.000000 0.927353 0.750000
#
# Coordination Sequence:
#
# PCOD9227126 Si02
#       8
#     4   4   4   4   4   4   4   4
#     4  10  20  37  60  80 106 149 190 222 267 329
#     4   8  18  34  53  78 107 142 184 225 268 325
#     4  11  21  36  58  81 108 145 182 218 270 330
#     4  10  21  36  55  78 109 148 181 220 273 324
#     4  10  18  33  54  77 106 142 182 221 268 324
#     4  10  20  32  53  81 108 139 179 227 272 316
#     4  11  22  36  56  83 112 140 180 232 278 320
#     4  10  21  36  53  81 113 139 180 226 269 323
#
# _framework density 17.826046999999999
#
# number of rings (size 3 to 8) (size 9 to 14) (size 15 to 20)
#    0.000    2.000    0.000    6.375    0.000    2.000 
#    0.000    0.625    0.000    4.500    0.000    0.000 
#    0.000    0.000    0.000    0.000    0.000    0.000 
#
# Total GULP energy -178382.591045 kJ/mol
# GULP energy per Si atom -5574.455970 kJ/mol
# Density = 1.778547 g / cm^3
# Si number density = 17.826047 Si / 1000 Ang^3
#
#
#
# Elastic Constant Matrix: (Units=GPa)
#
#
# Indices 1 2 3 4 5 6 
#
# 1 105.2677 60.5245 48.7882 0.0000 14.3015 0.0000
# 2 60.5245 96.0865 53.8762 0.0000 8.1846 0.0000
# 3 48.7882 53.8762 82.2746 0.0000 1.9241 0.0000
# 4 0.0000 0.0000 0.0000 15.8270 0.0000 -14.4383
# 5 14.3015 8.1846 1.9241 0.0000 22.4599 0.0000
# 6 0.0000 0.0000 0.0000 -14.4383 0.0000 26.6696
#
#
#
# Elastic Compliance Matrix: (Units=1/GPa)
#
#
# Indices 1 2 3 4 5 6 
#
# 1 0.017132 -0.007158 -0.005289 0.000000 -0.007848 0.000000
# 2 -0.007158 0.020036 -0.008829 0.000000 -0.001987 0.000000
# 3 -0.005289 -0.008829 0.020960 0.000000 0.004789 0.000000
# 4 0.000000 0.000000 0.000000 0.124838 0.000000 0.067585
# 5 -0.007848 -0.001987 0.004789 0.000000 0.049835 0.000000
# 6 0.000000 0.000000 0.000000 0.067585 0.000000 0.074085
#
#
# Mechanical properties :
#
#
# Convention : Reuss Voigt Hill
#
# Bulk Modulus (GPa) = 64.19662 67.77851 65.98757
# Shear Modulus (GPa) = 14.09924 21.02061 17.55993
#
# Velocity S-wave (km/s) = 2.81541 3.43768 3.14199
# Velocity P-wave (km/s) = 6.83079 7.33905 7.08948
#
# Compressibility (1/GPa) = 0.01557714
#
# Stress axis : x y z
#
# Youngs Moduli (GPa) = 58.36939 49.91095 47.70956
#
# Poissons Ratio (x) = 0.35725 0.25232
# Poissons Ratio (y) = 0.41779 0.42123
# Poissons Ratio (z) = 0.30870 0.44067
#
# Static dielectric constant tensor:
#      x y z
#    x 1.536010 0.000000 -0.021730 
#    y 0.000000 1.632890 0.000000 
#    z -0.021730 0.000000 1.637360 
# 
# From -- ./inp_files/76257.got.cif
#   From: 2010.05.17/outbox.cif.g08.bks.cpg/sg13_39_cif.got.tgz:76257.got - 2010.06.03 16:44:36.
