data_PCOD9227096
_publ_section_title
;
Structure prediction by ZEFSAII (Michael W. Deem and Ramdas Pophale) SiO2 
 PCOD9227096
Probable space group: P 2/C
;
_chemical_formula_sum "Si O2"
_cell_formula_units_Z 28
_cell_length_a 36.219773
_cell_length_b 6.568748
_cell_length_c 5.176778
_cell_angle_alpha 90.000000
_cell_angle_beta 82.283805
_cell_angle_gamma 90.000000
_cell_volume 1220.499325
_symmetry_space_group_name_H-M "P 2/C"
_symmetry_group_IT_number 13
_symmetry_cell_setting 'monoclinic'
loop_
_space_group_symop_operation_xyz
x,y,z
-x,y,1/2-z
-x,-y,-z
x,-y,1/2+z
loop_
_atom_site_type_symbol
_atom_site_label
_atom_site_fract_x
_atom_site_fract_y
_atom_site_fract_z
Si Si1 0.079255 0.135151 0.601853
Si Si2 0.500000 0.146555 0.750000
Si Si3 0.000000 0.854382 0.250000
Si Si4 0.735666 0.702317 0.903763
Si Si5 0.155415 0.367195 0.634317
Si Si6 0.765863 0.753454 0.372603
Si Si7 0.339995 0.855319 0.371809
Si Si8 0.421103 0.140869 0.751236
O O1 0.040206 0.252950 0.694415
O O2 0.116462 0.258293 0.621489
O O3 0.079386 0.049745 0.310031
O O4 0.459989 0.257267 0.768197
O O5 0.500000 0.000000 0.500000
O O6 0.000000 0.000000 0.500000
O O7 0.736051 0.802353 0.621681
O O8 0.755312 0.486637 0.838301
O O9 0.761014 0.823998 0.083944
O O10 0.694366 0.701915 0.059013
O O11 0.157608 0.545729 0.421101
O O12 0.192196 0.230069 0.567316
O O13 0.337544 0.014336 0.611798
O O14 0.381143 0.754997 0.332419
O O15 0.421385 0.042687 0.464235
#
# Coordination Sequence:
#
# PCOD9227096 Si02
#       8
#     4   2   2   4   4   4   4   4
#     4  10  21  38  59  87 113 145 183 221 262 319
#     4   8  12  20  34  52  74 112 152 174 206 280
#     4   8  16  34  58  78 112 150 176 206 262 324
#     4  10  18  33  51  67  85 124 167 192 238 293
#     4  12  21  38  60  81 110 147 178 224 276 311
#     4  10  19  35  54  64  87 124 170 202 236 289
#     4  10  19  30  43  67  98 122 146 195 250 290
#     4   8  14  23  36  54  83 116 145 178 226 280
#
# _framework density 22.94143
#
# number of rings (size 3 to 8) (size 9 to 14) (size 15 to 20)
#    0.000    2.286    2.857    1.714    0.000    0.000 
#    0.000    5.000    0.000    0.000    0.000    0.000 
#    0.000    4.571    0.000    0.000    0.000   17.714 
#
# Total GULP energy -156028.740732 kJ/mol
# GULP energy per Si atom -5572.455026 kJ/mol
# Density = 2.288921 g / cm^3
# Si number density = 22.941430 Si / 1000 Ang^3
#
#
#
# Elastic Constant Matrix: (Units=GPa)
#
#
# Indices 1 2 3 4 5 6 
#
# 1 183.3899 -4.4141 -0.5374 0.0000 -40.4855 0.0000
# 2 -4.4141 24.4030 -15.8301 0.0000 -8.4409 0.0000
# 3 -0.5374 -15.8301 117.4289 0.0000 16.7754 0.0000
# 4 0.0000 0.0000 0.0000 134.5289 0.0000 -18.6244
# 5 -40.4855 -8.4409 16.7754 0.0000 50.5520 0.0000
# 6 0.0000 0.0000 0.0000 -18.6244 0.0000 12.8277
#
#
#
# Elastic Compliance Matrix: (Units=1/GPa)
#
#
# Indices 1 2 3 4 5 6 
#
# 1 0.006891 0.003103 -0.000433 0.000000 0.006180 0.000000
# 2 0.003103 0.047961 0.005228 0.000000 0.008759 0.000000
# 3 -0.000433 0.005228 0.009598 0.000000 -0.002659 0.000000
# 4 0.000000 0.000000 0.000000 0.009303 0.000000 0.013507
# 5 0.006180 0.008759 -0.002659 0.000000 0.027076 0.000000
# 6 0.000000 0.000000 0.000000 0.013507 0.000000 0.097568
#
#
# Mechanical properties :
#
#
# Convention : Reuss Voigt Hill
#
# Bulk Modulus (GPa) = 12.46141 31.51762 21.98952
# Shear Modulus (GPa) = 23.88352 62.64860 43.26606
#
# Velocity S-wave (km/s) = 3.23005 5.23138 4.34745
# Velocity P-wave (km/s) = 4.39939 7.08928 5.89968
#
# Compressibility (1/GPa) = 0.08024771
#
# Stress axis : x y z
#
# Youngs Moduli (GPa) = 145.12339 20.85020 104.18320
#
# Poissons Ratio (x) = -0.06470 0.04511
# Poissons Ratio (y) = -0.45036 -0.54471
# Poissons Ratio (z) = 0.06284 -0.10901
#
# Static dielectric constant tensor:
#      x y z
#    x 1.940140 0.000000 -0.001470 
#    y 0.000000 0.329080 0.000000 
#    z -0.001470 0.000000 1.898560 
# 
# From -- ./inp_files/8047.got.cif
#   From: 2010.05.17/outbox.cif.g08.bks.cpg/sg13_5_cif.got.tgz:8047.got - 2010.06.03 16:44:36.
