data_PCOD9227551
_publ_section_title
;
Structure prediction by ZEFSAII (Michael W. Deem and Ramdas Pophale) SiO2 
 PCOD9227551
Probable space group: P 2/C
;
_chemical_formula_sum "Si O2"
_cell_formula_units_Z 28
_cell_length_a 8.306447
_cell_length_b 9.856726
_cell_length_c 23.892083
_cell_angle_alpha 90.000000
_cell_angle_beta 45.913201
_cell_angle_gamma 90.000000
_cell_volume 1405.075860
_symmetry_space_group_name_H-M "P 2/C"
_symmetry_group_IT_number 13
_symmetry_cell_setting 'monoclinic'
loop_
_space_group_symop_operation_xyz
x,y,z
-x,y,1/2-z
-x,-y,-z
x,-y,1/2+z
loop_
_atom_site_type_symbol
_atom_site_label
_atom_site_fract_x
_atom_site_fract_y
_atom_site_fract_z
Si Si1 0.825210 0.124269 0.549608
Si Si2 0.916982 0.034472 0.197058
Si Si3 0.435795 0.029713 0.079814
Si Si4 0.743820 0.530385 0.722140
Si Si5 0.588834 0.251040 0.335493
Si Si6 0.236717 0.235178 0.810854
Si Si7 0.104556 0.757254 0.893551
O O1 0.832804 0.186638 0.609973
O O2 0.914769 0.240949 0.486279
O O3 0.592235 0.060362 0.583087
O O4 0.000000 0.000000 0.500000
O O5 0.765435 0.143428 0.266537
O O6 0.926707 0.105711 0.134060
O O7 0.172107 0.004993 0.151466
O O8 0.806586 0.889218 0.219499
O O9 0.458694 0.189295 0.091785
O O10 0.500000 0.000000 0.000000
O O11 0.500000 0.530884 0.750000
O O12 0.693203 0.602397 0.794382
O O13 0.844337 0.380222 0.692802
O O14 0.896414 0.633105 0.649328
O O15 0.351663 0.240436 0.361023
O O16 0.500000 0.250968 0.750000
#
# Coordination Sequence:
#
# PCOD9227551 Si02
#       7
#     4   4   4   4   4   4   4
#     4  12  21  36  59  92 120 154 193 256 308 352
#     4  11  20  34  58  90 120 155 199 251 297 354
#     4  12  22  34  55  93 126 155 196 247 302 361
#     4   8  19  36  59  88 113 151 204 251 296 353
#     4  10  20  36  61  85 117 157 202 255 294 354
#     4  11  21  37  61  88 118 155 202 254 298 355
#     4  10  18  36  60  88 119 152 201 250 307 357
#
# _framework density 19.927751000000001
#
# number of rings (size 3 to 8) (size 9 to 14) (size 15 to 20)
#    0.000    1.429    4.286    3.429    0.000    0.571 
#    0.000    0.000    0.000   28.286    0.000    0.000 
#    0.000    0.000    0.000    0.000    0.000    0.000 
#
# Total GULP energy -155983.890347 kJ/mol
# GULP energy per Si atom -5570.853227 kJ/mol
# Density = 1.988239 g / cm^3
# Si number density = 19.927751 Si / 1000 Ang^3
#
#
#
# Elastic Constant Matrix: (Units=GPa)
#
#
# Indices 1 2 3 4 5 6 
#
# 1 33.6322 23.2706 0.6532 0.0000 0.1451 0.0000
# 2 23.2706 140.7661 26.3420 0.0000 8.6712 0.0000
# 3 0.6532 26.3420 56.9707 0.0000 13.3859 0.0000
# 4 0.0000 0.0000 0.0000 15.6974 0.0000 -1.7299
# 5 0.1451 8.6712 13.3859 0.0000 41.0695 0.0000
# 6 0.0000 0.0000 0.0000 -1.7299 0.0000 1.2311
#
#
#
# Elastic Compliance Matrix: (Units=1/GPa)
#
#
# Indices 1 2 3 4 5 6 
#
# 1 0.033879 -0.006059 0.002318 0.000000 0.000404 0.000000
# 2 -0.006059 0.008870 -0.003895 0.000000 -0.000582 0.000000
# 3 0.002318 -0.003895 0.020723 0.000000 -0.005940 0.000000
# 4 0.000000 0.000000 0.000000 0.075377 0.000000 0.105920
# 5 0.000404 -0.000582 -0.005940 0.000000 0.026406 0.000000
# 6 0.000000 0.000000 0.000000 0.105920 0.000000 0.961129
#
#
# Mechanical properties :
#
#
# Convention : Reuss Voigt Hill
#
# Bulk Modulus (GPa) = 20.74686 36.87786 28.81236
# Shear Modulus (GPa) = 4.31881 23.67314 13.99598
#
# Velocity S-wave (km/s) = 1.47375 3.45040 2.65304
# Velocity P-wave (km/s) = 3.65097 5.86683 4.88616
#
# Compressibility (1/GPa) = 0.04820007
#
# Stress axis : x y z
#
# Youngs Moduli (GPa) = 29.51655 112.73340 48.25531
#
# Poissons Ratio (x) = 0.68310 -0.11187
# Poissons Ratio (y) = 0.17885 0.18797
# Poissons Ratio (z) = -0.06843 0.43913
#
# Static dielectric constant tensor:
#      x y z
#    x 1.654130 0.000000 0.059730 
#    y 0.000000 1.757120 0.000000 
#    z 0.059730 0.000000 1.761260 
# 
# From -- ./inp_files/91421.got.cif
#   From: 2010.05.17/outbox.cif.g08.bks.cpg/sg13_46_cif.got.tgz:91421.got - 2010.06.03 16:44:36.
