data_PCOD9227215
_publ_section_title
;
Structure prediction by ZEFSAII (Michael W. Deem and Ramdas Pophale) SiO2 
 PCOD9227215
Probable space group: P 2/C
;
_chemical_formula_sum "Si O2"
_cell_formula_units_Z 24
_cell_length_a 27.127450
_cell_length_b 11.453037
_cell_length_c 9.472099
_cell_angle_alpha 90.000000
_cell_angle_beta 27.166057
_cell_angle_gamma 90.000000
_cell_volume 1343.643734
_symmetry_space_group_name_H-M "P 2/C"
_symmetry_group_IT_number 13
_symmetry_cell_setting 'monoclinic'
loop_
_space_group_symop_operation_xyz
x,y,z
-x,y,1/2-z
-x,-y,-z
x,-y,1/2+z
loop_
_atom_site_type_symbol
_atom_site_label
_atom_site_fract_x
_atom_site_fract_y
_atom_site_fract_z
Si Si1 0.140411 0.409557 0.643427
Si Si2 0.374193 0.965850 0.805967
Si Si3 0.318632 0.280289 0.330090
Si Si4 0.000000 0.486416 0.750000
Si Si5 0.688797 0.608631 0.351664
Si Si6 0.368981 0.849529 0.106754
Si Si7 0.500000 0.449096 0.750000
O O1 0.221146 0.302800 0.470144
O O2 0.218531 0.522363 0.434419
O O3 0.076043 0.409525 0.659741
O O4 0.063842 0.434032 0.973258
O O5 0.357034 0.852393 0.750955
O O6 0.500000 0.000000 0.500000
O O7 0.330518 0.080691 0.841383
O O8 0.331712 0.924102 0.065373
O O9 0.282619 0.332029 0.572945
O O10 0.419221 0.362624 0.035410
O O11 0.669746 0.717042 0.296452
O O12 0.578331 0.533413 0.640623
O O13 0.500000 0.844590 0.750000
#
# Coordination Sequence:
#
# PCOD9227215 Si02
#       7
#     4   4   4   2   4   4   2
#     4  10  20  36  58  82 109 135 186 222 293 332
#     4   9  19  32  49  69 106 147 189 212 249 301
#     4  10  20  33  50  80 112 147 184 220 264 328
#     4  10  20  38  58  80 108 138 174 246 286 342
#     4  10  18  34  49  78 109 148 176 217 271 334
#     4   9  17  32  48  70 103 148 184 213 249 304
#     4  10  20  28  48  74 118 146 176 214 266 322
#
# _framework density 17.861878000000001
#
# number of rings (size 3 to 8) (size 9 to 14) (size 15 to 20)
#    0.000    2.333    2.500    0.500    3.500    0.000 
#    3.000    0.000    0.000    0.000    0.000    7.000 
#    0.000    0.000    0.000    0.000    0.000    0.000 
#
# Total GULP energy -133641.093618 kJ/mol
# GULP energy per Si atom -5568.378901 kJ/mol
# Density = 1.782122 g / cm^3
# Si number density = 17.861878 Si / 1000 Ang^3
#
#
#
# Elastic Constant Matrix: (Units=GPa)
#
#
# Indices 1 2 3 4 5 6 
#
# 1 91.3844 30.1408 23.4952 0.0000 -18.7069 0.0000
# 2 30.1408 68.4474 14.2745 0.0000 -17.2552 0.0000
# 3 23.4952 14.2745 47.0938 0.0000 -6.1301 0.0000
# 4 0.0000 0.0000 0.0000 12.0451 0.0000 -1.6514
# 5 -18.7069 -17.2552 -6.1301 0.0000 19.1984 0.0000
# 6 0.0000 0.0000 0.0000 -1.6514 0.0000 30.7552
#
#
#
# Elastic Compliance Matrix: (Units=1/GPa)
#
#
# Indices 1 2 3 4 5 6 
#
# 1 0.015520 -0.003006 -0.005441 0.000000 0.010683 0.000000
# 2 -0.003006 0.020100 -0.002736 0.000000 0.014262 0.000000
# 3 -0.005441 -0.002736 0.024799 0.000000 0.000157 0.000000
# 4 0.000000 0.000000 0.000000 0.083637 0.000000 0.004491
# 5 0.010683 0.014262 0.000157 0.000000 0.075366 0.000000
# 6 0.000000 0.000000 0.000000 0.004491 0.000000 0.032756
#
#
# Mechanical properties :
#
#
# Convention : Reuss Voigt Hill
#
# Bulk Modulus (GPa) = 26.28024 38.08295 32.18160
# Shear Modulus (GPa) = 17.40771 21.66740 19.53755
#
# Velocity S-wave (km/s) = 3.12520 3.48667 3.31087
# Velocity P-wave (km/s) = 5.26949 6.12995 5.71593
#
# Compressibility (1/GPa) = 0.03805140
#
# Stress axis : x y z
#
# Youngs Moduli (GPa) = 64.43184 49.75220 40.32482
#
# Poissons Ratio (x) = 0.14957 0.21942
# Poissons Ratio (y) = 0.19371 0.11033
# Poissons Ratio (z) = 0.35059 0.13612
#
# Static dielectric constant tensor:
#      x y z
#    x 1.659080 0.000000 0.018130 
#    y 0.000000 1.598890 0.000000 
#    z 0.018130 0.000000 1.598410 
# 
# From -- ./inp_files/24113.got.cif
#   From: 2010.05.17/outbox.cif.g08.bks.cpg/sg13_13_cif.got.tgz:24113.got - 2010.06.03 16:44:36.
