data_PCOD9227805
_publ_section_title
;
Structure prediction by ZEFSAII (Michael W. Deem and Ramdas Pophale) SiO2 
 PCOD9227805
Probable space group: P 2/C
;
_chemical_formula_sum "Si O2"
_cell_formula_units_Z 28
_cell_length_a 8.412828
_cell_length_b 15.761783
_cell_length_c 11.366217
_cell_angle_alpha 90.000000
_cell_angle_beta 76.200097
_cell_angle_gamma 90.000000
_cell_volume 1463.668621
_symmetry_space_group_name_H-M "P 2/C"
_symmetry_group_IT_number 13
_symmetry_cell_setting 'monoclinic'
loop_
_space_group_symop_operation_xyz
x,y,z
-x,y,1/2-z
-x,-y,-z
x,-y,1/2+z
loop_
_atom_site_type_symbol
_atom_site_label
_atom_site_fract_x
_atom_site_fract_y
_atom_site_fract_z
Si Si1 0.696634 0.437589 0.713279
Si Si2 0.204996 0.079789 0.400416
Si Si3 0.000000 0.818703 0.750000
Si Si4 0.289215 0.722979 0.602060
Si Si5 0.934895 0.903985 0.135827
Si Si6 0.500000 0.173795 0.250000
Si Si7 0.308961 0.525141 0.547928
Si Si8 0.673140 0.240014 0.667700
O O1 0.500000 0.454431 0.750000
O O2 0.760185 0.470912 0.828973
O O3 0.758189 0.476508 0.576283
O O4 0.713241 0.335890 0.701880
O O5 0.116909 0.121149 0.303485
O O6 0.388547 0.114242 0.353974
O O7 0.095886 0.111317 0.528669
O O8 0.175541 0.978865 0.401223
O O9 0.893860 0.758169 0.851657
O O10 0.390724 0.764248 0.689551
O O11 0.297438 0.622001 0.593909
O O12 0.353309 0.756184 0.467035
O O13 0.821600 0.822234 0.169025
O O14 0.000000 0.932900 0.250000
O O15 0.500000 0.500000 0.500000
O O16 0.500000 0.212009 0.750000
#
# Coordination Sequence:
#
# PCOD9227805 Si02
#       8
#     4   4   2   4   4   2   4   4
#     4   8  16  31  51  80 112 152 187 237 286 345
#     4  10  22  41  58  86 115 153 196 243 286 346
#     4  10  18  42  58  76 120 154 198 234 296 340
#     4  10  21  37  61  86 114 158 196 242 289 344
#     4  11  23  39  62  84 117 160 192 231 306 351
#     4  10  24  36  62  90 114 144 210 246 276 334
#     4   9  17  31  55  81 114 147 194 234 292 345
#     4  10  21  37  58  87 120 152 195 241 294 347
#
# _framework density 19.130013999999999
#
# number of rings (size 3 to 8) (size 9 to 14) (size 15 to 20)
#    0.000    2.286    2.143    0.857    6.000    0.000 
#    0.000    1.429    1.571    1.714    0.000    0.000 
#    0.000    0.000    0.000    0.000    0.000    0.000 
#
# Total GULP energy -155969.681095 kJ/mol
# GULP energy per Si atom -5570.345753 kJ/mol
# Density = 1.908647 g / cm^3
# Si number density = 19.130014 Si / 1000 Ang^3
#
#
#
# Elastic Constant Matrix: (Units=GPa)
#
#
# Indices 1 2 3 4 5 6 
#
# 1 17.6871 16.3075 13.4645 0.0000 -0.8944 0.0000
# 2 16.3075 60.4209 39.4611 0.0000 -4.0330 0.0000
# 3 13.4645 39.4611 126.4011 0.0000 -4.8776 0.0000
# 4 0.0000 0.0000 0.0000 37.5910 0.0000 5.7735
# 5 -0.8944 -4.0330 -4.8776 0.0000 22.1965 0.0000
# 6 0.0000 0.0000 0.0000 5.7735 0.0000 -14.2036
#
#
#
# Elastic Compliance Matrix: (Units=1/GPa)
#
#
# Indices 1 2 3 4 5 6 
#
# 1 0.075735 -0.019104 -0.002138 0.000000 -0.000889 0.000000
# 2 -0.019104 0.025733 -0.005898 0.000000 0.002610 0.000000
# 3 -0.002138 -0.005898 0.010021 0.000000 0.001044 0.000000
# 4 0.000000 0.000000 0.000000 0.025039 0.000000 0.010178
# 5 -0.000889 0.002610 0.001044 0.000000 0.045720 0.000000
# 6 0.000000 0.000000 0.000000 0.010178 0.000000 -0.066267
#
#
# Mechanical properties :
#
#
# Convention : Reuss Voigt Hill
#
# Bulk Modulus (GPa) = 17.47970 38.10835 27.79403
# Shear Modulus (GPa) = 26.40925 18.13519 22.27222
#
# Velocity S-wave (km/s) = 3.71956 3.08230 3.41582
# Velocity P-wave (km/s) = 5.25395 5.71239 5.48796
#
# Compressibility (1/GPa) = 0.05720922
#
# Stress axis : x y z
#
# Youngs Moduli (GPa) = 13.20401 38.86098 99.79476
#
# Poissons Ratio (x) = 0.74239 0.21333
# Poissons Ratio (y) = 0.25225 0.58857
# Poissons Ratio (z) = 0.02823 0.22920
#
# Static dielectric constant tensor:
#      x y z
#    x 1.631350 0.000000 0.049060 
#    y 0.000000 1.658560 0.000000 
#    z 0.049060 0.000000 1.647800 
# 
# From -- ./inp_files/30334.got.cif
#   From: 2010.05.17/outbox.cif.g08.bks.cpg/sg13_16_cif.got.tgz:30334.got - 2010.06.03 16:44:36.
