data_PCOD9227173
_publ_section_title
;
Structure prediction by ZEFSAII (Michael W. Deem and Ramdas Pophale) SiO2 
 PCOD9227173
Probable space group: P 2/C
;
_chemical_formula_sum "Si O2"
_cell_formula_units_Z 26
_cell_length_a 11.197214
_cell_length_b 9.492123
_cell_length_c 26.279146
_cell_angle_alpha 90.000000
_cell_angle_beta 30.345833
_cell_angle_gamma 90.000000
_cell_volume 1411.118565
_symmetry_space_group_name_H-M "P 2/C"
_symmetry_group_IT_number 13
_symmetry_cell_setting 'monoclinic'
loop_
_space_group_symop_operation_xyz
x,y,z
-x,y,1/2-z
-x,-y,-z
x,-y,1/2+z
loop_
_atom_site_type_symbol
_atom_site_label
_atom_site_fract_x
_atom_site_fract_y
_atom_site_fract_z
Si Si1 0.500000 0.931600 0.250000
Si Si2 0.457166 0.922606 0.874203
Si Si3 0.181305 0.313787 0.225655
Si Si4 0.822693 0.140461 0.771752
Si Si5 0.990346 0.199329 0.599303
Si Si6 0.379729 0.587541 0.104592
Si Si7 0.140088 0.486730 0.589660
O O1 0.543573 0.027573 0.184101
O O2 0.265007 0.835974 0.330797
O O3 0.645284 0.797619 0.813437
O O4 0.581517 0.052095 0.858035
O O5 0.205661 0.873671 0.989578
O O6 0.324819 0.428999 0.141110
O O7 0.000000 0.252649 0.250000
O O8 0.051276 0.410362 0.315147
O O9 0.748731 0.299955 0.812895
O O10 0.000000 0.090433 0.750000
O O11 0.956483 0.136795 0.668731
O O12 0.044168 0.365961 0.587493
O O13 0.272974 0.597213 0.087078
O O14 0.660468 0.592511 0.004681
#
# Coordination Sequence:
#
# PCOD9227173 Si02
#       7
#     2   4   4   4   4   4   4
#     4  10  26  44  62  80 122 168 220 268 308 346
#     4  11  24  40  63  86 122 164 214 261 312 359
#     4  10  19  34  59  94 127 155 190 246 313 382
#     4  11  21  36  59  95 131 159 196 250 312 388
#     4  11  21  41  63  87 115 170 209 257 310 363
#     4  10  18  33  57  92 129 161 188 237 305 381
#     4  10  19  33  62  89 128 162 197 239 311 374
#
# _framework density 18.425098999999999
#
# number of rings (size 3 to 8) (size 9 to 14) (size 15 to 20)
#    0.000    1.538    4.615    1.385    0.000    3.077 
#    0.000    0.769    0.000    5.538    0.000    0.000 
#    0.000    0.000    0.000    0.000    0.000    0.000 
#
# Total GULP energy -144931.498811 kJ/mol
# GULP energy per Si atom -5574.288416 kJ/mol
# Density = 1.838316 g / cm^3
# Si number density = 18.425099 Si / 1000 Ang^3
#
#
#
# Elastic Constant Matrix: (Units=GPa)
#
#
# Indices 1 2 3 4 5 6 
#
# 1 113.7850 51.3397 53.8036 0.0000 -10.4367 0.0000
# 2 51.3397 88.6110 39.7818 0.0000 -10.0395 0.0000
# 3 53.8036 39.7818 133.4316 0.0000 -14.4859 0.0000
# 4 0.0000 0.0000 0.0000 4.6214 0.0000 -0.2491
# 5 -10.4367 -10.0395 -14.4859 0.0000 23.8327 0.0000
# 6 0.0000 0.0000 0.0000 -0.2491 0.0000 26.7806
#
#
#
# Elastic Compliance Matrix: (Units=1/GPa)
#
#
# Indices 1 2 3 4 5 6 
#
# 1 0.013214 -0.005989 -0.003414 0.000000 0.001189 0.000000
# 2 -0.005989 0.015998 -0.002043 0.000000 0.002875 0.000000
# 3 -0.003414 -0.002043 0.009876 0.000000 0.003647 0.000000
# 4 0.000000 0.000000 0.000000 0.216494 0.000000 0.002014
# 5 0.001189 0.002875 0.003647 0.000000 0.045908 0.000000
# 6 0.000000 0.000000 0.000000 0.002014 0.000000 0.037359
#
#
# Mechanical properties :
#
#
# Convention : Reuss Voigt Hill
#
# Bulk Modulus (GPa) = 61.73769 69.51977 65.62873
# Shear Modulus (GPa) = 13.61889 23.77377 18.69633
#
# Velocity S-wave (km/s) = 2.72168 3.59596 3.18892
# Velocity P-wave (km/s) = 6.59218 7.41985 7.01823
#
# Compressibility (1/GPa) = 0.01619756
#
# Stress axis : x y z
#
# Youngs Moduli (GPa) = 75.67874 62.50874 101.25581
#
# Poissons Ratio (x) = 0.37434 0.34565
# Poissons Ratio (y) = 0.45321 0.20684
# Poissons Ratio (z) = 0.25834 0.12769
#
# Static dielectric constant tensor:
#      x y z
#    x 1.650600 0.000000 -0.024780 
#    y 0.000000 1.636160 0.000000 
#    z -0.024780 0.000000 1.717650 
# 
# From -- ./inp_files/92221.got.cif
#   From: 2010.05.17/outbox.cif.g08.bks.cpg/sg13_47_cif.got.tgz:92221.got - 2010.06.03 16:44:36.
