data_PCOD9227106
_publ_section_title
;
Structure prediction by ZEFSAII (Michael W. Deem and Ramdas Pophale) SiO2 
 PCOD9227106
Probable space group: P 2/C
;
_chemical_formula_sum "Si O2"
_cell_formula_units_Z 22
_cell_length_a 16.575888
_cell_length_b 11.279481
_cell_length_c 15.546014
_cell_angle_alpha 90.000000
_cell_angle_beta 19.674959
_cell_angle_gamma 90.000000
_cell_volume 978.604350
_symmetry_space_group_name_H-M "P 2/C"
_symmetry_group_IT_number 13
_symmetry_cell_setting 'monoclinic'
loop_
_space_group_symop_operation_xyz
x,y,z
-x,y,1/2-z
-x,-y,-z
x,-y,1/2+z
loop_
_atom_site_type_symbol
_atom_site_label
_atom_site_fract_x
_atom_site_fract_y
_atom_site_fract_z
Si Si1 0.367015 0.776258 0.506920
Si Si2 0.533852 0.468688 0.864503
Si Si3 0.260931 0.037041 0.831602
Si Si4 0.000000 0.155895 0.250000
Si Si5 0.032405 0.441195 0.871817
Si Si6 0.965509 0.188831 0.001942
O O1 0.557581 0.672258 0.328421
O O2 0.485284 0.905476 0.399726
O O3 0.177054 0.758048 0.773812
O O4 0.222760 0.771130 0.563247
O O5 0.774280 0.530349 0.589631
O O6 0.500000 0.500000 0.000000
O O7 0.274643 0.506613 0.087719
O O8 0.221312 0.898366 0.857778
O O9 0.089071 0.077144 0.081522
O O10 0.170922 0.104851 0.835797
O O11 0.059382 0.299932 0.854920
O O12 0.000000 0.500000 0.000000
#
# Coordination Sequence:
#
# PCOD9227106 Si02
#       6
#     4   4   4   2   4   4
#     4  11  20  36  59  85 119 155 201 254 307 360
#     4  10  19  31  58  86 124 148 190 245 308 360
#     4  10  21  37  55  87 116 154 202 250 307 362
#     4  10  24  38  54  84 112 168 200 244 298 370
#     4  10  18  33  52  92 121 153 181 240 311 358
#     4  10  20  33  59  89 120 146 199 257 308 357
#
# _framework density 22.480995
#
# number of rings (size 3 to 8) (size 9 to 14) (size 15 to 20)
#    0.000    1.818    3.636    3.273    2.545    0.000 
#    0.000    0.000    0.000    1.091    0.000    0.000 
#    0.000    0.000    0.000    0.000    0.000    0.000 
#
# Total GULP energy -122871.354226 kJ/mol
# GULP energy per Si atom -5585.061556 kJ/mol
# Density = 2.242983 g / cm^3
# Si number density = 22.480995 Si / 1000 Ang^3
#
#
#
# Elastic Constant Matrix: (Units=GPa)
#
#
# Indices 1 2 3 4 5 6 
#
# 1 60.4339 27.6705 12.2980 0.0000 -11.0897 0.0000
# 2 27.6705 118.9196 1.7842 0.0000 -10.9548 0.0000
# 3 12.2980 1.7842 102.0629 0.0000 -23.7771 0.0000
# 4 0.0000 0.0000 0.0000 30.1840 0.0000 -7.0584
# 5 -11.0897 -10.9548 -23.7771 0.0000 30.1978 0.0000
# 6 0.0000 0.0000 0.0000 -7.0584 0.0000 8.6351
#
#
#
# Elastic Compliance Matrix: (Units=1/GPa)
#
#
# Indices 1 2 3 4 5 6 
#
# 1 0.019532 -0.004088 -0.001171 0.000000 0.004768 0.000000
# 2 -0.004088 0.009598 0.000963 0.000000 0.002739 0.000000
# 3 -0.001171 0.000963 0.012128 0.000000 0.009468 0.000000
# 4 0.000000 0.000000 0.000000 0.040959 0.000000 0.033480
# 5 0.004768 0.002739 0.009468 0.000000 0.043315 0.000000
# 6 0.000000 0.000000 0.000000 0.033480 0.000000 0.143174
#
#
# Mechanical properties :
#
#
# Convention : Reuss Voigt Hill
#
# Bulk Modulus (GPa) = 30.61385 40.54689 35.58037
# Shear Modulus (GPa) = 17.34982 29.78095 23.56539
#
# Velocity S-wave (km/s) = 2.78106 3.64361 3.24116
# Velocity P-wave (km/s) = 4.89486 5.98134 5.46517
#
# Compressibility (1/GPa) = 0.03266496
#
# Stress axis : x y z
#
# Youngs Moduli (GPa) = 51.19817 104.18742 82.45385
#
# Poissons Ratio (x) = 0.42592 0.09658
# Poissons Ratio (y) = 0.20930 -0.07939
# Poissons Ratio (z) = 0.05997 -0.10031
#
# Static dielectric constant tensor:
#      x y z
#    x 1.831130 0.000000 0.104720 
#    y 0.000000 1.817200 0.000000 
#    z 0.104720 0.000000 1.027690 
# 
# From -- ./inp_files/61027.got.cif
#   From: 2010.05.17/outbox.cif.g08.bks.cpg/sg13_31_cif.got.tgz:61027.got - 2010.06.03 16:44:36.
