data_PCOD9227905
_publ_section_title
;
Structure prediction by ZEFSAII (Michael W. Deem and Ramdas Pophale) SiO2 
 PCOD9227905
Probable space group: P 2/C
;
_chemical_formula_sum "Si O2"
_cell_formula_units_Z 30
_cell_length_a 26.543270
_cell_length_b 12.884440
_cell_length_c 9.682814
_cell_angle_alpha 90.000000
_cell_angle_beta 25.418855
_cell_angle_gamma 90.000000
_cell_volume 1421.392565
_symmetry_space_group_name_H-M "P 2/C"
_symmetry_group_IT_number 13
_symmetry_cell_setting 'monoclinic'
loop_
_space_group_symop_operation_xyz
x,y,z
-x,y,1/2-z
-x,-y,-z
x,-y,1/2+z
loop_
_atom_site_type_symbol
_atom_site_label
_atom_site_fract_x
_atom_site_fract_y
_atom_site_fract_z
Si Si1 0.253241 0.874397 0.119545
Si Si2 0.498600 0.098326 0.098431
Si Si3 0.970749 0.168915 0.980184
Si Si4 0.455062 0.687832 0.061705
Si Si5 0.500000 0.388817 0.750000
Si Si6 0.178828 0.015455 0.551713
Si Si7 0.104238 0.317490 0.091690
Si Si8 0.334210 0.420918 0.636513
O O1 0.264412 0.920849 0.939156
O O2 0.163172 0.780331 0.363060
O O3 0.218763 0.968155 0.308135
O O4 0.378585 0.841116 0.863596
O O5 0.500000 0.061834 0.250000
O O6 0.585339 0.193639 0.865365
O O7 0.500000 0.000000 0.000000
O O8 0.000000 0.196401 0.750000
O O9 0.075906 0.097706 0.779230
O O10 0.946483 0.264178 0.143059
O O11 0.864491 0.085912 0.256525
O O12 0.487826 0.674690 0.139793
O O13 0.347907 0.623609 0.258306
O O14 0.566619 0.638017 0.702376
O O15 0.615232 0.462980 0.472912
O O16 0.000000 0.357990 0.250000
O O17 0.208382 0.395879 0.880075
#
# Coordination Sequence:
#
# PCOD9227905 Si02
#       8
#     4   4   4   4   2   4   4   4
#     4  11  20  35  51  78 115 169 211 253 303 365
#     4  12  24  40  58  90 137 173 203 246 317 381
#     4  10  19  32  48  75 112 158 213 263 295 350
#     4  10  20  42  67  93 126 163 211 266 314 382
#     4  10  22  40  78 104 112 154 224 272 320 392
#     4  10  19  30  50  71 107 159 219 261 284 349
#     4  11  21  34  59  85 123 167 207 254 328 387
#     4  10  19  41  66  93 126 156 208 279 331 372
#
# _framework density 21.106062000000001
#
# number of rings (size 3 to 8) (size 9 to 14) (size 15 to 20)
#    0.000    1.600    5.333    2.400    0.933    1.067 
#    0.000    1.333    0.000    3.200    0.000    0.000 
#    0.000    0.000    0.000    0.000    0.000    0.000 
#
# Total GULP energy -167200.989604 kJ/mol
# GULP energy per Si atom -5573.366320 kJ/mol
# Density = 2.105802 g / cm^3
# Si number density = 21.106062 Si / 1000 Ang^3
#
#
#
# Elastic Constant Matrix: (Units=GPa)
#
#
# Indices 1 2 3 4 5 6 
#
# 1 140.5809 17.1738 27.8384 0.0000 4.1131 0.0000
# 2 17.1738 36.7612 10.4264 0.0000 16.3500 0.0000
# 3 27.8384 10.4264 32.9660 0.0000 -8.2790 0.0000
# 4 0.0000 0.0000 0.0000 13.3419 0.0000 -11.1849
# 5 4.1131 16.3500 -8.2790 0.0000 41.6603 0.0000
# 6 0.0000 0.0000 0.0000 -11.1849 0.0000 50.7437
#
#
#
# Elastic Compliance Matrix: (Units=1/GPa)
#
#
# Indices 1 2 3 4 5 6 
#
# 1 0.008805 -0.001101 -0.007575 0.000000 -0.001943 0.000000
# 2 -0.001101 0.041166 -0.016967 0.000000 -0.019419 0.000000
# 3 -0.007575 -0.016967 0.046266 0.000000 0.016601 0.000000
# 4 0.000000 0.000000 0.000000 0.091941 0.000000 0.020266
# 5 -0.001943 -0.019419 0.016601 0.000000 0.035116 0.000000
# 6 0.000000 0.000000 0.000000 0.020266 0.000000 0.024174
#
#
# Mechanical properties :
#
#
# Convention : Reuss Voigt Hill
#
# Bulk Modulus (GPa) = 22.24620 35.68725 28.96673
# Shear Modulus (GPa) = 15.93690 31.47381 23.70535
#
# Velocity S-wave (km/s) = 2.75086 3.86582 3.35498
# Velocity P-wave (km/s) = 4.54453 6.07218 5.36303
#
# Compressibility (1/GPa) = 0.04495149
#
# Stress axis : x y z
#
# Youngs Moduli (GPa) = 113.57614 24.29181 21.61402
#
# Poissons Ratio (x) = 0.02674 0.16372
# Poissons Ratio (y) = 0.12504 0.36673
# Poissons Ratio (z) = 0.86032 0.41216
#
# Static dielectric constant tensor:
#      x y z
#    x 1.739530 0.000000 0.001380 
#    y 0.000000 1.800080 0.000000 
#    z 0.001380 0.000000 1.837440 
# 
# From -- ./inp_files/24229.got.cif
#   From: 2010.05.17/outbox.cif.g08.bks.cpg/sg13_13_cif.got.tgz:24229.got - 2010.06.03 16:44:36.
