data_PCOD9227172
_publ_section_title
;
Structure prediction by ZEFSAII (Michael W. Deem and Ramdas Pophale) SiO2 
 PCOD9227172
Probable space group: P 2/C
;
_chemical_formula_sum "Si O2"
_cell_formula_units_Z 28
_cell_length_a 12.196884
_cell_length_b 6.734345
_cell_length_c 26.677351
_cell_angle_alpha 90.000000
_cell_angle_beta 149.771370
_cell_angle_gamma 90.000000
_cell_volume 1103.176022
_symmetry_space_group_name_H-M "P 2/C"
_symmetry_group_IT_number 13
_symmetry_cell_setting 'monoclinic'
loop_
_space_group_symop_operation_xyz
x,y,z
-x,y,1/2-z
-x,-y,-z
x,-y,1/2+z
loop_
_atom_site_type_symbol
_atom_site_label
_atom_site_fract_x
_atom_site_fract_y
_atom_site_fract_z
Si Si1 0.786880 0.307178 0.145011
Si Si2 0.000000 0.075772 0.750000
Si Si3 0.703062 0.990699 0.946970
Si Si4 0.896443 0.328372 0.070446
Si Si5 0.384204 0.202692 0.253786
Si Si6 0.978336 0.333822 0.948258
Si Si7 0.651537 0.171400 0.534732
Si Si8 0.500000 0.590930 0.250000
O O1 0.000000 0.422459 0.250000
O O2 0.828058 0.304939 0.101196
O O3 0.821864 0.099945 0.191146
O O4 0.527782 0.343293 0.047979
O O5 0.138725 0.195944 0.846192
O O6 0.475663 0.924426 0.834881
O O7 0.878306 0.859526 0.985847
O O8 0.731570 0.915762 0.014649
O O9 0.735104 0.223548 0.967151
O O10 0.126061 0.215924 0.152396
O O11 0.938890 0.551508 0.068964
O O12 0.500000 0.119766 0.250000
O O13 0.467717 0.433238 0.283491
O O14 0.723087 0.291714 0.842056
O O15 0.000000 0.500000 0.000000
O O16 0.500000 0.000000 0.500000
#
# Coordination Sequence:
#
# PCOD9227172 Si02
#       8
#     4   2   4   4   4   4   4   2
#     4   9  17  32  58  85 119 158 196 248 308 360
#     4   8  16  30  52  78 122 152 194 242 302 346
#     4  12  21  39  68  90 119 173 209 244 321 375
#     4  11  22  38  63  94 119 163 211 249 308 381
#     4   9  20  37  60  85 124 160 199 258 309 364
#     4  11  23  43  61  86 125 159 205 264 310 361
#     4  10  18  33  57  88 123 159 194 256 304 359
#     4   8  18  44  56  80 128 158 186 270 308 340
#
# _framework density 25.381264000000002
#
# number of rings (size 3 to 8) (size 9 to 14) (size 15 to 20)
#    0.857    1.143    4.286    0.857    0.000    2.286 
#    3.857    0.714    1.571    0.000    0.000    0.000 
#    0.000    0.000    0.000    0.000    0.000    0.000 
#
# Total GULP energy -155983.270859 kJ/mol
# GULP energy per Si atom -5570.831102 kJ/mol
# Density = 2.532350 g / cm^3
# Si number density = 25.381264 Si / 1000 Ang^3
#
#
#
# Elastic Constant Matrix: (Units=GPa)
#
#
# Indices 1 2 3 4 5 6 
#
# 1 104.3202 16.2546 8.1061 0.0000 -1.9171 0.0000
# 2 16.2546 53.4692 19.7283 0.0000 -2.2744 0.0000
# 3 8.1061 19.7283 123.9047 0.0000 -12.4019 0.0000
# 4 0.0000 0.0000 0.0000 7.4648 0.0000 -8.8688
# 5 -1.9171 -2.2744 -12.4019 0.0000 34.1876 0.0000
# 6 0.0000 0.0000 0.0000 -8.8688 0.0000 20.9215
#
#
#
# Elastic Compliance Matrix: (Units=1/GPa)
#
#
# Indices 1 2 3 4 5 6 
#
# 1 0.010070 -0.002992 -0.000151 0.000000 0.000311 0.000000
# 2 -0.002992 0.020760 -0.003101 0.000000 0.000088 0.000000
# 3 -0.000151 -0.003101 0.008875 0.000000 0.003005 0.000000
# 4 0.000000 0.000000 0.000000 0.269886 0.000000 0.114407
# 5 0.000311 0.000088 0.003005 0.000000 0.030364 0.000000
# 6 0.000000 0.000000 0.000000 0.114407 0.000000 0.096296
#
#
# Mechanical properties :
#
#
# Convention : Reuss Voigt Hill
#
# Bulk Modulus (GPa) = 36.74297 41.09690 38.91993
# Shear Modulus (GPa) = 10.92155 28.35514 19.63835
#
# Velocity S-wave (km/s) = 2.07662 3.34603 2.78463
# Velocity P-wave (km/s) = 4.50085 5.58166 5.07013
#
# Compressibility (1/GPa) = 0.02721609
#
# Stress axis : x y z
#
# Youngs Moduli (GPa) = 99.30932 48.16999 112.67507
#
# Poissons Ratio (x) = 0.14413 0.01704
# Poissons Ratio (y) = 0.29714 0.34938
# Poissons Ratio (z) = 0.01502 0.14937
#
# Static dielectric constant tensor:
#      x y z
#    x 2.050070 0.000000 0.032050 
#    y 0.000000 2.113650 0.000000 
#    z 0.032050 0.000000 2.076400 
# 
# From -- ./inp_files/92281.got.cif
#   From: 2010.05.17/outbox.cif.g08.bks.cpg/sg13_47_cif.got.tgz:92281.got - 2010.06.03 16:44:36.
