data_PCOD9227401
_publ_section_title
;
Structure prediction by ZEFSAII (Michael W. Deem and Ramdas Pophale) SiO2 
 PCOD9227401
Probable space group: P 2/C
;
_chemical_formula_sum "Si O2"
_cell_formula_units_Z 28
_cell_length_a 8.282719
_cell_length_b 30.281125
_cell_length_c 5.481200
_cell_angle_alpha 90.000000
_cell_angle_beta 120.472828
_cell_angle_gamma 90.000000
_cell_volume 1184.846869
_symmetry_space_group_name_H-M "P 2/C"
_symmetry_group_IT_number 13
_symmetry_cell_setting 'monoclinic'
loop_
_space_group_symop_operation_xyz
x,y,z
-x,y,1/2-z
-x,-y,-z
x,-y,1/2+z
loop_
_atom_site_type_symbol
_atom_site_label
_atom_site_fract_x
_atom_site_fract_y
_atom_site_fract_z
Si Si1 0.427884 0.050230 0.944724
Si Si2 0.212803 0.517560 0.140795
Si Si3 0.273017 0.380614 0.584624
Si Si4 0.271552 0.333585 0.084241
Si Si5 0.224799 0.802297 0.155591
Si Si6 0.893969 0.897713 0.415308
Si Si7 0.794393 0.232837 0.359692
O O1 0.500000 0.070654 0.750000
O O2 0.209336 0.057790 0.750224
O O3 0.500000 0.071089 0.250000
O O4 0.500000 0.000000 0.000000
O O5 0.299062 0.506351 0.470262
O O6 0.213584 0.569391 0.089570
O O7 0.000000 0.500000 0.000000
O O8 0.500000 0.379824 0.750000
O O9 0.213510 0.363756 0.271131
O O10 0.212904 0.351298 0.772468
O O11 0.500000 0.331786 0.250000
O O12 0.198794 0.284762 0.085881
O O13 0.232551 0.854759 0.128560
O O14 0.300571 0.788302 0.475658
O O15 0.298209 0.778133 0.970833
O O16 0.004081 0.787634 0.000985
O O17 0.000000 0.883637 0.250000
O O18 0.000000 0.905964 0.750000
#
# Coordination Sequence:
#
# PCOD9227401 Si02
#       7
#     4   4   4   4   4   4   4
#     4  10  23  45  65  93 141 174 212 281 343 400
#     4  10  21  38  56  81 114 143 182 250 302 359
#     4  10  21  38  58  80 109 154 201 240 293 367
#     4  10  21  37  57  82 116 155 197 237 291 374
#     4  10  19  35  56  84 120 150 201 255 303 357
#     4  12  21  40  70  99 125 177 230 276 324 401
#     4  10  18  35  56  83 121 149 193 254 307 349
#
# _framework density 23.631744000000001
#
# number of rings (size 3 to 8) (size 9 to 14) (size 15 to 20)
#    0.000    1.714    2.857    2.571    0.000    0.571 
#    0.000   27.857    0.000    0.000    0.000    0.000 
#    0.000    0.000    0.000    0.000    0.000    0.000 
#
# Total GULP energy -156418.293737 kJ/mol
# GULP energy per Si atom -5586.367633 kJ/mol
# Density = 2.357796 g / cm^3
# Si number density = 23.631744 Si / 1000 Ang^3
#
#
#
# Elastic Constant Matrix: (Units=GPa)
#
#
# Indices 1 2 3 4 5 6 
#
# 1 82.1907 43.3047 66.0029 0.0000 -35.5735 0.0000
# 2 43.3047 154.8916 50.8750 0.0000 -12.5282 0.0000
# 3 66.0029 50.8750 199.2729 0.0000 -54.5732 0.0000
# 4 0.0000 0.0000 0.0000 185.6802 0.0000 -208.0253
# 5 -35.5735 -12.5282 -54.5732 0.0000 44.3733 0.0000
# 6 0.0000 0.0000 0.0000 -208.0253 0.0000 290.7078
#
#
#
# Elastic Compliance Matrix: (Units=1/GPa)
#
#
# Indices 1 2 3 4 5 6 
#
# 1 0.022384 -0.004307 -0.002613 0.000000 0.013515 0.000000
# 2 -0.004307 0.007879 -0.001389 0.000000 -0.002937 0.000000
# 3 -0.002613 -0.001389 0.008380 0.000000 0.007819 0.000000
# 4 0.000000 0.000000 0.000000 0.027158 0.000000 0.019434
# 5 0.013515 -0.002937 0.007819 0.000000 0.042158 0.000000
# 6 0.000000 0.000000 0.000000 0.019434 0.000000 0.017347
#
#
# Mechanical properties :
#
#
# Convention : Reuss Voigt Hill
#
# Bulk Modulus (GPa) = 45.40441 84.08006 64.74224
# Shear Modulus (GPa) = 33.49734 122.56376 78.03055
#
# Velocity S-wave (km/s) = 3.76902 7.20948 5.75248
# Velocity P-wave (km/s) = 6.18027 10.24494 8.46033
#
# Compressibility (1/GPa) = 0.02202429
#
# Stress axis : x y z
#
# Youngs Moduli (GPa) = 44.67461 126.91974 119.33545
#
# Poissons Ratio (x) = 0.54660 0.31185
# Poissons Ratio (y) = 0.19240 0.16580
# Poissons Ratio (z) = 0.11675 0.17634
#
# Static dielectric constant tensor:
#      x y z
#    x 1.728400 0.000000 -0.018250 
#    y 0.000000 1.816500 0.000000 
#    z -0.018250 0.000000 1.917230 
# 
# From -- ./inp_files/2753.got.cif
#   From: 2010.05.17/outbox.cif.g08.bks.cpg/sg13_2_cif.got.tgz:2753.got - 2010.06.03 16:44:36.
