data_PCOD9227151
_publ_section_title
;
Structure prediction by ZEFSAII (Michael W. Deem and Ramdas Pophale) SiO2 
 PCOD9227151
Probable space group: P 2/C
;
_chemical_formula_sum "Si O2"
_cell_formula_units_Z 32
_cell_length_a 24.334697
_cell_length_b 9.619291
_cell_length_c 18.209808
_cell_angle_alpha 90.000000
_cell_angle_beta 155.925854
_cell_angle_gamma 90.000000
_cell_volume 1738.792626
_symmetry_space_group_name_H-M "P 2/C"
_symmetry_group_IT_number 13
_symmetry_cell_setting 'monoclinic'
loop_
_space_group_symop_operation_xyz
x,y,z
-x,y,1/2-z
-x,-y,-z
x,-y,1/2+z
loop_
_atom_site_type_symbol
_atom_site_label
_atom_site_fract_x
_atom_site_fract_y
_atom_site_fract_z
Si Si1 0.667250 0.437557 0.754770
Si Si2 0.936982 0.261775 0.091951
Si Si3 0.605854 0.476465 0.015981
Si Si4 0.171353 0.243017 0.830438
Si Si5 0.702901 0.754361 0.851922
Si Si6 0.063395 0.942033 0.410114
Si Si7 0.106316 0.455394 0.192009
Si Si8 0.559608 0.767121 0.900419
O O1 0.530830 0.393347 0.631664
O O2 0.637715 0.446736 0.632008
O O3 0.701644 0.596139 0.821401
O O4 0.794331 0.339996 0.921394
O O5 0.919399 0.101641 0.047727
O O6 0.000000 0.265690 0.250000
O O7 0.036174 0.341863 0.157565
O O8 0.746643 0.411580 0.160574
O O9 0.564835 0.598518 0.909745
O O10 0.131133 0.401325 0.765988
O O11 0.237648 0.243953 0.992576
O O12 0.284254 0.194156 0.909866
O O13 0.044583 0.142453 0.674379
O O14 0.548552 0.805981 0.670029
O O15 0.798887 0.855105 0.923630
O O16 0.000000 0.941263 0.250000
O O17 0.000000 0.500000 0.000000
O O18 0.500000 0.814834 0.750000
#
# Coordination Sequence:
#
# PCOD9227151 Si02
#       8
#     4   4   4   4   4   4   4   4
#     4  10  18  33  56  78 107 142 176 221 272 315
#     4  11  22  36  54  80 112 144 179 220 269 316
#     4   9  19  32  52  80 110 136 173 221 276 318
#     4   9  17  31  51  75 102 132 175 221 261 312
#     4   9  16  30  53  77  96 134 181 215 256 316
#     4   9  19  33  50  75 107 140 178 221 259 309
#     4  11  20  34  55  81 107 138 178 222 273 316
#     4   8  15  28  50  75  99 128 173 222 263 310
#
# _framework density 18.403575
#
# number of rings (size 3 to 8) (size 9 to 14) (size 15 to 20)
#    0.000    2.500    1.250    1.500    0.000    2.000 
#    0.000    1.875    0.000    9.750    0.000    0.000 
#    0.000    0.000    0.000    0.000    0.000    0.000 
#
# Total GULP energy -178230.593423 kJ/mol
# GULP energy per Si atom -5569.706044 kJ/mol
# Density = 1.836169 g / cm^3
# Si number density = 18.403575 Si / 1000 Ang^3
#
#
#
# Elastic Constant Matrix: (Units=GPa)
#
#
# Indices 1 2 3 4 5 6 
#
# 1 76.1411 45.6952 53.1687 0.0000 41.5067 0.0000
# 2 45.6952 96.4692 53.8175 0.0000 36.9009 0.0000
# 3 53.1687 53.8175 102.5262 0.0000 51.6566 0.0000
# 4 0.0000 0.0000 0.0000 -4.4595 0.0000 1.6785
# 5 41.5067 36.9009 51.6566 0.0000 52.8907 0.0000
# 6 0.0000 0.0000 0.0000 1.6785 0.0000 -15.0910
#
#
#
# Elastic Compliance Matrix: (Units=1/GPa)
#
#
# Indices 1 2 3 4 5 6 
#
# 1 0.026235 -0.005042 -0.004642 0.000000 -0.012537 0.000000
# 2 -0.005042 0.016436 -0.004388 0.000000 -0.003225 0.000000
# 3 -0.004642 -0.004388 0.021827 0.000000 -0.014613 0.000000
# 4 0.000000 0.000000 0.000000 -0.234040 0.000000 -0.026032
# 5 -0.012537 -0.003225 -0.014613 0.000000 0.045268 0.000000
# 6 0.000000 0.000000 0.000000 -0.026032 0.000000 -0.069160
#
#
# Mechanical properties :
#
#
# Convention : Reuss Voigt Hill
#
# Bulk Modulus (GPa) = 27.50710 64.49992 46.00351
# Shear Modulus (GPa) = -32.64268 14.83171 -8.90548
#
# Velocity S-wave (km/s) = -4.21612 2.84194 -2.20216
# Velocity P-wave (km/s) = 2.95327 6.77440 4.31107
#
# Compressibility (1/GPa) = 0.03635425
#
# Stress axis : x y z
#
# Youngs Moduli (GPa) = 38.11694 60.84369 45.81478
#
# Poissons Ratio (x) = 0.30675 0.21267
# Poissons Ratio (y) = 0.19217 0.20104
# Poissons Ratio (z) = 0.17694 0.26698
#
# Static dielectric constant tensor:
#      x y z
#    x 1.659040 0.000000 0.038290 
#    y 0.000000 1.591080 0.000000 
#    z 0.038290 0.000000 1.650970 
# 
# From -- ./inp_files/82562.got.cif
#   From: 2010.05.17/outbox.cif.g08.bks.cpg/sg13_42_cif.got.tgz:82562.got - 2010.06.03 16:44:36.
