data_PCOD9227085
_publ_section_title
;
Structure prediction by ZEFSAII (Michael W. Deem and Ramdas Pophale) SiO2 
 PCOD9227085
Probable space group: P 2/C
;
_chemical_formula_sum "Si O2"
_cell_formula_units_Z 32
_cell_length_a 22.624819
_cell_length_b 8.275004
_cell_length_c 25.809223
_cell_angle_alpha 90.000000
_cell_angle_beta 19.332496
_cell_angle_gamma 90.000000
_cell_volume 1599.636701
_symmetry_space_group_name_H-M "P 2/C"
_symmetry_group_IT_number 13
_symmetry_cell_setting 'monoclinic'
loop_
_space_group_symop_operation_xyz
x,y,z
-x,y,1/2-z
-x,-y,-z
x,-y,1/2+z
loop_
_atom_site_type_symbol
_atom_site_label
_atom_site_fract_x
_atom_site_fract_y
_atom_site_fract_z
Si Si1 0.762195 0.423838 0.239501
Si Si2 0.588030 0.779174 0.964109
Si Si3 0.384256 0.786973 0.238142
Si Si4 0.184703 0.742104 0.127161
Si Si5 0.224303 0.117044 0.707807
Si Si6 0.953635 0.747586 0.054492
Si Si7 0.478502 0.451053 0.158595
Si Si8 0.491649 0.880116 0.695855
O O1 0.690905 0.370971 0.353851
O O2 0.896777 0.574849 0.127444
O O3 0.602710 0.463732 0.331888
O O4 0.863813 0.276774 0.126769
O O5 0.711942 0.934938 0.853183
O O6 0.531432 0.783574 0.070451
O O7 0.403170 0.799341 0.084269
O O8 0.195299 0.783539 0.365413
O O9 0.417640 0.613858 0.237713
O O10 0.403507 0.951236 0.253464
O O11 0.171411 0.798756 0.197702
O O12 0.000000 0.724934 0.250000
O O13 0.310214 0.582676 0.019292
O O14 0.311136 0.872254 0.993021
O O15 0.070851 0.129623 0.878181
O O16 0.405078 0.284722 0.244593
O O17 0.500000 0.864133 0.750000
#
# Coordination Sequence:
#
# PCOD9227085 Si02
#       8
#     4   4   4   4   4   4   4   4
#     4  10  19  36  53  88 122 147 183 230 295 349
#     4  10  18  32  61  86 112 150 187 230 295 351
#     4  10  20  39  61  87 116 149 192 238 288 349
#     4  10  21  40  58  82 113 151 202 240 276 339
#     4  10  19  34  56  86 114 148 192 236 280 348
#     4   9  22  33  56  89 121 148 181 237 292 346
#     4   9  21  37  63  81 114 153 193 232 289 344
#     4  10  22  41  61  81 112 153 196 240 290 339
#
# _framework density 20.004543000000002
#
# number of rings (size 3 to 8) (size 9 to 14) (size 15 to 20)
#    0.750    1.500    2.500    0.000    5.250    3.500 
#    2.250    0.625    0.000    0.000    0.000    0.000 
#    0.000    0.000    0.000    0.000    0.000    0.000 
#
# Total GULP energy -178389.414500 kJ/mol
# GULP energy per Si atom -5574.669203 kJ/mol
# Density = 1.995901 g / cm^3
# Si number density = 20.004543 Si / 1000 Ang^3
#
#
#
# Elastic Constant Matrix: (Units=GPa)
#
#
# Indices 1 2 3 4 5 6 
#
# 1 69.2178 19.6262 7.0550 0.0000 0.4306 0.0000
# 2 19.6262 94.7098 2.3831 0.0000 5.4910 0.0000
# 3 7.0550 2.3831 46.6477 0.0000 0.6360 0.0000
# 4 0.0000 0.0000 0.0000 23.5183 0.0000 -3.2787
# 5 0.4306 5.4910 0.6360 0.0000 22.5731 0.0000
# 6 0.0000 0.0000 0.0000 -3.2787 0.0000 17.6849
#
#
#
# Elastic Compliance Matrix: (Units=1/GPa)
#
#
# Indices 1 2 3 4 5 6 
#
# 1 0.015576 -0.003204 -0.002200 0.000000 0.000544 0.000000
# 2 -0.003204 0.011381 -0.000060 0.000000 -0.002706 0.000000
# 3 -0.002200 -0.000060 0.021781 0.000000 -0.000557 0.000000
# 4 0.000000 0.000000 0.000000 0.043648 0.000000 0.008092
# 5 0.000544 -0.002706 -0.000557 0.000000 0.044964 0.000000
# 6 0.000000 0.000000 0.000000 0.008092 0.000000 0.058046
#
#
# Mechanical properties :
#
#
# Convention : Reuss Voigt Hill
#
# Bulk Modulus (GPa) = 26.44740 29.85601 28.15171
# Shear Modulus (GPa) = 22.83873 24.85600 23.84736
#
# Velocity S-wave (km/s) = 3.38254 3.52876 3.45642
# Velocity P-wave (km/s) = 5.33899 5.61782 5.48018
#
# Compressibility (1/GPa) = 0.03781089
#
# Stress axis : x y z
#
# Youngs Moduli (GPa) = 64.19956 87.86653 45.91244
#
# Poissons Ratio (x) = 0.28153 0.10099
# Poissons Ratio (y) = 0.20570 0.00275
# Poissons Ratio (z) = 0.14121 0.00527
#
# Static dielectric constant tensor:
#      x y z
#    x 1.667630 0.000000 0.008970 
#    y 0.000000 1.805390 0.000000 
#    z 0.008970 0.000000 1.725750 
# 
# From -- ./inp_files/93818.got.cif
#   From: 2010.05.17/outbox.cif.g08.bks.cpg/sg13_47_cif.got.tgz:93818.got - 2010.06.03 16:44:36.
