data_PCOD9227246
_publ_section_title
;
Structure prediction by ZEFSAII (Michael W. Deem and Ramdas Pophale) SiO2 
 PCOD9227246
Probable space group: P 2/C
;
_chemical_formula_sum "Si O2"
_cell_formula_units_Z 22
_cell_length_a 11.279340
_cell_length_b 7.054953
_cell_length_c 10.832861
_cell_angle_alpha 90.000000
_cell_angle_beta 76.029981
_cell_angle_gamma 90.000000
_cell_volume 836.530344
_symmetry_space_group_name_H-M "P 2/C"
_symmetry_group_IT_number 13
_symmetry_cell_setting 'monoclinic'
loop_
_space_group_symop_operation_xyz
x,y,z
-x,y,1/2-z
-x,-y,-z
x,-y,1/2+z
loop_
_atom_site_type_symbol
_atom_site_label
_atom_site_fract_x
_atom_site_fract_y
_atom_site_fract_z
Si Si1 0.676685 0.665273 0.393853
Si Si2 0.500000 0.889836 0.750000
Si Si3 0.117693 0.248839 0.375643
Si Si4 0.851728 0.654507 0.906319
Si Si5 0.701380 0.975385 0.028130
Si Si6 0.650016 0.454644 0.166434
O O1 0.806419 0.551795 0.371007
O O2 0.689902 0.888662 0.411736
O O3 0.623321 0.614311 0.273968
O O4 0.608109 0.590657 0.536430
O O5 0.427857 0.008534 0.869823
O O6 0.394869 0.733822 0.745718
O O7 0.128119 0.228475 0.226430
O O8 0.185436 0.076350 0.427380
O O9 0.204472 0.428783 0.382461
O O10 0.979454 0.304299 0.442070
O O11 0.738939 0.761139 0.998675
#
# Coordination Sequence:
#
# PCOD9227246 Si02
#       6
#     4   2   4   4   4   4
#     4   9  20  35  53  79 106 139 182 222 269 323
#     4   8  18  36  54  76 114 142 176 236 274 306
#     4   8  18  34  50  77 112 134 171 234 278 310
#     4  10  18  34  55  75 106 142 176 224 275 326
#     4  10  20  34  53  77 105 142 182 221 271 324
#     4   9  18  35  56  79 110 147 181 224 275 320
#
# _framework density 26.299106999999999
#
# number of rings (size 3 to 8) (size 9 to 14) (size 15 to 20)
#    0.000    3.273    0.000    0.545    0.000    7.273 
#    0.000   19.091    0.000    0.000    0.000    0.000 
#    0.000    0.000    0.000    0.000    0.000    0.000 
#
# Total GULP energy -122604.551434 kJ/mol
# GULP energy per Si atom -5572.934156 kJ/mol
# Density = 2.623925 g / cm^3
# Si number density = 26.299107 Si / 1000 Ang^3
#
#
#
# Elastic Constant Matrix: (Units=GPa)
#
#
# Indices 1 2 3 4 5 6 
#
# 1 131.7603 15.1949 9.7222 0.0000 -11.2893 0.0000
# 2 15.1949 109.1933 -4.2385 0.0000 -4.3358 0.0000
# 3 9.7222 -4.2385 81.8985 0.0000 4.5290 0.0000
# 4 0.0000 0.0000 0.0000 27.9774 0.0000 -6.2451
# 5 -11.2893 -4.3358 4.5290 0.0000 51.4661 0.0000
# 6 0.0000 0.0000 0.0000 -6.2451 0.0000 26.1095
#
#
#
# Elastic Compliance Matrix: (Units=1/GPa)
#
#
# Indices 1 2 3 4 5 6 
#
# 1 0.007945 -0.001079 -0.001096 0.000000 0.001748 0.000000
# 2 -0.001079 0.009351 0.000584 0.000000 0.000500 0.000000
# 3 -0.001096 0.000584 0.012442 0.000000 -0.001286 0.000000
# 4 0.000000 0.000000 0.000000 0.037759 0.000000 0.009032
# 5 0.001748 0.000500 -0.001286 0.000000 0.019969 0.000000
# 6 0.000000 0.000000 0.000000 0.009032 0.000000 0.040460
#
#
# Mechanical properties :
#
#
# Convention : Reuss Voigt Hill
#
# Bulk Modulus (GPa) = 37.65474 40.46771 39.06122
# Shear Modulus (GPa) = 35.72509 41.25551 38.49030
#
# Velocity S-wave (km/s) = 3.68967 3.96498 3.82980
# Velocity P-wave (km/s) = 5.70092 6.03178 5.86868
#
# Compressibility (1/GPa) = 0.02655708
#
# Stress axis : x y z
#
# Youngs Moduli (GPa) = 125.87232 106.94394 80.37517
#
# Poissons Ratio (x) = 0.11535 0.08806
# Poissons Ratio (y) = 0.13577 -0.04697
# Poissons Ratio (z) = 0.13791 -0.06249
#
# Static dielectric constant tensor:
#      x y z
#    x 2.102220 0.000000 0.006380 
#    y 0.000000 2.059630 0.000000 
#    z 0.006380 0.000000 2.268690 
# 
# From -- ./inp_files/32502.got.cif
#   From: 2010.05.17/outbox.cif.g08.bks.cpg/sg13_17_cif.got.tgz:32502.got - 2010.06.03 16:44:36.
