data_PCOD9227025
_publ_section_title
;
Structure prediction by ZEFSAII (Michael W. Deem and Ramdas Pophale) SiO2 
 PCOD9227025
Probable space group: P 2/C
;
_chemical_formula_sum "Si O2"
_cell_formula_units_Z 14
_cell_length_a 6.989281
_cell_length_b 6.884699
_cell_length_c 13.770474
_cell_angle_alpha 90.000000
_cell_angle_beta 58.705802
_cell_angle_gamma 90.000000
_cell_volume 566.218724
_symmetry_space_group_name_H-M "P 2/C"
_symmetry_group_IT_number 13
_symmetry_cell_setting 'monoclinic'
loop_
_space_group_symop_operation_xyz
x,y,z
-x,y,1/2-z
-x,-y,-z
x,-y,1/2+z
loop_
_atom_site_type_symbol
_atom_site_label
_atom_site_fract_x
_atom_site_fract_y
_atom_site_fract_z
Si Si1 0.321743 0.666238 0.924749
Si Si2 0.178468 0.397573 0.118766
Si Si3 0.500000 0.370127 0.750000
Si Si4 0.632795 0.914210 0.056461
O O1 0.577353 0.627266 0.894778
O O2 0.308159 0.518294 0.838092
O O3 0.178910 0.592644 0.053875
O O4 0.292433 0.891180 0.908416
O O5 0.000000 0.386103 0.250000
O O6 0.177780 0.223409 0.039747
O O7 0.519877 0.222538 0.835342
O O8 0.500000 0.000000 0.000000
#
# Coordination Sequence:
#
# PCOD9227025 Si02
#       4
#     4   4   2   4
#     4   9  18  33  53  76 105 138 173 220 267 308
#     4   9  18  33  54  79 104 137 180 217 259 316
#     4  10  18  32  56  80 106 140 178 218 264 318
#     4   9  18  33  53  76 103 140 179 214 259 310
#
# _framework density 24.725427
#
# number of rings (size 3 to 8) (size 9 to 14) (size 15 to 20)
#    0.000    2.857    0.000    2.571    0.000    1.143 
#    0.000    5.714    0.000   30.857    0.000    0.000 
#    0.000    0.000    0.000    0.000    0.000    0.000 
#
# Total GULP energy -78149.209778 kJ/mol
# GULP energy per Si atom -5582.086413 kJ/mol
# Density = 2.466915 g / cm^3
# Si number density = 24.725427 Si / 1000 Ang^3
#
#
#
# Elastic Constant Matrix: (Units=GPa)
#
#
# Indices 1 2 3 4 5 6 
#
# 1 64.4627 -5.9834 14.6420 0.0000 -2.7547 0.0000
# 2 -5.9834 208.8041 83.5130 0.0000 0.1994 0.0000
# 3 14.6420 83.5130 205.2037 0.0000 -17.3950 0.0000
# 4 0.0000 0.0000 0.0000 48.7832 0.0000 11.9276
# 5 -2.7547 0.1994 -17.3950 0.0000 38.3908 0.0000
# 6 0.0000 0.0000 0.0000 11.9276 0.0000 8.6994
#
#
#
# Elastic Compliance Matrix: (Units=1/GPa)
#
#
# Indices 1 2 3 4 5 6 
#
# 1 0.015981 0.001073 -0.001539 0.000000 0.000444 0.000000
# 2 0.001073 0.005840 -0.002547 0.000000 -0.001107 0.000000
# 3 -0.001539 -0.002547 0.006252 0.000000 0.002735 0.000000
# 4 0.000000 0.000000 0.000000 0.030836 0.000000 -0.042279
# 5 0.000444 -0.001107 0.002735 0.000000 0.027325 0.000000
# 6 0.000000 0.000000 0.000000 -0.042279 0.000000 0.172917
#
#
# Mechanical properties :
#
#
# Convention : Reuss Voigt Hill
#
# Bulk Modulus (GPa) = 45.36029 73.64595 59.50312
# Shear Modulus (GPa) = 18.34690 44.92795 31.63742
#
# Velocity S-wave (km/s) = 2.72697 4.26734 3.58096
# Velocity P-wave (km/s) = 5.31983 7.35734 6.41993
#
# Compressibility (1/GPa) = 0.02204572
#
# Stress axis : x y z
#
# Youngs Moduli (GPa) = 62.57392 171.24118 159.96092
#
# Poissons Ratio (x) = -0.18379 0.24626
# Poissons Ratio (y) = -0.06716 0.40743
# Poissons Ratio (z) = 0.09633 0.43616
#
# Static dielectric constant tensor:
#      x y z
#    x 2.140580 0.000000 0.094210 
#    y 0.000000 2.026170 0.000000 
#    z 0.094210 0.000000 1.978420 
# 
# From -- ./inp_files/27528.got.cif
#   From: 2010.05.17/outbox.cif.g08.bks.cpg/sg13_14_cif.got.tgz:27528.got - 2010.06.03 16:44:36.
