data_PCOD9227031
_publ_section_title
;
Structure prediction by ZEFSAII (Michael W. Deem and Ramdas Pophale) SiO2 
 PCOD9227031
Probable space group: P 2/C
;
_chemical_formula_sum "Si O2"
_cell_formula_units_Z 32
_cell_length_a 13.228009
_cell_length_b 8.252151
_cell_length_c 13.954395
_cell_angle_alpha 90.000000
_cell_angle_beta 75.116300
_cell_angle_gamma 90.000000
_cell_volume 1472.148725
_symmetry_space_group_name_H-M "P 2/C"
_symmetry_group_IT_number 13
_symmetry_cell_setting 'monoclinic'
loop_
_space_group_symop_operation_xyz
x,y,z
-x,y,1/2-z
-x,-y,-z
x,-y,1/2+z
loop_
_atom_site_type_symbol
_atom_site_label
_atom_site_fract_x
_atom_site_fract_y
_atom_site_fract_z
Si Si1 0.296182 0.736024 0.441579
Si Si2 0.577263 0.033309 0.108325
Si Si3 0.015387 0.633338 0.641428
Si Si4 0.636772 0.183683 0.290772
Si Si5 0.720364 0.219472 0.936309
Si Si6 0.606568 0.521631 0.914282
Si Si7 0.165747 0.455495 0.450136
Si Si8 0.172679 0.912561 0.622938
O O1 0.328623 0.630581 0.525976
O O2 0.236481 0.603801 0.392559
O O3 0.216817 0.867190 0.505982
O O4 0.392813 0.844957 0.384443
O O5 0.629988 0.131479 0.183038
O O6 0.455303 0.074329 0.140459
O O7 0.628943 0.105685 0.000483
O O8 0.094337 0.536926 0.551680
O O9 0.066319 0.810240 0.648857
O O10 0.000000 0.556642 0.750000
O O11 0.906471 0.626201 0.611863
O O12 0.600995 0.367127 0.321970
O O13 0.748025 0.152137 0.313926
O O14 0.665588 0.353184 0.883121
O O15 0.812350 0.105673 0.873080
O O16 0.766213 0.321876 0.013229
O O17 0.500000 0.500000 0.000000
#
# Coordination Sequence:
#
# PCOD9227031 Si02
#       8
#     4   4   4   4   4   4   4   4
#     4   8  18  35  57  81 113 155 199 237 307 367
#     4  10  20  35  57  84 123 166 195 243 313 363
#     4  10  21  40  65  87 116 163 199 258 325 364
#     4  10  21  35  54  85 124 158 204 250 294 369
#     4  10  20  36  59  87 116 157 199 246 310 369
#     4  10  18  32  56  82 115 159 200 240 292 360
#     4   9  20  40  61  90 122 153 202 260 310 378
#     4   9  20  36  58  85 112 153 206 244 297 379
#
# _framework density 21.736934999999999
#
# number of rings (size 3 to 8) (size 9 to 14) (size 15 to 20)
#    0.000    2.500    1.250    0.750    3.500    2.000 
#    2.250    1.875    0.000    0.000    0.000    0.000 
#    0.000    0.000    0.000    0.000    0.000    0.000 
#
# Total GULP energy -178334.957885 kJ/mol
# GULP energy per Si atom -5572.967434 kJ/mol
# Density = 2.168746 g / cm^3
# Si number density = 21.736935 Si / 1000 Ang^3
#
#
#
# Elastic Constant Matrix: (Units=GPa)
#
#
# Indices 1 2 3 4 5 6 
#
# 1 62.3826 49.7013 16.2050 0.0000 14.0685 0.0000
# 2 49.7013 132.6446 34.9274 0.0000 3.0985 0.0000
# 3 16.2050 34.9274 57.9934 0.0000 13.2805 0.0000
# 4 0.0000 0.0000 0.0000 14.3397 0.0000 4.4812
# 5 14.0685 3.0985 13.2805 0.0000 24.7185 0.0000
# 6 0.0000 0.0000 0.0000 4.4812 0.0000 33.0782
#
#
#
# Elastic Compliance Matrix: (Units=1/GPa)
#
#
# Indices 1 2 3 4 5 6 
#
# 1 0.027228 -0.010419 0.002185 0.000000 -0.015365 0.000000
# 2 -0.010419 0.013036 -0.006755 0.000000 0.007925 0.000000
# 3 0.002185 -0.006755 0.023709 0.000000 -0.013135 0.000000
# 4 0.000000 0.000000 0.000000 0.072819 0.000000 -0.009865
# 5 -0.015365 0.007925 -0.013135 0.000000 0.055264 0.000000
# 6 0.000000 0.000000 0.000000 -0.009865 0.000000 0.031568
#
#
# Mechanical properties :
#
#
# Convention : Reuss Voigt Hill
#
# Bulk Modulus (GPa) = 29.41476 50.52088 39.96782
# Shear Modulus (GPa) = 18.87261 24.57307 21.72284
#
# Velocity S-wave (km/s) = 2.94977 3.36590 3.16468
# Velocity P-wave (km/s) = 5.01628 6.19662 5.63743
#
# Compressibility (1/GPa) = 0.03399654
#
# Stress axis : x y z
#
# Youngs Moduli (GPa) = 36.72627 76.70852 42.17830
#
# Poissons Ratio (x) = 0.79921 -0.09216
# Poissons Ratio (y) = 0.38264 0.28491
# Poissons Ratio (z) = -0.08025 0.51815
#
# Static dielectric constant tensor:
#      x y z
#    x 1.851750 0.000000 -0.027780 
#    y 0.000000 1.852000 0.000000 
#    z -0.027780 0.000000 1.844580 
# 
# From -- ./inp_files/52776.got.cif
#   From: 2010.05.17/outbox.cif.g08.bks.cpg/sg13_27_cif.got.tgz:52776.got - 2010.06.03 16:44:36.
