data_PCOD9227986
_publ_section_title
;
Structure prediction by ZEFSAII (Michael W. Deem and Ramdas Pophale) SiO2 
 PCOD9227986
Probable space group: P 2/C
;
_chemical_formula_sum "Si O2"
_cell_formula_units_Z 22
_cell_length_a 31.429601
_cell_length_b 5.377794
_cell_length_c 5.129447
_cell_angle_alpha 90.000000
_cell_angle_beta 79.896762
_cell_angle_gamma 90.000000
_cell_volume 853.544813
_symmetry_space_group_name_H-M "P 2/C"
_symmetry_group_IT_number 13
_symmetry_cell_setting 'monoclinic'
loop_
_space_group_symop_operation_xyz
x,y,z
-x,y,1/2-z
-x,-y,-z
x,-y,1/2+z
loop_
_atom_site_type_symbol
_atom_site_label
_atom_site_fract_x
_atom_site_fract_y
_atom_site_fract_z
Si Si1 0.316908 0.674931 0.853275
Si Si2 0.227700 0.325158 0.575337
Si Si3 0.595903 0.641750 0.587204
Si Si4 0.043809 0.843510 0.127172
Si Si5 0.860358 0.651151 0.475611
Si Si6 0.500000 0.833257 0.750000
O O1 0.316008 0.450973 0.070724
O O2 0.272326 0.816155 0.964163
O O3 0.363170 0.803218 0.858598
O O4 0.228253 0.550649 0.359568
O O5 0.181882 0.193900 0.567017
O O6 0.600940 0.594706 0.275979
O O7 0.546220 0.702399 0.695585
O O8 0.091264 0.740308 0.127567
O O9 0.000000 0.696116 0.250000
O O10 0.041683 0.075259 0.330325
O O11 0.856859 0.583571 0.782313
O O12 0.500000 0.000000 0.500000
#
# Coordination Sequence:
#
# PCOD9227986 Si02
#       6
#     4   4   4   4   4   2
#     4   8  14  25  45  70  93 118 153 196 234 271
#     4   8  14  25  42  69  98 119 146 191 242 279
#     4  10  19  34  55  75  94 125 170 206 229 276
#     4  10  21  36  51  68  96 132 164 197 242 291
#     4  10  19  31  51  76  99 124 159 202 240 282
#     4  12  24  36  50  72 104 134 156 196 256 296
#
# _framework density 25.774867
#
# number of rings (size 3 to 8) (size 9 to 14) (size 15 to 20)
#    0.000    2.545    0.000    2.727    0.000    0.727 
#    0.000    0.000    0.000    2.182    0.000    0.000 
#    0.000    0.000    0.000    0.000    0.000    0.000 
#
# Total GULP energy -122703.723585 kJ/mol
# GULP energy per Si atom -5577.441981 kJ/mol
# Density = 2.571620 g / cm^3
# Si number density = 25.774867 Si / 1000 Ang^3
#
#
#
# Elastic Constant Matrix: (Units=GPa)
#
#
# Indices 1 2 3 4 5 6 
#
# 1 293.9970 19.5644 23.9709 0.0000 -34.5137 0.0000
# 2 19.5644 24.8026 24.1854 0.0000 3.2140 0.0000
# 3 23.9709 24.1854 150.0623 0.0000 -0.9269 0.0000
# 4 0.0000 0.0000 0.0000 40.4685 0.0000 -21.0713
# 5 -34.5137 3.2140 -0.9269 0.0000 57.1521 0.0000
# 6 0.0000 0.0000 0.0000 -21.0713 0.0000 77.7895
#
#
#
# Elastic Compliance Matrix: (Units=1/GPa)
#
#
# Indices 1 2 3 4 5 6 
#
# 1 0.003932 -0.003365 -0.000070 0.000000 0.002563 0.000000
# 2 -0.003365 0.051174 -0.007741 0.000000 -0.005036 0.000000
# 3 -0.000070 -0.007741 0.007926 0.000000 0.000522 0.000000
# 4 0.000000 0.000000 0.000000 0.028768 0.000000 0.007793
# 5 0.002563 -0.005036 0.000522 0.000000 0.019336 0.000000
# 6 0.000000 0.000000 0.000000 0.007793 0.000000 0.014966
#
#
# Mechanical properties :
#
#
# Convention : Reuss Voigt Hill
#
# Bulk Modulus (GPa) = 24.58271 67.14482 45.86377
# Shear Modulus (GPa) = 30.86131 61.82474 46.34303
#
# Velocity S-wave (km/s) = 3.46402 4.90291 4.24487
# Velocity P-wave (km/s) = 5.05543 7.62617 6.46977
#
# Compressibility (1/GPa) = 0.04067899
#
# Stress axis : x y z
#
# Youngs Moduli (GPa) = 254.33135 19.54110 126.16830
#
# Poissons Ratio (x) = 0.06576 0.00881
# Poissons Ratio (y) = 0.85594 0.97669
# Poissons Ratio (z) = 0.01776 0.15127
#
# Static dielectric constant tensor:
#      x y z
#    x 2.318330 0.000000 -0.059370 
#    y 0.000000 2.072390 0.000000 
#    z -0.059370 0.000000 1.932410 
# 
# From -- ./inp_files/7951.got.cif
#   From: 2010.05.17/outbox.cif.g08.bks.cpg/sg13_4_cif.got.tgz:7951.got - 2010.06.03 16:44:36.
