data_PCOD9227131
_publ_section_title
;
Structure prediction by ZEFSAII (Michael W. Deem and Ramdas Pophale) SiO2 
 PCOD9227131
Probable space group: P 2/C
;
_chemical_formula_sum "Si O2"
_cell_formula_units_Z 30
_cell_length_a 29.732569
_cell_length_b 8.973779
_cell_length_c 17.601912
_cell_angle_alpha 90.000000
_cell_angle_beta 19.812998
_cell_angle_gamma 90.000000
_cell_volume 1591.860581
_symmetry_space_group_name_H-M "P 2/C"
_symmetry_group_IT_number 13
_symmetry_cell_setting 'monoclinic'
loop_
_space_group_symop_operation_xyz
x,y,z
-x,y,1/2-z
-x,-y,-z
x,-y,1/2+z
loop_
_atom_site_type_symbol
_atom_site_label
_atom_site_fract_x
_atom_site_fract_y
_atom_site_fract_z
Si Si1 0.062772 0.935948 0.538258
Si Si2 0.362345 0.656928 0.997954
Si Si3 0.224650 0.094478 0.627763
Si Si4 0.000000 0.496422 0.750000
Si Si5 0.781061 0.796322 0.956020
Si Si6 0.855834 0.428300 0.212666
Si Si7 0.020992 0.748777 0.341727
Si Si8 0.244447 0.722019 0.339566
O O1 0.123611 0.945767 0.356780
O O2 0.169567 0.864849 0.423656
O O3 0.933792 0.831759 0.736789
O O4 0.017217 0.097191 0.636783
O O5 0.500000 0.591920 0.750000
O O6 0.337787 0.810516 0.990188
O O7 0.239875 0.550445 0.170927
O O8 0.352434 0.680489 0.104224
O O9 0.145113 0.205449 0.697427
O O10 0.262185 0.944711 0.521838
O O11 0.958474 0.388283 0.746996
O O12 0.128411 0.596686 0.527218
O O13 0.788829 0.651485 0.890733
O O14 0.708492 0.759879 0.150356
O O15 0.000000 0.500000 0.000000
O O16 0.894881 0.297974 0.092693
#
# Coordination Sequence:
#
# PCOD9227131 Si02
#       8
#     4   4   4   2   4   4   4   4
#     4  10  18  33  54  88 126 153 190 243 303 350
#     4  11  25  44  61  82 120 166 204 244 303 369
#     4  10  20  36  59  84 115 159 206 240 291 358
#     4  12  22  30  52  96 132 150 188 252 312 352
#     4  11  19  33  57  89 116 152 199 251 298 348
#     4  12  19  36  62  90 119 153 201 243 300 361
#     4  11  20  31  54  93 122 152 195 246 296 358
#     4  11  22  36  56  85 125 156 192 250 311 348
#
# _framework density 18.845873000000001
#
# number of rings (size 3 to 8) (size 9 to 14) (size 15 to 20)
#    0.000    1.067    6.667    2.400    3.733    0.000 
#    0.000    2.000    0.000    0.000    0.000    0.000 
#    0.000    0.000    0.000    0.000    0.000    0.000 
#
# Total GULP energy -167422.474574 kJ/mol
# GULP energy per Si atom -5580.749152 kJ/mol
# Density = 1.880298 g / cm^3
# Si number density = 18.845873 Si / 1000 Ang^3
#
#
#
# Elastic Constant Matrix: (Units=GPa)
#
#
# Indices 1 2 3 4 5 6 
#
# 1 102.5909 35.8076 23.2390 0.0000 37.5611 0.0000
# 2 35.8076 63.2331 2.7947 0.0000 11.9615 0.0000
# 3 23.2390 2.7947 51.9440 0.0000 13.5282 0.0000
# 4 0.0000 0.0000 0.0000 9.7394 0.0000 8.6512
# 5 37.5611 11.9615 13.5282 0.0000 26.6529 0.0000
# 6 0.0000 0.0000 0.0000 8.6512 0.0000 34.2770
#
#
#
# Elastic Compliance Matrix: (Units=1/GPa)
#
#
# Indices 1 2 3 4 5 6 
#
# 1 0.023344 -0.007800 -0.002729 0.000000 -0.028013 0.000000
# 2 -0.007800 0.019959 0.002173 0.000000 0.000931 0.000000
# 3 -0.002729 0.002173 0.022595 0.000000 -0.008598 0.000000
# 4 0.000000 0.000000 0.000000 0.132347 0.000000 -0.033403
# 5 -0.028013 0.000931 -0.008598 0.000000 0.080943 0.000000
# 6 0.000000 0.000000 0.000000 -0.033403 0.000000 0.037605
#
#
# Mechanical properties :
#
#
# Convention : Reuss Voigt Hill
#
# Bulk Modulus (GPa) = 20.33046 37.93896 29.13471
# Shear Modulus (GPa) = 14.28989 24.52897 19.40943
#
# Velocity S-wave (km/s) = 2.75662 3.61162 3.21269
# Velocity P-wave (km/s) = 4.57637 6.12916 5.40878
#
# Compressibility (1/GPa) = 0.04918727
#
# Stress axis : x y z
#
# Youngs Moduli (GPa) = 42.83769 50.10266 44.25833
#
# Poissons Ratio (x) = 0.39078 0.12076
# Poissons Ratio (y) = 0.33412 -0.09618
# Poissons Ratio (z) = 0.11689 -0.10888
#
# Static dielectric constant tensor:
#      x y z
#    x 1.711890 0.000000 0.038730 
#    y 0.000000 1.691150 0.000000 
#    z 0.038730 0.000000 1.636900 
# 
# From -- ./inp_files/72370.got.cif
#   From: 2010.05.17/outbox.cif.g08.bks.cpg/sg13_37_cif.got.tgz:72370.got - 2010.06.03 16:44:36.
