data_PCOD9227263
_publ_section_title
;
Structure prediction by ZEFSAII (Michael W. Deem and Ramdas Pophale) SiO2 
 PCOD9227263
Probable space group: P 2/C
;
_chemical_formula_sum "Si O2"
_cell_formula_units_Z 26
_cell_length_a 14.442828
_cell_length_b 20.640205
_cell_length_c 9.468358
_cell_angle_alpha 90.000000
_cell_angle_beta 148.504231
_cell_angle_gamma 90.000000
_cell_volume 1474.598131
_symmetry_space_group_name_H-M "P 2/C"
_symmetry_group_IT_number 13
_symmetry_cell_setting 'monoclinic'
loop_
_space_group_symop_operation_xyz
x,y,z
-x,y,1/2-z
-x,-y,-z
x,-y,1/2+z
loop_
_atom_site_type_symbol
_atom_site_label
_atom_site_fract_x
_atom_site_fract_y
_atom_site_fract_z
Si Si1 0.342443 0.647189 0.931169
Si Si2 0.294091 0.792618 0.921722
Si Si3 0.403316 0.447977 0.272488
Si Si4 0.000000 0.152870 0.250000
Si Si5 0.894044 0.463923 0.239952
Si Si6 0.684962 0.926749 0.663094
Si Si7 0.268642 0.047821 0.606320
O O1 0.274134 0.720373 0.837244
O O2 0.395742 0.618418 0.849031
O O3 0.214159 0.592300 0.825273
O O4 0.500000 0.648104 0.250000
O O5 0.273607 0.850585 0.782284
O O6 0.137197 0.806018 0.832403
O O7 0.500000 0.799063 0.250000
O O8 0.500000 0.440023 0.250000
O O9 0.500000 0.500000 0.500000
O O10 0.220447 0.481640 0.990094
O O11 0.136624 0.101467 0.499393
O O12 0.000000 0.431821 0.250000
O O13 0.000000 0.500000 0.500000
O O14 0.737990 0.948578 0.572737
O O15 0.472476 0.934108 0.404699
O O16 0.768849 0.976718 0.882009
#
# Coordination Sequence:
#
# PCOD9227263 Si02
#       7
#     4   4   4   2   4   4   4
#     4  11  23  38  59  83 114 158 193 234 304 362
#     4  10  20  36  54  81 120 149 192 239 290 359
#     4  12  20  39  61  86 112 151 198 242 289 359
#     4  10  18  34  56  88 108 154 198 242 282 350
#     4  12  22  35  58  87 116 143 190 251 297 335
#     4   9  16  34  52  81 112 147 184 247 279 337
#     4   9  17  28  56  79 107 143 193 232 291 324
#
# _framework density 17.631923
#
# number of rings (size 3 to 8) (size 9 to 14) (size 15 to 20)
#    0.000    1.538    7.692    0.000    1.077    2.462 
#    0.000    0.000    6.769    3.692    0.000    0.000 
#    0.000    0.000    0.000    0.000    0.000    0.000 
#
# Total GULP energy -144742.045270 kJ/mol
# GULP energy per Si atom -5567.001741 kJ/mol
# Density = 1.759179 g / cm^3
# Si number density = 17.631923 Si / 1000 Ang^3
#
#
#
# Elastic Constant Matrix: (Units=GPa)
#
#
# Indices 1 2 3 4 5 6 
#
# 1 107.7203 47.8998 25.4780 0.0000 4.0304 0.0000
# 2 47.8998 168.4062 36.9706 0.0000 -8.8059 0.0000
# 3 25.4780 36.9706 64.1481 0.0000 -5.7401 0.0000
# 4 0.0000 0.0000 0.0000 14.7328 0.0000 -10.8986
# 5 4.0304 -8.8059 -5.7401 0.0000 23.4449 0.0000
# 6 0.0000 0.0000 0.0000 -10.8986 0.0000 25.5181
#
#
#
# Elastic Compliance Matrix: (Units=1/GPa)
#
#
# Indices 1 2 3 4 5 6 
#
# 1 0.011417 -0.002720 -0.003306 0.000000 -0.003794 0.000000
# 2 -0.002720 0.007508 -0.003019 0.000000 0.002548 0.000000
# 3 -0.003306 -0.003019 0.019008 0.000000 0.004088 0.000000
# 4 0.000000 0.000000 0.000000 0.099226 0.000000 0.042379
# 5 -0.003794 0.002548 0.004088 0.000000 0.045263 0.000000
# 6 0.000000 0.000000 0.000000 0.042379 0.000000 0.057288
#
#
# Mechanical properties :
#
#
# Convention : Reuss Voigt Hill
#
# Bulk Modulus (GPa) = 50.39713 62.33017 56.36365
# Shear Modulus (GPa) = 18.90987 28.06757 23.48872
#
# Velocity S-wave (km/s) = 3.27843 3.99414 3.65385
# Velocity P-wave (km/s) = 6.55559 7.52983 7.05954
#
# Compressibility (1/GPa) = 0.01984240
#
# Stress axis : x y z
#
# Youngs Moduli (GPa) = 87.59127 133.19959 52.61033
#
# Poissons Ratio (x) = 0.36227 0.17395
# Poissons Ratio (y) = 0.23823 0.15881
# Poissons Ratio (z) = 0.28961 0.40207
#
# Static dielectric constant tensor:
#      x y z
#    x 1.546660 0.000000 0.045790 
#    y 0.000000 1.612210 0.000000 
#    z 0.045790 0.000000 1.635110 
# 
# From -- ./inp_files/20193.got.cif
#   From: 2010.05.17/outbox.cif.g08.bks.cpg/sg13_11_cif.got.tgz:20193.got - 2010.06.03 16:44:36.
