data_PCOD9227997
_publ_section_title
;
Structure prediction by ZEFSAII (Michael W. Deem and Ramdas Pophale) SiO2 
 PCOD9227997
Probable space group: P 2/C
;
_chemical_formula_sum "Si O2"
_cell_formula_units_Z 32
_cell_length_a 19.003265
_cell_length_b 9.376530
_cell_length_c 25.348240
_cell_angle_alpha 90.000000
_cell_angle_beta 161.021873
_cell_angle_gamma 90.000000
_cell_volume 1468.852881
_symmetry_space_group_name_H-M "P 2/C"
_symmetry_group_IT_number 13
_symmetry_cell_setting 'monoclinic'
loop_
_space_group_symop_operation_xyz
x,y,z
-x,y,1/2-z
-x,-y,-z
x,-y,1/2+z
loop_
_atom_site_type_symbol
_atom_site_label
_atom_site_fract_x
_atom_site_fract_y
_atom_site_fract_z
Si Si1 0.371243 0.330469 0.390762
Si Si2 0.482620 0.659157 0.391482
Si Si3 0.726032 0.105976 0.878189
Si Si4 0.662561 0.570619 0.318753
Si Si5 0.781393 0.196554 0.623409
Si Si6 0.069265 0.458100 0.609295
Si Si7 0.164163 0.023935 0.243496
Si Si8 0.478017 0.969187 0.369002
O O1 0.416454 0.390134 0.481842
O O2 0.595608 0.296765 0.518308
O O3 0.209350 0.424090 0.240067
O O4 0.252744 0.181308 0.320028
O O5 0.458958 0.555125 0.323879
O O6 0.224863 0.676594 0.221442
O O7 0.576499 0.809013 0.438161
O O8 0.500000 0.100819 0.750000
O O9 0.773315 0.271655 0.896245
O O10 0.683225 0.021782 0.794084
O O11 0.926999 0.043747 0.051701
O O12 0.500000 0.586374 0.250000
O O13 0.827121 0.451382 0.457412
O O14 0.000000 0.254676 0.750000
O O15 0.842306 0.086410 0.713327
O O16 0.651589 0.094487 0.490880
O O17 0.000000 0.500000 0.500000
O O18 0.342137 0.978281 0.326413
#
# Coordination Sequence:
#
# PCOD9227997 Si02
#       8
#     4   4   4   4   4   4   4   4
#     4  11  20  39  57  88 113 154 203 243 292 361
#     4  10  19  36  61  83 113 155 199 242 289 360
#     4  10  19  31  52  82 113 142 185 242 287 340
#     4   9  19  36  57  85 116 147 194 254 299 336
#     4  11  22  37  58  84 124 156 187 247 304 354
#     4  10  21  38  62  83 111 157 200 243 298 352
#     4  11  19  35  58  79 114 152 192 238 292 354
#     4  10  19  35  55  83 112 150 197 229 287 354
#
# _framework density 21.785709000000001
#
# number of rings (size 3 to 8) (size 9 to 14) (size 15 to 20)
#    0.000    1.750    3.750    2.250    0.000    0.000 
#    0.000    3.125    0.000    0.750    0.000    0.000 
#    0.000    0.000    0.000    0.000    0.000    0.000 
#
# Total GULP energy -178240.339514 kJ/mol
# GULP energy per Si atom -5570.010610 kJ/mol
# Density = 2.173612 g / cm^3
# Si number density = 21.785709 Si / 1000 Ang^3
#
#
#
# Elastic Constant Matrix: (Units=GPa)
#
#
# Indices 1 2 3 4 5 6 
#
# 1 75.2875 8.3692 46.0406 0.0000 -22.1699 0.0000
# 2 8.3692 43.0791 15.7623 0.0000 -13.3926 0.0000
# 3 46.0406 15.7623 112.7389 0.0000 -27.3490 0.0000
# 4 0.0000 0.0000 0.0000 18.6034 0.0000 -6.6328
# 5 -22.1699 -13.3926 -27.3490 0.0000 36.6517 0.0000
# 6 0.0000 0.0000 0.0000 -6.6328 0.0000 0.7938
#
#
#
# Elastic Compliance Matrix: (Units=1/GPa)
#
#
# Indices 1 2 3 4 5 6 
#
# 1 0.019088 0.000795 -0.006148 0.000000 0.007249 0.000000
# 2 0.000795 0.026471 -0.001908 0.000000 0.008730 0.000000
# 3 -0.006148 -0.001908 0.012914 0.000000 0.005220 0.000000
# 4 0.000000 0.000000 0.000000 -0.027161 0.000000 -0.226947
# 5 0.007249 0.008730 0.005220 0.000000 0.038754 0.000000
# 6 0.000000 0.000000 0.000000 -0.226947 0.000000 -0.636532
#
#
# Mechanical properties :
#
#
# Convention : Reuss Voigt Hill
#
# Bulk Modulus (GPa) = 22.75270 41.27219 32.01244
# Shear Modulus (GPa) = -9.30589 21.93868 6.31640
#
# Velocity S-wave (km/s) = -2.06902 3.17680 1.70459
# Velocity P-wave (km/s) = 2.18146 5.69577 4.31281
#
# Compressibility (1/GPa) = 0.04395083
#
# Stress axis : x y z
#
# Youngs Moduli (GPa) = 52.38800 37.77772 77.43616
#
# Poissons Ratio (x) = -0.03002 0.47607
# Poissons Ratio (y) = -0.04163 0.14773
# Poissons Ratio (z) = 0.32208 0.07207
#
# Static dielectric constant tensor:
#      x y z
#    x 2.040020 0.000000 0.177310 
#    y 0.000000 1.959730 0.000000 
#    z 0.177310 0.000000 1.945520 
# 
# From -- ./inp_files/76415.got.cif
#   From: 2010.05.17/outbox.cif.g08.bks.cpg/sg13_39_cif.got.tgz:76415.got - 2010.06.03 16:44:36.
