data_PCOD9227226
_publ_section_title
;
Structure prediction by ZEFSAII (Michael W. Deem and Ramdas Pophale) SiO2 
 PCOD9227226
Probable space group: P 2/C
;
_chemical_formula_sum "Si O2"
_cell_formula_units_Z 30
_cell_length_a 12.881485
_cell_length_b 11.711590
_cell_length_c 21.825296
_cell_angle_alpha 90.000000
_cell_angle_beta 22.197149
_cell_angle_gamma 90.000000
_cell_volume 1243.935361
_symmetry_space_group_name_H-M "P 2/C"
_symmetry_group_IT_number 13
_symmetry_cell_setting 'monoclinic'
loop_
_space_group_symop_operation_xyz
x,y,z
-x,y,1/2-z
-x,-y,-z
x,-y,1/2+z
loop_
_atom_site_type_symbol
_atom_site_label
_atom_site_fract_x
_atom_site_fract_y
_atom_site_fract_z
Si Si1 0.324725 0.404147 0.499499
Si Si2 0.400955 0.652818 0.416680
Si Si3 0.728891 0.878797 0.269283
Si Si4 0.020735 0.608728 0.427324
Si Si5 0.000000 0.133080 0.250000
Si Si6 0.098901 0.351020 0.381156
Si Si7 0.428377 0.792104 0.020751
Si Si8 0.731167 0.037737 0.995658
O O1 0.324021 0.543457 0.501517
O O2 0.089344 0.362626 0.580599
O O3 0.316385 0.334744 0.567778
O O4 0.615794 0.367621 0.309325
O O5 0.583284 0.756941 0.341957
O O6 0.133438 0.709450 0.532242
O O7 0.652259 0.605835 0.238163
O O8 0.715859 0.875925 0.350979
O O9 0.041853 0.909540 0.083591
O O10 0.537356 0.967847 0.338392
O O11 0.948744 0.474988 0.467168
O O12 0.880070 0.679371 0.558818
O O13 0.252581 0.208305 0.135793
O O14 0.115891 0.054276 0.132082
O O15 0.384648 0.859234 0.981643
#
# Coordination Sequence:
#
# PCOD9227226 Si02
#       8
#     4   4   4   4   2   4   4   4
#     4  10  21  34  54  84 119 146 180 212 273 347
#     4  10  21  35  53  86 117 146 176 218 276 345
#     4  11  22  35  58  80 115 143 186 231 274 315
#     4   9  17  35  54  78 110 143 182 232 267 307
#     4  10  18  34  52  76 102 140 192 234 258 286
#     4   9  18  32  56  79 107 145 186 225 265 314
#     4  11  21  33  56  79 113 146 182 224 267 318
#     4  11  19  37  56  80 102 143 194 244 266 296
#
# _framework density 24.117010000000001
#
# number of rings (size 3 to 8) (size 9 to 14) (size 15 to 20)
#    0.000    1.867    2.667    2.400    3.733    3.733 
#    0.000    0.000    2.933    0.000    0.000   16.800 
#    0.000    0.000    0.000    0.000    0.000    0.000 
#
# Total GULP energy -167071.596000 kJ/mol
# GULP energy per Si atom -5569.053200 kJ/mol
# Density = 2.406212 g / cm^3
# Si number density = 24.117010 Si / 1000 Ang^3
#
#
#
# Elastic Constant Matrix: (Units=GPa)
#
#
# Indices 1 2 3 4 5 6 
#
# 1 60.7758 26.1070 35.1440 0.0000 -37.1296 0.0000
# 2 26.1070 90.1107 12.1517 0.0000 -19.1031 0.0000
# 3 35.1440 12.1517 84.1950 0.0000 -36.0300 0.0000
# 4 0.0000 0.0000 0.0000 47.0506 0.0000 -34.6903
# 5 -37.1296 -19.1031 -36.0300 0.0000 41.3215 0.0000
# 6 0.0000 0.0000 0.0000 -34.6903 0.0000 46.5220
#
#
#
# Elastic Compliance Matrix: (Units=1/GPa)
#
#
# Indices 1 2 3 4 5 6 
#
# 1 0.038130 -0.004326 -0.002370 0.000000 0.030195 0.000000
# 2 -0.004326 0.012853 0.001324 0.000000 0.003209 0.000000
# 3 -0.002370 0.001324 0.019184 0.000000 0.015210 0.000000
# 4 0.000000 0.000000 0.000000 0.047208 0.000000 0.035202
# 5 0.030195 0.003209 0.015210 0.000000 0.066079 0.000000
# 6 0.000000 0.000000 0.000000 0.035202 0.000000 0.047744
#
#
# Mechanical properties :
#
#
# Convention : Reuss Voigt Hill
#
# Bulk Modulus (GPa) = 16.82850 42.43186 29.63018
# Shear Modulus (GPa) = 19.10228 37.75740 28.42984
#
# Velocity S-wave (km/s) = 2.81742 3.96105 3.43713
# Velocity P-wave (km/s) = 4.19247 6.20904 5.29760
#
# Compressibility (1/GPa) = 0.05942301
#
# Stress axis : x y z
#
# Youngs Moduli (GPa) = 26.22628 77.80532 52.12580
#
# Poissons Ratio (x) = 0.33660 0.12352
# Poissons Ratio (y) = 0.11346 -0.06902
# Poissons Ratio (z) = 0.06215 -0.10302
#
# Static dielectric constant tensor:
#      x y z
#    x 2.220210 0.000000 0.124400 
#    y 0.000000 2.096900 0.000000 
#    z 0.124400 0.000000 2.072010 
# 
# From -- ./inp_files/92926.got.cif
#   From: 2010.05.17/outbox.cif.g08.bks.cpg/sg13_47_cif.got.tgz:92926.got - 2010.06.03 16:44:36.
