data_PCOD9227285
_publ_section_title
;
Structure prediction by ZEFSAII (Michael W. Deem and Ramdas Pophale) SiO2 
 PCOD9227285
Probable space group: P 2/C
;
_chemical_formula_sum "Si O2"
_cell_formula_units_Z 26
_cell_length_a 9.378569
_cell_length_b 10.735108
_cell_length_c 21.468768
_cell_angle_alpha 90.000000
_cell_angle_beta 35.984195
_cell_angle_gamma 90.000000
_cell_volume 1270.000424
_symmetry_space_group_name_H-M "P 2/C"
_symmetry_group_IT_number 13
_symmetry_cell_setting 'monoclinic'
loop_
_space_group_symop_operation_xyz
x,y,z
-x,y,1/2-z
-x,-y,-z
x,-y,1/2+z
loop_
_atom_site_type_symbol
_atom_site_label
_atom_site_fract_x
_atom_site_fract_y
_atom_site_fract_z
Si Si1 0.509066 0.122573 0.607347
Si Si2 0.278360 0.857195 0.674155
Si Si3 0.443516 0.701081 0.022044
Si Si4 0.254555 0.317724 0.304077
Si Si5 0.098955 0.513649 0.644088
Si Si6 0.040418 0.920593 0.923873
Si Si7 0.500000 0.915008 0.250000
O O1 0.415395 0.235426 0.599118
O O2 0.540369 0.154072 0.669873
O O3 0.776231 0.084902 0.485984
O O4 0.341629 0.001623 0.660222
O O5 0.474952 0.803885 0.556248
O O6 0.301023 0.772476 0.728012
O O7 0.000000 0.842608 0.750000
O O8 0.205671 0.621651 0.090403
O O9 0.672941 0.607579 0.941230
O O10 0.500000 0.358377 0.250000
O O11 0.117599 0.223729 0.399917
O O12 0.098630 0.431499 0.333153
O O13 0.000000 0.515444 0.750000
O O14 0.270014 0.996115 0.817088
O O15 0.000000 0.000000 0.000000
#
# Coordination Sequence:
#
# PCOD9227285 Si02
#       7
#     4   4   4   4   4   4   2
#     4  11  22  37  66 103 141 177 221 282 346 420
#     4  12  22  41  67 102 139 177 230 276 347 425
#     4  11  23  41  69  94 128 185 236 280 336 401
#     4  12  20  39  70  99 130 184 229 280 343 412
#     4  11  23  45  70  89 132 180 238 287 332 399
#     4  10  18  34  57  97 138 175 212 264 341 411
#     4  10  20  36  62  98 150 178 206 278 352 412
#
# _framework density 20.472435000000001
#
# number of rings (size 3 to 8) (size 9 to 14) (size 15 to 20)
#    0.000    0.923    6.923    1.385    0.000    0.615 
#    2.769    0.769    1.692    0.000    0.000    0.000 
#    0.000    0.000    0.000    0.000    0.000    0.000 
#
# Total GULP energy -145042.541292 kJ/mol
# GULP energy per Si atom -5578.559280 kJ/mol
# Density = 2.042584 g / cm^3
# Si number density = 20.472435 Si / 1000 Ang^3
#
#
#
# Elastic Constant Matrix: (Units=GPa)
#
#
# Indices 1 2 3 4 5 6 
#
# 1 102.7615 47.4874 49.5686 0.0000 -10.4398 0.0000
# 2 47.4874 77.7560 49.4530 0.0000 8.0687 0.0000
# 3 49.5686 49.4530 91.2093 0.0000 0.8957 0.0000
# 4 0.0000 0.0000 0.0000 44.1072 0.0000 -38.3313
# 5 -10.4398 8.0687 0.8957 0.0000 35.8281 0.0000
# 6 0.0000 0.0000 0.0000 -38.3313 0.0000 60.9716
#
#
#
# Elastic Compliance Matrix: (Units=1/GPa)
#
#
# Indices 1 2 3 4 5 6 
#
# 1 0.016171 -0.007514 -0.004778 0.000000 0.006524 0.000000
# 2 -0.007514 0.023760 -0.008727 0.000000 -0.007322 0.000000
# 3 -0.004778 -0.008727 0.018291 0.000000 0.000116 0.000000
# 4 0.000000 0.000000 0.000000 0.049977 0.000000 0.031419
# 5 0.006524 -0.007322 0.000116 0.000000 0.031458 0.000000
# 6 0.000000 0.000000 0.000000 0.031419 0.000000 0.036153
#
#
# Mechanical properties :
#
#
# Convention : Reuss Voigt Hill
#
# Bulk Modulus (GPa) = 61.79116 62.74943 62.27029
# Shear Modulus (GPa) = 22.39696 36.52922 29.46309
#
# Velocity S-wave (km/s) = 3.31116 4.22869 3.79774
# Velocity P-wave (km/s) = 6.69825 7.38645 7.05075
#
# Compressibility (1/GPa) = 0.01618354
#
# Stress axis : x y z
#
# Youngs Moduli (GPa) = 61.83770 42.08759 54.67086
#
# Poissons Ratio (x) = 0.31625 0.26124
# Poissons Ratio (y) = 0.46465 0.47711
# Poissons Ratio (z) = 0.29549 0.36730
#
# Static dielectric constant tensor:
#      x y z
#    x 1.720980 0.000000 0.027690 
#    y 0.000000 1.724000 0.000000 
#    z 0.027690 0.000000 1.802530 
# 
# From -- ./inp_files/76365.got.cif
#   From: 2010.05.17/outbox.cif.g08.bks.cpg/sg13_39_cif.got.tgz:76365.got - 2010.06.03 16:44:36.
