data_PCOD9227606
_publ_section_title
;
Structure prediction by ZEFSAII (Michael W. Deem and Ramdas Pophale) SiO2 
 PCOD9227606
Probable space group: P 2/C
;
_chemical_formula_sum "Si O2"
_cell_formula_units_Z 30
_cell_length_a 11.995439
_cell_length_b 9.592756
_cell_length_c 16.780650
_cell_angle_alpha 90.000000
_cell_angle_beta 140.901468
_cell_angle_gamma 90.000000
_cell_volume 1217.757473
_symmetry_space_group_name_H-M "P 2/C"
_symmetry_group_IT_number 13
_symmetry_cell_setting 'monoclinic'
loop_
_space_group_symop_operation_xyz
x,y,z
-x,y,1/2-z
-x,-y,-z
x,-y,1/2+z
loop_
_atom_site_type_symbol
_atom_site_label
_atom_site_fract_x
_atom_site_fract_y
_atom_site_fract_z
Si Si1 0.626635 0.352379 0.201813
Si Si2 0.705767 0.157395 0.725118
Si Si3 0.168341 0.126101 0.119819
Si Si4 0.500000 0.180182 0.750000
Si Si5 0.882231 0.577679 0.290305
Si Si6 0.740806 0.498838 0.534859
Si Si7 0.166010 0.936319 0.979040
Si Si8 0.656504 0.200695 0.050138
O O1 0.687421 0.246081 0.302853
O O2 0.756912 0.483472 0.275293
O O3 0.670404 0.259666 0.146623
O O4 0.428857 0.409952 0.084945
O O5 0.626914 0.246427 0.756188
O O6 0.859116 0.256512 0.780352
O O7 0.544640 0.149246 0.573553
O O8 0.756145 0.007895 0.788784
O O9 0.126197 0.076345 0.006711
O O10 0.987472 0.161521 0.067881
O O11 0.636293 0.094000 0.879383
O O12 0.803373 0.541181 0.158930
O O13 0.082187 0.530813 0.415363
O O14 0.690347 0.661810 0.513706
O O15 0.199348 0.910200 0.903696
#
# Coordination Sequence:
#
# PCOD9227606 Si02
#       8
#     4   4   4   2   4   4   4   4
#     4  11  20  37  61  97 133 159 215 270 310 373
#     4  10  18  37  57  87 118 168 207 253 321 381
#     4  10  22  36  59  89 124 160 214 271 313 367
#     4   8  18  34  66  78 100 164 222 244 296 392
#     4  10  19  35  59  88 133 171 198 260 323 379
#     4  10  19  34  59  96 132 163 209 259 321 374
#     4   9  19  39  58  85 115 164 218 255 307 380
#     4  10  18  36  65  88 121 176 211 246 316 402
#
# _framework density 24.635448
#
# number of rings (size 3 to 8) (size 9 to 14) (size 15 to 20)
#    0.000    2.133    2.667    1.600    0.000    2.133 
#    7.200    1.333    0.000   33.600    0.000    0.000 
#    0.000    0.000    0.000    0.000    0.000    0.000 
#
# Total GULP energy -167273.743247 kJ/mol
# GULP energy per Si atom -5575.791442 kJ/mol
# Density = 2.457938 g / cm^3
# Si number density = 24.635448 Si / 1000 Ang^3
#
#
#
# Elastic Constant Matrix: (Units=GPa)
#
#
# Indices 1 2 3 4 5 6 
#
# 1 38.2351 16.7351 20.9084 0.0000 21.4477 0.0000
# 2 16.7351 102.8322 60.2752 0.0000 13.4022 0.0000
# 3 20.9084 60.2752 129.2681 0.0000 42.6577 0.0000
# 4 0.0000 0.0000 0.0000 36.2387 0.0000 4.3108
# 5 21.4477 13.4022 42.6577 0.0000 33.5769 0.0000
# 6 0.0000 0.0000 0.0000 4.3108 0.0000 19.7108
#
#
#
# Elastic Compliance Matrix: (Units=1/GPa)
#
#
# Indices 1 2 3 4 5 6 
#
# 1 0.045306 -0.007383 0.008079 0.000000 -0.036257 0.000000
# 2 -0.007383 0.014983 -0.009255 0.000000 0.010494 0.000000
# 3 0.008079 -0.009255 0.019334 0.000000 -0.026030 0.000000
# 4 0.000000 0.000000 0.000000 0.028332 0.000000 -0.006196
# 5 -0.036257 0.010494 -0.026030 0.000000 0.081823 0.000000
# 6 0.000000 0.000000 0.000000 -0.006196 0.000000 0.052089
#
#
# Mechanical properties :
#
#
# Convention : Reuss Voigt Hill
#
# Bulk Modulus (GPa) = 15.99881 51.79698 33.89790
# Shear Modulus (GPa) = 17.86864 29.39973 23.63418
#
# Velocity S-wave (km/s) = 2.69610 3.45830 3.10071
# Velocity P-wave (km/s) = 4.02496 6.08420 5.15838
#
# Compressibility (1/GPa) = 0.06250465
#
# Stress axis : x y z
#
# Youngs Moduli (GPa) = 22.07236 66.74039 51.72180
#
# Poissons Ratio (x) = 0.49278 -0.41788
# Poissons Ratio (y) = 0.16297 0.47869
# Poissons Ratio (z) = -0.17833 0.61769
#
# Static dielectric constant tensor:
#      x y z
#    x 2.124900 0.000000 -0.007490 
#    y 0.000000 1.965360 0.000000 
#    z -0.007490 0.000000 1.948960 
# 
# From -- ./inp_files/87336.got.cif
#   From: 2010.05.17/outbox.cif.g08.bks.cpg/sg13_44_cif.got.tgz:87336.got - 2010.06.03 16:44:36.
