data_PCOD9227107
_publ_section_title
;
Structure prediction by ZEFSAII (Michael W. Deem and Ramdas Pophale) SiO2 
 PCOD9227107
Probable space group: P 2/C
;
_chemical_formula_sum "Si O2"
_cell_formula_units_Z 32
_cell_length_a 19.744198
_cell_length_b 8.955292
_cell_length_c 13.307109
_cell_angle_alpha 90.000000
_cell_angle_beta 34.158421
_cell_angle_gamma 90.000000
_cell_volume 1321.111869
_symmetry_space_group_name_H-M "P 2/C"
_symmetry_group_IT_number 13
_symmetry_cell_setting 'monoclinic'
loop_
_space_group_symop_operation_xyz
x,y,z
-x,y,1/2-z
-x,-y,-z
x,-y,1/2+z
loop_
_atom_site_type_symbol
_atom_site_label
_atom_site_fract_x
_atom_site_fract_y
_atom_site_fract_z
Si Si1 0.079273 0.274128 0.485885
Si Si2 0.045893 0.594698 0.578249
Si Si3 0.311698 0.970520 0.399063
Si Si4 0.690074 0.576517 0.186454
Si Si5 0.482820 0.215684 0.945036
Si Si6 0.311858 0.251947 0.325683
Si Si7 0.925004 0.059849 0.444811
Si Si8 0.270552 0.288298 0.078968
O O1 0.999497 0.426850 0.597698
O O2 0.173176 0.272257 0.464755
O O3 0.162889 0.314198 0.287027
O O4 0.046532 0.095828 0.530550
O O5 0.190065 0.572545 0.395793
O O6 0.042621 0.774198 0.549764
O O7 0.000000 0.601629 0.750000
O O8 0.317610 0.145250 0.412310
O O9 0.442334 0.906708 0.208205
O O10 0.213787 0.941246 0.428885
O O11 0.267290 0.884716 0.551329
O O12 0.589971 0.682960 0.354609
O O13 0.635684 0.414720 0.235563
O O14 0.731372 0.632118 0.025472
O O15 0.388219 0.166810 0.145316
O O16 0.398407 0.312485 0.974931
O O17 0.000000 0.048443 0.250000
#
# Coordination Sequence:
#
# PCOD9227107 Si02
#       8
#     4   4   4   4   4   4   4   4
#     4   9  20  36  54  80 108 137 173 216 263 313
#     4  10  19  35  60  80 102 137 181 218 256 306
#     4  10  18  34  54  76 105 138 172 216 262 308
#     4  10  18  34  54  76 105 138 172 216 262 308
#     4  10  18  33  53  72 105 141 171 210 268 307
#     4   9  19  31  54  80  97 134 185 215 247 313
#     4  10  19  35  60  80 102 137 181 218 256 306
#     4  10  20  36  52  72 111 142 162 209 276 313
#
# _framework density 24.222023
#
# number of rings (size 3 to 8) (size 9 to 14) (size 15 to 20)
#    0.000    2.250    2.500    2.625    0.000    0.000 
#    2.250    3.750    0.000    0.000    0.000    0.000 
#    0.000    0.000    0.000    0.000    0.000    0.000 
#
# Total GULP energy -178158.959374 kJ/mol
# GULP energy per Si atom -5567.467480 kJ/mol
# Density = 2.416689 g / cm^3
# Si number density = 24.222023 Si / 1000 Ang^3
#
#
#
# Elastic Constant Matrix: (Units=GPa)
#
#
# Indices 1 2 3 4 5 6 
#
# 1 29.6278 12.9455 13.5125 0.0000 -16.9949 0.0000
# 2 12.9455 162.4192 44.6581 0.0000 5.4399 0.0000
# 3 13.5125 44.6581 64.6171 0.0000 -4.7318 0.0000
# 4 0.0000 0.0000 0.0000 -3.1401 0.0000 -11.5964
# 5 -16.9949 5.4399 -4.7318 0.0000 35.1846 0.0000
# 6 0.0000 0.0000 0.0000 -11.5964 0.0000 10.1856
#
#
#
# Elastic Compliance Matrix: (Units=1/GPa)
#
#
# Indices 1 2 3 4 5 6 
#
# 1 0.052627 -0.003095 -0.007039 0.000000 0.024952 0.000000
# 2 -0.003095 0.007911 -0.005069 0.000000 -0.003400 0.000000
# 3 -0.007039 -0.005069 0.020461 0.000000 0.000135 0.000000
# 4 0.000000 0.000000 0.000000 -0.061190 0.000000 -0.069665
# 5 0.024952 -0.003400 0.000135 0.000000 0.041018 0.000000
# 6 0.000000 0.000000 0.000000 -0.069665 0.000000 0.018864
#
#
# Mechanical properties :
#
#
# Convention : Reuss Voigt Hill
#
# Bulk Modulus (GPa) = 19.76553 44.32182 32.04368
# Shear Modulus (GPa) = 39.38153 20.81590 30.09871
#
# Velocity S-wave (km/s) = 4.03657 2.93470 3.52890
# Velocity P-wave (km/s) = 5.46836 5.46087 5.46462
#
# Compressibility (1/GPa) = 0.05059312
#
# Stress axis : x y z
#
# Youngs Moduli (GPa) = 19.00150 126.40096 48.87276
#
# Poissons Ratio (x) = 0.39120 0.34402
# Poissons Ratio (y) = 0.05881 0.24776
# Poissons Ratio (z) = 0.13375 0.64078
#
# Static dielectric constant tensor:
#      x y z
#    x 2.074950 0.000000 -0.037060 
#    y 0.000000 2.057880 0.000000 
#    z -0.037060 0.000000 1.889730 
# 
# From -- ./inp_files/58801.got.cif
#   From: 2010.05.17/outbox.cif.g08.bks.cpg/sg13_30_cif.got.tgz:58801.got - 2010.06.03 16:44:36.
