data_PCOD9227086
_publ_section_title
;
Structure prediction by ZEFSAII (Michael W. Deem and Ramdas Pophale) SiO2 
 PCOD9227086
Probable space group: P 2/C
;
_chemical_formula_sum "Si O2"
_cell_formula_units_Z 22
_cell_length_a 10.634062
_cell_length_b 11.618070
_cell_length_c 10.358475
_cell_angle_alpha 90.000000
_cell_angle_beta 53.044984
_cell_angle_gamma 90.000000
_cell_volume 1022.667248
_symmetry_space_group_name_H-M "P 2/C"
_symmetry_group_IT_number 13
_symmetry_cell_setting 'monoclinic'
loop_
_space_group_symop_operation_xyz
x,y,z
-x,y,1/2-z
-x,-y,-z
x,-y,1/2+z
loop_
_atom_site_type_symbol
_atom_site_label
_atom_site_fract_x
_atom_site_fract_y
_atom_site_fract_z
Si Si1 0.690394 0.898833 0.608368
Si Si2 0.677675 0.536616 0.540008
Si Si3 0.000000 0.433628 0.250000
Si Si4 0.513158 0.313079 0.544612
Si Si5 0.790136 0.689385 0.692625
Si Si6 0.641589 0.077155 0.852916
O O1 0.500000 0.868871 0.750000
O O2 0.797584 0.796010 0.593859
O O3 0.733295 0.910266 0.431357
O O4 0.710897 0.009561 0.688026
O O5 0.579190 0.418976 0.587470
O O6 0.596568 0.630119 0.497808
O O7 0.704139 0.587021 0.666159
O O8 0.849755 0.508391 0.379130
O O9 0.052769 0.356650 0.338984
O O10 0.671914 0.269805 0.377448
O O11 0.422251 0.201956 0.652378
O O12 0.500000 0.000000 0.000000
#
# Coordination Sequence:
#
# PCOD9227086 Si02
#       6
#     4   4   2   4   4   4
#     4  10  18  32  61  86 121 151 192 248 305 356
#     4  10  20  35  59  85 118 154 191 242 304 355
#     4  10  24  34  54  84 114 162 200 238 284 380
#     4  10  19  34  60  91 118 146 193 250 301 361
#     4  11  18  37  59  81 119 158 196 240 307 352
#     4  10  18  33  56  96 119 151 190 244 308 352
#
# _framework density 21.512374999999999
#
# number of rings (size 3 to 8) (size 9 to 14) (size 15 to 20)
#    0.000    1.818    5.455    1.091    0.000    0.000 
#    0.000   16.364    4.000    2.182    0.000    0.000 
#    0.000    0.000    0.000    0.000    0.000    0.000 
#
# Total GULP energy -122724.083327 kJ/mol
# GULP energy per Si atom -5578.367424 kJ/mol
# Density = 2.146341 g / cm^3
# Si number density = 21.512375 Si / 1000 Ang^3
#
#
#
# Elastic Constant Matrix: (Units=GPa)
#
#
# Indices 1 2 3 4 5 6 
#
# 1 87.2887 28.2660 11.5920 0.0000 14.3726 0.0000
# 2 28.2660 114.3983 7.2341 0.0000 18.2395 0.0000
# 3 11.5920 7.2341 40.3618 0.0000 8.9095 0.0000
# 4 0.0000 0.0000 0.0000 23.1245 0.0000 16.6669
# 5 14.3726 18.2395 8.9095 0.0000 29.6834 0.0000
# 6 0.0000 0.0000 0.0000 16.6669 0.0000 21.4265
#
#
#
# Elastic Compliance Matrix: (Units=1/GPa)
#
#
# Indices 1 2 3 4 5 6 
#
# 1 0.013265 -0.002457 -0.002447 0.000000 -0.004179 0.000000
# 2 -0.002457 0.010153 0.000000 0.000000 -0.005050 0.000000
# 3 -0.002447 0.000000 0.027006 0.000000 -0.006921 0.000000
# 4 0.000000 0.000000 0.000000 0.098426 0.000000 -0.076562
# 5 -0.004179 -0.005050 -0.006921 0.000000 0.040893 0.000000
# 6 0.000000 0.000000 0.000000 -0.076562 0.000000 0.106226
#
#
# Mechanical properties :
#
#
# Convention : Reuss Voigt Hill
#
# Bulk Modulus (GPa) = 24.61937 37.35924 30.98931
# Shear Modulus (GPa) = 15.65853 27.84399 21.75126
#
# Velocity S-wave (km/s) = 2.70086 3.60157 3.18324
# Velocity P-wave (km/s) = 4.60384 5.89060 5.28652
#
# Compressibility (1/GPa) = 0.04061843
#
# Stress axis : x y z
#
# Youngs Moduli (GPa) = 75.38792 98.48879 37.02821
#
# Poissons Ratio (x) = 0.24194 0.09061
# Poissons Ratio (y) = 0.18519 -0.00001
# Poissons Ratio (z) = 0.18447 -0.00004
#
# Static dielectric constant tensor:
#      x y z
#    x 1.828040 0.000000 0.075920 
#    y 0.000000 1.801950 0.000000 
#    z 0.075920 0.000000 1.842330 
# 
# From -- ./inp_files/29325.got.cif
#   From: 2010.05.17/outbox.cif.g08.bks.cpg/sg13_15_cif.got.tgz:29325.got - 2010.06.03 16:44:36.
