data_PCOD9227095
_publ_section_title
;
Structure prediction by ZEFSAII (Michael W. Deem and Ramdas Pophale) SiO2 
 PCOD9227095
Probable space group: P 2/C
;
_chemical_formula_sum "Si O2"
_cell_formula_units_Z 24
_cell_length_a 18.516802
_cell_length_b 9.532274
_cell_length_c 9.415342
_cell_angle_alpha 90.000000
_cell_angle_beta 42.424258
_cell_angle_gamma 90.000000
_cell_volume 1121.126396
_symmetry_space_group_name_H-M "P 2/C"
_symmetry_group_IT_number 13
_symmetry_cell_setting 'monoclinic'
loop_
_space_group_symop_operation_xyz
x,y,z
-x,y,1/2-z
-x,-y,-z
x,-y,1/2+z
loop_
_atom_site_type_symbol
_atom_site_label
_atom_site_fract_x
_atom_site_fract_y
_atom_site_fract_z
Si Si1 0.808546 0.266897 0.707786
Si Si2 0.160138 0.076530 0.567592
Si Si3 0.500000 0.972555 0.250000
Si Si4 0.859937 0.513572 0.332741
Si Si5 0.000000 0.832090 0.750000
Si Si6 0.641274 0.104314 0.798199
Si Si7 0.904327 0.341226 0.029386
O O1 0.782504 0.394786 0.849012
O O2 0.922507 0.260950 0.460436
O O3 0.714574 0.235009 0.734890
O O4 0.821897 0.142128 0.804019
O O5 0.113845 0.192070 0.521220
O O6 0.081899 0.944032 0.700908
O O7 0.273056 0.021436 0.346095
O O8 0.423379 0.885220 0.255122
O O9 0.433446 0.065859 0.459413
O O10 0.867720 0.364295 0.244661
O O11 0.840797 0.544672 0.524105
O O12 0.973823 0.599272 0.148971
#
# Coordination Sequence:
#
# PCOD9227095 Si02
#       7
#     4   4   2   4   2   4   4
#     4  10  19  32  49  78 105 142 169 209 251 315
#     4  10  18  33  50  78 105 144 168 207 254 315
#     4  10  20  38  54  78 104 132 164 232 256 324
#     4   9  18  33  48  71 103 143 179 208 245 289
#     4  10  20  28  46  74 116 138 168 206 244 302
#     4  10  20  35  57  78 106 130 177 205 277 308
#     4   9  18  32  50  69 103 144 178 208 243 292
#
# _framework density 21.407043000000002
#
# number of rings (size 3 to 8) (size 9 to 14) (size 15 to 20)
#    0.000    2.333    1.667    2.500    0.000    4.000 
#    3.000    0.000    0.000    0.000    0.000    7.000 
#    0.000    0.000    0.000    0.000    0.000    0.000 
#
# Total GULP energy -133761.116155 kJ/mol
# GULP energy per Si atom -5573.379840 kJ/mol
# Density = 2.135832 g / cm^3
# Si number density = 21.407043 Si / 1000 Ang^3
#
#
#
# Elastic Constant Matrix: (Units=GPa)
#
#
# Indices 1 2 3 4 5 6 
#
# 1 137.1641 32.7557 25.3166 0.0000 16.3279 0.0000
# 2 32.7557 53.9332 -4.0413 0.0000 5.2656 0.0000
# 3 25.3166 -4.0413 90.6296 0.0000 12.3922 0.0000
# 4 0.0000 0.0000 0.0000 18.0478 0.0000 9.8804
# 5 16.3279 5.2656 12.3922 0.0000 35.8182 0.0000
# 6 0.0000 0.0000 0.0000 9.8804 0.0000 28.5979
#
#
#
# Elastic Compliance Matrix: (Units=1/GPa)
#
#
# Indices 1 2 3 4 5 6 
#
# 1 0.009416 -0.005656 -0.002529 0.000000 -0.002586 0.000000
# 2 -0.005656 0.022350 0.002806 0.000000 -0.001678 0.000000
# 3 -0.002529 0.002806 0.012348 0.000000 -0.003532 0.000000
# 4 0.000000 0.000000 0.000000 0.068333 0.000000 -0.023609
# 5 -0.002586 -0.001678 -0.003532 0.000000 0.030566 0.000000
# 6 0.000000 0.000000 0.000000 -0.023609 0.000000 0.043124
#
#
# Mechanical properties :
#
#
# Convention : Reuss Voigt Hill
#
# Bulk Modulus (GPa) = 29.97804 43.30987 36.64395
# Shear Modulus (GPa) = 24.03682 31.67252 27.85467
#
# Velocity S-wave (km/s) = 3.35453 3.85065 3.61112
# Velocity P-wave (km/s) = 5.38869 6.32815 5.87722
#
# Compressibility (1/GPa) = 0.03335775
#
# Stress axis : x y z
#
# Youngs Moduli (GPa) = 106.20580 44.74189 80.98220
#
# Poissons Ratio (x) = 0.25304 0.20479
# Poissons Ratio (y) = 0.60065 -0.22723
# Poissons Ratio (z) = 0.26857 -0.12554
#
# Static dielectric constant tensor:
#      x y z
#    x 1.843380 0.000000 0.052320 
#    y 0.000000 1.852820 0.000000 
#    z 0.052320 0.000000 1.848080 
# 
# From -- ./inp_files/21529.got.cif
#   From: 2010.05.17/outbox.cif.g08.bks.cpg/sg13_11_cif.got.tgz:21529.got - 2010.06.03 16:44:36.
