data_PCOD9227487
_publ_section_title
;
Structure prediction by ZEFSAII (Michael W. Deem and Ramdas Pophale) SiO2 
 PCOD9227487
Probable space group: P 2/C
;
_chemical_formula_sum "Si O2"
_cell_formula_units_Z 30
_cell_length_a 18.111889
_cell_length_b 6.300064
_cell_length_c 19.024061
_cell_angle_alpha 90.000000
_cell_angle_beta 32.928002
_cell_angle_gamma 90.000000
_cell_volume 1179.992338
_symmetry_space_group_name_H-M "P 2/C"
_symmetry_group_IT_number 13
_symmetry_cell_setting 'monoclinic'
loop_
_space_group_symop_operation_xyz
x,y,z
-x,y,1/2-z
-x,-y,-z
x,-y,1/2+z
loop_
_atom_site_type_symbol
_atom_site_label
_atom_site_fract_x
_atom_site_fract_y
_atom_site_fract_z
Si Si1 0.368081 0.026561 0.958997
Si Si2 0.429173 0.375561 0.993700
Si Si3 0.256042 0.591324 0.457564
Si Si4 0.721492 0.648447 0.214355
Si Si5 0.500000 0.259007 0.250000
Si Si6 0.097958 0.699021 0.901846
Si Si7 0.824210 0.345458 0.858781
Si Si8 0.925405 0.102579 0.649338
O O1 0.381521 0.130149 0.025980
O O2 0.330253 0.217162 0.937402
O O3 0.488968 0.889476 0.828034
O O4 0.240805 0.870552 0.060495
O O5 0.559943 0.344536 0.837542
O O6 0.500000 0.500000 0.000000
O O7 0.302858 0.523233 0.073161
O O8 0.214130 0.665853 0.414300
O O9 0.367392 0.406190 0.356095
O O10 0.143633 0.496330 0.600536
O O11 0.758242 0.414028 0.213623
O O12 0.794996 0.814149 0.207559
O O13 0.082329 0.846992 0.845996
O O14 0.000000 0.500000 0.000000
O O15 0.062613 0.846664 0.996327
O O16 0.920438 0.249551 0.721872
#
# Coordination Sequence:
#
# PCOD9227487 Si02
#       8
#     4   4   4   4   2   4   4   4
#     4  10  21  34  55  77 121 167 197 233 300 356
#     4  11  22  35  53  93 130 155 194 244 299 362
#     4  10  21  36  56  85 120 158 202 249 297 359
#     4  11  21  37  61  87 121 154 198 250 300 357
#     4  10  18  36  54  78 114 170 208 234 286 362
#     4   9  22  40  63  84 112 155 200 251 306 348
#     4  10  22  38  58  88 125 164 197 241 304 366
#     4  10  21  40  62  88 115 154 206 251 299 365
#
# _framework density 25.423895999999999
#
# number of rings (size 3 to 8) (size 9 to 14) (size 15 to 20)
#    0.000    1.867    1.333    3.600    1.867    5.867 
#    0.000    0.667    0.000    0.000    0.000    0.000 
#    0.000    0.000    0.000    0.000    0.000    0.000 
#
# Total GULP energy -167340.158936 kJ/mol
# GULP energy per Si atom -5578.005298 kJ/mol
# Density = 2.536603 g / cm^3
# Si number density = 25.423896 Si / 1000 Ang^3
#
#
#
# Elastic Constant Matrix: (Units=GPa)
#
#
# Indices 1 2 3 4 5 6 
#
# 1 55.8920 11.8928 7.0227 0.0000 6.5616 0.0000
# 2 11.8928 104.7900 16.7258 0.0000 -2.3502 0.0000
# 3 7.0227 16.7258 99.2523 0.0000 7.5330 0.0000
# 4 0.0000 0.0000 0.0000 39.6110 0.0000 12.7513
# 5 6.5616 -2.3502 7.5330 0.0000 36.8424 0.0000
# 6 0.0000 0.0000 0.0000 12.7513 0.0000 21.5621
#
#
#
# Elastic Compliance Matrix: (Units=1/GPa)
#
#
# Indices 1 2 3 4 5 6 
#
# 1 0.018820 -0.002095 -0.000725 0.000000 -0.003337 0.000000
# 2 -0.002095 0.010075 -0.001652 0.000000 0.001354 0.000000
# 3 -0.000725 -0.001652 0.010567 0.000000 -0.002137 0.000000
# 4 0.000000 0.000000 0.000000 0.031182 0.000000 -0.018440
# 5 -0.003337 0.001354 -0.002137 0.000000 0.028260 0.000000
# 6 0.000000 0.000000 0.000000 -0.018440 0.000000 0.057283
#
#
# Mechanical properties :
#
#
# Convention : Reuss Voigt Hill
#
# Bulk Modulus (GPa) = 32.76848 36.80187 34.78517
# Shear Modulus (GPa) = 28.52175 34.55595 31.53885
#
# Velocity S-wave (km/s) = 3.35303 3.69072 3.52592
# Velocity P-wave (km/s) = 5.28273 5.71565 5.50345
#
# Compressibility (1/GPa) = 0.03051713
#
# Stress axis : x y z
#
# Youngs Moduli (GPa) = 53.13394 99.25804 94.63174
#
# Poissons Ratio (x) = 0.20795 0.06864
# Poissons Ratio (y) = 0.11132 0.15636
# Poissons Ratio (z) = 0.03854 0.16400
#
# Static dielectric constant tensor:
#      x y z
#    x 2.152060 0.000000 0.025450 
#    y 0.000000 2.063590 0.000000 
#    z 0.025450 0.000000 2.123400 
# 
# From -- ./inp_files/81382.got.cif
#   From: 2010.05.17/outbox.cif.g08.bks.cpg/sg13_41_cif.got.tgz:81382.got - 2010.06.03 16:44:36.
