data_PCOD9227803
_publ_section_title
;
Structure prediction by ZEFSAII (Michael W. Deem and Ramdas Pophale) SiO2 
 PCOD9227803
Probable space group: P 2/C
;
_chemical_formula_sum "Si O2"
_cell_formula_units_Z 22
_cell_length_a 15.311799
_cell_length_b 7.046630
_cell_length_c 12.749700
_cell_angle_alpha 90.000000
_cell_angle_beta 41.899158
_cell_angle_gamma 90.000000
_cell_volume 918.688176
_symmetry_space_group_name_H-M "P 2/C"
_symmetry_group_IT_number 13
_symmetry_cell_setting 'monoclinic'
loop_
_space_group_symop_operation_xyz
x,y,z
-x,y,1/2-z
-x,-y,-z
x,-y,1/2+z
loop_
_atom_site_type_symbol
_atom_site_label
_atom_site_fract_x
_atom_site_fract_y
_atom_site_fract_z
Si Si1 0.000000 0.719991 0.750000
Si Si2 0.560598 0.663674 0.022170
Si Si3 0.296525 0.793881 0.212420
Si Si4 0.365963 0.315391 0.417051
Si Si5 0.156634 0.547309 0.951833
Si Si6 0.835871 0.158174 0.209374
O O1 0.908860 0.843980 0.755301
O O2 0.079135 0.576906 0.604353
O O3 0.688847 0.762194 0.861893
O O4 0.500000 0.500000 0.000000
O O5 0.438972 0.807817 0.140486
O O6 0.606723 0.537695 0.078715
O O7 0.235139 0.600808 0.310109
O O8 0.192202 0.959763 0.320917
O O9 0.322657 0.780912 0.063953
O O10 0.500000 0.236304 0.250000
O O11 0.255129 0.320056 0.429514
O O12 0.911241 0.306376 0.066882
#
# Coordination Sequence:
#
# PCOD9227803 Si02
#       6
#     2   4   4   4   4   4
#     4  12  28  46  72  98 142 194 246 284 346 418
#     4  10  18  41  71 101 136 173 223 286 352 417
#     4  11  24  42  73 105 141 179 227 295 355 411
#     4  11  20  40  75 107 143 179 228 286 354 421
#     4  12  23  47  71  98 139 187 236 291 341 416
#     4  12  25  46  72 103 138 186 235 285 355 416
#
# _framework density 23.947189999999999
#
# number of rings (size 3 to 8) (size 9 to 14) (size 15 to 20)
#    0.000    0.727    7.273    2.182    0.000    2.182 
#    0.000    5.455    4.000    0.000    0.000    0.000 
#    0.000    0.000    0.000    0.000    0.000    0.000 
#
# Total GULP energy -123065.512450 kJ/mol
# GULP energy per Si atom -5593.886930 kJ/mol
# Density = 2.389269 g / cm^3
# Si number density = 23.947190 Si / 1000 Ang^3
#
#
#
# Elastic Constant Matrix: (Units=GPa)
#
#
# Indices 1 2 3 4 5 6 
#
# 1 116.8712 11.0034 -3.7525 0.0000 -11.6733 0.0000
# 2 11.0034 61.5753 2.9643 0.0000 -6.1377 0.0000
# 3 -3.7525 2.9643 78.3170 0.0000 7.5093 0.0000
# 4 0.0000 0.0000 0.0000 23.7382 0.0000 -1.0824
# 5 -11.6733 -6.1377 7.5093 0.0000 36.7584 0.0000
# 6 0.0000 0.0000 0.0000 -1.0824 0.0000 22.9998
#
#
#
# Elastic Compliance Matrix: (Units=1/GPa)
#
#
# Indices 1 2 3 4 5 6 
#
# 1 0.008948 -0.001354 0.000234 0.000000 0.002568 0.000000
# 2 -0.001354 0.016784 -0.000946 0.000000 0.002566 0.000000
# 3 0.000234 -0.000946 0.013080 0.000000 -0.002756 0.000000
# 4 0.000000 0.000000 0.000000 0.042217 0.000000 0.001987
# 5 0.002568 0.002566 -0.002756 0.000000 0.029011 0.000000
# 6 0.000000 0.000000 0.000000 0.001987 0.000000 0.043572
#
#
# Mechanical properties :
#
#
# Convention : Reuss Voigt Hill
#
# Bulk Modulus (GPa) = 28.83669 30.79933 29.81801
# Shear Modulus (GPa) = 29.53264 33.13585 31.33425
#
# Velocity S-wave (km/s) = 3.51556 3.72385 3.62121
# Velocity P-wave (km/s) = 5.34292 5.60167 5.47383
#
# Compressibility (1/GPa) = 0.03467805
#
# Stress axis : x y z
#
# Youngs Moduli (GPa) = 111.75800 59.58212 76.45331
#
# Poissons Ratio (x) = 0.08069 -0.01787
# Poissons Ratio (y) = 0.15135 0.07234
# Poissons Ratio (z) = -0.02613 0.05637
#
# Static dielectric constant tensor:
#      x y z
#    x 1.938840 0.000000 -0.040270 
#    y 0.000000 1.921080 0.000000 
#    z -0.040270 0.000000 1.958870 
# 
# From -- ./inp_files/55019.got.cif
#   From: 2010.05.17/outbox.cif.g08.bks.cpg/sg13_28_cif.got.tgz:55019.got - 2010.06.03 16:44:36.
