data_PCOD9227698
_publ_section_title
;
Structure prediction by ZEFSAII (Michael W. Deem and Ramdas Pophale) SiO2 
 PCOD9227698
Probable space group: P 2/C
;
_chemical_formula_sum "Si O2"
_cell_formula_units_Z 22
_cell_length_a 12.823971
_cell_length_b 8.886239
_cell_length_c 19.743819
_cell_angle_alpha 90.000000
_cell_angle_beta 156.075408
_cell_angle_gamma 90.000000
_cell_volume 912.428630
_symmetry_space_group_name_H-M "P 2/C"
_symmetry_group_IT_number 13
_symmetry_cell_setting 'monoclinic'
loop_
_space_group_symop_operation_xyz
x,y,z
-x,y,1/2-z
-x,-y,-z
x,-y,1/2+z
loop_
_atom_site_type_symbol
_atom_site_label
_atom_site_fract_x
_atom_site_fract_y
_atom_site_fract_z
Si Si1 0.161641 0.868139 0.678320
Si Si2 0.667466 0.022932 0.439621
Si Si3 0.000000 0.860423 0.250000
Si Si4 0.228430 0.323914 0.087967
Si Si5 0.737005 0.697637 0.628778
Si Si6 0.776609 0.624698 0.224762
O O1 0.162940 0.738876 0.622836
O O2 0.293155 0.808679 0.825435
O O3 0.870955 0.917380 0.521782
O O4 0.359542 0.995433 0.766229
O O5 0.789574 0.042424 0.586279
O O6 0.700534 0.181574 0.418982
O O7 0.117364 0.750973 0.263438
O O8 0.500000 0.413711 0.250000
O O9 0.973427 0.391319 0.903184
O O10 0.515684 0.680693 0.440851
O O11 0.764894 0.533274 0.679248
O O12 0.000000 0.735570 0.750000
#
# Coordination Sequence:
#
# PCOD9227698 Si02
#       6
#     4   4   2   4   4   4
#     4  11  23  41  62  95 130 172 220 266 328 388
#     4  10  22  38  64  89 130 168 218 268 321 389
#     4  10  18  38  62  92 114 170 212 256 330 384
#     4   9  21  41  67  93 126 173 216 261 326 397
#     4  11  24  40  66  99 132 166 214 276 326 382
#     4  10  21  42  68  92 131 163 216 266 332 383
#
# _framework density 24.111478000000002
#
# number of rings (size 3 to 8) (size 9 to 14) (size 15 to 20)
#    0.000    1.818    2.727    0.545    1.273    4.364 
#    0.000    2.727    0.000    0.000    0.000    0.000 
#    0.000    0.000    0.000    0.000    0.000    0.000 
#
# Total GULP energy -122892.742326 kJ/mol
# GULP energy per Si atom -5586.033742 kJ/mol
# Density = 2.405660 g / cm^3
# Si number density = 24.111478 Si / 1000 Ang^3
#
#
#
# Elastic Constant Matrix: (Units=GPa)
#
#
# Indices 1 2 3 4 5 6 
#
# 1 97.5263 14.0828 71.8442 0.0000 18.7705 0.0000
# 2 14.0828 41.0016 30.9228 0.0000 10.8303 0.0000
# 3 71.8442 30.9228 189.6669 0.0000 14.1398 0.0000
# 4 0.0000 0.0000 0.0000 29.4545 0.0000 -6.6189
# 5 18.7705 10.8303 14.1398 0.0000 27.4307 0.0000
# 6 0.0000 0.0000 0.0000 -6.6189 0.0000 22.0826
#
#
#
# Elastic Compliance Matrix: (Units=1/GPa)
#
#
# Indices 1 2 3 4 5 6 
#
# 1 0.015779 0.000934 -0.005509 0.000000 -0.008327 0.000000
# 2 0.000934 0.030172 -0.004511 0.000000 -0.010227 0.000000
# 3 -0.005509 -0.004511 0.007988 0.000000 0.001433 0.000000
# 4 0.000000 0.000000 0.000000 0.036403 0.000000 0.010911
# 5 -0.008327 -0.010227 0.001433 0.000000 0.045453 0.000000
# 6 0.000000 0.000000 0.000000 0.010911 0.000000 0.048555
#
#
# Mechanical properties :
#
#
# Convention : Reuss Voigt Hill
#
# Bulk Modulus (GPa) = 27.95744 62.43271 45.19508
# Shear Modulus (GPa) = 23.31637 29.88320 26.59978
#
# Velocity S-wave (km/s) = 3.11307 3.52430 3.32505
# Velocity P-wave (km/s) = 4.95398 6.52001 5.79018
#
# Compressibility (1/GPa) = 0.03576865
#
# Stress axis : x y z
#
# Youngs Moduli (GPa) = 63.37365 33.14386 125.19415
#
# Poissons Ratio (x) = -0.03097 0.68965
# Poissons Ratio (y) = -0.05921 0.56470
# Poissons Ratio (z) = 0.34910 0.14950
#
# Static dielectric constant tensor:
#      x y z
#    x 1.901900 0.000000 0.005990 
#    y 0.000000 1.958700 0.000000 
#    z 0.005990 0.000000 2.008950 
# 
# From -- ./inp_files/36757.got.cif
#   From: 2010.05.17/outbox.cif.g08.bks.cpg/sg13_19_cif.got.tgz:36757.got - 2010.06.03 16:44:36.
