data_PCOD9227568
_publ_section_title
;
Structure prediction by ZEFSAII (Michael W. Deem and Ramdas Pophale) SiO2 
 PCOD9227568
Probable space group: P 2/C
;
_chemical_formula_sum "Si O2"
_cell_formula_units_Z 32
_cell_length_a 27.970272
_cell_length_b 9.612219
_cell_length_c 21.042828
_cell_angle_alpha 90.000000
_cell_angle_beta 163.167724
_cell_angle_gamma 90.000000
_cell_volume 1638.247689
_symmetry_space_group_name_H-M "P 2/C"
_symmetry_group_IT_number 13
_symmetry_cell_setting 'monoclinic'
loop_
_space_group_symop_operation_xyz
x,y,z
-x,y,1/2-z
-x,-y,-z
x,-y,1/2+z
loop_
_atom_site_type_symbol
_atom_site_label
_atom_site_fract_x
_atom_site_fract_y
_atom_site_fract_z
Si Si1 0.539538 0.743202 0.464746
Si Si2 0.128571 0.875019 0.156824
Si Si3 0.375202 0.272035 0.221343
Si Si4 0.525032 0.990298 0.856942
Si Si5 0.911956 0.590495 0.333600
Si Si6 0.311696 0.287617 0.786155
Si Si7 0.803520 0.397457 0.391350
Si Si8 0.534034 0.504587 0.358931
O O1 0.393974 0.778183 0.328781
O O2 0.701918 0.703209 0.712977
O O3 0.504296 0.604248 0.380217
O O4 0.545697 0.868130 0.422881
O O5 0.300925 0.915958 0.408355
O O6 0.062068 0.746847 0.111605
O O7 0.173786 0.808221 0.144875
O O8 0.000000 0.000000 0.000000
O O9 0.386203 0.113886 0.210380
O O10 0.538945 0.295206 0.473262
O O11 0.231294 0.329953 0.084021
O O12 0.410213 0.374449 0.207210
O O13 0.500000 0.010058 0.750000
O O14 0.000000 0.500000 0.500000
O O15 0.007004 0.582462 0.388034
O O16 0.721904 0.547564 0.095408
O O17 0.265996 0.445603 0.708490
O O18 0.500000 0.582399 0.250000
#
# Coordination Sequence:
#
# PCOD9227568 Si02
#       8
#     4   4   4   4   4   4   4   4
#     4  11  20  36  62  88 119 158 208 246 304 356
#     4  11  23  37  59  89 121 157 200 248 307 353
#     4  10  19  37  60  84 116 161 195 246 300 351
#     4  11  24  40  58  86 125 163 202 245 295 376
#     4  12  21  37  61  92 119 155 199 255 304 346
#     4  10  18  36  61  91 118 150 203 263 296 349
#     4  11  19  35  65  91 120 146 201 269 299 340
#     4  12  22  37  62  88 121 164 205 242 297 371
#
# _framework density 19.533065000000001
#
# number of rings (size 3 to 8) (size 9 to 14) (size 15 to 20)
#    0.000    1.000    7.500    2.250    0.000    5.500 
#    0.000    0.625    0.000    3.750    0.000    0.000 
#    0.000    0.000    0.000    0.000    0.000    0.000 
#
# Total GULP energy -178402.586184 kJ/mol
# GULP energy per Si atom -5575.080818 kJ/mol
# Density = 1.948861 g / cm^3
# Si number density = 19.533065 Si / 1000 Ang^3
#
#
#
# Elastic Constant Matrix: (Units=GPa)
#
#
# Indices 1 2 3 4 5 6 
#
# 1 118.8823 27.0816 34.5464 0.0000 12.6072 0.0000
# 2 27.0816 100.8091 16.3750 0.0000 2.0284 0.0000
# 3 34.5464 16.3750 32.2468 0.0000 12.1807 0.0000
# 4 0.0000 0.0000 0.0000 14.5954 0.0000 9.3876
# 5 12.6072 2.0284 12.1807 0.0000 31.3207 0.0000
# 6 0.0000 0.0000 0.0000 9.3876 0.0000 40.9342
#
#
#
# Elastic Compliance Matrix: (Units=1/GPa)
#
#
# Indices 1 2 3 4 5 6 
#
# 1 0.012363 -0.001275 -0.012599 0.000000 0.000006 0.000000
# 2 -0.001275 0.011019 -0.004869 0.000000 0.001693 0.000000
# 3 -0.012599 -0.004869 0.052686 0.000000 -0.015103 0.000000
# 4 0.000000 0.000000 0.000000 0.080370 0.000000 -0.018432
# 5 0.000006 0.001693 -0.015103 0.000000 0.037689 0.000000
# 6 0.000000 0.000000 0.000000 -0.018432 0.000000 0.028656
#
#
# Mechanical properties :
#
#
# Convention : Reuss Voigt Hill
#
# Bulk Modulus (GPa) = 25.91952 45.32714 35.62333
# Shear Modulus (GPa) = 18.30623 28.96574 23.63598
#
# Velocity S-wave (km/s) = 3.06468 3.85503 3.48235
# Velocity P-wave (km/s) = 5.08147 6.56283 5.86908
#
# Compressibility (1/GPa) = 0.03858096
#
# Stress axis : x y z
#
# Youngs Moduli (GPa) = 80.88850 90.75162 18.98024
#
# Poissons Ratio (x) = 0.11568 0.23914
# Poissons Ratio (y) = 0.10311 0.09242
# Poissons Ratio (z) = 1.01915 0.44191
#
# Static dielectric constant tensor:
#      x y z
#    x 1.743070 0.000000 -0.004250 
#    y 0.000000 1.851150 0.000000 
#    z -0.004250 0.000000 1.665780 
# 
# From -- ./inp_files/82561.got.cif
#   From: 2010.05.17/outbox.cif.g08.bks.cpg/sg13_42_cif.got.tgz:82561.got - 2010.06.03 16:44:36.
