data_PCOD9227464
_publ_section_title
;
Structure prediction by ZEFSAII (Michael W. Deem and Ramdas Pophale) SiO2 
 PCOD9227464
Probable space group: P 2/C
;
_chemical_formula_sum "Si O2"
_cell_formula_units_Z 24
_cell_length_a 13.874794
_cell_length_b 7.990766
_cell_length_c 12.694733
_cell_angle_alpha 90.000000
_cell_angle_beta 37.260514
_cell_angle_gamma 90.000000
_cell_volume 852.137489
_symmetry_space_group_name_H-M "P 2/C"
_symmetry_group_IT_number 13
_symmetry_cell_setting 'monoclinic'
loop_
_space_group_symop_operation_xyz
x,y,z
-x,y,1/2-z
-x,-y,-z
x,-y,1/2+z
loop_
_atom_site_type_symbol
_atom_site_label
_atom_site_fract_x
_atom_site_fract_y
_atom_site_fract_z
Si Si1 0.933084 0.361423 0.911232
Si Si2 0.331971 0.607839 0.335752
Si Si3 0.510948 0.262983 0.978194
Si Si4 0.144411 0.321408 0.273535
Si Si5 0.599609 0.049599 0.259318
Si Si6 0.084381 0.924067 0.533134
O O1 0.000000 0.259677 0.750000
O O2 0.068245 0.509640 0.796588
O O3 0.762354 0.448540 0.041320
O O4 0.918102 0.319840 0.050074
O O5 0.500000 0.629712 0.250000
O O6 0.201738 0.759322 0.445818
O O7 0.380935 0.595956 0.169059
O O8 0.330801 0.293652 0.098623
O O9 0.486251 0.213951 0.120526
O O10 0.587585 0.093799 0.859442
O O11 0.074050 0.153881 0.280166
O O12 0.500000 0.985888 0.250000
O O13 0.781537 0.065308 0.063447
O O14 0.000000 0.000000 0.500000
#
# Coordination Sequence:
#
# PCOD9227464 Si02
#       6
#     4   4   4   4   4   4
#     4  10  22  41  64  87 121 159 212 267 305 361
#     4  10  21  38  64  92 121 164 216 254 300 372
#     4  10  19  36  61  85 128 159 202 253 308 364
#     4  10  21  38  64  90 119 164 206 254 313 368
#     4  10  21  37  57  88 128 167 205 247 295 372
#     4  10  18  35  62  84 123 162 201 242 305 370
#
# _framework density 28.164467999999999
#
# number of rings (size 3 to 8) (size 9 to 14) (size 15 to 20)
#    0.000    2.000    1.667    3.000    0.000    2.000 
#    0.000   12.500    0.000    0.000    0.000    0.000 
#    0.000    0.000    0.000    0.000    0.000    0.000 
#
# Total GULP energy -133616.117249 kJ/mol
# GULP energy per Si atom -5567.338219 kJ/mol
# Density = 2.810036 g / cm^3
# Si number density = 28.164468 Si / 1000 Ang^3
#
#
#
# Elastic Constant Matrix: (Units=GPa)
#
#
# Indices 1 2 3 4 5 6 
#
# 1 96.8407 9.1327 25.1236 0.0000 -6.7584 0.0000
# 2 9.1327 57.2335 30.6547 0.0000 1.6003 0.0000
# 3 25.1236 30.6547 186.9537 0.0000 27.0197 0.0000
# 4 0.0000 0.0000 0.0000 28.2416 0.0000 -8.8811
# 5 -6.7584 1.6003 27.0197 0.0000 65.0861 0.0000
# 6 0.0000 0.0000 0.0000 -8.8811 0.0000 16.1960
#
#
#
# Elastic Compliance Matrix: (Units=1/GPa)
#
#
# Indices 1 2 3 4 5 6 
#
# 1 0.010952 -0.000953 -0.001578 0.000000 0.001816 0.000000
# 2 -0.000953 0.019286 -0.003140 0.000000 0.000730 0.000000
# 3 -0.001578 -0.003140 0.006477 0.000000 -0.002775 0.000000
# 4 0.000000 0.000000 0.000000 0.042787 0.000000 0.023462
# 5 0.001816 0.000730 -0.002775 0.000000 0.016687 0.000000
# 6 0.000000 0.000000 0.000000 0.023462 0.000000 0.074609
#
#
# Mechanical properties :
#
#
# Convention : Reuss Voigt Hill
#
# Bulk Modulus (GPa) = 39.41197 52.31665 45.86431
# Shear Modulus (GPa) = 26.23332 40.31252 33.27292
#
# Velocity S-wave (km/s) = 3.05525 3.78739 3.44085
# Velocity P-wave (km/s) = 5.14490 6.14341 5.66619
#
# Compressibility (1/GPa) = 0.02537300
#
# Stress axis : x y z
#
# Youngs Moduli (GPa) = 91.30574 51.85214 154.39468
#
# Poissons Ratio (x) = 0.04943 0.24362
# Poissons Ratio (y) = 0.08704 0.48475
# Poissons Ratio (z) = 0.14407 0.16280
#
# Static dielectric constant tensor:
#      x y z
#    x 2.350360 0.000000 0.194080 
#    y 0.000000 2.557120 0.000000 
#    z 0.194080 0.000000 2.185060 
# 
# From -- ./inp_files/53618.got.cif
#   From: 2010.05.17/outbox.cif.g08.bks.cpg/sg13_27_cif.got.tgz:53618.got - 2010.06.03 16:44:36.
