data_PCOD9227203
_publ_section_title
;
Structure prediction by ZEFSAII (Michael W. Deem and Ramdas Pophale) SiO2 
 PCOD9227203
Probable space group: P 2/C
;
_chemical_formula_sum "Si O2"
_cell_formula_units_Z 24
_cell_length_a 10.144242
_cell_length_b 10.921773
_cell_length_c 16.176527
_cell_angle_alpha 90.000000
_cell_angle_beta 32.805996
_cell_angle_gamma 90.000000
_cell_volume 971.032949
_symmetry_space_group_name_H-M "P 2/C"
_symmetry_group_IT_number 13
_symmetry_cell_setting 'monoclinic'
loop_
_space_group_symop_operation_xyz
x,y,z
-x,y,1/2-z
-x,-y,-z
x,-y,1/2+z
loop_
_atom_site_type_symbol
_atom_site_label
_atom_site_fract_x
_atom_site_fract_y
_atom_site_fract_z
Si Si1 0.497347 0.641780 0.030322
Si Si2 0.233715 0.020884 0.682920
Si Si3 0.184506 0.617756 0.053370
Si Si4 0.000000 0.391672 0.250000
Si Si5 0.736728 0.244168 0.709124
Si Si6 0.047041 0.127833 0.426668
Si Si7 0.500000 0.709377 0.750000
O O1 0.760188 0.686534 0.865043
O O2 0.500000 0.500000 0.000000
O O3 0.280112 0.685888 0.085954
O O4 0.456843 0.663745 0.148040
O O5 0.296719 0.122684 0.718928
O O6 0.000000 0.058249 0.750000
O O7 0.500000 0.000000 0.500000
O O8 0.115264 0.909949 0.798467
O O9 0.068404 0.486868 0.139970
O O10 0.980737 0.692084 0.113746
O O11 0.410741 0.623601 0.871863
O O12 0.804336 0.205944 0.579967
O O13 0.281586 0.201899 0.335995
O O14 0.000000 0.000000 0.500000
#
# Coordination Sequence:
#
# PCOD9227203 Si02
#       7
#     4   4   4   2   4   4   2
#     4  10  18  33  62  93 122 161 213 268 321 388
#     4  11  25  40  65  97 129 170 225 273 327 397
#     4  10  18  34  61  89 111 167 218 256 314 387
#     4  10  20  34  60  92 130 158 210 266 326 384
#     4  10  19  39  63  89 122 169 219 261 323 396
#     4   9  22  38  61  92 124 169 214 275 326 382
#     4  10  22  36  66  86 124 162 230 266 322 394
#
# _framework density 24.715948000000001
#
# number of rings (size 3 to 8) (size 9 to 14) (size 15 to 20)
#    0.000    2.000    3.333    1.000    9.333    0.000 
#    1.500    0.833    0.000    0.000    0.000    0.000 
#    0.000    0.000    0.000    0.000    0.000    0.000 
#
# Total GULP energy -133725.183246 kJ/mol
# GULP energy per Si atom -5571.882635 kJ/mol
# Density = 2.465969 g / cm^3
# Si number density = 24.715948 Si / 1000 Ang^3
#
#
#
# Elastic Constant Matrix: (Units=GPa)
#
#
# Indices 1 2 3 4 5 6 
#
# 1 54.8162 16.2324 34.8586 0.0000 -0.9975 0.0000
# 2 16.2324 79.5771 59.4907 0.0000 18.5895 0.0000
# 3 34.8586 59.4907 207.9077 0.0000 11.6033 0.0000
# 4 0.0000 0.0000 0.0000 42.2985 0.0000 7.1385
# 5 -0.9975 18.5895 11.6033 0.0000 38.5650 0.0000
# 6 0.0000 0.0000 0.0000 7.1385 0.0000 25.2096
#
#
#
# Elastic Compliance Matrix: (Units=1/GPa)
#
#
# Indices 1 2 3 4 5 6 
#
# 1 0.020938 -0.002763 -0.002873 0.000000 0.002738 0.000000
# 2 -0.002763 0.018093 -0.004295 0.000000 -0.007501 0.000000
# 3 -0.002873 -0.004295 0.006519 0.000000 0.000035 0.000000
# 4 0.000000 0.000000 0.000000 0.024828 0.000000 -0.007030
# 5 0.002738 -0.007501 0.000035 0.000000 0.029606 0.000000
# 6 0.000000 0.000000 0.000000 -0.007030 0.000000 0.041658
#
#
# Mechanical properties :
#
#
# Convention : Reuss Voigt Hill
#
# Bulk Modulus (GPa) = 38.92924 62.60714 50.76819
# Shear Modulus (GPa) = 29.40032 36.66257 33.03145
#
# Velocity S-wave (km/s) = 3.45270 3.85562 3.65970
# Velocity P-wave (km/s) = 5.62847 6.72359 6.20026
#
# Compressibility (1/GPa) = 0.02568763
#
# Stress axis : x y z
#
# Youngs Moduli (GPa) = 47.76115 55.26897 153.40703
#
# Poissons Ratio (x) = 0.15270 0.44069
# Poissons Ratio (y) = 0.13196 0.65894
# Poissons Ratio (z) = 0.13720 0.23740
#
# Static dielectric constant tensor:
#      x y z
#    x 2.052260 0.000000 0.025710 
#    y 0.000000 2.086760 0.000000 
#    z 0.025710 0.000000 1.982670 
# 
# From -- ./inp_files/66592.got.cif
#   From: 2010.05.17/outbox.cif.g08.bks.cpg/sg13_34_cif.got.tgz:66592.got - 2010.06.03 16:44:36.
