data_PCOD9227431
_publ_section_title
;
Structure prediction by ZEFSAII (Michael W. Deem and Ramdas Pophale) SiO2 
 PCOD9227431
Probable space group: P 2/C
;
_chemical_formula_sum "Si O2"
_cell_formula_units_Z 20
_cell_length_a 5.482582
_cell_length_b 11.062229
_cell_length_c 12.776042
_cell_angle_alpha 90.000000
_cell_angle_beta 80.601781
_cell_angle_gamma 90.000000
_cell_volume 764.460768
_symmetry_space_group_name_H-M "P 2/C"
_symmetry_group_IT_number 13
_symmetry_cell_setting 'monoclinic'
loop_
_space_group_symop_operation_xyz
x,y,z
-x,y,1/2-z
-x,-y,-z
x,-y,1/2+z
loop_
_atom_site_type_symbol
_atom_site_label
_atom_site_fract_x
_atom_site_fract_y
_atom_site_fract_z
Si Si1 0.211320 0.094864 0.873171
Si Si2 0.916698 0.563741 0.613225
Si Si3 0.775024 0.179383 0.182009
Si Si4 0.589272 0.526854 0.374223
Si Si5 0.294476 0.193939 0.630539
O O1 0.257942 0.138351 0.749651
O O2 0.436751 0.147824 0.925016
O O3 0.943016 0.148290 0.915197
O O4 0.217680 0.951178 0.872466
O O5 0.822365 0.700294 0.611450
O O6 0.674200 0.488271 0.665713
O O7 0.000000 0.500000 0.500000
O O8 0.175451 0.560956 0.657986
O O9 0.500000 0.190987 0.250000
O O10 0.000000 0.175342 0.250000
O O11 0.500000 0.500000 0.500000
O O12 0.690526 0.662542 0.361646
#
# Coordination Sequence:
#
# PCOD9227431 Si02
#       5
#     4   4   4   4   4
#     4  10  19  35  58  90 123 154 194 257 321 355
#     4  10  23  42  62  87 130 173 208 252 316 385
#     4  12  21  40  64  96 127 156 212 268 316 378
#     4  10  21  40  62  84 123 170 208 245 300 376
#     4  10  18  35  58  86 124 154 198 251 303 369
#
# _framework density 26.162230999999998
#
# number of rings (size 3 to 8) (size 9 to 14) (size 15 to 20)
#    0.000    1.600    4.000    2.400    0.000    0.000 
#   21.600    0.000    0.000   28.800    0.000    0.000 
#    0.000    0.000    0.000    0.000    0.000    0.000 
#
# Total GULP energy -111993.779212 kJ/mol
# GULP energy per Si atom -5599.688961 kJ/mol
# Density = 2.610268 g / cm^3
# Si number density = 26.162231 Si / 1000 Ang^3
#
#
#
# Elastic Constant Matrix: (Units=GPa)
#
#
# Indices 1 2 3 4 5 6 
#
# 1 269.6649 60.6724 36.2036 0.0000 -56.4315 0.0000
# 2 60.6724 241.9693 29.3057 0.0000 -37.6688 0.0000
# 3 36.2036 29.3057 64.0988 0.0000 -19.8723 0.0000
# 4 0.0000 0.0000 0.0000 35.9377 0.0000 -12.2383
# 5 -56.4315 -37.6688 -19.8723 0.0000 38.6274 0.0000
# 6 0.0000 0.0000 0.0000 -12.2383 0.0000 54.5567
#
#
#
# Elastic Compliance Matrix: (Units=1/GPa)
#
#
# Indices 1 2 3 4 5 6 
#
# 1 0.005371 -0.000114 -0.000694 0.000000 0.007379 0.000000
# 2 -0.000114 0.004919 -0.000891 0.000000 0.004172 0.000000
# 3 -0.000694 -0.000891 0.018818 0.000000 0.007798 0.000000
# 4 0.000000 0.000000 0.000000 0.030127 0.000000 0.006758
# 5 0.007379 0.004172 0.007798 0.000000 0.044748 0.000000
# 6 0.000000 0.000000 0.000000 0.006758 0.000000 0.019846
#
#
# Mechanical properties :
#
#
# Convention : Reuss Voigt Hill
#
# Bulk Modulus (GPa) = 38.89600 92.01070 65.45335
# Shear Modulus (GPa) = 36.81967 55.79444 46.30706
#
# Velocity S-wave (km/s) = 3.75555 4.62305 4.21170
# Velocity P-wave (km/s) = 5.80560 7.98389 6.98024
#
# Compressibility (1/GPa) = 0.02570959
#
# Stress axis : x y z
#
# Youngs Moduli (GPa) = 186.17665 203.30610 53.14075
#
# Poissons Ratio (x) = 0.02319 0.03688
# Poissons Ratio (y) = 0.02124 0.04735
# Poissons Ratio (z) = 0.12920 0.18116
#
# Static dielectric constant tensor:
#      x y z
#    x 2.685750 0.000000 0.767970 
#    y 0.000000 1.914610 0.000000 
#    z 0.767970 0.000000 3.112910 
# 
# From -- ./inp_files/72760.got.cif
#   From: 2010.05.17/outbox.cif.g08.bks.cpg/sg13_37_cif.got.tgz:72760.got - 2010.06.03 16:44:36.
