data_PCOD9227727
_publ_section_title
;
Structure prediction by ZEFSAII (Michael W. Deem and Ramdas Pophale) SiO2 
 PCOD9227727
Probable space group: P 2/C
;
_chemical_formula_sum "Si O2"
_cell_formula_units_Z 30
_cell_length_a 12.996218
_cell_length_b 15.631602
_cell_length_c 13.887209
_cell_angle_alpha 90.000000
_cell_angle_beta 148.853825
_cell_angle_gamma 90.000000
_cell_volume 1459.195466
_symmetry_space_group_name_H-M "P 2/C"
_symmetry_group_IT_number 13
_symmetry_cell_setting 'monoclinic'
loop_
_space_group_symop_operation_xyz
x,y,z
-x,y,1/2-z
-x,-y,-z
x,-y,1/2+z
loop_
_atom_site_type_symbol
_atom_site_label
_atom_site_fract_x
_atom_site_fract_y
_atom_site_fract_z
Si Si1 0.528703 0.312810 0.874036
Si Si2 0.000000 0.472206 0.750000
Si Si3 0.588654 0.190304 0.227510
Si Si4 0.005324 0.899064 0.495761
Si Si5 0.241894 0.764940 0.298924
Si Si6 0.855173 0.650621 0.994201
Si Si7 0.857911 0.382211 0.275700
Si Si8 0.120341 0.787329 0.933826
O O1 0.500000 0.365217 0.750000
O O2 0.343602 0.271201 0.781598
O O3 0.327924 0.239872 0.554372
O O4 0.652229 0.360009 0.056478
O O5 0.833150 0.413998 0.564852
O O6 0.931154 0.533640 0.780657
O O7 0.500000 0.143296 0.250000
O O8 0.768730 0.136799 0.324757
O O9 0.696271 0.274126 0.357484
O O10 0.418978 0.218475 0.016326
O O11 0.882106 0.853437 0.311189
O O12 0.892485 0.856253 0.494416
O O13 0.000000 0.000000 0.500000
O O14 0.070996 0.695212 0.183762
O O15 0.849903 0.608354 0.883854
O O16 0.002953 0.300698 0.369856
O O17 0.000000 0.826573 0.750000
#
# Coordination Sequence:
#
# PCOD9227727 Si02
#       8
#     4   2   4   4   4   4   4   4
#     4  11  18  34  68  98 120 173 230 262 327 404
#     4  12  24  38  66  98 126 182 224 282 348 388
#     4  11  23  45  70  91 131 185 224 259 328 410
#     4  11  24  44  66 104 138 164 218 282 333 390
#     4  11  22  42  72  92 130 182 220 267 333 404
#     4  11  23  43  65  93 134 175 227 277 335 397
#     4  11  20  40  65  89 131 175 215 281 336 389
#     4  10  18  38  66  88 125 175 210 261 331 392
#
# _framework density 20.559275
#
# number of rings (size 3 to 8) (size 9 to 14) (size 15 to 20)
#    0.000    1.067    7.333    2.000    0.000    2.133 
#    4.800    2.667    0.000    0.000    0.000    0.000 
#    0.000    0.000    0.000    0.000    0.000    0.000 
#
# Total GULP energy -167278.466059 kJ/mol
# GULP energy per Si atom -5575.948869 kJ/mol
# Density = 2.051248 g / cm^3
# Si number density = 20.559275 Si / 1000 Ang^3
#
#
#
# Elastic Constant Matrix: (Units=GPa)
#
#
# Indices 1 2 3 4 5 6 
#
# 1 57.3592 8.6109 15.1362 0.0000 -11.0043 0.0000
# 2 8.6109 88.7158 34.3941 0.0000 -17.2795 0.0000
# 3 15.1362 34.3941 138.0786 0.0000 -13.4946 0.0000
# 4 0.0000 0.0000 0.0000 4.4877 0.0000 0.9315
# 5 -11.0043 -17.2795 -13.4946 0.0000 34.0811 0.0000
# 6 0.0000 0.0000 0.0000 0.9315 0.0000 8.1003
#
#
#
# Elastic Compliance Matrix: (Units=1/GPa)
#
#
# Indices 1 2 3 4 5 6 
#
# 1 0.018896 -0.000202 -0.001492 0.000000 0.005408 0.000000
# 2 -0.000202 0.013473 -0.002780 0.000000 0.005665 0.000000
# 3 -0.001492 -0.002780 0.008232 0.000000 0.001368 0.000000
# 4 0.000000 0.000000 0.000000 0.228278 0.000000 -0.026252
# 5 0.005408 0.005665 0.001368 0.000000 0.034502 0.000000
# 6 0.000000 0.000000 0.000000 -0.026252 0.000000 0.126471
#
#
# Mechanical properties :
#
#
# Convention : Reuss Voigt Hill
#
# Bulk Modulus (GPa) = 31.59469 44.49288 38.04378
# Shear Modulus (GPa) = 11.12716 24.40133 17.76424
#
# Velocity S-wave (km/s) = 2.32894 3.44885 2.94266
# Velocity P-wave (km/s) = 4.75741 6.12761 5.48546
#
# Compressibility (1/GPa) = 0.03165089
#
# Stress axis : x y z
#
# Youngs Moduli (GPa) = 52.92230 74.22388 121.47612
#
# Poissons Ratio (x) = 0.01500 0.18130
# Poissons Ratio (y) = 0.01070 0.33772
# Poissons Ratio (z) = 0.07899 0.20635
#
# Static dielectric constant tensor:
#      x y z
#    x 1.808510 0.000000 -0.143840 
#    y 0.000000 1.715060 0.000000 
#    z -0.143840 0.000000 2.375010 
# 
# From -- ./inp_files/53870.got.cif
#   From: 2010.05.17/outbox.cif.g08.bks.cpg/sg13_27_cif.got.tgz:53870.got - 2010.06.03 16:44:36.
