data_PCOD9227755
_publ_section_title
;
Structure prediction by ZEFSAII (Michael W. Deem and Ramdas Pophale) SiO2 
 PCOD9227755
Probable space group: P 2/C
;
_chemical_formula_sum "Si O2"
_cell_formula_units_Z 30
_cell_length_a 10.428365
_cell_length_b 15.862510
_cell_length_c 14.253243
_cell_angle_alpha 90.000000
_cell_angle_beta 34.919392
_cell_angle_gamma 90.000000
_cell_volume 1349.643972
_symmetry_space_group_name_H-M "P 2/C"
_symmetry_group_IT_number 13
_symmetry_cell_setting 'monoclinic'
loop_
_space_group_symop_operation_xyz
x,y,z
-x,y,1/2-z
-x,-y,-z
x,-y,1/2+z
loop_
_atom_site_type_symbol
_atom_site_label
_atom_site_fract_x
_atom_site_fract_y
_atom_site_fract_z
Si Si1 0.016352 0.349584 0.536316
Si Si2 0.570405 0.824874 0.102211
Si Si3 0.840437 0.666964 0.931209
Si Si4 0.157926 0.011304 0.724498
Si Si5 0.106464 0.190392 0.787367
Si Si6 0.585602 0.552388 0.358621
Si Si7 0.500000 0.578678 0.750000
Si Si8 0.518763 0.971758 0.633051
O O1 0.271203 0.372309 0.409910
O O2 0.947975 0.357664 0.467339
O O3 0.992952 0.252123 0.576794
O O4 0.829367 0.402040 0.708642
O O5 0.500000 0.799456 0.250000
O O6 0.373838 0.802812 0.145812
O O7 0.575127 0.927161 0.102417
O O8 0.785051 0.766844 0.956386
O O9 0.000000 0.641395 0.750000
O O10 0.602702 0.620385 0.058554
O O11 0.048004 0.092100 0.839437
O O12 0.277009 0.959706 0.731706
O O13 0.000000 0.961068 0.750000
O O14 0.324747 0.054943 0.547996
O O15 0.000000 0.212499 0.750000
O O16 0.500000 0.500000 0.500000
O O17 0.584240 0.481398 0.281142
O O18 0.500000 0.939937 0.750000
#
# Coordination Sequence:
#
# PCOD9227755 Si02
#       8
#     4   4   4   4   4   4   2   4
#     4  12  25  47  68  98 135 177 229 281 338 414
#     4  10  18  39  65  94 128 180 226 276 335 397
#     4  12  24  41  68  98 133 174 227 282 335 396
#     4   9  19  37  59  91 128 171 215 265 335 396
#     4  10  21  37  68  88 126 178 220 265 338 405
#     4  12  26  44  68  95 131 178 218 277 343 404
#     4  12  28  42  66  98 136 170 226 280 342 410
#     4   9  19  34  64  95 128 168 224 274 325 398
#
# _framework density 22.228085
#
# number of rings (size 3 to 8) (size 9 to 14) (size 15 to 20)
#    0.000    1.333    4.000    1.200    3.733    2.133 
#    0.000    0.000   23.467    0.000    0.000    0.000 
#    0.000    0.000    0.000    0.000    0.000    0.000 
#
# Total GULP energy -167140.939070 kJ/mol
# GULP energy per Si atom -5571.364636 kJ/mol
# Density = 2.217749 g / cm^3
# Si number density = 22.228085 Si / 1000 Ang^3
#
#
#
# Elastic Constant Matrix: (Units=GPa)
#
#
# Indices 1 2 3 4 5 6 
#
# 1 120.5118 -11.4859 17.9854 0.0000 -1.0951 0.0000
# 2 -11.4859 38.2990 5.8972 0.0000 -9.6280 0.0000
# 3 17.9854 5.8972 81.2118 0.0000 -5.1232 0.0000
# 4 0.0000 0.0000 0.0000 -9.7836 0.0000 50.2619
# 5 -1.0951 -9.6280 -5.1232 0.0000 41.8672 0.0000
# 6 0.0000 0.0000 0.0000 50.2619 0.0000 -44.5862
#
#
#
# Elastic Compliance Matrix: (Units=1/GPa)
#
#
# Indices 1 2 3 4 5 6 
#
# 1 0.008931 0.003188 -0.002165 0.000000 0.000702 0.000000
# 2 0.003188 0.029064 -0.002408 0.000000 0.006473 0.000000
# 3 -0.002165 -0.002408 0.013030 0.000000 0.000984 0.000000
# 4 0.000000 0.000000 0.000000 0.021333 0.000000 0.024048
# 5 0.000702 0.006473 0.000984 0.000000 0.025512 0.000000
# 6 0.000000 0.000000 0.000000 0.024048 0.000000 0.004681
#
#
# Mechanical properties :
#
#
# Convention : Reuss Voigt Hill
#
# Bulk Modulus (GPa) = 20.72307 29.42401 25.07354
# Shear Modulus (GPa) = 41.18373 12.67454 26.92913
#
# Velocity S-wave (km/s) = 4.30906 2.39048 3.48442
# Velocity P-wave (km/s) = 5.83956 4.57004 5.24337
#
# Compressibility (1/GPa) = 0.04825540
#
# Stress axis : x y z
#
# Youngs Moduli (GPa) = 111.96536 34.40628 76.74631
#
# Poissons Ratio (x) = -0.10970 0.16617
# Poissons Ratio (y) = -0.35698 0.18483
# Poissons Ratio (z) = 0.24243 0.08286
#
# Static dielectric constant tensor:
#      x y z
#    x 1.860370 0.000000 -0.097320 
#    y 0.000000 1.825940 0.000000 
#    z -0.097320 0.000000 1.942250 
# 
# From -- ./inp_files/51602.got.cif
#   From: 2010.05.17/outbox.cif.g08.bks.cpg/sg13_26_cif.got.tgz:51602.got - 2010.06.03 16:44:36.
