data_PCOD9227011
_publ_section_title
;
Structure prediction by ZEFSAII (Michael W. Deem and Ramdas Pophale) SiO2 
 PCOD9227011
Probable space group: P 2/C
;
_chemical_formula_sum "Si O2"
_cell_formula_units_Z 32
_cell_length_a 18.092574
_cell_length_b 5.528429
_cell_length_c 14.659056
_cell_angle_alpha 90.000000
_cell_angle_beta 122.595531
_cell_angle_gamma 90.000000
_cell_volume 1235.307647
_symmetry_space_group_name_H-M "P 2/C"
_symmetry_group_IT_number 13
_symmetry_cell_setting 'monoclinic'
loop_
_space_group_symop_operation_xyz
x,y,z
-x,y,1/2-z
-x,-y,-z
x,-y,1/2+z
loop_
_atom_site_type_symbol
_atom_site_label
_atom_site_fract_x
_atom_site_fract_y
_atom_site_fract_z
Si Si1 0.067292 0.518445 0.457461
Si Si2 0.998482 0.984758 0.612467
Si Si3 0.179389 0.193537 0.309061
Si Si4 0.588750 0.310317 0.278492
Si Si5 0.498220 0.309099 0.915718
Si Si6 0.322838 0.563592 0.992015
Si Si7 0.323590 0.168368 0.832138
Si Si8 0.240280 0.561002 0.678297
O O1 0.165749 0.575411 0.553857
O O2 0.000000 0.500000 0.500000
O O3 0.057529 0.256273 0.405484
O O4 0.037587 0.754763 0.383123
O O5 0.088412 0.936674 0.726643
O O6 0.000000 0.000000 0.500000
O O7 0.226654 0.319727 0.426851
O O8 0.184012 0.393307 0.232017
O O9 0.254934 0.007101 0.330773
O O10 0.500000 0.162645 0.250000
O O11 0.542066 0.528766 0.192460
O O12 0.643268 0.401637 0.402396
O O13 0.676323 0.255624 0.275392
O O14 0.425816 0.104013 0.884531
O O15 0.500000 0.500000 0.000000
O O16 0.598191 0.239740 0.962671
O O17 0.328175 0.393367 0.906831
O O18 0.281551 0.294271 0.714552
#
# Coordination Sequence:
#
# PCOD9227011 Si02
#       8
#     4   4   4   4   4   4   4   4
#     4  10  18  32  54  90 121 151 193 256 317 360
#     4  10  19  31  54  87 127 146 193 254 319 360
#     4  11  20  31  54  86 112 148 195 251 307 364
#     4   9  18  36  58  80 116 159 195 240 296 368
#     4   8  15  32  55  79 106 142 191 243 293 349
#     4   9  19  33  51  76 111 155 192 229 299 362
#     4   9  18  31  52  79 109 146 189 246 299 350
#     4  10  19  32  57  85 110 150 197 250 302 358
#
# _framework density 25.904475999999999
#
# number of rings (size 3 to 8) (size 9 to 14) (size 15 to 20)
#    0.000    2.500    2.500    2.250    1.750    0.500 
#    0.000    2.500    0.000   10.500    0.000    0.000 
#    0.000    0.000    0.000    0.000    0.000    0.000 
#
# Total GULP energy -178315.220601 kJ/mol
# GULP energy per Si atom -5572.350644 kJ/mol
# Density = 2.584552 g / cm^3
# Si number density = 25.904476 Si / 1000 Ang^3
#
#
#
# Elastic Constant Matrix: (Units=GPa)
#
#
# Indices 1 2 3 4 5 6 
#
# 1 82.5978 3.7993 48.1489 0.0000 32.7198 0.0000
# 2 3.7993 74.8145 18.7774 0.0000 20.8673 0.0000
# 3 48.1489 18.7774 172.1255 0.0000 44.2201 0.0000
# 4 0.0000 0.0000 0.0000 26.7941 0.0000 20.4727
# 5 32.7198 20.8673 44.2201 0.0000 47.0970 0.0000
# 6 0.0000 0.0000 0.0000 20.4727 0.0000 16.3897
#
#
#
# Elastic Compliance Matrix: (Units=1/GPa)
#
#
# Indices 1 2 3 4 5 6 
#
# 1 0.017911 0.002893 -0.002372 0.000000 -0.011498 0.000000
# 2 0.002893 0.015720 -0.000288 0.000000 -0.008704 0.000000
# 3 -0.002372 -0.000288 0.007971 0.000000 -0.005709 0.000000
# 4 0.000000 0.000000 0.000000 0.818772 0.000000 -1.022744
# 5 -0.011498 -0.008704 -0.005709 0.000000 0.038438 0.000000
# 6 0.000000 0.000000 0.000000 -1.022744 0.000000 1.338542
#
#
# Mechanical properties :
#
#
# Convention : Reuss Voigt Hill
#
# Bulk Modulus (GPa) = 23.77097 52.33210 38.05154
# Shear Modulus (GPa) = 2.22132 35.31030 18.76581
#
# Velocity S-wave (km/s) = 0.92702 3.69602 2.69443
# Velocity P-wave (km/s) = 3.21592 6.20160 4.93974
#
# Compressibility (1/GPa) = 0.04206811
#
# Stress axis : x y z
#
# Youngs Moduli (GPa) = 55.83055 63.61504 125.45004
#
# Poissons Ratio (x) = -0.18403 0.29756
# Poissons Ratio (y) = -0.16151 0.03612
# Poissons Ratio (z) = 0.13243 0.01831
#
# Static dielectric constant tensor:
#      x y z
#    x 2.380920 0.000000 -0.118270 
#    y 0.000000 2.137130 0.000000 
#    z -0.118270 0.000000 2.055370 
# 
# From -- ./inp_files/70306.got.cif
#   From: 2010.05.17/outbox.cif.g08.bks.cpg/sg13_36_cif.got.tgz:70306.got - 2010.06.03 16:44:36.
