data_PCOD9227147
_publ_section_title
;
Structure prediction by ZEFSAII (Michael W. Deem and Ramdas Pophale) SiO2 
 PCOD9227147
Probable space group: P 2/C
;
_chemical_formula_sum "Si O2"
_cell_formula_units_Z 32
_cell_length_a 21.620764
_cell_length_b 10.340367
_cell_length_c 20.319179
_cell_angle_alpha 90.000000
_cell_angle_beta 19.016149
_cell_angle_gamma 90.000000
_cell_volume 1480.165908
_symmetry_space_group_name_H-M "P 2/C"
_symmetry_group_IT_number 13
_symmetry_cell_setting 'monoclinic'
loop_
_space_group_symop_operation_xyz
x,y,z
-x,y,1/2-z
-x,-y,-z
x,-y,1/2+z
loop_
_atom_site_type_symbol
_atom_site_label
_atom_site_fract_x
_atom_site_fract_y
_atom_site_fract_z
Si Si1 0.762118 0.342336 0.391196
Si Si2 0.058985 0.003263 0.090226
Si Si3 0.109193 0.718599 0.071508
Si Si4 0.292276 0.518020 0.433414
Si Si5 0.062663 0.221495 0.991113
Si Si6 0.376135 0.595741 0.210891
Si Si7 0.707830 0.079453 0.522063
Si Si8 0.898771 0.606892 0.555179
O O1 0.825839 0.442898 0.383626
O O2 0.936920 0.293261 0.173086
O O3 0.597055 0.390832 0.507311
O O4 0.687059 0.217690 0.507438
O O5 0.071719 0.075637 0.008073
O O6 0.842858 0.999048 0.336114
O O7 0.144527 0.860556 0.008168
O O8 0.174468 0.086672 0.028389
O O9 0.000000 0.734643 0.250000
O O10 0.281602 0.629796 0.921773
O O11 0.024083 0.635408 0.096059
O O12 0.500000 0.545226 0.250000
O O13 0.275431 0.598247 0.384005
O O14 0.940667 0.258624 0.049811
O O15 0.270870 0.288342 0.778130
O O16 0.308581 0.459044 0.246955
O O17 0.500000 0.028069 0.750000
O O18 0.000000 0.500000 0.500000
#
# Coordination Sequence:
#
# PCOD9227147 Si02
#       8
#     4   4   4   4   4   4   4   4
#     4  10  19  30  56  88 114 148 187 234 295 339
#     4  10  21  36  53  86 112 151 205 229 281 349
#     4  11  22  38  57  80 119 151 188 243 285 337
#     4   9  19  32  51  82 112 145 187 230 294 346
#     4  10  20  34  57  81 112 155 192 232 280 344
#     4   9  18  35  52  83 120 144 189 237 285 343
#     4  10  18  33  55  84 121 148 186 245 286 332
#     4   9  21  38  59  85 113 151 196 233 296 355
#
# _framework density 21.619198999999998
#
# number of rings (size 3 to 8) (size 9 to 14) (size 15 to 20)
#    0.000    2.250    1.250    2.625    5.250    2.500 
#    0.000    0.000    0.000    0.000    0.000   10.500 
#    0.000    0.000    0.000    0.000    0.000    0.000 
#
# Total GULP energy -178152.787211 kJ/mol
# GULP energy per Si atom -5567.274600 kJ/mol
# Density = 2.156999 g / cm^3
# Si number density = 21.619199 Si / 1000 Ang^3
#
#
#
# Elastic Constant Matrix: (Units=GPa)
#
#
# Indices 1 2 3 4 5 6 
#
# 1 93.3696 23.5050 3.0993 0.0000 -8.8845 0.0000
# 2 23.5050 74.7191 -2.0975 0.0000 -5.8958 0.0000
# 3 3.0993 -2.0975 45.0580 0.0000 -20.3663 0.0000
# 4 0.0000 0.0000 0.0000 15.6743 0.0000 0.3859
# 5 -8.8845 -5.8958 -20.3663 0.0000 31.6356 0.0000
# 6 0.0000 0.0000 0.0000 0.3859 0.0000 31.6255
#
#
#
# Elastic Compliance Matrix: (Units=1/GPa)
#
#
# Indices 1 2 3 4 5 6 
#
# 1 0.011853 -0.003492 0.000328 0.000000 0.002889 0.000000
# 2 -0.003492 0.014815 0.002447 0.000000 0.003356 0.000000
# 3 0.000328 0.002447 0.031780 0.000000 0.021008 0.000000
# 4 0.000000 0.000000 0.000000 0.063818 0.000000 -0.000779
# 5 0.002889 0.003356 0.021008 0.000000 0.046571 0.000000
# 6 0.000000 0.000000 0.000000 -0.000779 0.000000 0.031630
#
#
# Mechanical properties :
#
#
# Convention : Reuss Voigt Hill
#
# Bulk Modulus (GPa) = 17.53924 29.12892 23.33408
# Shear Modulus (GPa) = 22.63410 28.36309 25.49860
#
# Velocity S-wave (km/s) = 3.23916 3.62600 3.43803
# Velocity P-wave (km/s) = 4.70319 5.57076 5.15526
#
# Compressibility (1/GPa) = 0.05701503
#
# Stress axis : x y z
#
# Youngs Moduli (GPa) = 84.36591 67.49788 31.46600
#
# Poissons Ratio (x) = 0.23567 -0.01033
# Poissons Ratio (y) = 0.29457 -0.07698
# Poissons Ratio (z) = -0.02768 -0.16514
#
# Static dielectric constant tensor:
#      x y z
#    x 1.868810 0.000000 0.053920 
#    y 0.000000 1.852830 0.000000 
#    z 0.053920 0.000000 1.827680 
# 
# From -- ./inp_files/81798.got.cif
#   From: 2010.05.17/outbox.cif.g08.bks.cpg/sg13_41_cif.got.tgz:81798.got - 2010.06.03 16:44:36.
