data_PCOD9227530
_publ_section_title
;
Structure prediction by ZEFSAII (Michael W. Deem and Ramdas Pophale) SiO2 
 PCOD9227530
Probable space group: P 2/C
;
_chemical_formula_sum "Si O2"
_cell_formula_units_Z 30
_cell_length_a 11.255930
_cell_length_b 10.794888
_cell_length_c 15.159095
_cell_angle_alpha 90.000000
_cell_angle_beta 56.643889
_cell_angle_gamma 90.000000
_cell_volume 1538.506422
_symmetry_space_group_name_H-M "P 2/C"
_symmetry_group_IT_number 13
_symmetry_cell_setting 'monoclinic'
loop_
_space_group_symop_operation_xyz
x,y,z
-x,y,1/2-z
-x,-y,-z
x,-y,1/2+z
loop_
_atom_site_type_symbol
_atom_site_label
_atom_site_fract_x
_atom_site_fract_y
_atom_site_fract_z
Si Si1 0.718453 0.028380 0.718641
Si Si2 0.697681 0.390294 0.771221
Si Si3 0.815255 0.855574 0.544798
Si Si4 0.514570 0.893557 0.569137
Si Si5 0.500000 0.780920 0.250000
Si Si6 0.589006 0.383672 0.997839
Si Si7 0.657805 0.627456 0.667801
Si Si8 0.930589 0.214602 0.686262
O O1 0.830369 0.959431 0.611872
O O2 0.606319 0.936261 0.811243
O O3 0.631217 0.124056 0.691835
O O4 0.808924 0.109681 0.750053
O O5 0.556545 0.311167 0.802455
O O6 0.706078 0.377576 0.873173
O O7 0.681335 0.522093 0.730903
O O8 0.840862 0.325450 0.679027
O O9 0.671540 0.890975 0.549045
O O10 0.775675 0.732096 0.615561
O O11 0.945528 0.832069 0.427965
O O12 0.507032 0.749532 0.538743
O O13 0.500000 0.000000 0.500000
O O14 0.500000 0.500000 0.000000
O O15 0.648288 0.416821 0.070091
O O16 0.500000 0.681664 0.750000
O O17 0.000000 0.248686 0.750000
#
# Coordination Sequence:
#
# PCOD9227530 Si02
#       8
#     4   4   4   4   2   4   4   4
#     4  11  21  37  64  89 125 160 210 266 312 384
#     4  11  22  39  64  90 129 164 213 266 316 387
#     4  11  22  38  60  90 125 164 210 250 326 387
#     4  11  21  36  62  98 123 161 208 270 317 373
#     4  10  18  36  58  96 120 158 206 264 320 368
#     4  11  21  35  60  95 128 161 206 266 329 371
#     4  11  21  38  63  92 125 161 213 270 316 370
#     4  11  24  42  60  88 126 171 207 254 326 394
#
# _framework density 19.499431000000001
#
# number of rings (size 3 to 8) (size 9 to 14) (size 15 to 20)
#    0.000    1.067    3.333    6.000    0.000    0.533 
#    0.000    0.000    0.000    0.800    0.000    0.000 
#    0.000    0.000    0.000    0.000    0.000    0.000 
#
# Total GULP energy -167127.693547 kJ/mol
# GULP energy per Si atom -5570.923118 kJ/mol
# Density = 1.945505 g / cm^3
# Si number density = 19.499431 Si / 1000 Ang^3
#
#
#
# Elastic Constant Matrix: (Units=GPa)
#
#
# Indices 1 2 3 4 5 6 
#
# 1 62.0069 27.4834 20.8436 0.0000 -6.6997 0.0000
# 2 27.4834 113.1001 21.0645 0.0000 -4.5312 0.0000
# 3 20.8436 21.0645 95.7606 0.0000 -6.0165 0.0000
# 4 0.0000 0.0000 0.0000 25.2821 0.0000 -0.1140
# 5 -6.6997 -4.5312 -6.0165 0.0000 32.5460 0.0000
# 6 0.0000 0.0000 0.0000 -0.1140 0.0000 24.7994
#
#
#
# Elastic Compliance Matrix: (Units=1/GPa)
#
#
# Indices 1 2 3 4 5 6 
#
# 1 0.019252 -0.003981 -0.003137 0.000000 0.002829 0.000000
# 2 -0.003981 0.010070 -0.001327 0.000000 0.000337 0.000000
# 3 -0.003137 -0.001327 0.011499 0.000000 0.001295 0.000000
# 4 0.000000 0.000000 0.000000 0.039554 0.000000 0.000182
# 5 0.002829 0.000337 0.001295 0.000000 0.031594 0.000000
# 6 0.000000 0.000000 0.000000 0.000182 0.000000 0.040324
#
#
# Mechanical properties :
#
#
# Convention : Reuss Voigt Hill
#
# Bulk Modulus (GPa) = 41.78815 45.51673 43.65244
# Shear Modulus (GPa) = 28.22298 29.95724 29.09011
#
# Velocity S-wave (km/s) = 3.80856 3.92384 3.86663
# Velocity P-wave (km/s) = 6.38883 6.62736 6.50919
#
# Compressibility (1/GPa) = 0.02393023
#
# Stress axis : x y z
#
# Youngs Moduli (GPa) = 51.94336 99.30738 86.96482
#
# Poissons Ratio (x) = 0.39530 0.27281
# Poissons Ratio (y) = 0.20676 0.11544
# Poissons Ratio (z) = 0.16295 0.13182
#
# Static dielectric constant tensor:
#      x y z
#    x 1.683340 0.000000 0.020160 
#    y 0.000000 1.742010 0.000000 
#    z 0.020160 0.000000 1.765030 
# 
# From -- ./inp_files/51180.got.cif
#   From: 2010.05.17/outbox.cif.g08.bks.cpg/sg13_26_cif.got.tgz:51180.got - 2010.06.03 16:44:36.
