data_PCOD9227186
_publ_section_title
;
Structure prediction by ZEFSAII (Michael W. Deem and Ramdas Pophale) SiO2 
 PCOD9227186
Probable space group: P 2/C
;
_chemical_formula_sum "Si O2"
_cell_formula_units_Z 22
_cell_length_a 17.642305
_cell_length_b 7.814045
_cell_length_c 12.804165
_cell_angle_alpha 90.000000
_cell_angle_beta 152.199971
_cell_angle_gamma 90.000000
_cell_volume 823.244834
_symmetry_space_group_name_H-M "P 2/C"
_symmetry_group_IT_number 13
_symmetry_cell_setting 'monoclinic'
loop_
_space_group_symop_operation_xyz
x,y,z
-x,y,1/2-z
-x,-y,-z
x,-y,1/2+z
loop_
_atom_site_type_symbol
_atom_site_label
_atom_site_fract_x
_atom_site_fract_y
_atom_site_fract_z
Si Si1 0.000000 0.692687 0.250000
Si Si2 0.503412 0.434397 0.378443
Si Si3 0.186267 0.033916 0.763226
Si Si4 0.493225 0.206897 0.614001
Si Si5 0.287293 0.894257 0.630545
Si Si6 0.843171 0.419738 0.760669
O O1 0.118220 0.811950 0.462340
O O2 0.116512 0.589580 0.313818
O O3 0.500000 0.401347 0.250000
O O4 0.425035 0.610192 0.323021
O O5 0.417611 0.259264 0.308219
O O6 0.684816 0.519163 0.601829
O O7 0.204530 0.232989 0.754398
O O8 0.231184 0.059249 0.941569
O O9 0.000000 0.000000 0.500000
O O10 0.317920 0.893321 0.884722
O O11 0.500000 0.219154 0.750000
O O12 0.624059 0.067835 0.733913
O O13 0.000000 0.500000 0.000000
#
# Coordination Sequence:
#
# PCOD9227186 Si02
#       6
#     2   4   4   4   4   4
#     4  10  22  38  68  92 142 176 222 280 348 392
#     4  11  17  35  66  89 120 178 224 259 330 406
#     4  10  18  33  58  90 128 161 215 274 326 391
#     4   9  18  30  59  88 113 166 223 260 320 401
#     4  10  19  39  60  90 125 176 215 267 332 397
#     4  11  22  38  66  99 130 178 226 278 341 398
#
# _framework density 26.723521000000002
#
# number of rings (size 3 to 8) (size 9 to 14) (size 15 to 20)
#    0.000    1.818    5.455    1.636    0.000    0.000 
#    0.000    1.818    8.000    5.455    0.000    0.000 
#    0.000    0.000    0.000    0.000    0.000    0.000 
#
# Total GULP energy -122484.529822 kJ/mol
# GULP energy per Si atom -5567.478628 kJ/mol
# Density = 2.666270 g / cm^3
# Si number density = 26.723521 Si / 1000 Ang^3
#
#
#
# Elastic Constant Matrix: (Units=GPa)
#
#
# Indices 1 2 3 4 5 6 
#
# 1 106.2189 18.2478 6.6627 0.0000 8.2757 0.0000
# 2 18.2478 122.6709 -13.2405 0.0000 14.9415 0.0000
# 3 6.6627 -13.2405 122.3823 0.0000 9.5540 0.0000
# 4 0.0000 0.0000 0.0000 4.9995 0.0000 8.7184
# 5 8.2757 14.9415 9.5540 0.0000 30.7410 0.0000
# 6 0.0000 0.0000 0.0000 8.7184 0.0000 34.2456
#
#
#
# Elastic Compliance Matrix: (Units=1/GPa)
#
#
# Indices 1 2 3 4 5 6 
#
# 1 0.009814 -0.001292 -0.000530 0.000000 -0.001849 0.000000
# 2 -0.001292 0.009041 0.001398 0.000000 -0.004481 0.000000
# 3 -0.000530 0.001398 0.008602 0.000000 -0.003210 0.000000
# 4 0.000000 0.000000 0.000000 0.359728 0.000000 -0.091582
# 5 -0.001849 -0.004481 -0.003210 0.000000 0.036203 0.000000
# 6 0.000000 0.000000 0.000000 -0.091582 0.000000 0.052516
#
#
# Mechanical properties :
#
#
# Convention : Reuss Voigt Hill
#
# Bulk Modulus (GPa) = 37.57967 41.62357 39.60162
# Shear Modulus (GPa) = 10.29611 36.63736 23.46673
#
# Velocity S-wave (km/s) = 1.96499 3.70669 2.96654
# Velocity P-wave (km/s) = 4.38648 5.82485 5.15606
#
# Compressibility (1/GPa) = 0.02661013
#
# Stress axis : x y z
#
# Youngs Moduli (GPa) = 101.89787 110.61014 116.25403
#
# Poissons Ratio (x) = 0.14288 0.06157
# Poissons Ratio (y) = 0.13162 -0.16255
# Poissons Ratio (z) = 0.05397 -0.15466
#
# Static dielectric constant tensor:
#      x y z
#    x 0.565600 0.000000 -2.805780 
#    y 0.000000 0.207190 0.000000 
#    z -2.805780 0.000000 -2.229900 
# 
# From -- ./inp_files/71179.got.cif
#   From: 2010.05.17/outbox.cif.g08.bks.cpg/sg13_36_cif.got.tgz:71179.got - 2010.06.03 16:44:36.
