data_PCOD9227640
_publ_section_title
;
Structure prediction by ZEFSAII (Michael W. Deem and Ramdas Pophale) SiO2 
 PCOD9227640
Probable space group: P 2/C
;
_chemical_formula_sum "Si O2"
_cell_formula_units_Z 30
_cell_length_a 16.024188
_cell_length_b 12.373799
_cell_length_c 7.473790
_cell_angle_alpha 90.000000
_cell_angle_beta 61.523842
_cell_angle_gamma 90.000000
_cell_volume 1302.616450
_symmetry_space_group_name_H-M "P 2/C"
_symmetry_group_IT_number 13
_symmetry_cell_setting 'monoclinic'
loop_
_space_group_symop_operation_xyz
x,y,z
-x,y,1/2-z
-x,-y,-z
x,-y,1/2+z
loop_
_atom_site_type_symbol
_atom_site_label
_atom_site_fract_x
_atom_site_fract_y
_atom_site_fract_z
Si Si1 0.500000 0.230146 0.250000
Si Si2 0.864590 0.399695 0.639667
Si Si3 0.376672 0.392031 0.247319
Si Si4 0.400610 0.057307 0.160232
Si Si5 0.097583 0.219218 0.169684
Si Si6 0.160022 0.636279 0.915768
Si Si7 0.351662 0.628040 0.193852
Si Si8 0.310325 0.149897 0.903200
O O1 0.465929 0.312470 0.125011
O O2 0.416695 0.140751 0.308394
O O3 0.918264 0.317336 0.456687
O O4 0.888387 0.526063 0.606196
O O5 0.858354 0.361794 0.852220
O O6 0.759439 0.398539 0.658851
O O7 0.274900 0.369708 0.259462
O O8 0.402043 0.518231 0.206082
O O9 0.357677 0.366252 0.474284
O O10 0.333811 0.958520 0.273864
O O11 0.354897 0.126741 0.050353
O O12 0.500000 0.000000 0.000000
O O13 0.118250 0.265779 0.345998
O O14 0.000000 0.153313 0.250000
O O15 0.197553 0.166164 0.015382
O O16 0.363137 0.744455 0.270438
#
# Coordination Sequence:
#
# PCOD9227640 Si02
#       8
#     2   4   4   4   4   4   4   4
#     4  12  24  38  62  98 132 164 232 272 336 428
#     4   9  18  34  61  91 134 183 240 277 335 411
#     4  10  22  37  60  94 138 179 215 267 343 422
#     4  12  24  46  74 100 127 175 237 301 349 404
#     4  11  24  41  64  98 138 183 237 292 352 424
#     4  10  18  37  61  90 133 194 232 283 341 411
#     4   9  21  38  62  92 135 179 220 261 338 419
#     4  11  25  47  71  99 137 177 232 298 351 405
#
# _framework density 23.030569
#
# number of rings (size 3 to 8) (size 9 to 14) (size 15 to 20)
#    0.000    1.600    2.667    1.600    7.467    1.600 
#    4.800    0.667    0.000    0.000    0.000    0.000 
#    0.000    0.000    0.000    0.000    0.000    0.000 
#
# Total GULP energy -167371.552589 kJ/mol
# GULP energy per Si atom -5579.051753 kJ/mol
# Density = 2.297815 g / cm^3
# Si number density = 23.030569 Si / 1000 Ang^3
#
#
#
# Elastic Constant Matrix: (Units=GPa)
#
#
# Indices 1 2 3 4 5 6 
#
# 1 127.9191 66.5433 42.5567 0.0000 -12.5233 0.0000
# 2 66.5433 147.7876 40.8353 0.0000 10.3603 0.0000
# 3 42.5567 40.8353 82.4486 0.0000 10.3718 0.0000
# 4 0.0000 0.0000 0.0000 35.5219 0.0000 10.1815
# 5 -12.5233 10.3603 10.3718 0.0000 36.8121 0.0000
# 6 0.0000 0.0000 0.0000 10.1815 0.0000 31.5509
#
#
#
# Elastic Compliance Matrix: (Units=1/GPa)
#
#
# Indices 1 2 3 4 5 6 
#
# 1 0.012705 -0.004819 -0.005065 0.000000 0.007106 0.000000
# 2 -0.004819 0.009715 -0.001839 0.000000 -0.003855 0.000000
# 3 -0.005065 -0.001839 0.016386 0.000000 -0.005822 0.000000
# 4 0.000000 0.000000 0.000000 0.031021 0.000000 -0.010011
# 5 0.007106 -0.003855 -0.005822 0.000000 0.032308 0.000000
# 6 0.000000 0.000000 0.000000 -0.010011 0.000000 0.034925
#
#
# Mechanical properties :
#
#
# Convention : Reuss Voigt Hill
#
# Bulk Modulus (GPa) = 65.10454 73.11399 69.10927
# Shear Modulus (GPa) = 30.18846 34.65832 32.42339
#
# Velocity S-wave (km/s) = 3.62442 3.88349 3.75619
# Velocity P-wave (km/s) = 6.77092 7.20584 6.99176
#
# Compressibility (1/GPa) = 0.01535991
#
# Stress axis : x y z
#
# Youngs Moduli (GPa) = 78.70906 102.93540 61.02665
#
# Poissons Ratio (x) = 0.49607 0.30909
# Poissons Ratio (y) = 0.37932 0.11223
# Poissons Ratio (z) = 0.39864 0.18930
#
# Static dielectric constant tensor:
#      x y z
#    x 1.039910 0.000000 -0.567970 
#    y 0.000000 1.907370 0.000000 
#    z -0.567970 0.000000 1.759330 
# 
# From -- ./inp_files/21730.got.cif
#   From: 2010.05.17/outbox.cif.g08.bks.cpg/sg13_11_cif.got.tgz:21730.got - 2010.06.03 16:44:36.
