data_PCOD9227187
_publ_section_title
;
Structure prediction by ZEFSAII (Michael W. Deem and Ramdas Pophale) SiO2 
 PCOD9227187
Probable space group: P 2/C
;
_chemical_formula_sum "Si O2"
_cell_formula_units_Z 22
_cell_length_a 8.469565
_cell_length_b 7.504684
_cell_length_c 14.356440
_cell_angle_alpha 90.000000
_cell_angle_beta 72.117258
_cell_angle_gamma 90.000000
_cell_volume 868.429134
_symmetry_space_group_name_H-M "P 2/C"
_symmetry_group_IT_number 13
_symmetry_cell_setting 'monoclinic'
loop_
_space_group_symop_operation_xyz
x,y,z
-x,y,1/2-z
-x,-y,-z
x,-y,1/2+z
loop_
_atom_site_type_symbol
_atom_site_label
_atom_site_fract_x
_atom_site_fract_y
_atom_site_fract_z
Si Si1 0.500000 0.777559 0.750000
Si Si2 0.963069 0.190789 0.631171
Si Si3 0.713776 0.615500 0.431540
Si Si4 0.795180 0.529765 0.631016
Si Si5 0.400533 0.769969 0.576964
Si Si6 0.965276 0.822950 0.909758
O O1 0.650343 0.650732 0.694436
O O2 0.452023 0.870357 0.662148
O O3 0.131251 0.279080 0.640350
O O4 0.812364 0.328353 0.661613
O O5 0.002712 0.177869 0.512921
O O6 0.941242 0.984653 0.658787
O O7 0.771107 0.537805 0.523194
O O8 0.559074 0.747072 0.481119
O O9 0.646401 0.439182 0.392609
O O10 0.961106 0.633722 0.633808
O O11 0.230374 0.846303 0.567922
#
# Coordination Sequence:
#
# PCOD9227187 Si02
#       6
#     2   4   4   4   4   4
#     4  10  24  34  60  74 112 164 190 212 292 326
#     4  10  18  33  58  91 105 138 180 238 283 330
#     4   9  17  32  59  81 112 134 183 233 280 312
#     4  10  18  38  55  83 110 145 182 238 269 340
#     4  10  18  34  55  83 107 151 181 228 270 336
#     4  10  19  32  61  84 112 139 182 232 289 324
#
# _framework density 25.333096999999999
#
# number of rings (size 3 to 8) (size 9 to 14) (size 15 to 20)
#    0.000    2.182    3.636    1.091    0.000    1.455 
#    0.000    0.909    8.000    0.000    0.000    0.000 
#    0.000    0.000    0.000    0.000    0.000    0.000 
#
# Total GULP energy -122888.257289 kJ/mol
# GULP energy per Si atom -5585.829877 kJ/mol
# Density = 2.527544 g / cm^3
# Si number density = 25.333097 Si / 1000 Ang^3
#
#
#
# Elastic Constant Matrix: (Units=GPa)
#
#
# Indices 1 2 3 4 5 6 
#
# 1 109.8387 6.4877 3.9752 0.0000 -0.5144 0.0000
# 2 6.4877 67.5279 -11.6381 0.0000 8.3917 0.0000
# 3 3.9752 -11.6381 33.4355 0.0000 26.3701 0.0000
# 4 0.0000 0.0000 0.0000 -1.8721 0.0000 -2.1991
# 5 -0.5144 8.3917 26.3701 0.0000 42.0815 0.0000
# 6 0.0000 0.0000 0.0000 -2.1991 0.0000 13.3479
#
#
#
# Elastic Compliance Matrix: (Units=1/GPa)
#
#
# Indices 1 2 3 4 5 6 
#
# 1 0.009405 -0.002090 -0.004479 0.000000 0.003338 0.000000
# 2 -0.002090 0.020884 0.021398 0.000000 -0.017599 0.000000
# 3 -0.004479 0.021398 0.081652 0.000000 -0.055489 0.000000
# 4 0.000000 0.000000 0.000000 -0.447543 0.000000 -0.073732
# 5 0.003338 -0.017599 -0.055489 0.000000 0.062086 0.000000
# 6 0.000000 0.000000 0.000000 -0.073732 0.000000 0.062771
#
#
# Mechanical properties :
#
#
# Convention : Reuss Voigt Hill
#
# Bulk Modulus (GPa) = 7.06213 23.16131 15.11172
# Shear Modulus (GPa) = -25.87966 24.84325 -0.51821
#
# Velocity S-wave (km/s) = -3.19968 3.13495 -0.45277
# Velocity P-wave (km/s) = 3.29497 4.71873 2.38848
#
# Compressibility (1/GPa) = 0.14160029
#
# Stress axis : x y z
#
# Youngs Moduli (GPa) = 106.32117 47.88249 12.24703
#
# Poissons Ratio (x) = 0.10009 0.05485
# Poissons Ratio (y) = 0.22225 -0.26207
# Poissons Ratio (z) = 0.47620 -1.02460
#
# Static dielectric constant tensor:
#      x y z
#    x 2.037840 0.000000 0.030940 
#    y 0.000000 2.061460 0.000000 
#    z 0.030940 0.000000 2.106130 
# 
# From -- ./inp_files/63284.got.cif
#   From: 2010.05.17/outbox.cif.g08.bks.cpg/sg13_32_cif.got.tgz:63284.got - 2010.06.03 16:44:36.
