data_PCOD9227181
_publ_section_title
;
Structure prediction by ZEFSAII (Michael W. Deem and Ramdas Pophale) SiO2 
 PCOD9227181
Probable space group: P 2/C
;
_chemical_formula_sum "Si O2"
_cell_formula_units_Z 28
_cell_length_a 9.166860
_cell_length_b 9.575787
_cell_length_c 29.168655
_cell_angle_alpha 90.000000
_cell_angle_beta 32.167914
_cell_angle_gamma 90.000000
_cell_volume 1363.174389
_symmetry_space_group_name_H-M "P 2/C"
_symmetry_group_IT_number 13
_symmetry_cell_setting 'monoclinic'
loop_
_space_group_symop_operation_xyz
x,y,z
-x,y,1/2-z
-x,-y,-z
x,-y,1/2+z
loop_
_atom_site_type_symbol
_atom_site_label
_atom_site_fract_x
_atom_site_fract_y
_atom_site_fract_z
Si Si1 0.641073 0.755148 0.385486
Si Si2 0.822637 0.031473 0.907530
Si Si3 0.968261 0.264549 0.941267
Si Si4 0.778575 0.616587 0.577265
Si Si5 0.098100 0.458809 0.619150
Si Si6 0.566703 0.368329 0.809598
Si Si7 0.062477 0.253889 0.087004
O O1 0.819711 0.878403 0.361346
O O2 0.668154 0.726845 0.324633
O O3 0.323805 0.776183 0.484406
O O4 0.720642 0.612470 0.390445
O O5 0.923918 0.132006 0.921207
O O6 0.984255 0.887143 0.871828
O O7 0.500000 0.000000 0.000000
O O8 0.836647 0.391667 0.947382
O O9 0.287462 0.298755 0.865375
O O10 0.810008 0.262249 0.031534
O O11 0.510286 0.522317 0.650863
O O12 0.000000 0.500000 0.500000
O O13 0.842655 0.680514 0.610130
O O14 0.795601 0.400232 0.711321
O O15 0.121047 0.622845 0.607438
#
# Coordination Sequence:
#
# PCOD9227181 Si02
#       7
#     4   4   4   4   4   4   4
#     4  10  20  38  57  85 118 154 195 242 295 357
#     4   9  22  37  58  86 116 154 194 240 294 356
#     4  10  19  37  59  82 114 157 201 232 293 356
#     4  10  18  33  58  88 116 146 194 254 289 334
#     4  11  21  33  62  86 113 153 196 247 290 352
#     4  11  20  35  60  88 115 149 201 247 298 343
#     4  11  19  37  59  88 118 148 197 246 294 345
#
# _framework density 20.540292999999998
#
# number of rings (size 3 to 8) (size 9 to 14) (size 15 to 20)
#    0.000    1.714    5.714    1.286    0.000    2.857 
#    0.000    0.000   12.571    8.571    0.000    0.000 
#    0.000    0.000    0.000    0.000    0.000    0.000 
#
# Total GULP energy -156102.837431 kJ/mol
# GULP energy per Si atom -5575.101337 kJ/mol
# Density = 2.049354 g / cm^3
# Si number density = 20.540293 Si / 1000 Ang^3
#
#
#
# Elastic Constant Matrix: (Units=GPa)
#
#
# Indices 1 2 3 4 5 6 
#
# 1 93.6092 44.7329 8.3041 0.0000 11.2093 0.0000
# 2 44.7329 136.7817 -3.3048 0.0000 9.4059 0.0000
# 3 8.3041 -3.3048 47.0897 0.0000 3.8776 0.0000
# 4 0.0000 0.0000 0.0000 12.7959 0.0000 -4.0138
# 5 11.2093 9.4059 3.8776 0.0000 21.1141 0.0000
# 6 0.0000 0.0000 0.0000 -4.0138 0.0000 33.3045
#
#
#
# Elastic Compliance Matrix: (Units=1/GPa)
#
#
# Indices 1 2 3 4 5 6 
#
# 1 0.013433 -0.004111 -0.002255 0.000000 -0.004885 0.000000
# 2 -0.004111 0.008832 0.001512 0.000000 -0.002029 0.000000
# 3 -0.002255 0.001512 0.022030 0.000000 -0.003522 0.000000
# 4 0.000000 0.000000 0.000000 0.081220 0.000000 0.009788
# 5 -0.004885 -0.002029 -0.003522 0.000000 0.051506 0.000000
# 6 0.000000 0.000000 0.000000 0.009788 0.000000 0.031206
#
#
# Mechanical properties :
#
#
# Convention : Reuss Voigt Hill
#
# Bulk Modulus (GPa) = 28.91438 41.88277 35.39857
# Shear Modulus (GPa) = 21.78997 28.62614 25.20805
#
# Velocity S-wave (km/s) = 3.26059 3.73722 3.50701
# Velocity P-wave (km/s) = 5.31815 6.24958 5.80258
#
# Compressibility (1/GPa) = 0.03458487
#
# Stress axis : x y z
#
# Youngs Moduli (GPa) = 74.44622 113.22980 45.39292
#
# Poissons Ratio (x) = 0.46554 0.10236
# Poissons Ratio (y) = 0.30608 -0.06863
# Poissons Ratio (z) = 0.16788 -0.17120
#
# Static dielectric constant tensor:
#      x y z
#    x 1.766760 0.000000 -0.015640 
#    y 0.000000 1.783860 0.000000 
#    z -0.015640 0.000000 1.783790 
# 
# From -- ./inp_files/75337.got.cif
#   From: 2010.05.17/outbox.cif.g08.bks.cpg/sg13_38_cif.got.tgz:75337.got - 2010.06.03 16:44:36.
