data_PCOD9227937
_publ_section_title
;
Structure prediction by ZEFSAII (Michael W. Deem and Ramdas Pophale) SiO2 
 PCOD9227937
Probable space group: P 2/C
;
_chemical_formula_sum "Si O2"
_cell_formula_units_Z 18
_cell_length_a 25.925513
_cell_length_b 5.022064
_cell_length_c 5.070765
_cell_angle_alpha 90.000000
_cell_angle_beta 103.404481
_cell_angle_gamma 90.000000
_cell_volume 642.225855
_symmetry_space_group_name_H-M "P 2/C"
_symmetry_group_IT_number 13
_symmetry_cell_setting 'monoclinic'
loop_
_space_group_symop_operation_xyz
x,y,z
-x,y,1/2-z
-x,-y,-z
x,-y,1/2+z
loop_
_atom_site_type_symbol
_atom_site_label
_atom_site_fract_x
_atom_site_fract_y
_atom_site_fract_z
Si Si1 0.834852 0.686757 0.485362
Si Si2 0.500000 0.193684 0.750000
Si Si3 0.055299 0.312938 0.250620
Si Si4 0.392504 0.163180 0.761000
Si Si5 0.726136 0.338350 0.008061
O O1 0.835694 0.558077 0.198256
O O2 0.889665 0.833637 0.617818
O O3 0.778381 0.821754 0.478899
O O4 0.443167 0.333629 0.719326
O O5 0.500000 0.000000 0.500000
O O6 0.055305 0.559557 0.461119
O O7 0.000000 0.169277 0.250000
O O8 0.332976 0.248543 0.627876
O O9 0.396727 0.905313 0.573237
O O10 0.729955 0.404458 0.319624
#
# Coordination Sequence:
#
# PCOD9227937 Si02
#       5
#     4   2   4   4   4
#     4   8  14  23  35  52  78 109 135 165 211 257
#     4   8  16  30  48  66  86 114 146 180 218 258
#     4   8  12  18  29  46  69  99 133 165 199 243
#     4  10  19  33  51  69  89 117 152 184 216 260
#     4  10  19  31  46  67  94 120 145 179 225 267
#
# _framework density 28.027522999999999
#
# number of rings (size 3 to 8) (size 9 to 14) (size 15 to 20)
#    0.000    3.111    0.000    1.333    0.000    0.000 
#    0.000    1.111    0.000    0.000    0.000    0.000 
#    0.000    1.778    0.000    0.000    0.000   14.222 
#
# Total GULP energy -100570.244574 kJ/mol
# GULP energy per Si atom -5587.235810 kJ/mol
# Density = 2.796373 g / cm^3
# Si number density = 28.027523 Si / 1000 Ang^3
#
#
#
# Elastic Constant Matrix: (Units=GPa)
#
#
# Indices 1 2 3 4 5 6 
#
# 1 307.0911 26.6108 5.1906 0.0000 33.6230 0.0000
# 2 26.6108 61.9939 39.7967 0.0000 -6.6816 0.0000
# 3 5.1906 39.7967 166.2753 0.0000 -8.9821 0.0000
# 4 0.0000 0.0000 0.0000 49.4493 0.0000 -8.3089
# 5 33.6230 -6.6816 -8.9821 0.0000 52.7475 0.0000
# 6 0.0000 0.0000 0.0000 -8.3089 0.0000 11.8011
#
#
#
# Elastic Compliance Matrix: (Units=1/GPa)
#
#
# Indices 1 2 3 4 5 6 
#
# 1 0.003710 -0.002017 0.000227 0.000000 -0.002582 0.000000
# 2 -0.002017 0.020299 -0.004630 0.000000 0.003068 0.000000
# 3 0.000227 -0.004630 0.007141 0.000000 0.000485 0.000000
# 4 0.000000 0.000000 0.000000 0.022936 0.000000 0.016149
# 5 -0.002582 0.003068 0.000485 0.000000 0.021075 0.000000
# 6 0.000000 0.000000 0.000000 0.016149 0.000000 0.096108
#
#
# Mechanical properties :
#
#
# Convention : Reuss Voigt Hill
#
# Bulk Modulus (GPa) = 54.60827 75.39518 65.00173
# Shear Modulus (GPa) = 26.28655 53.71706 40.00181
#
# Velocity S-wave (km/s) = 3.06581 4.38263 3.78197
# Velocity P-wave (km/s) = 5.66201 7.25043 6.50489
#
# Compressibility (1/GPa) = 0.01831224
#
# Stress axis : x y z
#
# Youngs Moduli (GPa) = 269.54710 49.26348 140.03081
#
# Poissons Ratio (x) = 0.09935 -0.03185
# Poissons Ratio (y) = 0.54360 0.64830
# Poissons Ratio (z) = -0.06130 0.22808
#
# Static dielectric constant tensor:
#      x y z
#    x 2.369690 0.000000 0.084450 
#    y 0.000000 2.312820 0.000000 
#    z 0.084450 0.000000 2.076270 
# 
# From -- ./inp_files/6634.got.cif
#   From: 2010.05.17/outbox.cif.g08.bks.cpg/sg13_4_cif.got.tgz:6634.got - 2010.06.03 16:44:36.
