data_PCOD9227975
_publ_section_title
;
Structure prediction by ZEFSAII (Michael W. Deem and Ramdas Pophale) SiO2 
 PCOD9227975
Probable space group: P 2/C
;
_chemical_formula_sum "Si O2"
_cell_formula_units_Z 26
_cell_length_a 24.648260
_cell_length_b 5.326508
_cell_length_c 16.190226
_cell_angle_alpha 90.000000
_cell_angle_beta 29.423903
_cell_angle_gamma 90.000000
_cell_volume 1044.238023
_symmetry_space_group_name_H-M "P 2/C"
_symmetry_group_IT_number 13
_symmetry_cell_setting 'monoclinic'
loop_
_space_group_symop_operation_xyz
x,y,z
-x,y,1/2-z
-x,-y,-z
x,-y,1/2+z
loop_
_atom_site_type_symbol
_atom_site_label
_atom_site_fract_x
_atom_site_fract_y
_atom_site_fract_z
Si Si1 0.685976 0.384466 0.132284
Si Si2 0.556274 0.372631 0.003527
Si Si3 0.827713 0.536016 0.586214
Si Si4 0.665899 0.886367 0.092994
Si Si5 0.408385 0.127326 0.984212
Si Si6 0.932033 0.019602 0.505387
Si Si7 0.000000 0.793782 0.250000
O O1 0.554680 0.337994 0.293222
O O2 0.728317 0.103426 0.059997
O O3 0.720316 0.613253 0.028567
O O4 0.713330 0.480719 0.188318
O O5 0.603773 0.092284 0.931928
O O6 0.628200 0.587112 0.951519
O O7 0.500000 0.500000 0.000000
O O8 0.871124 0.285248 0.572021
O O9 0.903246 0.605058 0.405653
O O10 0.846128 0.785786 0.616145
O O11 0.650542 0.969741 0.019496
O O12 0.540719 0.845477 0.293256
O O13 0.006579 0.962724 0.324389
O O14 0.000000 0.000000 0.500000
#
# Coordination Sequence:
#
# PCOD9227975 Si02
#       7
#     4   4   4   4   4   4   2
#     4  10  19  32  54  76 103 139 173 220 273 321
#     4  10  19  31  50  69 101 143 181 214 261 320
#     4  10  20  36  58  84 113 142 189 232 282 349
#     4   9  17  30  50  75  98 129 177 219 264 308
#     4   9  17  30  49  71  95 133 178 221 251 311
#     4  10  20  37  62  86 113 153 187 230 289 351
#     4   8  22  34  64  84 112 144 190 234 282 356
#
# _framework density 24.898536
#
# number of rings (size 3 to 8) (size 9 to 14) (size 15 to 20)
#    0.923    1.538    0.000    3.231    0.000    3.692 
#    0.000    0.000   10.154    0.000    0.000    0.000 
#    0.000    0.000    0.000    0.000    0.000    0.000 
#
# Total GULP energy -144897.645428 kJ/mol
# GULP energy per Si atom -5572.986363 kJ/mol
# Density = 2.484187 g / cm^3
# Si number density = 24.898536 Si / 1000 Ang^3
#
#
#
# Elastic Constant Matrix: (Units=GPa)
#
#
# Indices 1 2 3 4 5 6 
#
# 1 135.7369 42.8015 11.3154 0.0000 -8.8047 0.0000
# 2 42.8015 182.2137 3.7462 0.0000 -13.7121 0.0000
# 3 11.3154 3.7462 46.6080 0.0000 -6.6747 0.0000
# 4 0.0000 0.0000 0.0000 20.9374 0.0000 -3.5121
# 5 -8.8047 -13.7121 -6.6747 0.0000 29.3790 0.0000
# 6 0.0000 0.0000 0.0000 -3.5121 0.0000 47.3715
#
#
#
# Elastic Compliance Matrix: (Units=1/GPa)
#
#
# Indices 1 2 3 4 5 6 
#
# 1 0.008149 -0.001787 -0.001658 0.000000 0.001231 0.000000
# 2 -0.001787 0.006080 0.000284 0.000000 0.002367 0.000000
# 3 -0.001658 0.000284 0.022516 0.000000 0.004751 0.000000
# 4 0.000000 0.000000 0.000000 0.048363 0.000000 0.003586
# 5 0.001231 0.002367 0.004751 0.000000 0.036591 0.000000
# 6 0.000000 0.000000 0.000000 0.003586 0.000000 0.021376
#
#
# Mechanical properties :
#
#
# Convention : Reuss Voigt Hill
#
# Bulk Modulus (GPa) = 32.87144 53.36495 43.11820
# Shear Modulus (GPa) = 31.34052 39.98395 35.66223
#
# Velocity S-wave (km/s) = 3.55171 4.01169 3.78868
# Velocity P-wave (km/s) = 5.48182 6.55268 6.04102
#
# Compressibility (1/GPa) = 0.03042155
#
# Stress axis : x y z
#
# Youngs Moduli (GPa) = 122.71557 164.46884 44.41344
#
# Poissons Ratio (x) = 0.29397 0.07365
# Poissons Ratio (y) = 0.21934 -0.01262
# Poissons Ratio (z) = 0.20351 -0.04674
#
# Static dielectric constant tensor:
#      x y z
#    x 2.013310 0.000000 0.047550 
#    y 0.000000 2.016720 0.000000 
#    z 0.047550 0.000000 2.305660 
# 
# From -- ./inp_files/70254.got.cif
#   From: 2010.05.17/outbox.cif.g08.bks.cpg/sg13_36_cif.got.tgz:70254.got - 2010.06.03 16:44:36.
