data_PCOD9227466
_publ_section_title
;
Structure prediction by ZEFSAII (Michael W. Deem and Ramdas Pophale) SiO2 
 PCOD9227466
Probable space group: P 2/C
;
_chemical_formula_sum "Si O2"
_cell_formula_units_Z 28
_cell_length_a 8.028146
_cell_length_b 12.598294
_cell_length_c 14.648632
_cell_angle_alpha 90.000000
_cell_angle_beta 126.008654
_cell_angle_gamma 90.000000
_cell_volume 1198.488989
_symmetry_space_group_name_H-M "P 2/C"
_symmetry_group_IT_number 13
_symmetry_cell_setting 'monoclinic'
loop_
_space_group_symop_operation_xyz
x,y,z
-x,y,1/2-z
-x,-y,-z
x,-y,1/2+z
loop_
_atom_site_type_symbol
_atom_site_label
_atom_site_fract_x
_atom_site_fract_y
_atom_site_fract_z
Si Si1 0.283351 0.443643 0.432992
Si Si2 0.096826 0.048245 0.442381
Si Si3 0.316321 0.299535 0.263971
Si Si4 0.903088 0.723811 0.507306
Si Si5 0.238061 0.874388 0.365900
Si Si6 0.653645 0.061115 0.214944
Si Si7 0.901195 0.332728 0.619461
O O1 0.500000 0.500000 0.500000
O O2 0.266434 0.381996 0.329950
O O3 0.253127 0.362287 0.505389
O O4 0.142662 0.544543 0.413514
O O5 0.184763 0.161473 0.495700
O O6 0.898595 0.063376 0.314287
O O7 0.241069 0.958218 0.449373
O O8 0.000000 0.000000 0.500000
O O9 0.500000 0.326567 0.250000
O O10 0.369568 0.183952 0.326585
O O11 0.113076 0.290166 0.134698
O O12 0.964845 0.713029 0.421224
O O13 0.275492 0.756517 0.417062
O O14 0.000000 0.869043 0.250000
O O15 0.368093 0.943979 0.336757
O O16 0.500000 0.060247 0.250000
O O17 0.000000 0.340767 0.750000
#
# Coordination Sequence:
#
# PCOD9227466 Si02
#       7
#     4   4   4   4   4   4   4
#     4  12  26  43  62  93 125 162 220 268 321 384
#     4  10  18  35  62  91 118 153 211 251 317 386
#     4  10  21  41  70  93 122 162 219 271 321 384
#     4  11  22  41  68  91 126 170 213 267 321 386
#     4   9  18  35  57  85 122 157 196 252 312 388
#     4   9  19  36  60  90 122 160 203 261 322 382
#     4  11  23  40  61  88 125 167 210 258 321 380
#
# _framework density 23.362750999999999
#
# number of rings (size 3 to 8) (size 9 to 14) (size 15 to 20)
#    0.000    1.714    1.429    3.429    0.000    3.429 
#    2.571    1.429    0.000    0.000    0.000    0.000 
#    0.000    0.000    0.000    0.000    0.000    0.000 
#
# Total GULP energy -156044.661044 kJ/mol
# GULP energy per Si atom -5573.023609 kJ/mol
# Density = 2.330958 g / cm^3
# Si number density = 23.362751 Si / 1000 Ang^3
#
#
#
# Elastic Constant Matrix: (Units=GPa)
#
#
# Indices 1 2 3 4 5 6 
#
# 1 59.9237 30.2182 7.7890 0.0000 -19.0248 0.0000
# 2 30.2182 185.8827 -3.7850 0.0000 -26.4242 0.0000
# 3 7.7890 -3.7850 44.8386 0.0000 -14.1693 0.0000
# 4 0.0000 0.0000 0.0000 31.1459 0.0000 -13.1302
# 5 -19.0248 -26.4242 -14.1693 0.0000 34.2972 0.0000
# 6 0.0000 0.0000 0.0000 -13.1302 0.0000 46.7774
#
#
#
# Elastic Compliance Matrix: (Units=1/GPa)
#
#
# Indices 1 2 3 4 5 6 
#
# 1 0.020893 -0.002029 -0.000727 0.000000 0.009726 0.000000
# 2 -0.002029 0.006448 0.002428 0.000000 0.004845 0.000000
# 3 -0.000727 0.002428 0.026565 0.000000 0.012442 0.000000
# 4 0.000000 0.000000 0.000000 0.036416 0.000000 0.010222
# 5 0.009726 0.004845 0.012442 0.000000 0.043425 0.000000
# 6 0.000000 0.000000 0.000000 0.010222 0.000000 0.024247
#
#
# Mechanical properties :
#
#
# Convention : Reuss Voigt Hill
#
# Bulk Modulus (GPa) = 18.77919 39.89881 29.33900
# Shear Modulus (GPa) = 28.34448 39.53895 33.94172
#
# Velocity S-wave (km/s) = 3.48693 4.11833 3.81571
# Velocity P-wave (km/s) = 4.92617 6.30311 5.65669
#
# Compressibility (1/GPa) = 0.05325043
#
# Stress axis : x y z
#
# Youngs Moduli (GPa) = 47.86217 155.09237 37.64311
#
# Poissons Ratio (x) = 0.31464 0.02737
# Poissons Ratio (y) = 0.09710 -0.09139
# Poissons Ratio (z) = 0.03480 -0.37654
#
# Static dielectric constant tensor:
#      x y z
#    x 1.920310 0.000000 0.117090 
#    y 0.000000 0.025560 0.000000 
#    z 0.117090 0.000000 1.971480 
# 
# From -- ./inp_files/47330.got.cif
#   From: 2010.05.17/outbox.cif.g08.bks.cpg/sg13_24_cif.got.tgz:47330.got - 2010.06.03 16:44:36.
