data_PCOD9227555
_publ_section_title
;
Structure prediction by ZEFSAII (Michael W. Deem and Ramdas Pophale) SiO2 
 PCOD9227555
Probable space group: P 2/C
;
_chemical_formula_sum "Si O2"
_cell_formula_units_Z 26
_cell_length_a 23.758754
_cell_length_b 11.304727
_cell_length_c 8.870791
_cell_angle_alpha 90.000000
_cell_angle_beta 37.491372
_cell_angle_gamma 90.000000
_cell_volume 1450.133454
_symmetry_space_group_name_H-M "P 2/C"
_symmetry_group_IT_number 13
_symmetry_cell_setting 'monoclinic'
loop_
_space_group_symop_operation_xyz
x,y,z
-x,y,1/2-z
-x,-y,-z
x,-y,1/2+z
loop_
_atom_site_type_symbol
_atom_site_label
_atom_site_fract_x
_atom_site_fract_y
_atom_site_fract_z
Si Si1 0.614141 0.122505 0.229155
Si Si2 0.820380 0.111224 0.747031
Si Si3 0.500000 0.953117 0.250000
Si Si4 0.284484 0.335652 0.601872
Si Si5 0.784806 0.522492 0.985543
Si Si6 0.110862 0.645542 0.999473
Si Si7 0.898937 0.905908 0.392551
O O1 0.565459 0.036668 0.212749
O O2 0.558881 0.120438 0.502942
O O3 0.719807 0.079975 0.030928
O O4 0.629805 0.251246 0.121284
O O5 0.803086 0.244772 0.726711
O O6 0.895469 0.102371 0.719426
O O7 0.843704 0.019679 0.567080
O O8 0.271785 0.437156 0.505117
O O9 0.279673 0.394629 0.774986
O O10 0.853225 0.599840 0.737230
O O11 0.843256 0.439441 0.973747
O O12 0.141161 0.780849 0.963947
O O13 0.000000 0.640790 0.250000
O O14 0.000000 0.915193 0.250000
#
# Coordination Sequence:
#
# PCOD9227555 Si02
#       7
#     4   4   2   4   4   4   4
#     4   9  20  34  59  87 116 147 180 229 276 355
#     4  10  21  38  53  83 112 149 189 228 286 343
#     4  10  18  36  60  92 122 140 174 230 292 336
#     4   9  21  36  58  81 107 145 195 227 279 342
#     4  10  19  37  55  75 105 149 195 237 266 338
#     4  10  20  33  51  75 106 143 192 243 287 316
#     4  11  22  35  53  79 118 149 191 237 284 330
#
# _framework density 17.929383999999999
#
# number of rings (size 3 to 8) (size 9 to 14) (size 15 to 20)
#    0.923    1.231    1.538    1.846    2.154    0.000 
#    0.000    5.385    0.000    2.769    0.000    0.000 
#    0.000    0.000    0.000    0.000    0.000    0.000 
#
# Total GULP energy -144824.441890 kJ/mol
# GULP energy per Si atom -5570.170842 kJ/mol
# Density = 1.788858 g / cm^3
# Si number density = 17.929384 Si / 1000 Ang^3
#
#
#
# Elastic Constant Matrix: (Units=GPa)
#
#
# Indices 1 2 3 4 5 6 
#
# 1 39.8773 11.1697 7.7981 0.0000 14.7726 0.0000
# 2 11.1697 101.5976 46.1918 0.0000 25.8837 0.0000
# 3 7.7981 46.1918 77.3861 0.0000 25.6238 0.0000
# 4 0.0000 0.0000 0.0000 26.7932 0.0000 11.2142
# 5 14.7726 25.8837 25.6238 0.0000 28.6125 0.0000
# 6 0.0000 0.0000 0.0000 11.2142 0.0000 16.3845
#
#
#
# Elastic Compliance Matrix: (Units=1/GPa)
#
#
# Indices 1 2 3 4 5 6 
#
# 1 0.031538 -0.000047 0.003166 0.000000 -0.019076 0.000000
# 2 -0.000047 0.014608 -0.006180 0.000000 -0.007657 0.000000
# 3 0.003166 -0.006180 0.021297 0.000000 -0.015117 0.000000
# 4 0.000000 0.000000 0.000000 0.052307 0.000000 -0.035801
# 5 -0.019076 -0.007657 -0.015117 0.000000 0.065263 0.000000
# 6 0.000000 0.000000 0.000000 -0.035801 0.000000 0.085537
#
#
# Mechanical properties :
#
#
# Convention : Reuss Voigt Hill
#
# Bulk Modulus (GPa) = 16.30723 38.79781 27.55252
# Shear Modulus (GPa) = 16.82866 24.60481 20.71673
#
# Velocity S-wave (km/s) = 3.06699 3.70850 3.40290
# Velocity P-wave (km/s) = 4.65370 6.32641 5.55340
#
# Compressibility (1/GPa) = 0.06132249
#
# Stress axis : x y z
#
# Youngs Moduli (GPa) = 31.70825 68.45486 46.95420
#
# Poissons Ratio (x) = 0.00321 -0.14867
# Poissons Ratio (y) = 0.00149 0.29016
# Poissons Ratio (z) = -0.10040 0.42303
#
# Static dielectric constant tensor:
#      x y z
#    x 1.609070 0.000000 -0.004870 
#    y 0.000000 1.615060 0.000000 
#    z -0.004870 0.000000 1.609770 
# 
# From -- ./inp_files/24711.got.cif
#   From: 2010.05.17/outbox.cif.g08.bks.cpg/sg13_13_cif.got.tgz:24711.got - 2010.06.03 16:44:36.
