data_PCOD9227467
_publ_section_title
;
Structure prediction by ZEFSAII (Michael W. Deem and Ramdas Pophale) SiO2 
 PCOD9227467
Probable space group: P 2/C
;
_chemical_formula_sum "Si O2"
_cell_formula_units_Z 18
_cell_length_a 8.011633
_cell_length_b 6.851589
_cell_length_c 20.813621
_cell_angle_alpha 90.000000
_cell_angle_beta 145.533166
_cell_angle_gamma 90.000000
_cell_volume 646.579620
_symmetry_space_group_name_H-M "P 2/C"
_symmetry_group_IT_number 13
_symmetry_cell_setting 'monoclinic'
loop_
_space_group_symop_operation_xyz
x,y,z
-x,y,1/2-z
-x,-y,-z
x,-y,1/2+z
loop_
_atom_site_type_symbol
_atom_site_label
_atom_site_fract_x
_atom_site_fract_y
_atom_site_fract_z
Si Si1 0.159373 0.808694 0.523388
Si Si2 0.585078 0.286882 0.596679
Si Si3 0.152687 0.834197 0.196274
Si Si4 0.500000 0.806898 0.750000
Si Si5 0.291427 0.253029 0.381312
O O1 0.442255 0.859113 0.568735
O O2 0.937762 0.724252 0.398647
O O3 0.309507 0.704931 0.633000
O O4 0.000000 0.000000 0.500000
O O5 0.601604 0.248142 0.677313
O O6 0.308289 0.237093 0.463646
O O7 0.642809 0.517842 0.609238
O O8 0.857134 0.181958 0.645754
O O9 0.276024 0.043742 0.214546
O O10 0.000000 0.207912 0.250000
#
# Coordination Sequence:
#
# PCOD9227467 Si02
#       5
#     4   4   4   2   4
#     4   9  20  38  61  84 126 172 207 256 312 377
#     4   9  18  35  62  89 122 159 205 262 326 356
#     4   9  17  37  60  82 122 165 205 260 309 372
#     4  10  20  38  58  82 118 170 216 244 306 376
#     4  10  18  35  62  93 124 156 212 267 305 376
#
# _framework density 27.838799999999999
#
# number of rings (size 3 to 8) (size 9 to 14) (size 15 to 20)
#    0.000    2.667    2.222    0.000    0.000    0.000 
#   16.000    6.667    0.000    9.333    0.000    0.000 
#    0.000    0.000    0.000    0.000    0.000    0.000 
#
# Total GULP energy -100595.303964 kJ/mol
# GULP energy per Si atom -5588.627998 kJ/mol
# Density = 2.777544 g / cm^3
# Si number density = 27.838800 Si / 1000 Ang^3
#
#
#
# Elastic Constant Matrix: (Units=GPa)
#
#
# Indices 1 2 3 4 5 6 
#
# 1 131.3751 38.0510 76.1468 0.0000 1.0126 0.0000
# 2 38.0510 89.4288 55.9321 0.0000 -1.5108 0.0000
# 3 76.1468 55.9321 337.8297 0.0000 -87.9998 0.0000
# 4 0.0000 0.0000 0.0000 25.5500 0.0000 -5.2725
# 5 1.0126 -1.5108 -87.9998 0.0000 77.2388 0.0000
# 6 0.0000 0.0000 0.0000 -5.2725 0.0000 23.8644
#
#
#
# Elastic Compliance Matrix: (Units=1/GPa)
#
#
# Indices 1 2 3 4 5 6 
#
# 1 0.009922 -0.002632 -0.002628 0.000000 -0.003175 0.000000
# 2 -0.002632 0.013680 -0.002265 0.000000 -0.002279 0.000000
# 3 -0.002628 -0.002265 0.005581 0.000000 0.006349 0.000000
# 4 0.000000 0.000000 0.000000 0.041009 0.000000 0.009060
# 5 -0.003175 -0.002279 0.006349 0.000000 0.020177 0.000000
# 6 0.000000 0.000000 0.000000 0.009060 0.000000 0.043905
#
#
# Mechanical properties :
#
#
# Convention : Reuss Voigt Hill
#
# Bulk Modulus (GPa) = 70.75447 99.87706 85.31576
# Shear Modulus (GPa) = 32.46017 51.23089 41.84553
#
# Velocity S-wave (km/s) = 3.41839 4.29449 3.88124
# Velocity P-wave (km/s) = 6.40714 7.78107 7.12729
#
# Compressibility (1/GPa) = 0.01413338
#
# Stress axis : x y z
#
# Youngs Moduli (GPa) = 100.79038 73.09850 179.17136
#
# Poissons Ratio (x) = 0.19237 0.47082
# Poissons Ratio (y) = 0.26525 0.40589
# Poissons Ratio (z) = 0.26485 0.16560
#
# Static dielectric constant tensor:
#      x y z
#    x 2.159950 0.000000 0.008590 
#    y 0.000000 2.191180 0.000000 
#    z 0.008590 0.000000 2.221410 
# 
# From -- ./inp_files/75114.got.cif
#   From: 2010.05.17/outbox.cif.g08.bks.cpg/sg13_38_cif.got.tgz:75114.got - 2010.06.03 16:44:36.
