data_PCOD9227345
_publ_section_title
;
Structure prediction by ZEFSAII (Michael W. Deem and Ramdas Pophale) SiO2 
 PCOD9227345
Probable space group: P 2/C
;
_chemical_formula_sum "Si O2"
_cell_formula_units_Z 18
_cell_length_a 15.366325
_cell_length_b 11.138992
_cell_length_c 8.787098
_cell_angle_alpha 90.000000
_cell_angle_beta 144.371048
_cell_angle_gamma 90.000000
_cell_volume 876.158094
_symmetry_space_group_name_H-M "P 2/C"
_symmetry_group_IT_number 13
_symmetry_cell_setting 'monoclinic'
loop_
_space_group_symop_operation_xyz
x,y,z
-x,y,1/2-z
-x,-y,-z
x,-y,1/2+z
loop_
_atom_site_type_symbol
_atom_site_label
_atom_site_fract_x
_atom_site_fract_y
_atom_site_fract_z
Si Si1 0.000000 0.957600 0.750000
Si Si2 0.336209 0.634280 0.955341
Si Si3 0.073280 0.759446 0.103982
Si Si4 0.162085 0.547761 0.004060
Si Si5 0.797754 0.816796 0.919240
O O1 0.976392 0.870880 0.572772
O O2 0.857759 0.047376 0.530315
O O3 0.500000 0.607854 0.250000
O O4 0.226922 0.609160 0.944124
O O5 0.279990 0.542998 0.744816
O O6 0.334898 0.767335 0.874754
O O7 0.118552 0.651195 0.061455
O O8 0.208734 0.774441 0.415861
O O9 0.931189 0.753237 0.012988
O O10 0.000000 0.486967 0.750000
#
# Coordination Sequence:
#
# PCOD9227345 Si02
#       5
#     2   4   4   4   4
#     4  10  18  34  60  94 120 146 198 260 300 338
#     4  12  26  41  58  88 130 163 194 243 307 360
#     4  10  19  35  61  94 116 149 200 262 292 340
#     4  12  23  39  64  88 118 156 212 249 291 349
#     4  10  20  34  59  87 123 154 198 239 304 349
#
# _framework density 20.544236999999999
#
# number of rings (size 3 to 8) (size 9 to 14) (size 15 to 20)
#    0.000    1.333    3.333    5.333    4.667    0.000 
#    0.000    0.000    0.000   13.333    0.000    0.000 
#    0.000    0.000    0.000    0.000    0.000    0.000 
#
# Total GULP energy -100207.828570 kJ/mol
# GULP energy per Si atom -5567.101587 kJ/mol
# Density = 2.049748 g / cm^3
# Si number density = 20.544237 Si / 1000 Ang^3
#
#
#
# Elastic Constant Matrix: (Units=GPa)
#
#
# Indices 1 2 3 4 5 6 
#
# 1 64.9123 21.4400 36.3186 0.0000 -26.6786 0.0000
# 2 21.4400 113.7466 53.8686 0.0000 -20.2554 0.0000
# 3 36.3186 53.8686 149.0736 0.0000 -15.8405 0.0000
# 4 0.0000 0.0000 0.0000 22.6115 0.0000 -15.1025
# 5 -26.6786 -20.2554 -15.8405 0.0000 38.5168 0.0000
# 6 0.0000 0.0000 0.0000 -15.1025 0.0000 15.8137
#
#
#
# Elastic Compliance Matrix: (Units=1/GPa)
#
#
# Indices 1 2 3 4 5 6 
#
# 1 0.023854 0.000185 -0.004300 0.000000 0.014851 0.000000
# 2 0.000185 0.011295 -0.003641 0.000000 0.004570 0.000000
# 3 -0.004300 -0.003641 0.008942 0.000000 -0.001216 0.000000
# 4 0.000000 0.000000 0.000000 0.122127 0.000000 0.116635
# 5 0.014851 0.004570 -0.001216 0.000000 0.038153 0.000000
# 6 0.000000 0.000000 0.000000 0.116635 0.000000 0.174625
#
#
# Mechanical properties :
#
#
# Convention : Reuss Voigt Hill
#
# Bulk Modulus (GPa) = 34.99105 61.22076 48.10591
# Shear Modulus (GPa) = 12.37517 29.79543 21.08530
#
# Velocity S-wave (km/s) = 2.45698 3.81242 3.20712
# Velocity P-wave (km/s) = 5.01179 7.01738 6.09761
#
# Compressibility (1/GPa) = 0.02857873
#
# Stress axis : x y z
#
# Youngs Moduli (GPa) = 41.92148 88.53690 111.82903
#
# Poissons Ratio (x) = -0.01637 0.48090
# Poissons Ratio (y) = -0.00775 0.40715
# Poissons Ratio (z) = 0.18027 0.32235
#
# Static dielectric constant tensor:
#      x y z
#    x 1.741070 0.000000 0.023280 
#    y 0.000000 1.815570 0.000000 
#    z 0.023280 0.000000 1.894390 
# 
# From -- ./inp_files/21767.got.cif
#   From: 2010.05.17/outbox.cif.g08.bks.cpg/sg13_11_cif.got.tgz:21767.got - 2010.06.03 16:44:36.
