data_PCOD9227773
_publ_section_title
;
Structure prediction by ZEFSAII (Michael W. Deem and Ramdas Pophale) SiO2 
 PCOD9227773
Probable space group: P 2/C
;
_chemical_formula_sum "Si O2"
_cell_formula_units_Z 24
_cell_length_a 18.688556
_cell_length_b 11.300974
_cell_length_c 11.457140
_cell_angle_alpha 90.000000
_cell_angle_beta 27.009338
_cell_angle_gamma 90.000000
_cell_volume 1098.888160
_symmetry_space_group_name_H-M "P 2/C"
_symmetry_group_IT_number 13
_symmetry_cell_setting 'monoclinic'
loop_
_space_group_symop_operation_xyz
x,y,z
-x,y,1/2-z
-x,-y,-z
x,-y,1/2+z
loop_
_atom_site_type_symbol
_atom_site_label
_atom_site_fract_x
_atom_site_fract_y
_atom_site_fract_z
Si Si1 0.429445 0.268379 0.078073
Si Si2 0.347680 0.303544 0.552153
Si Si3 0.000000 0.860019 0.250000
Si Si4 0.500000 0.119056 0.750000
Si Si5 0.011258 0.396002 0.103366
Si Si6 0.284179 0.089258 0.481428
Si Si7 0.862448 0.354683 0.094579
O O1 0.368507 0.172037 0.261580
O O2 0.303678 0.370888 0.230091
O O3 0.587509 0.310194 0.910590
O O4 0.446273 0.200331 0.933406
O O5 0.299203 0.173361 0.573598
O O6 0.180464 0.368929 0.796760
O O7 0.500000 0.342387 0.250000
O O8 0.882847 0.931685 0.337547
O O9 0.918158 0.769046 0.459265
O O10 0.632165 0.031555 0.608735
O O11 0.000000 0.345999 0.250000
O O12 0.872419 0.351193 0.220440
O O13 0.017696 0.538297 0.104018
#
# Coordination Sequence:
#
# PCOD9227773 Si02
#       7
#     4   4   2   2   4   4   4
#     4  10  23  38  61  87 126 163 210 263 315 374
#     4  10  21  41  63  94 126 171 206 259 311 381
#     4  10  18  40  62  84 116 166 208 252 302 394
#     4  12  22  40  60  90 118 166 212 274 318 364
#     4  11  23  39  67  95 131 167 211 253 310 375
#     4  10  20  38  64  85 117 166 213 253 321 379
#     4  10  22  40  60  91 128 168 203 252 319 370
#
# _framework density 21.840257000000001
#
# number of rings (size 3 to 8) (size 9 to 14) (size 15 to 20)
#    0.000    1.667    5.000    0.500    2.333    0.667 
#    1.500    5.000    0.000    0.000    0.000    0.000 
#    0.000    0.000    0.000    0.000    0.000    0.000 
#
# Total GULP energy -133716.001945 kJ/mol
# GULP energy per Si atom -5571.500081 kJ/mol
# Density = 2.179055 g / cm^3
# Si number density = 21.840257 Si / 1000 Ang^3
#
#
#
# Elastic Constant Matrix: (Units=GPa)
#
#
# Indices 1 2 3 4 5 6 
#
# 1 169.7164 27.6664 28.8522 0.0000 -25.7375 0.0000
# 2 27.6664 32.0786 8.7564 0.0000 -6.9400 0.0000
# 3 28.8522 8.7564 41.8486 0.0000 -16.2908 0.0000
# 4 0.0000 0.0000 0.0000 5.5928 0.0000 -0.0098
# 5 -25.7375 -6.9400 -16.2908 0.0000 46.8528 0.0000
# 6 0.0000 0.0000 0.0000 -0.0098 0.0000 30.1673
#
#
#
# Elastic Compliance Matrix: (Units=1/GPa)
#
#
# Indices 1 2 3 4 5 6 
#
# 1 0.007647 -0.005201 -0.003294 0.000000 0.002285 0.000000
# 2 -0.005201 0.036940 -0.003615 0.000000 0.001358 0.000000
# 3 -0.003294 -0.003615 0.030082 0.000000 0.008115 0.000000
# 4 0.000000 0.000000 0.000000 0.178800 0.000000 0.000058
# 5 0.002285 0.001358 0.008115 0.000000 0.025621 0.000000
# 6 0.000000 0.000000 0.000000 0.000058 0.000000 0.033148
#
#
# Mechanical properties :
#
#
# Convention : Reuss Voigt Hill
#
# Bulk Modulus (GPa) = 19.82249 41.57706 30.69977
# Shear Modulus (GPa) = 14.15328 28.41384 21.28356
#
# Velocity S-wave (km/s) = 2.54842 3.61083 3.12510
# Velocity P-wave (km/s) = 4.21368 6.03841 5.20660
#
# Compressibility (1/GPa) = 0.05044776
#
# Stress axis : x y z
#
# Youngs Moduli (GPa) = 130.77763 27.07104 33.24248
#
# Poissons Ratio (x) = 0.14081 0.10951
# Poissons Ratio (y) = 0.68023 0.12016
# Poissons Ratio (z) = 0.43080 0.09786
#
# Static dielectric constant tensor:
#      x y z
#    x 1.867560 0.000000 -0.030490 
#    y 0.000000 1.780830 0.000000 
#    z -0.030490 0.000000 1.917010 
# 
# From -- ./inp_files/29590.got.cif
#   From: 2010.05.17/outbox.cif.g08.bks.cpg/sg13_15_cif.got.tgz:29590.got - 2010.06.03 16:44:36.
