data_PCOD9227132
_publ_section_title
;
Structure prediction by ZEFSAII (Michael W. Deem and Ramdas Pophale) SiO2 
 PCOD9227132
Probable space group: P 2/C
;
_chemical_formula_sum "Si O2"
_cell_formula_units_Z 24
_cell_length_a 5.150852
_cell_length_b 8.066206
_cell_length_c 23.853473
_cell_angle_alpha 90.000000
_cell_angle_beta 93.089237
_cell_angle_gamma 90.000000
_cell_volume 989.619923
_symmetry_space_group_name_H-M "P 2/C"
_symmetry_group_IT_number 13
_symmetry_cell_setting 'monoclinic'
loop_
_space_group_symop_operation_xyz
x,y,z
-x,y,1/2-z
-x,-y,-z
x,-y,1/2+z
loop_
_atom_site_type_symbol
_atom_site_label
_atom_site_fract_x
_atom_site_fract_y
_atom_site_fract_z
Si Si1 0.372319 0.035526 0.410645
Si Si2 0.652666 0.102192 0.310314
Si Si3 0.609830 0.534939 0.863402
Si Si4 0.000000 0.099248 0.750000
Si Si5 0.883624 0.376135 0.075344
Si Si6 0.500000 0.673752 0.250000
Si Si7 0.821406 0.837522 0.000072
O O1 0.509289 0.992115 0.354550
O O2 0.288324 0.864209 0.439038
O O3 0.161364 0.184728 0.402264
O O4 0.584695 0.125344 0.454496
O O5 0.500000 0.110659 0.250000
O O6 0.930450 0.024090 0.299849
O O7 0.639665 0.281269 0.337488
O O8 0.389625 0.540367 0.909734
O O9 0.542875 0.427472 0.808118
O O10 0.894266 0.513295 0.893130
O O11 0.752860 0.215584 0.743140
O O12 0.010135 0.320597 0.016747
O O13 0.000000 0.000000 0.000000
#
# Coordination Sequence:
#
# PCOD9227132 Si02
#       7
#     4   4   4   2   4   2   4
#     4   9  19  33  53  90 132 166 197 259 333 377
#     4  11  23  40  64  94 126 164 215 267 314 373
#     4  11  23  37  66  89 122 162 217 266 309 371
#     4  12  28  42  62  86 138 172 218 258 326 394
#     4  10  18  33  54  92 119 153 203 263 316 361
#     4  12  26  48  58  92 128 184 216 260 324 396
#     4   9  16  30  54  85 138 158 196 256 338 379
#
# _framework density 24.251735
#
# number of rings (size 3 to 8) (size 9 to 14) (size 15 to 20)
#    0.000    1.667    5.000    1.000    4.667    0.667 
#    0.000    0.000    0.000    0.000    0.000    7.000 
#    0.000    0.000    0.000    0.000    0.000    0.000 
#
# Total GULP energy -133896.095220 kJ/mol
# GULP energy per Si atom -5579.003968 kJ/mol
# Density = 2.419654 g / cm^3
# Si number density = 24.251735 Si / 1000 Ang^3
#
#
#
# Elastic Constant Matrix: (Units=GPa)
#
#
# Indices 1 2 3 4 5 6 
#
# 1 149.8088 29.5128 16.7752 0.0000 -16.4846 0.0000
# 2 29.5128 72.8832 1.8656 0.0000 -1.8146 0.0000
# 3 16.7752 1.8656 70.1420 0.0000 -26.2517 0.0000
# 4 0.0000 0.0000 0.0000 -8.6534 0.0000 7.7376
# 5 -16.4846 -1.8146 -26.2517 0.0000 46.6079 0.0000
# 6 0.0000 0.0000 0.0000 7.7376 0.0000 21.7817
#
#
#
# Elastic Compliance Matrix: (Units=1/GPa)
#
#
# Indices 1 2 3 4 5 6 
#
# 1 0.007598 -0.003001 -0.000982 0.000000 0.002017 0.000000
# 2 -0.003001 0.014922 0.000179 0.000000 -0.000380 0.000000
# 3 -0.000982 0.000179 0.018195 0.000000 0.009908 0.000000
# 4 0.000000 0.000000 0.000000 -0.087703 0.000000 0.031155
# 5 0.002017 -0.000380 0.009908 0.000000 0.027735 0.000000
# 6 0.000000 0.000000 0.000000 0.031155 0.000000 0.034843
#
#
# Mechanical properties :
#
#
# Convention : Reuss Voigt Hill
#
# Bulk Modulus (GPa) = 30.20670 43.23789 36.72230
# Shear Modulus (GPa) = 146.04825 28.25927 87.15376
#
# Velocity S-wave (km/s) = 7.76869 3.41728 6.00126
# Velocity P-wave (km/s) = 9.64119 5.78255 7.94954
#
# Compressibility (1/GPa) = 0.03310523
#
# Stress axis : x y z
#
# Youngs Moduli (GPa) = 131.60556 67.01534 54.95971
#
# Poissons Ratio (x) = 0.20115 0.05399
# Poissons Ratio (y) = 0.39501 -0.00982
# Poissons Ratio (z) = 0.12929 -0.01198
#
# Static dielectric constant tensor:
#      x y z
#    x 2.044280 0.000000 -0.037970 
#    y 0.000000 1.933340 0.000000 
#    z -0.037970 0.000000 2.025950 
# 
# From -- ./inp_files/83384.got.cif
#   From: 2010.05.17/outbox.cif.g08.bks.cpg/sg13_42_cif.got.tgz:83384.got - 2010.06.03 16:44:36.
