data_PCOD9227949
_publ_section_title
;
Structure prediction by ZEFSAII (Michael W. Deem and Ramdas Pophale) SiO2 
 PCOD9227949
Probable space group: P 2/C
;
_chemical_formula_sum "Si O2"
_cell_formula_units_Z 24
_cell_length_a 7.956031
_cell_length_b 26.284640
_cell_length_c 5.438765
_cell_angle_alpha 90.000000
_cell_angle_beta 119.870218
_cell_angle_gamma 90.000000
_cell_volume 986.270171
_symmetry_space_group_name_H-M "P 2/C"
_symmetry_group_IT_number 13
_symmetry_cell_setting 'monoclinic'
loop_
_space_group_symop_operation_xyz
x,y,z
-x,y,1/2-z
-x,-y,-z
x,-y,1/2+z
loop_
_atom_site_type_symbol
_atom_site_label
_atom_site_fract_x
_atom_site_fract_y
_atom_site_fract_z
Si Si1 0.781526 0.681034 0.046820
Si Si2 0.734560 0.201564 0.422006
Si Si3 0.263298 0.971734 0.076629
Si Si4 0.781153 0.354974 0.047114
Si Si5 0.736755 0.145743 0.922842
Si Si6 0.265537 0.527368 0.077447
O O1 0.692453 0.675395 0.253279
O O2 0.000000 0.660914 0.250000
O O3 0.789730 0.739468 0.971759
O O4 0.691706 0.650749 0.752972
O O5 0.500000 0.200151 0.250000
O O6 0.798000 0.174773 0.720658
O O7 0.797357 0.173058 0.219613
O O8 0.500000 0.972085 0.250000
O O9 0.202726 0.913020 0.042098
O O10 0.203605 0.001976 0.277880
O O11 0.000000 0.335078 0.250000
O O12 0.788271 0.413596 0.975513
O O13 0.500000 0.146022 0.750000
O O14 0.500000 0.525662 0.250000
O O15 0.200651 0.500821 0.281747
#
# Coordination Sequence:
#
# PCOD9227949 Si02
#       6
#     4   4   4   4   4   4
#     4  10  21  36  52  73 100 127 162 205 242 282
#     4  10  19  31  48  69  95 127 159 195 242 289
#     4   9  15  23  37  58  88 125 156 186 234 288
#     4  10  21  36  54  75  99 129 163 201 242 282
#     4   9  17  28  42  65  96 125 158 199 238 285
#     4  10  21  36  54  78 106 133 162 198 238 282
#
# _framework density 24.334102999999999
#
# number of rings (size 3 to 8) (size 9 to 14) (size 15 to 20)
#    0.000    2.333    0.000    3.000    0.000    6.000 
#    0.000    0.000    0.000    0.000    0.000    0.000 
#    0.000   13.333    0.000    0.000    0.000    0.000 
#
# Total GULP energy -134350.411852 kJ/mol
# GULP energy per Si atom -5597.933827 kJ/mol
# Density = 2.427872 g / cm^3
# Si number density = 24.334103 Si / 1000 Ang^3
#
#
#
# Elastic Constant Matrix: (Units=GPa)
#
#
# Indices 1 2 3 4 5 6 
#
# 1 81.3031 -4.7648 34.4450 0.0000 -7.3026 0.0000
# 2 -4.7648 176.8057 83.0462 0.0000 -41.1686 0.0000
# 3 34.4450 83.0462 219.8802 0.0000 -37.3244 0.0000
# 4 0.0000 0.0000 0.0000 49.8601 0.0000 -14.4206
# 5 -7.3026 -41.1686 -37.3244 0.0000 50.5217 0.0000
# 6 0.0000 0.0000 0.0000 -14.4206 0.0000 22.9819
#
#
#
# Elastic Compliance Matrix: (Units=1/GPa)
#
#
# Indices 1 2 3 4 5 6 
#
# 1 0.013670 0.001980 -0.002607 0.000000 0.001664 0.000000
# 2 0.001980 0.008048 -0.002502 0.000000 0.004996 0.000000
# 3 -0.002607 -0.002502 0.006279 0.000000 0.002223 0.000000
# 4 0.000000 0.000000 0.000000 0.024503 0.000000 0.015375
# 5 0.001664 0.004996 0.002223 0.000000 0.025747 0.000000
# 6 0.000000 0.000000 0.000000 0.015375 0.000000 0.053160
#
#
# Mechanical properties :
#
#
# Convention : Reuss Voigt Hill
#
# Bulk Modulus (GPa) = 46.00037 78.16022 62.08029
# Shear Modulus (GPa) = 34.50450 49.02358 41.76404
#
# Velocity S-wave (km/s) = 3.76965 4.49330 4.14729
# Velocity P-wave (km/s) = 6.15563 7.68824 6.96422
#
# Compressibility (1/GPa) = 0.02173895
#
# Stress axis : x y z
#
# Youngs Moduli (GPa) = 73.15523 124.26107 159.27298
#
# Poissons Ratio (x) = -0.24606 0.41521
# Poissons Ratio (y) = -0.14486 0.39845
# Poissons Ratio (z) = 0.19071 0.31086
#
# Static dielectric constant tensor:
#      x y z
#    x 2.167960 0.000000 0.010830 
#    y 0.000000 1.819340 0.000000 
#    z 0.010830 0.000000 1.945730 
# 
# From -- ./inp_files/2423.got.cif
#   From: 2010.05.17/outbox.cif.g08.bks.cpg/sg13_2_cif.got.tgz:2423.got - 2010.06.03 16:44:36.
