data_PCOD9227243
_publ_section_title
;
Structure prediction by ZEFSAII (Michael W. Deem and Ramdas Pophale) SiO2 
 PCOD9227243
Probable space group: P 2/C
;
_chemical_formula_sum "Si O2"
_cell_formula_units_Z 20
_cell_length_a 16.188112
_cell_length_b 14.157177
_cell_length_c 8.676444
_cell_angle_alpha 90.000000
_cell_angle_beta 31.945853
_cell_angle_gamma 90.000000
_cell_volume 1052.123755
_symmetry_space_group_name_H-M "P 2/C"
_symmetry_group_IT_number 13
_symmetry_cell_setting 'monoclinic'
loop_
_space_group_symop_operation_xyz
x,y,z
-x,y,1/2-z
-x,-y,-z
x,-y,1/2+z
loop_
_atom_site_type_symbol
_atom_site_label
_atom_site_fract_x
_atom_site_fract_y
_atom_site_fract_z
Si Si1 0.000000 0.346921 0.750000
Si Si2 0.776300 0.856416 0.129989
Si Si3 0.500000 0.773024 0.750000
Si Si4 0.048292 0.191890 0.425110
Si Si5 0.000000 0.969355 0.250000
Si Si6 0.500000 0.549397 0.250000
Si Si7 0.666358 0.390212 0.182149
O O1 0.060253 0.278597 0.519639
O O2 0.149700 0.398482 0.579979
O O3 0.609824 0.837685 0.468442
O O4 0.799551 0.816150 0.922056
O O5 0.900401 0.803246 0.044904
O O6 0.849390 0.961703 0.996765
O O7 0.391942 0.703580 0.816207
O O8 0.013375 0.098874 0.582115
O O9 0.615364 0.478703 0.158552
O O10 0.416662 0.605880 0.519228
#
# Coordination Sequence:
#
# PCOD9227243 Si02
#       7
#     2   4   2   4   2   2   4
#     4  11  20  36  62  91 112 142 204 235 268 340
#     4  10  18  34  54  81 113 160 191 234 282 333
#     4  11  22  36  56  89 120 148 192 239 290 332
#     4   9  19  35  57  82 112 160 192 237 279 331
#     4   9  18  36  58  77 118 156 206 231 282 334
#     4   9  22  44  62  81 118 156 172 229 316 332
#     4  10  22  40  61  85 117 149 187 235 282 360
#
# _framework density 19.009170999999998
#
# number of rings (size 3 to 8) (size 9 to 14) (size 15 to 20)
#    0.000    2.400    2.000    2.400    2.800    0.800 
#    0.000    4.000    0.000    0.000    0.000    0.000 
#    0.000    0.000    0.000    0.000    0.000    0.000 
#
# Total GULP energy -111451.344114 kJ/mol
# GULP energy per Si atom -5572.567206 kJ/mol
# Density = 1.896590 g / cm^3
# Si number density = 19.009171 Si / 1000 Ang^3
#
#
#
# Elastic Constant Matrix: (Units=GPa)
#
#
# Indices 1 2 3 4 5 6 
#
# 1 93.4855 21.9842 50.4453 0.0000 4.5509 0.0000
# 2 21.9842 43.1652 42.7363 0.0000 0.7521 0.0000
# 3 50.4453 42.7363 164.2187 0.0000 12.6323 0.0000
# 4 0.0000 0.0000 0.0000 24.6913 0.0000 19.6983
# 5 4.5509 0.7521 12.6323 0.0000 43.1923 0.0000
# 6 0.0000 0.0000 0.0000 19.6983 0.0000 18.4583
#
#
#
# Elastic Compliance Matrix: (Units=1/GPa)
#
#
# Indices 1 2 3 4 5 6 
#
# 1 0.013246 -0.003695 -0.003074 0.000000 -0.000432 0.000000
# 2 -0.003695 0.032387 -0.007448 0.000000 0.002003 0.000000
# 3 -0.003074 -0.007448 0.009143 0.000000 -0.002220 0.000000
# 4 0.000000 0.000000 0.000000 0.272504 0.000000 -0.290810
# 5 -0.000432 0.002003 -0.002220 0.000000 0.023812 0.000000
# 6 0.000000 0.000000 0.000000 -0.290810 0.000000 0.364522
#
#
# Mechanical properties :
#
#
# Convention : Reuss Voigt Hill
#
# Bulk Modulus (GPa) = 37.96155 59.02232 48.49194
# Shear Modulus (GPa) = 6.64163 29.64861 18.14512
#
# Velocity S-wave (km/s) = 1.87123 3.95359 3.09292
# Velocity P-wave (km/s) = 4.96811 7.20819 6.19032
#
# Compressibility (1/GPa) = 0.02634244
#
# Stress axis : x y z
#
# Youngs Moduli (GPa) = 75.49703 30.87625 109.37734
#
# Poissons Ratio (x) = 0.11409 0.33622
# Poissons Ratio (y) = 0.27897 0.81459
# Poissons Ratio (z) = 0.23208 0.22995
#
# Static dielectric constant tensor:
#      x y z
#    x 1.690720 0.000000 0.009850 
#    y 0.000000 1.657330 0.000000 
#    z 0.009850 0.000000 1.673280 
# 
# From -- ./inp_files/16113.got.cif
#   From: 2010.05.17/outbox.cif.g08.bks.cpg/sg13_9_cif.got.tgz:16113.got - 2010.06.03 16:44:36.
