data_PCOD9227440
_publ_section_title
;
Structure prediction by ZEFSAII (Michael W. Deem and Ramdas Pophale) SiO2 
 PCOD9227440
Probable space group: P 2/C
;
_chemical_formula_sum "Si O2"
_cell_formula_units_Z 28
_cell_length_a 16.881504
_cell_length_b 6.560938
_cell_length_c 14.401906
_cell_angle_alpha 90.000000
_cell_angle_beta 125.983370
_cell_angle_gamma 90.000000
_cell_volume 1290.762208
_symmetry_space_group_name_H-M "P 2/C"
_symmetry_group_IT_number 13
_symmetry_cell_setting 'monoclinic'
loop_
_space_group_symop_operation_xyz
x,y,z
-x,y,1/2-z
-x,-y,-z
x,-y,1/2+z
loop_
_atom_site_type_symbol
_atom_site_label
_atom_site_fract_x
_atom_site_fract_y
_atom_site_fract_z
Si Si1 0.727353 0.705948 0.882497
Si Si2 0.890519 0.758985 0.695059
Si Si3 0.874621 0.914233 0.332983
Si Si4 0.610061 0.887007 0.313521
Si Si5 0.913578 0.098293 0.557801
Si Si6 0.317284 0.572060 0.988417
Si Si7 0.688368 0.378640 0.705172
O O1 0.724667 0.570603 0.789725
O O2 0.683226 0.929384 0.841513
O O3 0.837647 0.722634 0.993579
O O4 0.668424 0.596920 0.923247
O O5 0.797709 0.619672 0.609386
O O6 0.000000 0.673547 0.750000
O O7 0.874497 0.861883 0.784954
O O8 0.888238 0.958390 0.627347
O O9 0.779551 0.776404 0.248974
O O10 0.975944 0.822513 0.364444
O O11 0.894540 0.951772 0.455515
O O12 0.500000 0.961030 0.250000
O O13 0.641258 0.772535 0.430641
O O14 0.617958 0.738114 0.229445
O O15 0.355306 0.474616 0.918769
#
# Coordination Sequence:
#
# PCOD9227440 Si02
#       7
#     4   4   4   4   4   4   4
#     4  11  22  41  66  91 132 173 216 263 324 385
#     4  10  20  36  61  95 136 177 213 251 312 385
#     4  10  20  34  60  93 130 172 214 255 310 379
#     4  11  26  48  69  91 127 169 215 277 342 383
#     4  10  18  35  59  87 132 180 211 252 308 377
#     4  11  24  40  69  99 129 168 217 267 321 389
#     4  11  24  40  67 102 127 165 220 270 320 394
#
# _framework density 21.692610999999999
#
# number of rings (size 3 to 8) (size 9 to 14) (size 15 to 20)
#    0.000    1.429    2.857    2.571    0.000    4.571 
#    0.000    1.429    0.000    0.000    0.000    0.000 
#    0.000    0.000    0.000    0.000    0.000    0.000 
#
# Total GULP energy -156260.281476 kJ/mol
# GULP energy per Si atom -5580.724338 kJ/mol
# Density = 2.164324 g / cm^3
# Si number density = 21.692611 Si / 1000 Ang^3
#
#
#
# Elastic Constant Matrix: (Units=GPa)
#
#
# Indices 1 2 3 4 5 6 
#
# 1 67.9593 12.0023 10.9325 0.0000 1.4768 0.0000
# 2 12.0023 50.6878 10.7929 0.0000 -2.5892 0.0000
# 3 10.9325 10.7929 56.9604 0.0000 -18.0039 0.0000
# 4 0.0000 0.0000 0.0000 23.4054 0.0000 -11.2245
# 5 1.4768 -2.5892 -18.0039 0.0000 31.2208 0.0000
# 6 0.0000 0.0000 0.0000 -11.2245 0.0000 13.4434
#
#
#
# Elastic Compliance Matrix: (Units=1/GPa)
#
#
# Indices 1 2 3 4 5 6 
#
# 1 0.015887 -0.003193 -0.003382 0.000000 -0.002966 0.000000
# 2 -0.003193 0.021211 -0.003427 0.000000 -0.000066 0.000000
# 3 -0.003382 -0.003427 0.023009 0.000000 0.013144 0.000000
# 4 0.000000 0.000000 0.000000 0.071257 0.000000 0.059496
# 5 -0.002966 -0.000066 0.013144 0.000000 0.039744 0.000000
# 6 0.000000 0.000000 0.000000 0.059496 0.000000 0.124061
#
#
# Mechanical properties :
#
#
# Convention : Reuss Voigt Hill
#
# Bulk Modulus (GPa) = 24.93590 27.00700 25.97145
# Shear Modulus (GPa) = 15.21873 23.07259 19.14566
#
# Velocity S-wave (km/s) = 2.65158 3.26485 2.97406
# Velocity P-wave (km/s) = 4.57106 5.16616 4.87769
#
# Compressibility (1/GPa) = 0.04010282
#
# Stress axis : x y z
#
# Youngs Moduli (GPa) = 62.94394 47.14514 43.46107
#
# Poissons Ratio (x) = 0.15055 0.14698
# Poissons Ratio (y) = 0.20100 0.14895
# Poissons Ratio (z) = 0.21286 0.16157
#
# Static dielectric constant tensor:
#      x y z
#    x 1.807600 0.000000 -0.014020 
#    y 0.000000 1.796140 0.000000 
#    z -0.014020 0.000000 1.785000 
# 
# From -- ./inp_files/54695.got.cif
#   From: 2010.05.17/outbox.cif.g08.bks.cpg/sg13_28_cif.got.tgz:54695.got - 2010.06.03 16:44:36.
