data_PCOD9227005
_publ_section_title
;
Structure prediction by ZEFSAII (Michael W. Deem and Ramdas Pophale) SiO2 
 PCOD9227005
Probable space group: P 2/C
;
_chemical_formula_sum "Si O2"
_cell_formula_units_Z 26
_cell_length_a 23.201786
_cell_length_b 7.929299
_cell_length_c 9.587337
_cell_angle_alpha 90.000000
_cell_angle_beta 46.482127
_cell_angle_gamma 90.000000
_cell_volume 1279.050850
_symmetry_space_group_name_H-M "P 2/C"
_symmetry_group_IT_number 13
_symmetry_cell_setting 'monoclinic'
loop_
_space_group_symop_operation_xyz
x,y,z
-x,y,1/2-z
-x,-y,-z
x,-y,1/2+z
loop_
_atom_site_type_symbol
_atom_site_label
_atom_site_fract_x
_atom_site_fract_y
_atom_site_fract_z
Si Si1 0.772974 0.649398 0.294603
Si Si2 0.942091 0.512504 0.468082
Si Si3 0.293786 0.543160 0.817265
Si Si4 0.173578 0.803925 0.866230
Si Si5 0.232909 0.988282 0.016666
Si Si6 0.500000 0.016309 0.250000
Si Si7 0.599771 0.149616 0.339557
O O1 0.739923 0.526630 0.471542
O O2 0.715746 0.625503 0.256743
O O3 0.770279 0.829564 0.371663
O O4 0.863459 0.601466 0.110977
O O5 0.908445 0.702506 0.505881
O O6 0.000000 0.459303 0.250000
O O7 0.000000 0.500000 0.500000
O O8 0.234251 0.669233 0.833615
O O9 0.372721 0.655459 0.694254
O O10 0.204676 0.861836 0.663433
O O11 0.176691 0.952534 0.976846
O O12 0.322973 0.972389 0.809030
O O13 0.444375 0.904967 0.445120
O O14 0.549217 0.122981 0.282555
#
# Coordination Sequence:
#
# PCOD9227005 Si02
#       7
#     4   4   4   4   4   2   4
#     4   9  19  35  56  79 103 142 185 227 265 326
#     4  11  21  37  55  77 111 145 177 219 278 335
#     4   9  18  35  55  80 108 138 188 224 265 314
#     4   9  20  34  54  82 107 138 182 229 266 325
#     4  10  19  36  57  82 111 136 187 237 271 305
#     4  10  18  32  54  84 118 146 180 212 290 338
#     4   9  18  32  54  82 112 147 178 230 270 329
#
# _framework density 20.327573999999998
#
# number of rings (size 3 to 8) (size 9 to 14) (size 15 to 20)
#    0.000    2.769    0.000    4.615    0.000    3.692 
#    0.000   10.000    0.000   11.077    0.000    0.000 
#    0.000    0.000    0.000    0.000    0.000    0.000 
#
# Total GULP energy -144857.833070 kJ/mol
# GULP energy per Si atom -5571.455118 kJ/mol
# Density = 2.028131 g / cm^3
# Si number density = 20.327574 Si / 1000 Ang^3
#
#
#
# Elastic Constant Matrix: (Units=GPa)
#
#
# Indices 1 2 3 4 5 6 
#
# 1 99.1616 12.5374 33.9160 0.0000 4.0389 0.0000
# 2 12.5374 24.3381 18.1714 0.0000 -5.5460 0.0000
# 3 33.9160 18.1714 139.7327 0.0000 4.3325 0.0000
# 4 0.0000 0.0000 0.0000 28.4835 0.0000 4.5971
# 5 4.0389 -5.5460 4.3325 0.0000 32.4208 0.0000
# 6 0.0000 0.0000 0.0000 4.5971 0.0000 31.3312
#
#
#
# Elastic Compliance Matrix: (Units=1/GPa)
#
#
# Indices 1 2 3 4 5 6 
#
# 1 0.011491 -0.004798 -0.002104 0.000000 -0.001971 0.000000
# 2 -0.004798 0.050036 -0.005650 0.000000 0.009912 0.000000
# 3 -0.002104 -0.005650 0.008459 0.000000 -0.001835 0.000000
# 4 0.000000 0.000000 0.000000 0.035960 0.000000 -0.005276
# 5 -0.001971 0.009912 -0.001835 0.000000 0.033031 0.000000
# 6 0.000000 0.000000 0.000000 -0.005276 0.000000 0.032691
#
#
# Mechanical properties :
#
#
# Convention : Reuss Voigt Hill
#
# Bulk Modulus (GPa) = 22.28008 43.60912 32.94460
# Shear Modulus (GPa) = 23.61481 31.68762 27.65121
#
# Velocity S-wave (km/s) = 3.41209 3.95251 3.69220
# Velocity P-wave (km/s) = 5.14854 6.50612 5.86673
#
# Compressibility (1/GPa) = 0.04488314
#
# Stress axis : x y z
#
# Youngs Moduli (GPa) = 87.02397 19.98553 118.21970
#
# Poissons Ratio (x) = 0.09588 0.24875
# Poissons Ratio (y) = 0.41751 0.66791
# Poissons Ratio (z) = 0.18311 0.11291
#
# Static dielectric constant tensor:
#      x y z
#    x 1.733770 0.000000 -0.000790 
#    y 0.000000 1.837020 0.000000 
#    z -0.000790 0.000000 1.755150 
# 
# From -- ./inp_files/22726.got.cif
#   From: 2010.05.17/outbox.cif.g08.bks.cpg/sg13_12_cif.got.tgz:22726.got - 2010.06.03 16:44:36.
