data_PCOD9227660
_publ_section_title
;
Structure prediction by ZEFSAII (Michael W. Deem and Ramdas Pophale) SiO2 
 PCOD9227660
Probable space group: P 2/C
;
_chemical_formula_sum "Si O2"
_cell_formula_units_Z 26
_cell_length_a 10.794901
_cell_length_b 8.721689
_cell_length_c 14.152478
_cell_angle_alpha 90.000000
_cell_angle_beta 61.633547
_cell_angle_gamma 90.000000
_cell_volume 1172.460836
_symmetry_space_group_name_H-M "P 2/C"
_symmetry_group_IT_number 13
_symmetry_cell_setting 'monoclinic'
loop_
_space_group_symop_operation_xyz
x,y,z
-x,y,1/2-z
-x,-y,-z
x,-y,1/2+z
loop_
_atom_site_type_symbol
_atom_site_label
_atom_site_fract_x
_atom_site_fract_y
_atom_site_fract_z
Si Si1 0.230561 0.193680 0.128260
Si Si2 0.000000 0.585771 0.750000
Si Si3 0.629050 0.740560 0.310464
Si Si4 0.785586 0.135012 0.927752
Si Si5 0.503973 0.086097 0.355558
Si Si6 0.330819 0.375841 0.910960
Si Si7 0.899517 0.407710 0.966826
O O1 0.380039 0.172412 0.124411
O O2 0.129316 0.301055 0.226216
O O3 0.166518 0.025443 0.133738
O O4 0.255881 0.271535 0.017297
O O5 0.052663 0.479198 0.648567
O O6 0.735523 0.755140 0.359078
O O7 0.691098 0.693520 0.186150
O O8 0.497107 0.626628 0.372361
O O9 0.557254 0.909285 0.331443
O O10 0.894849 0.225866 0.953794
O O11 0.645559 0.095833 0.038792
O O12 0.500000 0.144171 0.250000
O O13 0.258154 0.540084 0.947837
O O14 0.000000 0.500000 0.000000
#
# Coordination Sequence:
#
# PCOD9227660 Si02
#       7
#     4   2   4   4   4   4   4
#     4  10  20  42  66  94 128 168 222 266 326 376
#     4  10  26  48  62  86 136 178 216 276 308 386
#     4  10  18  37  68  96 124 160 207 266 335 379
#     4  11  22  40  68  97 127 165 219 271 325 390
#     4  11  19  35  66 103 133 155 214 282 323 375
#     4  10  19  41  63  89 130 166 202 271 328 379
#     4  11  28  46  60  90 136 176 223 262 320 398
#
# _framework density 22.175581999999999
#
# number of rings (size 3 to 8) (size 9 to 14) (size 15 to 20)
#    0.000    1.538    4.615    0.923    4.308    1.231 
#    5.538    1.538    0.000    0.000    0.000    0.000 
#    0.000    0.000    0.000    0.000    0.000    0.000 
#
# Total GULP energy -145281.429081 kJ/mol
# GULP energy per Si atom -5587.747272 kJ/mol
# Density = 2.212511 g / cm^3
# Si number density = 22.175582 Si / 1000 Ang^3
#
#
#
# Elastic Constant Matrix: (Units=GPa)
#
#
# Indices 1 2 3 4 5 6 
#
# 1 30.5860 13.0035 6.6213 0.0000 5.2981 0.0000
# 2 13.0035 60.3434 16.6247 0.0000 -2.2650 0.0000
# 3 6.6213 16.6247 97.3670 0.0000 3.9932 0.0000
# 4 0.0000 0.0000 0.0000 13.0250 0.0000 -4.9887
# 5 5.2981 -2.2650 3.9932 0.0000 32.3593 0.0000
# 6 0.0000 0.0000 0.0000 -4.9887 0.0000 22.3064
#
#
#
# Elastic Compliance Matrix: (Units=1/GPa)
#
#
# Indices 1 2 3 4 5 6 
#
# 1 0.037462 -0.008072 -0.000899 0.000000 -0.006588 0.000000
# 2 -0.008072 0.019211 -0.002855 0.000000 0.003019 0.000000
# 3 -0.000899 -0.002855 0.010876 0.000000 -0.001395 0.000000
# 4 0.000000 0.000000 0.000000 0.083968 0.000000 0.018779
# 5 -0.006588 0.003019 -0.001395 0.000000 0.032365 0.000000
# 6 0.000000 0.000000 0.000000 0.018779 0.000000 0.049030
#
#
# Mechanical properties :
#
#
# Convention : Reuss Voigt Hill
#
# Bulk Modulus (GPa) = 22.78073 28.97728 25.87900
# Shear Modulus (GPa) = 18.43673 23.67461 21.05567
#
# Velocity S-wave (km/s) = 2.88652 3.27096 3.08474
# Velocity P-wave (km/s) = 4.62651 5.23079 4.93790
#
# Compressibility (1/GPa) = 0.04389676
#
# Stress axis : x y z
#
# Youngs Moduli (GPa) = 26.69348 52.05290 91.94353
#
# Poissons Ratio (x) = 0.42019 0.08267
# Poissons Ratio (y) = 0.21548 0.26250
# Poissons Ratio (z) = 0.02400 0.14861
#
# Static dielectric constant tensor:
#      x y z
#    x 1.927050 0.000000 0.051960 
#    y 0.000000 1.831580 0.000000 
#    z 0.051960 0.000000 1.820690 
# 
# From -- ./inp_files/49880.got.cif
#   From: 2010.05.17/outbox.cif.g08.bks.cpg/sg13_25_cif.got.tgz:49880.got - 2010.06.03 16:44:36.
