data_PCOD9227868
_publ_section_title
;
Structure prediction by ZEFSAII (Michael W. Deem and Ramdas Pophale) SiO2 
 PCOD9227868
Probable space group: P 2/C
;
_chemical_formula_sum "Si O2"
_cell_formula_units_Z 32
_cell_length_a 25.183067
_cell_length_b 5.650511
_cell_length_c 14.286480
_cell_angle_alpha 90.000000
_cell_angle_beta 142.959536
_cell_angle_gamma 90.000000
_cell_volume 1224.591751
_symmetry_space_group_name_H-M "P 2/C"
_symmetry_group_IT_number 13
_symmetry_cell_setting 'monoclinic'
loop_
_space_group_symop_operation_xyz
x,y,z
-x,y,1/2-z
-x,-y,-z
x,-y,1/2+z
loop_
_atom_site_type_symbol
_atom_site_label
_atom_site_fract_x
_atom_site_fract_y
_atom_site_fract_z
Si Si1 0.393208 0.365735 0.352742
Si Si2 0.029493 0.491607 0.934834
Si Si3 0.603754 0.868106 0.926464
Si Si4 0.613793 0.866685 0.168301
Si Si5 0.602885 0.629881 0.418279
Si Si6 0.817402 0.645800 0.956157
Si Si7 0.961631 0.991209 0.841873
Si Si8 0.810700 0.145483 0.026673
O O1 0.427668 0.614718 0.361467
O O2 0.397599 0.370382 0.470511
O O3 0.287956 0.353446 0.191438
O O4 0.427882 0.117745 0.360888
O O5 0.982926 0.252171 0.831175
O O6 0.133171 0.438039 0.068133
O O7 0.006773 0.752834 0.863836
O O8 0.000000 0.500000 0.000000
O O9 0.500000 0.867398 0.750000
O O10 0.642382 0.621080 0.942053
O O11 0.641414 0.117230 0.943220
O O12 0.617704 0.867595 0.059504
O O13 0.709649 0.855004 0.350484
O O14 0.500000 0.630323 0.250000
O O15 0.839169 0.419310 0.052630
O O16 0.844466 0.917718 0.013314
O O17 0.856851 0.935374 0.688468
O O18 0.000000 0.000000 0.000000
#
# Coordination Sequence:
#
# PCOD9227868 Si02
#       8
#     4   4   4   4   4   4   4   4
#     4   8  14  23  34  52  77 102 133 166 202 243
#     4  10  21  35  48  63  85 112 144 182 225 267
#     4   8  12  18  29  45  68 100 134 157 185 236
#     4   8  14  23  34  52  77 102 133 166 202 243
#     4   8  12  18  29  45  68 100 134 157 185 236
#     4  10  19  30  46  66  86 110 144 184 220 258
#     4  10  21  35  48  63  85 112 144 182 225 267
#     4  10  19  30  46  66  86 110 144 184 220 258
#
# _framework density 26.131159
#
# number of rings (size 3 to 8) (size 9 to 14) (size 15 to 20)
#    0.000    3.000    0.000    1.500    0.000    3.000 
#    0.000    0.000    0.000    0.000    0.000    0.000 
#    0.000    0.000    0.000    0.000    0.000 1080.000 
#
# Total GULP energy -178317.943514 kJ/mol
# GULP energy per Si atom -5572.435735 kJ/mol
# Density = 2.607168 g / cm^3
# Si number density = 26.131159 Si / 1000 Ang^3
#
#
#
# Elastic Constant Matrix: (Units=GPa)
#
#
# Indices 1 2 3 4 5 6 
#
# 1 61.7294 29.4888 29.2976 0.0000 -6.7751 0.0000
# 2 29.4888 343.2922 35.1098 0.0000 13.3605 0.0000
# 3 29.2976 35.1098 134.1571 0.0000 -6.8814 0.0000
# 4 0.0000 0.0000 0.0000 129.5669 0.0000 36.7412
# 5 -6.7751 13.3605 -6.8814 0.0000 24.8079 0.0000
# 6 0.0000 0.0000 0.0000 36.7412 0.0000 31.5505
#
#
#
# Elastic Compliance Matrix: (Units=1/GPa)
#
#
# Indices 1 2 3 4 5 6 
#
# 1 0.019137 -0.001479 -0.003533 0.000000 0.005043 0.000000
# 2 -0.001479 0.003194 -0.000631 0.000000 -0.002299 0.000000
# 3 -0.003533 -0.000631 0.008479 0.000000 0.001727 0.000000
# 4 0.000000 0.000000 0.000000 0.011523 0.000000 -0.013419
# 5 0.005043 -0.002299 0.001727 0.000000 0.043404 0.000000
# 6 0.000000 0.000000 0.000000 -0.013419 0.000000 0.047322
#
#
# Mechanical properties :
#
#
# Convention : Reuss Voigt Hill
#
# Bulk Modulus (GPa) = 51.21963 80.77454 65.99708
# Shear Modulus (GPa) = 33.14480 66.87055 50.00768
#
# Velocity S-wave (km/s) = 3.56533 5.06418 4.37935
# Velocity P-wave (km/s) = 6.04915 8.07297 7.13320
#
# Compressibility (1/GPa) = 0.01952376
#
# Stress axis : x y z
#
# Youngs Moduli (GPa) = 52.25586 313.08826 117.93459
#
# Poissons Ratio (x) = 0.46296 0.41672
# Poissons Ratio (y) = 0.07727 0.07440
# Poissons Ratio (z) = 0.18464 0.19752
#
# Static dielectric constant tensor:
#      x y z
#    x 1.950540 0.000000 0.008570 
#    y 0.000000 2.191970 0.000000 
#    z 0.008570 0.000000 2.064140 
# 
# From -- ./inp_files/59777.got.cif
#   From: 2010.05.17/outbox.cif.g08.bks.cpg/sg13_30_cif.got.tgz:59777.got - 2010.06.03 16:44:36.
