data_PCOD9227638
_publ_section_title
;
Structure prediction by ZEFSAII (Michael W. Deem and Ramdas Pophale) SiO2 
 PCOD9227638
Probable space group: P 2/C
;
_chemical_formula_sum "Si O2"
_cell_formula_units_Z 20
_cell_length_a 7.377160
_cell_length_b 7.612907
_cell_length_c 18.161368
_cell_angle_alpha 90.000000
_cell_angle_beta 132.506976
_cell_angle_gamma 90.000000
_cell_volume 751.918398
_symmetry_space_group_name_H-M "P 2/C"
_symmetry_group_IT_number 13
_symmetry_cell_setting 'monoclinic'
loop_
_space_group_symop_operation_xyz
x,y,z
-x,y,1/2-z
-x,-y,-z
x,-y,1/2+z
loop_
_atom_site_type_symbol
_atom_site_label
_atom_site_fract_x
_atom_site_fract_y
_atom_site_fract_z
Si Si1 0.039858 0.786122 0.388373
Si Si2 0.491061 0.351314 0.058019
Si Si3 0.341392 0.843237 0.318230
Si Si4 0.801990 0.834869 0.535543
Si Si5 0.271784 0.245069 0.240815
O O1 0.200594 0.673827 0.489607
O O2 0.192715 0.794794 0.352274
O O3 0.771464 0.745108 0.283942
O O4 0.066354 0.978304 0.430907
O O5 0.607002 0.181280 0.049211
O O6 0.660752 0.376517 0.174659
O O7 0.500000 0.500000 0.000000
O O8 0.627668 0.810703 0.416840
O O9 0.280665 0.047605 0.279648
O O10 0.023712 0.715848 0.627981
O O11 0.500000 0.247006 0.250000
#
# Coordination Sequence:
#
# PCOD9227638 Si02
#       5
#     4   4   4   4   4
#     4   9  16  32  61  85 118 139 201 251 284 344
#     4  11  21  38  60  89 111 160 210 244 291 359
#     4   9  16  32  57  87 117 149 187 246 300 336
#     4  10  18  37  61  83 120 148 198 248 291 356
#     4  11  22  36  58  90 123 154 195 250 307 355
#
# _framework density 26.598633
#
# number of rings (size 3 to 8) (size 9 to 14) (size 15 to 20)
#    0.000    2.000    4.000    1.800    0.000    0.800 
#   14.400    1.000    0.000    4.800    0.000    0.000 
#    0.000    0.000    0.000    0.000    0.000    0.000 
#
# Total GULP energy -111574.793372 kJ/mol
# GULP energy per Si atom -5578.739669 kJ/mol
# Density = 2.653809 g / cm^3
# Si number density = 26.598633 Si / 1000 Ang^3
#
#
#
# Elastic Constant Matrix: (Units=GPa)
#
#
# Indices 1 2 3 4 5 6 
#
# 1 52.7939 -7.6772 44.8115 0.0000 1.0607 0.0000
# 2 -7.6772 52.2207 32.3531 0.0000 -3.9784 0.0000
# 3 44.8115 32.3531 336.5994 0.0000 56.5838 0.0000
# 4 0.0000 0.0000 0.0000 28.7960 0.0000 4.8498
# 5 1.0607 -3.9784 56.5838 0.0000 37.2833 0.0000
# 6 0.0000 0.0000 0.0000 4.8498 0.0000 -3.2223
#
#
#
# Elastic Compliance Matrix: (Units=1/GPa)
#
#
# Indices 1 2 3 4 5 6 
#
# 1 0.024425 0.007542 -0.005364 0.000000 0.008250 0.000000
# 2 0.007542 0.024107 -0.004991 0.000000 0.009932 0.000000
# 3 -0.005364 -0.004991 0.005677 0.000000 -0.008996 0.000000
# 4 0.000000 0.000000 0.000000 0.027705 0.000000 0.041697
# 5 0.008250 0.009932 -0.008996 0.000000 0.041299 0.000000
# 6 0.000000 0.000000 0.000000 0.041697 0.000000 -0.247581
#
#
# Mechanical properties :
#
#
# Convention : Reuss Voigt Hill
#
# Bulk Modulus (GPa) = 20.58250 64.50987 42.54618
# Shear Modulus (GPa) = -48.75694 37.37985 -5.68854
#
# Velocity S-wave (km/s) = -4.28607 3.75284 -1.46400
# Velocity P-wave (km/s) = 4.09132 6.56385 3.62941
#
# Compressibility (1/GPa) = 0.04858497
#
# Stress axis : x y z
#
# Youngs Moduli (GPa) = 40.94131 41.48154 176.15413
#
# Poissons Ratio (x) = -0.31287 0.94481
# Poissons Ratio (y) = -0.30879 0.87917
# Poissons Ratio (z) = 0.21959 0.20703
#
# Static dielectric constant tensor:
#      x y z
#    x 2.088790 0.000000 0.053430 
#    y 0.000000 2.173440 0.000000 
#    z 0.053430 0.000000 2.206860 
# 
# From -- ./inp_files/75833.got.cif
#   From: 2010.05.17/outbox.cif.g08.bks.cpg/sg13_38_cif.got.tgz:75833.got - 2010.06.03 16:44:36.
