data_PCOD9227350
_publ_section_title
;
Structure prediction by ZEFSAII (Michael W. Deem and Ramdas Pophale) SiO2 
 PCOD9227350
Probable space group: P 2/C
;
_chemical_formula_sum "Si O2"
_cell_formula_units_Z 18
_cell_length_a 8.936674
_cell_length_b 11.137046
_cell_length_c 9.278620
_cell_angle_alpha 90.000000
_cell_angle_beta 61.439149
_cell_angle_gamma 90.000000
_cell_volume 811.104987
_symmetry_space_group_name_H-M "P 2/C"
_symmetry_group_IT_number 13
_symmetry_cell_setting 'monoclinic'
loop_
_space_group_symop_operation_xyz
x,y,z
-x,y,1/2-z
-x,-y,-z
x,-y,1/2+z
loop_
_atom_site_type_symbol
_atom_site_label
_atom_site_fract_x
_atom_site_fract_y
_atom_site_fract_z
Si Si1 0.500000 0.293143 0.250000
Si Si2 0.170523 0.070280 0.959107
Si Si3 0.636922 0.922227 0.852138
Si Si4 0.289392 0.332769 0.834912
Si Si5 0.311275 0.536107 0.033638
O O1 0.432238 0.208713 0.153763
O O2 0.348885 0.372700 0.384926
O O3 0.201367 0.203347 0.882667
O O4 0.311155 0.986614 0.818243
O O5 0.204443 0.081266 0.112763
O O6 0.000000 0.000000 0.000000
O O7 0.500000 0.000000 0.000000
O O8 0.500000 0.319718 0.750000
O O9 0.239332 0.397884 0.707530
O O10 0.234886 0.418034 0.993781
O O11 0.500000 0.500000 0.000000
#
# Coordination Sequence:
#
# PCOD9227350 Si02
#       5
#     2   4   4   4   4
#     4  12  20  34  68 104 136 170 240 294 346 396
#     4  12  26  43  64 101 143 186 226 289 353 411
#     4  12  23  43  68 100 131 183 240 289 341 407
#     4  10  20  37  65 101 139 172 235 285 348 413
#     4  10  18  34  61 104 135 171 221 298 348 398
#
# _framework density 22.191949000000001
#
# number of rings (size 3 to 8) (size 9 to 14) (size 15 to 20)
#    0.000    0.889    5.556    6.000    0.000    0.000 
#    0.000    0.000    0.000    1.333    5.778    0.000 
#    0.000    0.000    0.000    0.000    0.000    0.000 
#
# Total GULP energy -100562.470239 kJ/mol
# GULP energy per Si atom -5586.803902 kJ/mol
# Density = 2.214144 g / cm^3
# Si number density = 22.191949 Si / 1000 Ang^3
#
#
#
# Elastic Constant Matrix: (Units=GPa)
#
#
# Indices 1 2 3 4 5 6 
#
# 1 76.6394 28.5261 21.1603 0.0000 6.0575 0.0000
# 2 28.5261 132.9471 17.2704 0.0000 -2.3970 0.0000
# 3 21.1603 17.2704 62.0090 0.0000 12.9097 0.0000
# 4 0.0000 0.0000 0.0000 47.7164 0.0000 14.9063
# 5 6.0575 -2.3970 12.9097 0.0000 27.9472 0.0000
# 6 0.0000 0.0000 0.0000 14.9063 0.0000 34.9580
#
#
#
# Elastic Compliance Matrix: (Units=1/GPa)
#
#
# Indices 1 2 3 4 5 6 
#
# 1 0.015355 -0.002790 -0.004116 0.000000 -0.001666 0.000000
# 2 -0.002790 0.008399 -0.001840 0.000000 0.002175 0.000000
# 3 -0.004116 -0.001840 0.019794 0.000000 -0.008409 0.000000
# 4 0.000000 0.000000 0.000000 0.024178 0.000000 -0.010310
# 5 -0.001666 0.002175 -0.008409 0.000000 0.040214 0.000000
# 6 0.000000 0.000000 0.000000 -0.010310 0.000000 0.033002
#
#
# Mechanical properties :
#
#
# Convention : Reuss Voigt Hill
#
# Bulk Modulus (GPa) = 38.37829 45.05655 41.71742
# Shear Modulus (GPa) = 29.91897 35.76690 32.84293
#
# Velocity S-wave (km/s) = 3.67575 4.01896 3.85118
# Velocity P-wave (km/s) = 5.94527 6.47173 6.21408
#
# Compressibility (1/GPa) = 0.02605640
#
# Stress axis : x y z
#
# Youngs Moduli (GPa) = 65.12684 119.06670 50.51937
#
# Poissons Ratio (x) = 0.33220 0.20793
# Poissons Ratio (y) = 0.18170 0.09295
# Poissons Ratio (z) = 0.26805 0.21907
#
# Static dielectric constant tensor:
#      x y z
#    x 1.879310 0.000000 -0.066660 
#    y 0.000000 1.814220 0.000000 
#    z -0.066660 0.000000 0.745440 
# 
# From -- ./inp_files/11596.got.cif
#   From: 2010.05.17/outbox.cif.g08.bks.cpg/sg13_6_cif.got.tgz:11596.got - 2010.06.03 16:44:36.
