data_PCOD9227851
_publ_section_title
;
Structure prediction by ZEFSAII (Michael W. Deem and Ramdas Pophale) SiO2 
 PCOD9227851
Probable space group: P 2/C
;
_chemical_formula_sum "Si O2"
_cell_formula_units_Z 26
_cell_length_a 19.199754
_cell_length_b 5.438323
_cell_length_c 22.501967
_cell_angle_alpha 90.000000
_cell_angle_beta 26.111829
_cell_angle_gamma 90.000000
_cell_volume 1034.086224
_symmetry_space_group_name_H-M "P 2/C"
_symmetry_group_IT_number 13
_symmetry_cell_setting 'monoclinic'
loop_
_space_group_symop_operation_xyz
x,y,z
-x,y,1/2-z
-x,-y,-z
x,-y,1/2+z
loop_
_atom_site_type_symbol
_atom_site_label
_atom_site_fract_x
_atom_site_fract_y
_atom_site_fract_z
Si Si1 0.171000 0.701795 0.240414
Si Si2 0.494225 0.218352 0.454956
Si Si3 0.115255 0.772356 0.716784
Si Si4 0.262739 0.724046 0.833662
Si Si5 0.789064 0.235340 0.652770
Si Si6 0.586165 0.849361 0.077041
Si Si7 0.500000 0.895392 0.750000
O O1 0.077406 0.468705 0.285289
O O2 0.162920 0.750040 0.316282
O O3 0.132504 0.969132 0.239738
O O4 0.357971 0.616703 0.088264
O O5 0.657475 0.278580 0.294776
O O6 0.500000 0.000000 0.500000
O O7 0.406055 0.103146 0.465253
O O8 0.278153 0.698168 0.557318
O O9 0.000000 0.816240 0.750000
O O10 0.161755 0.481400 0.917473
O O11 0.168182 0.977122 0.908359
O O12 0.394250 0.742814 0.784891
O O13 0.593895 0.239764 0.795629
O O14 0.607889 0.921781 0.128292
#
# Coordination Sequence:
#
# PCOD9227851 Si02
#       7
#     4   4   4   4   4   4   2
#     4  11  20  34  56  76 115 138 176 235 271 328
#     4   9  15  28  47  79 110 127 162 213 279 322
#     4  11  24  37  52  79 111 153 185 211 265 332
#     4  10  19  29  46  74 113 135 170 204 264 348
#     4  10  19  31  51  84 102 135 169 224 292 307
#     4   9  19  33  55  79 112 139 179 221 267 332
#     4   8  18  36  50  78 110 150 172 216 276 322
#
# _framework density 25.142969999999998
#
# number of rings (size 3 to 8) (size 9 to 14) (size 15 to 20)
#    0.000    2.462    3.077    2.308    2.154    3.692 
#    0.000    0.000    0.000    0.000    0.000   15.077 
#    0.000    0.000    0.000    0.000    0.000    0.000 
#
# Total GULP energy -144890.498400 kJ/mol
# GULP energy per Si atom -5572.711477 kJ/mol
# Density = 2.508574 g / cm^3
# Si number density = 25.142970 Si / 1000 Ang^3
#
#
#
# Elastic Constant Matrix: (Units=GPa)
#
#
# Indices 1 2 3 4 5 6 
#
# 1 155.1170 65.1596 26.4719 0.0000 18.6044 0.0000
# 2 65.1596 175.5173 8.0218 0.0000 13.2739 0.0000
# 3 26.4719 8.0218 72.6119 0.0000 5.1838 0.0000
# 4 0.0000 0.0000 0.0000 7.3924 0.0000 9.2638
# 5 18.6044 13.2739 5.1838 0.0000 36.2898 0.0000
# 6 0.0000 0.0000 0.0000 9.2638 0.0000 41.9113
#
#
#
# Elastic Compliance Matrix: (Units=1/GPa)
#
#
# Indices 1 2 3 4 5 6 
#
# 1 0.008400 -0.002781 -0.002546 0.000000 -0.002926 0.000000
# 2 -0.002781 0.006798 0.000342 0.000000 -0.001110 0.000000
# 3 -0.002546 0.000342 0.014728 0.000000 -0.000924 0.000000
# 4 0.000000 0.000000 0.000000 0.187097 0.000000 -0.041355
# 5 -0.002926 -0.001110 -0.000924 0.000000 0.029594 0.000000
# 6 0.000000 0.000000 0.000000 -0.041355 0.000000 0.033001
#
#
# Mechanical properties :
#
#
# Convention : Reuss Voigt Hill
#
# Bulk Modulus (GPa) = 50.10967 66.95030 58.52998
# Shear Modulus (GPa) = 16.87816 37.35824 27.11820
#
# Velocity S-wave (km/s) = 2.59373 3.85883 3.28771
# Velocity P-wave (km/s) = 5.37988 6.82200 6.14340
#
# Compressibility (1/GPa) = 0.01995623
#
# Stress axis : x y z
#
# Youngs Moduli (GPa) = 119.04214 147.09886 67.89634
#
# Poissons Ratio (x) = 0.40907 0.17289
# Poissons Ratio (y) = 0.33105 -0.02322
# Poissons Ratio (z) = 0.30313 -0.05031
#
# Static dielectric constant tensor:
#      x y z
#    x 1.973480 0.000000 -0.047240 
#    y 0.000000 2.130610 0.000000 
#    z -0.047240 0.000000 2.126730 
# 
# From -- ./inp_files/80636.got.cif
#   From: 2010.05.17/outbox.cif.g08.bks.cpg/sg13_41_cif.got.tgz:80636.got - 2010.06.03 16:44:36.
