data_PCOD9227619
_publ_section_title
;
Structure prediction by ZEFSAII (Michael W. Deem and Ramdas Pophale) SiO2 
 PCOD9227619
Probable space group: P 2/C
;
_chemical_formula_sum "Si O2"
_cell_formula_units_Z 18
_cell_length_a 4.862412
_cell_length_b 9.005471
_cell_length_c 13.460098
_cell_angle_alpha 90.000000
_cell_angle_beta 66.970412
_cell_angle_gamma 90.000000
_cell_volume 542.421911
_symmetry_space_group_name_H-M "P 2/C"
_symmetry_group_IT_number 13
_symmetry_cell_setting 'monoclinic'
loop_
_space_group_symop_operation_xyz
x,y,z
-x,y,1/2-z
-x,-y,-z
x,-y,1/2+z
loop_
_atom_site_type_symbol
_atom_site_label
_atom_site_fract_x
_atom_site_fract_y
_atom_site_fract_z
Si Si1 0.500000 0.235225 0.250000
Si Si2 0.641939 0.678066 0.942994
Si Si3 0.000000 0.500000 0.500000
Si Si4 0.985518 0.961227 0.870036
Si Si5 0.000000 0.528494 0.750000
Si Si6 0.241989 0.737709 0.340286
O O1 0.303370 0.333403 0.201370
O O2 0.716909 0.135209 0.153149
O O3 0.693315 0.384847 0.016691
O O4 0.947518 0.568025 0.887015
O O5 0.717670 0.854329 0.940260
O O6 0.730850 0.351704 0.559305
O O7 0.002342 0.132019 0.896217
O O8 0.000000 0.964096 0.750000
O O9 0.220579 0.386801 0.758213
O O10 0.500000 0.833227 0.250000
#
# Coordination Sequence:
#
# PCOD9227619 Si02
#       6
#     2   4   2   4   2   4
#     4  10  18  36  70 100 122 188 242 272 348 426
#     4  10  21  40  66  95 141 177 229 291 348 408
#     4  10  26  46  62 112 148 176 232 298 348 420
#     4  10  19  37  68  96 128 183 238 285 344 416
#     4  10  20  36  62  94 136 174 222 282 342 416
#     4  11  23  41  69  97 137 187 230 286 356 418
#
# _framework density 33.184502000000002
#
# number of rings (size 3 to 8) (size 9 to 14) (size 15 to 20)
#    0.000    1.778    5.556    0.000    1.556    0.889 
#    0.000   11.111    0.000    0.000    0.000    0.000 
#    0.000    0.000    0.000    0.000    0.000    0.000 
#
# Total GULP energy -100550.457031 kJ/mol
# GULP energy per Si atom -5586.136502 kJ/mol
# Density = 3.310897 g / cm^3
# Si number density = 33.184502 Si / 1000 Ang^3
#
#
#
# Elastic Constant Matrix: (Units=GPa)
#
#
# Indices 1 2 3 4 5 6 
#
# 1 273.3984 89.5913 99.2523 0.0000 23.9200 0.0000
# 2 89.5913 352.1303 95.6763 0.0000 -9.9420 0.0000
# 3 99.2523 95.6763 239.7682 0.0000 7.0732 0.0000
# 4 0.0000 0.0000 0.0000 76.9354 0.0000 4.4999
# 5 23.9200 -9.9420 7.0732 0.0000 92.5068 0.0000
# 6 0.0000 0.0000 0.0000 4.4999 0.0000 63.6261
#
#
#
# Elastic Compliance Matrix: (Units=1/GPa)
#
#
# Indices 1 2 3 4 5 6 
#
# 1 0.004575 -0.000775 -0.001551 0.000000 -0.001148 0.000000
# 2 -0.000775 0.003335 -0.001029 0.000000 0.000637 0.000000
# 3 -0.001551 -0.001029 0.005226 0.000000 -0.000109 0.000000
# 4 0.000000 0.000000 0.000000 0.013052 0.000000 -0.000923
# 5 -0.001148 0.000637 -0.000109 0.000000 0.011184 0.000000
# 6 0.000000 0.000000 0.000000 -0.000923 0.000000 0.015782
#
#
# Mechanical properties :
#
#
# Convention : Reuss Voigt Hill
#
# Bulk Modulus (GPa) = 155.59000 159.37074 157.48037
# Shear Modulus (GPa) = 80.63932 85.33214 82.98573
#
# Velocity S-wave (km/s) = 4.93488 5.07644 5.00616
# Velocity P-wave (km/s) = 8.91397 9.08242 8.99859
#
# Compressibility (1/GPa) = 0.00642715
#
# Stress axis : x y z
#
# Youngs Moduli (GPa) = 218.57825 299.89320 191.34147
#
# Poissons Ratio (x) = 0.23244 0.29671
# Poissons Ratio (y) = 0.16941 0.19681
# Poissons Ratio (z) = 0.33895 0.30846
#
# Static dielectric constant tensor:
#      x y z
#    x 3.033550 0.000000 0.182150 
#    y 0.000000 2.451750 0.000000 
#    z 0.182150 0.000000 3.003970 
# 
# From -- ./inp_files/60372.got.cif
#   From: 2010.05.17/outbox.cif.g08.bks.cpg/sg13_31_cif.got.tgz:60372.got - 2010.06.03 16:44:36.
