data_PCOD9227933
_publ_section_title
;
Structure prediction by ZEFSAII (Michael W. Deem and Ramdas Pophale) SiO2 
 PCOD9227933
Probable space group: P 2/C
;
_chemical_formula_sum "Si O2"
_cell_formula_units_Z 24
_cell_length_a 10.688378
_cell_length_b 5.657138
_cell_length_c 14.390287
_cell_angle_alpha 90.000000
_cell_angle_beta 105.535345
_cell_angle_gamma 90.000000
_cell_volume 838.328368
_symmetry_space_group_name_H-M "P 2/C"
_symmetry_group_IT_number 13
_symmetry_cell_setting 'monoclinic'
loop_
_space_group_symop_operation_xyz
x,y,z
-x,y,1/2-z
-x,-y,-z
x,-y,1/2+z
loop_
_atom_site_type_symbol
_atom_site_label
_atom_site_fract_x
_atom_site_fract_y
_atom_site_fract_z
Si Si1 0.645217 0.731856 0.050257
Si Si2 0.985315 0.603904 0.395514
Si Si3 0.010564 0.892113 0.648275
Si Si4 0.656289 0.762932 0.564438
Si Si5 0.689027 0.819217 0.793672
Si Si6 0.682903 0.676784 0.280750
O O1 0.705598 0.482885 0.030820
O O2 0.653388 0.703231 0.164619
O O3 0.702121 0.986043 0.034454
O O4 0.497779 0.746633 0.985136
O O5 0.046374 0.374775 0.355245
O O6 0.838613 0.650494 0.327392
O O7 0.000000 0.500000 0.500000
O O8 0.037073 0.872424 0.412878
O O9 0.159567 0.840210 0.651753
O O10 0.000000 0.987821 0.750000
O O11 0.681152 0.791054 0.679835
O O12 0.631251 0.568599 0.813908
O O13 0.634277 0.073903 0.812418
#
# Coordination Sequence:
#
# PCOD9227933 Si02
#       6
#     4   4   4   4   4   4
#     4   8  12  18  29  46  69  97 125 154 195 245
#     4  10  19  31  46  64  87 116 148 182 220 261
#     4  10  19  31  46  64  87 116 148 182 220 261
#     4   8  12  18  29  46  69  97 125 154 195 245
#     4   8  14  23  35  52  75 103 132 164 205 247
#     4   8  14  23  35  52  75 103 132 164 205 247
#
# _framework density 28.628401
#
# number of rings (size 3 to 8) (size 9 to 14) (size 15 to 20)
#    0.000    3.333    0.000    1.000    0.000    0.000 
#    0.000    0.000    0.000    0.000    0.000    0.000 
#    0.000    1.333    0.000   12.667    0.000    9.333 
#
# Total GULP energy -133899.717143 kJ/mol
# GULP energy per Si atom -5579.154881 kJ/mol
# Density = 2.856324 g / cm^3
# Si number density = 28.628401 Si / 1000 Ang^3
#
#
#
# Elastic Constant Matrix: (Units=GPa)
#
#
# Indices 1 2 3 4 5 6 
#
# 1 101.4992 32.7615 34.0498 0.0000 40.7102 0.0000
# 2 32.7615 413.0254 5.9372 0.0000 3.2644 0.0000
# 3 34.0498 5.9372 168.3430 0.0000 9.0561 0.0000
# 4 0.0000 0.0000 0.0000 27.4505 0.0000 6.1859
# 5 40.7102 3.2644 9.0561 0.0000 38.9719 0.0000
# 6 0.0000 0.0000 0.0000 6.1859 0.0000 -33.7668
#
#
#
# Elastic Compliance Matrix: (Units=1/GPa)
#
#
# Indices 1 2 3 4 5 6 
#
# 1 0.018742 -0.001299 -0.002732 0.000000 -0.018835 0.000000
# 2 -0.001299 0.002514 0.000114 0.000000 0.001119 0.000000
# 3 -0.002732 0.000114 0.006416 0.000000 0.001353 0.000000
# 4 0.000000 0.000000 0.000000 0.034985 0.000000 0.006409
# 5 -0.018835 0.001119 0.001353 0.000000 0.044926 0.000000
# 6 0.000000 0.000000 0.000000 0.006409 0.000000 -0.028441
#
#
# Mechanical properties :
#
#
# Convention : Reuss Voigt Hill
#
# Bulk Modulus (GPa) = 50.40656 92.04052 71.22354
# Shear Modulus (GPa) = 53.42547 47.20572 50.31559
#
# Velocity S-wave (km/s) = 4.32461 4.06509 4.19685
# Velocity P-wave (km/s) = 6.52547 7.36567 6.95826
#
# Compressibility (1/GPa) = 0.01983869
#
# Stress axis : x y z
#
# Youngs Moduli (GPa) = 53.35538 397.82399 155.86031
#
# Poissons Ratio (x) = 0.51658 0.42579
# Poissons Ratio (y) = 0.06928 -0.01773
# Poissons Ratio (z) = 0.14576 -0.04526
#
# Static dielectric constant tensor:
#      x y z
#    x 2.110430 0.000000 0.085620 
#    y 0.000000 2.401900 0.000000 
#    z 0.085620 0.000000 2.267670 
# 
# From -- ./inp_files/52285.got.cif
#   From: 2010.05.17/outbox.cif.g08.bks.cpg/sg13_27_cif.got.tgz:52285.got - 2010.06.03 16:44:36.
