data_PCOD9227625
_publ_section_title
;
Structure prediction by ZEFSAII (Michael W. Deem and Ramdas Pophale) SiO2 
 PCOD9227625
Probable space group: P 2/C
;
_chemical_formula_sum "Si O2"
_cell_formula_units_Z 32
_cell_length_a 23.257567
_cell_length_b 11.922355
_cell_length_c 12.269933
_cell_angle_alpha 90.000000
_cell_angle_beta 32.532857
_cell_angle_gamma 90.000000
_cell_volume 1829.682486
_symmetry_space_group_name_H-M "P 2/C"
_symmetry_group_IT_number 13
_symmetry_cell_setting 'monoclinic'
loop_
_space_group_symop_operation_xyz
x,y,z
-x,y,1/2-z
-x,-y,-z
x,-y,1/2+z
loop_
_atom_site_type_symbol
_atom_site_label
_atom_site_fract_x
_atom_site_fract_y
_atom_site_fract_z
Si Si1 0.290905 0.904746 0.944940
Si Si2 0.406232 0.694496 0.311775
Si Si3 0.496036 0.232396 0.066767
Si Si4 0.397967 0.558027 0.833601
Si Si5 0.291456 0.265396 0.637272
Si Si6 0.118978 0.806935 0.576141
Si Si7 0.220557 0.856330 0.641336
Si Si8 0.121025 0.930154 0.025958
O O1 0.409565 0.866103 0.718922
O O2 0.260826 0.822995 0.092747
O O3 0.207162 0.893715 0.979562
O O4 0.281665 0.031346 0.003170
O O5 0.500000 0.691688 0.250000
O O6 0.376317 0.566745 0.327053
O O7 0.306364 0.759114 0.521698
O O8 0.448524 0.760125 0.138506
O O9 0.431335 0.348936 0.191172
O O10 0.592184 0.229008 0.001071
O O11 0.500000 0.549045 0.750000
O O12 0.307071 0.615494 0.052917
O O13 0.207847 0.262150 0.868733
O O14 0.146795 0.818906 0.658507
O O15 0.000000 0.762417 0.750000
O O16 0.123045 0.933980 0.522356
O O17 0.155610 0.884974 0.853399
O O18 0.000000 0.896835 0.250000
#
# Coordination Sequence:
#
# PCOD9227625 Si02
#       8
#     4   4   4   4   4   4   4   4
#     4  10  21  34  55  82 113 147 180 218 275 325
#     4  11  21  33  51  80 114 147 177 218 272 327
#     4  10  19  35  55  80 111 145 186 219 264 324
#     4   8  18  33  55  77 104 142 187 223 259 319
#     4  10  18  37  57  83 106 143 187 227 269 320
#     4  10  21  35  59  81 104 144 189 232 267 317
#     4  11  22  36  52  84 116 142 181 223 278 329
#     4  10  22  37  55  79 111 148 184 225 268 325
#
# _framework density 17.489374000000002
#
# number of rings (size 3 to 8) (size 9 to 14) (size 15 to 20)
#    0.000    2.000    2.500    2.250    1.750    3.000 
#    0.000    0.000    0.000    1.500    0.000    0.000 
#    0.000    0.000    0.000    0.000    0.000    0.000 
#
# Total GULP energy -178502.278815 kJ/mol
# GULP energy per Si atom -5578.196213 kJ/mol
# Density = 1.744957 g / cm^3
# Si number density = 17.489374 Si / 1000 Ang^3
#
#
#
# Elastic Constant Matrix: (Units=GPa)
#
#
# Indices 1 2 3 4 5 6 
#
# 1 49.1697 14.9050 44.1002 0.0000 -0.1767 0.0000
# 2 14.9050 51.9892 32.5612 0.0000 -9.4701 0.0000
# 3 44.1002 32.5612 127.6360 0.0000 -0.6306 0.0000
# 4 0.0000 0.0000 0.0000 13.5761 0.0000 3.1184
# 5 -0.1767 -9.4701 -0.6306 0.0000 31.2279 0.0000
# 6 0.0000 0.0000 0.0000 3.1184 0.0000 13.7407
#
#
#
# Elastic Compliance Matrix: (Units=1/GPa)
#
#
# Indices 1 2 3 4 5 6 
#
# 1 0.029759 -0.002668 -0.009606 0.000000 -0.000835 0.000000
# 2 -0.002668 0.024685 -0.005339 0.000000 0.007363 0.000000
# 3 -0.009606 -0.005339 0.012509 0.000000 -0.001421 0.000000
# 4 0.000000 0.000000 0.000000 0.077710 0.000000 -0.017636
# 5 -0.000835 0.007363 -0.001421 0.000000 0.034222 0.000000
# 6 0.000000 0.000000 0.000000 -0.017636 0.000000 0.076779
#
#
# Mechanical properties :
#
#
# Convention : Reuss Voigt Hill
#
# Bulk Modulus (GPa) = 31.51868 45.76974 38.64421
# Shear Modulus (GPa) = 16.58574 20.85751 18.72162
#
# Velocity S-wave (km/s) = 3.08284 3.45712 3.27533
# Velocity P-wave (km/s) = 5.54370 6.49326 6.03718
#
# Compressibility (1/GPa) = 0.03172722
#
# Stress axis : x y z
#
# Youngs Moduli (GPa) = 33.60362 40.51085 79.94381
#
# Poissons Ratio (x) = 0.10806 0.76792
# Poissons Ratio (y) = 0.08964 0.42684
# Poissons Ratio (z) = 0.32279 0.21630
#
# Static dielectric constant tensor:
#      x y z
#    x 1.605450 0.000000 0.011530 
#    y 0.000000 1.595860 0.000000 
#    z 0.011530 0.000000 1.595830 
# 
# From -- ./inp_files/34186.got.cif
#   From: 2010.05.17/outbox.cif.g08.bks.cpg/sg13_18_cif.got.tgz:34186.got - 2010.06.03 16:44:36.
