data_PCOD9227976
_publ_section_title
;
Structure prediction by ZEFSAII (Michael W. Deem and Ramdas Pophale) SiO2 
 PCOD9227976
Probable space group: P 2/C
;
_chemical_formula_sum "Si O2"
_cell_formula_units_Z 32
_cell_length_a 21.767041
_cell_length_b 15.567784
_cell_length_c 9.178156
_cell_angle_alpha 90.000000
_cell_angle_beta 34.953693
_cell_angle_gamma 90.000000
_cell_volume 1781.850307
_symmetry_space_group_name_H-M "P 2/C"
_symmetry_group_IT_number 13
_symmetry_cell_setting 'monoclinic'
loop_
_space_group_symop_operation_xyz
x,y,z
-x,y,1/2-z
-x,-y,-z
x,-y,1/2+z
loop_
_atom_site_type_symbol
_atom_site_label
_atom_site_fract_x
_atom_site_fract_y
_atom_site_fract_z
Si Si1 0.889906 0.392729 0.773199
Si Si2 0.487502 0.590880 0.448010
Si Si3 0.564024 0.884387 0.877677
Si Si4 0.335760 0.997619 0.563562
Si Si5 0.868918 0.565167 0.648087
Si Si6 0.697878 0.716822 0.688183
Si Si7 0.305974 0.698384 0.456266
Si Si8 0.304950 0.880310 0.370816
O O1 0.865785 0.466971 0.704126
O O2 0.019037 0.388957 0.525632
O O3 0.860112 0.428852 0.991280
O O4 0.817552 0.307124 0.901706
O O5 0.500000 0.579200 0.250000
O O6 0.500000 0.500000 0.500000
O O7 0.373561 0.632834 0.704764
O O8 0.577990 0.661382 0.311768
O O9 0.597050 0.941916 0.675715
O O10 0.635706 0.798279 0.742777
O O11 0.597098 0.937775 0.956983
O O12 0.436056 0.872233 0.123731
O O13 0.275176 0.062973 0.789099
O O14 0.273139 0.933571 0.577172
O O15 0.773816 0.619118 0.902360
O O16 0.693712 0.725663 0.872777
O O17 0.268844 0.782282 0.442207
#
# Coordination Sequence:
#
# PCOD9227976 Si02
#       8
#     4   4   4   4   4   4   4   4
#     4   9  18  34  54  74  95 125 167 208 244 282
#     4  10  20  34  46  65  99 136 160 185 237 298
#     4  11  18  32  47  72 100 131 166 200 240 288
#     4  10  21  30  50  70  99 134 165 202 244 285
#     4   9  18  34  54  74  95 125 167 208 244 282
#     4  10  19  31  50  71  99 132 161 194 243 291
#     4  10  19  31  50  71  99 132 161 194 243 291
#     4  11  18  32  47  72 100 131 166 200 240 288
#
# _framework density 17.958859
#
# number of rings (size 3 to 8) (size 9 to 14) (size 15 to 20)
#    0.000    2.000    2.500    3.750    0.000    0.000 
#    4.500    0.000    0.000    0.000    0.000    5.250 
#    0.000    0.000    0.000    0.000    0.000    0.000 
#
# Total GULP energy -178387.111668 kJ/mol
# GULP energy per Si atom -5574.597240 kJ/mol
# Density = 1.791798 g / cm^3
# Si number density = 17.958859 Si / 1000 Ang^3
#
#
#
# Elastic Constant Matrix: (Units=GPa)
#
#
# Indices 1 2 3 4 5 6 
#
# 1 35.0765 17.3294 9.4355 0.0000 8.8979 0.0000
# 2 17.3294 71.5986 -1.2387 0.0000 6.2509 0.0000
# 3 9.4355 -1.2387 30.6010 0.0000 -2.4192 0.0000
# 4 0.0000 0.0000 0.0000 19.3019 0.0000 -0.3946
# 5 8.8979 6.2509 -2.4192 0.0000 19.3725 0.0000
# 6 0.0000 0.0000 0.0000 -0.3946 0.0000 13.7801
#
#
#
# Elastic Compliance Matrix: (Units=1/GPa)
#
#
# Indices 1 2 3 4 5 6 
#
# 1 0.041242 -0.008665 -0.014487 0.000000 -0.017956 0.000000
# 2 -0.008665 0.016194 0.003261 0.000000 -0.000838 0.000000
# 3 -0.014487 0.003261 0.038096 0.000000 0.010359 0.000000
# 4 0.000000 0.000000 0.000000 0.051839 0.000000 0.001484
# 5 -0.017956 -0.000838 0.010359 0.000000 0.061431 0.000000
# 6 0.000000 0.000000 0.000000 0.001484 0.000000 0.072611
#
#
# Mechanical properties :
#
#
# Convention : Reuss Voigt Hill
#
# Bulk Modulus (GPa) = 17.93708 20.92538 19.43123
# Shear Modulus (GPa) = 14.71552 17.94088 16.32820
#
# Velocity S-wave (km/s) = 2.86563 3.16412 3.01857
# Velocity P-wave (km/s) = 4.57806 5.00260 4.79503
#
# Compressibility (1/GPa) = 0.05575044
#
# Stress axis : x y z
#
# Youngs Moduli (GPa) = 24.24721 61.75294 26.24914
#
# Poissons Ratio (x) = 0.53509 0.38026
# Poissons Ratio (y) = 0.21010 -0.08560
# Poissons Ratio (z) = 0.35126 -0.20138
#
# Static dielectric constant tensor:
#      x y z
#    x 1.640400 0.000000 0.008250 
#    y 0.000000 1.618490 0.000000 
#    z 0.008250 0.000000 1.619880 
# 
# From -- ./inp_files/23538.got.cif
#   From: 2010.05.17/outbox.cif.g08.bks.cpg/sg13_12_cif.got.tgz:23538.got - 2010.06.03 16:44:36.
