data_PCOD9227676
_publ_section_title
;
Structure prediction by ZEFSAII (Michael W. Deem and Ramdas Pophale) SiO2 
 PCOD9227676
Probable space group: P 2/C
;
_chemical_formula_sum "Si O2"
_cell_formula_units_Z 24
_cell_length_a 12.057485
_cell_length_b 6.481206
_cell_length_c 14.804110
_cell_angle_alpha 90.000000
_cell_angle_beta 52.727899
_cell_angle_gamma 90.000000
_cell_volume 920.622492
_symmetry_space_group_name_H-M "P 2/C"
_symmetry_group_IT_number 13
_symmetry_cell_setting 'monoclinic'
loop_
_space_group_symop_operation_xyz
x,y,z
-x,y,1/2-z
-x,-y,-z
x,-y,1/2+z
loop_
_atom_site_type_symbol
_atom_site_label
_atom_site_fract_x
_atom_site_fract_y
_atom_site_fract_z
Si Si1 0.959673 0.855109 0.166889
Si Si2 0.500000 0.109861 0.750000
Si Si3 0.503886 0.519904 0.106468
Si Si4 0.000000 0.605147 0.750000
Si Si5 0.200325 0.430757 0.282947
Si Si6 0.804946 0.987244 0.068330
Si Si7 0.815239 0.503240 0.007670
O O1 0.845869 0.663688 0.226007
O O2 0.000000 0.908103 0.250000
O O3 0.880620 0.987828 0.127799
O O4 0.114733 0.868936 0.042403
O O5 0.515395 0.261486 0.830296
O O6 0.640769 0.983756 0.664605
O O7 0.364421 0.401393 0.204007
O O8 0.656798 0.448956 0.061030
O O9 0.500000 0.500000 0.000000
O O10 0.875000 0.705501 0.755912
O O11 0.081847 0.489878 0.628443
O O12 0.146900 0.421934 0.411174
O O13 0.816138 0.753273 0.024738
#
# Coordination Sequence:
#
# PCOD9227676 Si02
#       7
#     4   2   4   2   4   4   4
#     4  10  19  35  59  81 110 149 192 243 291 339
#     4  10  18  38  60  82 120 154 196 242 288 346
#     4  11  18  33  58  82 113 153 195 225 286 355
#     4  12  22  32  54  86 116 154 188 234 288 364
#     4  11  20  36  55  84 115 153 192 236 296 339
#     4   9  20  36  58  83 107 151 195 238 292 342
#     4  10  21  35  55  82 116 150 195 234 285 352
#
# _framework density 26.069317999999999
#
# number of rings (size 3 to 8) (size 9 to 14) (size 15 to 20)
#    0.000    1.667    7.500    0.500    1.167    0.000 
#    0.000    0.833    0.000    0.000    4.333    0.000 
#    0.000    0.000    0.000    0.000    0.000    0.000 
#
# Total GULP energy -133901.695472 kJ/mol
# GULP energy per Si atom -5579.237311 kJ/mol
# Density = 2.600998 g / cm^3
# Si number density = 26.069318 Si / 1000 Ang^3
#
#
#
# Elastic Constant Matrix: (Units=GPa)
#
#
# Indices 1 2 3 4 5 6 
#
# 1 169.4951 -20.9741 43.9045 0.0000 -1.7539 0.0000
# 2 -20.9741 26.9545 -8.8347 0.0000 19.9391 0.0000
# 3 43.9045 -8.8347 152.5671 0.0000 5.8281 0.0000
# 4 0.0000 0.0000 0.0000 18.8333 0.0000 11.7942
# 5 -1.7539 19.9391 5.8281 0.0000 85.8096 0.0000
# 6 0.0000 0.0000 0.0000 11.7942 0.0000 32.0395
#
#
#
# Elastic Compliance Matrix: (Units=1/GPa)
#
#
# Indices 1 2 3 4 5 6 
#
# 1 0.007024 0.005719 -0.001649 0.000000 -0.001073 0.000000
# 2 0.005719 0.050869 0.001752 0.000000 -0.011822 0.000000
# 3 -0.001649 0.001752 0.007166 0.000000 -0.000927 0.000000
# 4 0.000000 0.000000 0.000000 0.069005 0.000000 -0.025402
# 5 -0.001073 -0.011822 -0.000927 0.000000 0.014442 0.000000
# 6 0.000000 0.000000 0.000000 -0.025402 0.000000 0.040562
#
#
# Mechanical properties :
#
#
# Convention : Reuss Voigt Hill
#
# Bulk Modulus (GPa) = 13.03767 41.91202 27.47485
# Shear Modulus (GPa) = 24.63154 49.66455 37.14805
#
# Velocity S-wave (km/s) = 3.07717 4.36948 3.77898
# Velocity P-wave (km/s) = 4.19968 6.44736 5.44085
#
# Compressibility (1/GPa) = 0.07670080
#
# Stress axis : x y z
#
# Youngs Moduli (GPa) = 142.37754 19.65841 139.54991
#
# Poissons Ratio (x) = -0.11242 0.23012
# Poissons Ratio (y) = -0.81421 -0.24443
# Poissons Ratio (z) = 0.23479 -0.03443
#
# Static dielectric constant tensor:
#      x y z
#    x 2.002500 0.000000 -0.035320 
#    y 0.000000 2.474070 0.000000 
#    z -0.035320 0.000000 2.000510 
# 
# From -- ./inp_files/50580.got.cif
#   From: 2010.05.17/outbox.cif.g08.bks.cpg/sg13_26_cif.got.tgz:50580.got - 2010.06.03 16:44:36.
