data_PCOD9227447
_publ_section_title
;
Structure prediction by ZEFSAII (Michael W. Deem and Ramdas Pophale) SiO2 
 PCOD9227447
Probable space group: P 2/C
;
_chemical_formula_sum "Si O2"
_cell_formula_units_Z 26
_cell_length_a 5.085855
_cell_length_b 23.793370
_cell_length_c 10.135448
_cell_angle_alpha 90.000000
_cell_angle_beta 73.244725
_cell_angle_gamma 90.000000
_cell_volume 1174.416096
_symmetry_space_group_name_H-M "P 2/C"
_symmetry_group_IT_number 13
_symmetry_cell_setting 'monoclinic'
loop_
_space_group_symop_operation_xyz
x,y,z
-x,y,1/2-z
-x,-y,-z
x,-y,1/2+z
loop_
_atom_site_type_symbol
_atom_site_label
_atom_site_fract_x
_atom_site_fract_y
_atom_site_fract_z
Si Si1 0.500000 0.052561 0.250000
Si Si2 0.458818 0.179781 0.914917
Si Si3 0.242511 0.583839 0.430510
Si Si4 0.080596 0.111322 0.510849
Si Si5 0.521711 0.695924 0.408410
Si Si6 0.000000 0.351912 0.750000
Si Si7 0.000000 0.977907 0.250000
Si Si8 0.780773 0.462833 0.162716
O O1 0.291323 0.088334 0.370606
O O2 0.719137 0.013864 0.297017
O O3 0.500000 0.178136 0.750000
O O4 0.739388 0.155540 0.932680
O O5 0.420047 0.244006 0.968890
O O6 0.199573 0.141587 0.992962
O O7 0.388720 0.637422 0.475146
O O8 0.206402 0.605356 0.287204
O O9 0.323391 0.518780 0.400612
O O10 0.947176 0.576119 0.539949
O O11 0.993965 0.060880 0.621046
O O12 0.500000 0.699811 0.250000
O O13 0.848604 0.686889 0.377323
O O14 0.500000 0.435485 0.250000
O O15 0.000000 0.475164 0.250000
#
# Coordination Sequence:
#
# PCOD9227447 Si02
#       8
#     2   4   4   4   4   2   2   4
#     4  12  26  42  66  98 132 176 202 252 318 370
#     4  11  22  40  65  93 125 166 208 270 310 357
#     4  10  22  37  61  85 123 154 202 256 312 375
#     4  12  24  42  67  96 135 163 214 256 309 373
#     4   9  21  34  61  92 119 155 209 259 313 352
#     4  10  18  35  60  90 118 147 202 264 310 358
#     4  12  22  43  68  98 130 163 218 256 304 362
#     4  11  24  39  60  87 121 161 197 248 315 375
#
# _framework density 22.138660999999999
#
# number of rings (size 3 to 8) (size 9 to 14) (size 15 to 20)
#    0.000    1.231    2.308    4.154    8.615    1.231 
#    0.000    0.000    5.077    0.000    0.000    0.000 
#    0.000    0.000    0.000    0.000    0.000    0.000 
#
# Total GULP energy -144956.580895 kJ/mol
# GULP energy per Si atom -5575.253111 kJ/mol
# Density = 2.208827 g / cm^3
# Si number density = 22.138661 Si / 1000 Ang^3
#
#
#
# Elastic Constant Matrix: (Units=GPa)
#
#
# Indices 1 2 3 4 5 6 
#
# 1 81.9802 23.5482 -4.3047 0.0000 -17.4073 0.0000
# 2 23.5482 114.9000 26.1579 0.0000 -16.2709 0.0000
# 3 -4.3047 26.1579 67.0102 0.0000 -30.5406 0.0000
# 4 0.0000 0.0000 0.0000 27.7486 0.0000 -9.2630
# 5 -17.4073 -16.2709 -30.5406 0.0000 40.6267 0.0000
# 6 0.0000 0.0000 0.0000 -9.2630 0.0000 14.0027
#
#
#
# Elastic Compliance Matrix: (Units=1/GPa)
#
#
# Indices 1 2 3 4 5 6 
#
# 1 0.015881 -0.003371 0.007335 0.000000 0.010968 0.000000
# 2 -0.003371 0.010333 -0.004598 0.000000 -0.000762 0.000000
# 3 0.007335 -0.004598 0.027050 0.000000 0.021636 0.000000
# 4 0.000000 0.000000 0.000000 0.046251 0.000000 0.030596
# 5 0.010968 -0.000762 0.021636 0.000000 0.045273 0.000000
# 6 0.000000 0.000000 0.000000 0.030596 0.000000 0.091655
#
#
# Mechanical properties :
#
#
# Convention : Reuss Voigt Hill
#
# Bulk Modulus (GPa) = 19.23243 39.41035 29.32139
# Shear Modulus (GPa) = 19.60461 31.04152 25.32306
#
# Velocity S-wave (km/s) = 2.97903 3.74858 3.38574
# Velocity P-wave (km/s) = 4.53199 6.04781 5.34392
#
# Compressibility (1/GPa) = 0.05199552
#
# Stress axis : x y z
#
# Youngs Moduli (GPa) = 62.97017 96.77857 36.96889
#
# Poissons Ratio (x) = 0.32627 -0.27117
# Poissons Ratio (y) = 0.21229 0.16997
# Poissons Ratio (z) = -0.46189 0.44494
#
# Static dielectric constant tensor:
#      x y z
#    x 2.003870 0.000000 0.000420 
#    y 0.000000 1.826900 0.000000 
#    z 0.000420 0.000000 1.914340 
# 
# From -- ./inp_files/26705.got.cif
#   From: 2010.05.17/outbox.cif.g08.bks.cpg/sg13_14_cif.got.tgz:26705.got - 2010.06.03 16:44:36.
