data_PCOD9227338
_publ_section_title
;
Structure prediction by ZEFSAII (Michael W. Deem and Ramdas Pophale) SiO2 
 PCOD9227338
Probable space group: P 2/C
;
_chemical_formula_sum "Si O2"
_cell_formula_units_Z 30
_cell_length_a 14.137851
_cell_length_b 6.579103
_cell_length_c 17.446090
_cell_angle_alpha 90.000000
_cell_angle_beta 68.422194
_cell_angle_gamma 90.000000
_cell_volume 1509.014182
_symmetry_space_group_name_H-M "P 2/C"
_symmetry_group_IT_number 13
_symmetry_cell_setting 'monoclinic'
loop_
_space_group_symop_operation_xyz
x,y,z
-x,y,1/2-z
-x,-y,-z
x,-y,1/2+z
loop_
_atom_site_type_symbol
_atom_site_label
_atom_site_fract_x
_atom_site_fract_y
_atom_site_fract_z
Si Si1 0.141355 0.596691 0.691407
Si Si2 0.120421 0.669748 0.044781
Si Si3 0.252455 0.381111 0.900702
Si Si4 0.000000 0.961412 0.750000
Si Si5 0.362911 0.661644 0.589835
Si Si6 0.285595 0.994270 0.503435
Si Si7 0.413249 0.619547 0.925717
Si Si8 0.088131 0.704458 0.336857
O O1 0.130802 0.462661 0.618611
O O2 0.262065 0.611716 0.667299
O O3 0.089696 0.487571 0.779048
O O4 0.087786 0.811550 0.693620
O O5 0.999704 0.695921 0.072276
O O6 0.175863 0.549079 0.960284
O O7 0.182546 0.875451 0.043532
O O8 0.361359 0.494378 0.871895
O O9 0.199335 0.297887 0.840589
O O10 0.261094 0.189042 0.953864
O O11 0.945732 0.104258 0.703970
O O12 0.466069 0.642396 0.606723
O O13 0.378027 0.505286 0.513278
O O14 0.337974 0.882658 0.560310
O O15 0.364113 0.158241 0.446359
#
# Coordination Sequence:
#
# PCOD9227338 Si02
#       8
#     4   4   4   2   4   4   4   4
#     4  12  22  40  60  87 120 151 196 243 292 352
#     4  11  20  40  60  86 120 150 197 243 289 344
#     4  10  23  38  59  87 121 154 193 240 299 347
#     4  12  24  38  60  82 124 158 202 238 294 360
#     4  10  19  34  61  91 111 154 192 244 292 338
#     4  10  18  34  60  88 120 142 196 248 287 344
#     4   9  19  36  60  86 120 145 194 245 294 338
#     4  12  25  39  57  86 121 161 191 239 292 358
#
# _framework density 19.880528000000002
#
# number of rings (size 3 to 8) (size 9 to 14) (size 15 to 20)
#    0.000    1.333    6.667    1.600    0.000    2.667 
#    0.000    0.667    0.000    0.000    0.000    0.000 
#    0.000    0.000    0.000    0.000    0.000    0.000 
#
# Total GULP energy -167312.915130 kJ/mol
# GULP energy per Si atom -5577.097171 kJ/mol
# Density = 1.983528 g / cm^3
# Si number density = 19.880528 Si / 1000 Ang^3
#
#
#
# Elastic Constant Matrix: (Units=GPa)
#
#
# Indices 1 2 3 4 5 6 
#
# 1 159.7653 46.1719 21.7225 0.0000 -0.8100 0.0000
# 2 46.1719 117.2023 13.7343 0.0000 -1.4215 0.0000
# 3 21.7225 13.7343 15.3965 0.0000 -3.7037 0.0000
# 4 0.0000 0.0000 0.0000 9.1876 0.0000 -6.4749
# 5 -0.8100 -1.4215 -3.7037 0.0000 33.1337 0.0000
# 6 0.0000 0.0000 0.0000 -6.4749 0.0000 25.1357
#
#
#
# Elastic Compliance Matrix: (Units=1/GPa)
#
#
# Indices 1 2 3 4 5 6 
#
# 1 0.008210 -0.002078 -0.009971 0.000000 -0.001003 0.000000
# 2 -0.002078 0.010064 -0.006119 0.000000 -0.000303 0.000000
# 3 -0.009971 -0.006119 0.086685 0.000000 0.009183 0.000000
# 4 0.000000 0.000000 0.000000 0.132984 0.000000 0.034256
# 5 -0.001003 -0.000303 0.009183 0.000000 0.031170 0.000000
# 6 0.000000 0.000000 0.000000 0.034256 0.000000 0.048608
#
#
# Mechanical properties :
#
#
# Convention : Reuss Voigt Hill
#
# Bulk Modulus (GPa) = 14.57224 50.62462 32.59843
# Shear Modulus (GPa) = 13.26497 27.54044 20.40270
#
# Velocity S-wave (km/s) = 2.58589 3.72600 3.20701
# Velocity P-wave (km/s) = 4.03257 6.63554 5.49054
#
# Compressibility (1/GPa) = 0.06862362
#
# Stress axis : x y z
#
# Youngs Moduli (GPa) = 121.79617 99.36129 11.53602
#
# Poissons Ratio (x) = 0.20649 0.11503
# Poissons Ratio (y) = 0.25311 0.07058
# Poissons Ratio (z) = 1.21447 0.60795
#
# Static dielectric constant tensor:
#      x y z
#    x 1.758170 0.000000 -0.002780 
#    y 0.000000 1.689700 0.000000 
#    z -0.002780 0.000000 1.706280 
# 
# From -- ./inp_files/67549.got.cif
#   From: 2010.05.17/outbox.cif.g08.bks.cpg/sg13_34_cif.got.tgz:67549.got - 2010.06.03 16:44:36.
