data_PCOD9227760
_publ_section_title
;
Structure prediction by ZEFSAII (Michael W. Deem and Ramdas Pophale) SiO2 
 PCOD9227760
Probable space group: P 2/C
;
_chemical_formula_sum "Si O2"
_cell_formula_units_Z 22
_cell_length_a 7.366969
_cell_length_b 9.004250
_cell_length_c 14.368201
_cell_angle_alpha 90.000000
_cell_angle_beta 102.576967
_cell_angle_gamma 90.000000
_cell_volume 930.230440
_symmetry_space_group_name_H-M "P 2/C"
_symmetry_group_IT_number 13
_symmetry_cell_setting 'monoclinic'
loop_
_space_group_symop_operation_xyz
x,y,z
-x,y,1/2-z
-x,-y,-z
x,-y,1/2+z
loop_
_atom_site_type_symbol
_atom_site_label
_atom_site_fract_x
_atom_site_fract_y
_atom_site_fract_z
Si Si1 0.217161 0.475797 0.305269
Si Si2 0.209381 0.189493 0.811109
Si Si3 0.500000 0.033281 0.250000
Si Si4 0.977015 0.172046 0.514655
Si Si5 0.207670 0.431290 0.518280
Si Si6 0.685789 0.702396 0.855708
O O1 0.280370 0.644827 0.297085
O O2 0.250564 0.428716 0.414557
O O3 0.308308 0.358731 0.247708
O O4 0.000000 0.478442 0.250000
O O5 0.172137 0.190414 0.918484
O O6 0.000000 0.168349 0.750000
O O7 0.342066 0.068533 0.779527
O O8 0.427545 0.144506 0.160706
O O9 0.887453 0.239243 0.411535
O O10 0.166253 0.266938 0.554814
O O11 0.000000 0.000000 0.500000
O O12 0.336496 0.550946 0.585627
O O13 0.000000 0.500000 0.500000
#
# Coordination Sequence:
#
# PCOD9227760 Si02
#       6
#     4   4   2   4   4   4
#     4  11  19  39  78 104 140 189 251 299 357 444
#     4  11  24  46  74 108 144 198 243 303 376 433
#     4  12  30  46  68 108 158 194 244 306 366 450
#     4  11  22  40  73 111 145 186 243 305 373 439
#     4  10  18  39  68 109 139 181 247 298 351 440
#     4  11  24  43  65 101 149 191 241 300 363 428
#
# _framework density 23.650051999999999
#
# number of rings (size 3 to 8) (size 9 to 14) (size 15 to 20)
#    0.000    1.091    7.273    2.182    2.545    2.182 
#    0.000    0.909    4.000    0.000    0.000    0.000 
#    0.000    0.000    0.000    0.000    0.000    0.000 
#
# Total GULP energy -122849.252430 kJ/mol
# GULP energy per Si atom -5584.056929 kJ/mol
# Density = 2.359622 g / cm^3
# Si number density = 23.650052 Si / 1000 Ang^3
#
#
#
# Elastic Constant Matrix: (Units=GPa)
#
#
# Indices 1 2 3 4 5 6 
#
# 1 89.7250 66.4775 24.8616 0.0000 -13.7322 0.0000
# 2 66.4775 210.7415 39.5173 0.0000 -14.7678 0.0000
# 3 24.8616 39.5173 114.8517 0.0000 -35.7220 0.0000
# 4 0.0000 0.0000 0.0000 36.8042 0.0000 0.7486
# 5 -13.7322 -14.7678 -35.7220 0.0000 17.1030 0.0000
# 6 0.0000 0.0000 0.0000 0.7486 0.0000 43.1383
#
#
#
# Elastic Compliance Matrix: (Units=1/GPa)
#
#
# Indices 1 2 3 4 5 6 
#
# 1 0.015958 -0.004511 0.002487 0.000000 0.014113 0.000000
# 2 -0.004511 0.006374 -0.001802 0.000000 -0.001882 0.000000
# 3 0.002487 -0.001802 0.025475 0.000000 0.053648 0.000000
# 4 0.000000 0.000000 0.000000 0.027180 0.000000 -0.000472
# 5 0.014113 -0.001882 0.053648 0.000000 0.180226 0.000000
# 6 0.000000 0.000000 0.000000 -0.000472 0.000000 0.023189
#
#
# Mechanical properties :
#
#
# Convention : Reuss Voigt Hill
#
# Bulk Modulus (GPa) = 24.90372 75.22565 50.06468
# Shear Modulus (GPa) = 16.69779 38.37323 27.53551
#
# Velocity S-wave (km/s) = 2.66002 4.03245 3.41587
# Velocity P-wave (km/s) = 4.47070 7.31832 6.06403
#
# Compressibility (1/GPa) = 0.04015465
#
# Stress axis : x y z
#
# Youngs Moduli (GPa) = 62.66275 156.88025 39.25489
#
# Poissons Ratio (x) = 0.70776 -0.09763
# Poissons Ratio (y) = 0.28270 0.07074
# Poissons Ratio (z) = -0.15585 0.28270
#
# Static dielectric constant tensor:
#      x y z
#    x 1.944030 0.000000 0.032440 
#    y 0.000000 1.929930 0.000000 
#    z 0.032440 0.000000 1.987260 
# 
# From -- ./inp_files/46203.got.cif
#   From: 2010.05.17/outbox.cif.g08.bks.cpg/sg13_24_cif.got.tgz:46203.got - 2010.06.03 16:44:36.
