data_PCOD9227342
_publ_section_title
;
Structure prediction by ZEFSAII (Michael W. Deem and Ramdas Pophale) SiO2 
 PCOD9227342
Probable space group: P 2/C
;
_chemical_formula_sum "Si O2"
_cell_formula_units_Z 30
_cell_length_a 19.663498
_cell_length_b 5.606319
_cell_length_c 14.094804
_cell_angle_alpha 90.000000
_cell_angle_beta 112.139941
_cell_angle_gamma 90.000000
_cell_volume 1439.240638
_symmetry_space_group_name_H-M "P 2/C"
_symmetry_group_IT_number 13
_symmetry_cell_setting 'monoclinic'
loop_
_space_group_symop_operation_xyz
x,y,z
-x,y,1/2-z
-x,-y,-z
x,-y,1/2+z
loop_
_atom_site_type_symbol
_atom_site_label
_atom_site_fract_x
_atom_site_fract_y
_atom_site_fract_z
Si Si1 0.395718 0.113817 0.309155
Si Si2 0.705284 0.277198 0.744480
Si Si3 0.588629 0.507497 0.544708
Si Si4 0.085180 0.783122 0.827882
Si Si5 0.500000 0.856652 0.250000
Si Si6 0.370553 0.501200 0.641357
Si Si7 0.045469 0.750416 0.021426
Si Si8 0.861743 0.280652 0.736391
O O1 0.393390 0.225605 0.411399
O O2 0.401981 0.295460 0.224743
O O3 0.317295 0.993078 0.249169
O O4 0.471895 0.980695 0.330845
O O5 0.632459 0.359858 0.647943
O O6 0.703031 0.415187 0.843649
O O7 0.776778 0.304669 0.720536
O O8 0.500000 0.500000 0.500000
O O9 0.625857 0.435905 0.466034
O O10 0.114469 0.530841 0.800438
O O11 0.000000 0.801773 0.750000
O O12 0.122652 0.032877 0.812893
O O13 0.087396 0.760630 0.942944
O O14 0.571088 0.711065 0.318127
O O15 0.094640 0.745351 0.141514
O O16 0.000000 0.500000 0.000000
O O17 0.000000 0.000000 0.000000
#
# Coordination Sequence:
#
# PCOD9227342 Si02
#       8
#     4   4   4   4   2   4   4   4
#     4  10  21  39  60  84 131 156 221 271 343 393
#     4  10  26  42  60  93 132 180 217 278 349 402
#     4  11  22  39  66  95 124 170 230 286 333 410
#     4  12  24  44  77 106 143 187 235 289 351 420
#     4  10  18  34  60  92 110 168 204 278 332 394
#     4  10  21  38  60  85 127 162 218 268 339 403
#     4  12  23  43  74 109 139 182 231 280 349 419
#     4  12  26  46  71 104 151 184 234 298 348 424
#
# _framework density 20.844325000000001
#
# number of rings (size 3 to 8) (size 9 to 14) (size 15 to 20)
#    0.000    1.067    2.667    4.800    3.733    5.333 
#    2.400    0.000    0.000    0.000    0.000    0.000 
#    0.000    0.000    0.000    0.000    0.000    0.000 
#
# Total GULP energy -167125.601133 kJ/mol
# GULP energy per Si atom -5570.853371 kJ/mol
# Density = 2.079688 g / cm^3
# Si number density = 20.844325 Si / 1000 Ang^3
#
#
#
# Elastic Constant Matrix: (Units=GPa)
#
#
# Indices 1 2 3 4 5 6 
#
# 1 136.0437 62.1852 29.0815 0.0000 -26.0435 0.0000
# 2 62.1852 99.7836 27.5787 0.0000 -13.9763 0.0000
# 3 29.0815 27.5787 107.2843 0.0000 -34.5989 0.0000
# 4 0.0000 0.0000 0.0000 20.9173 0.0000 -2.3243
# 5 -26.0435 -13.9763 -34.5989 0.0000 35.1943 0.0000
# 6 0.0000 0.0000 0.0000 -2.3243 0.0000 -0.2583
#
#
#
# Elastic Compliance Matrix: (Units=1/GPa)
#
#
# Indices 1 2 3 4 5 6 
#
# 1 0.011362 -0.006348 0.000660 0.000000 0.006536 0.000000
# 2 -0.006348 0.014461 -0.002430 0.000000 -0.001343 0.000000
# 3 0.000660 -0.002430 0.014076 0.000000 0.013361 0.000000
# 4 0.000000 0.000000 0.000000 0.023906 0.000000 -0.215102
# 5 0.006536 -0.001343 0.013361 0.000000 0.045851 0.000000
# 6 0.000000 0.000000 0.000000 -0.215102 0.000000 -1.935796
#
#
# Mechanical properties :
#
#
# Convention : Reuss Voigt Hill
#
# Bulk Modulus (GPa) = 42.26105 64.53360 53.39732
# Shear Modulus (GPa) = -2.77467 26.12172 11.67353
#
# Velocity S-wave (km/s) = -1.15500 3.54387 2.36907
# Velocity P-wave (km/s) = 4.30580 6.91176 5.75814
#
# Compressibility (1/GPa) = 0.02366245
#
# Stress axis : x y z
#
# Youngs Moduli (GPa) = 88.01012 69.15089 71.04471
#
# Poissons Ratio (x) = 0.43896 -0.04685
# Poissons Ratio (y) = 0.55868 0.17263
# Poissons Ratio (z) = -0.05804 0.16803
#
# Static dielectric constant tensor:
#      x y z
#    x 1.762100 0.000000 -0.032000 
#    y 0.000000 1.998790 0.000000 
#    z -0.032000 0.000000 1.774280 
# 
# From -- ./inp_files/54683.got.cif
#   From: 2010.05.17/outbox.cif.g08.bks.cpg/sg13_28_cif.got.tgz:54683.got - 2010.06.03 16:44:36.
