data_PCOD9227843
_publ_section_title
;
Structure prediction by ZEFSAII (Michael W. Deem and Ramdas Pophale) SiO2 
 PCOD9227843
Probable space group: P 2/C
;
_chemical_formula_sum "Si O2"
_cell_formula_units_Z 28
_cell_length_a 22.134719
_cell_length_b 11.533745
_cell_length_c 9.817638
_cell_angle_alpha 90.000000
_cell_angle_beta 143.625377
_cell_angle_gamma 90.000000
_cell_volume 1486.454819
_symmetry_space_group_name_H-M "P 2/C"
_symmetry_group_IT_number 13
_symmetry_cell_setting 'monoclinic'
loop_
_space_group_symop_operation_xyz
x,y,z
-x,y,1/2-z
-x,-y,-z
x,-y,1/2+z
loop_
_atom_site_type_symbol
_atom_site_label
_atom_site_fract_x
_atom_site_fract_y
_atom_site_fract_z
Si Si1 0.080744 0.107688 0.507947
Si Si2 0.500000 0.512611 0.750000
Si Si3 0.707592 0.079726 0.525584
Si Si4 0.609436 0.813666 0.606564
Si Si5 0.044501 0.169814 0.971233
Si Si6 0.729542 0.195948 0.047293
Si Si7 0.500000 0.010501 0.250000
Si Si8 0.428892 0.647367 0.363848
O O1 0.201394 0.121238 0.712883
O O2 0.044017 0.168848 0.578279
O O3 0.067174 0.968198 0.493107
O O4 0.000000 0.147387 0.250000
O O5 0.434752 0.586542 0.521883
O O6 0.566731 0.438065 0.761333
O O7 0.698405 0.150033 0.370200
O O8 0.722408 0.943553 0.515453
O O9 0.596571 0.086285 0.388771
O O10 0.664405 0.780263 0.566401
O O11 0.538662 0.924341 0.439288
O O12 0.533217 0.720197 0.530392
O O13 0.151357 0.222811 0.214962
O O14 0.000000 0.216825 0.750000
O O15 0.668469 0.269037 0.825403
#
# Coordination Sequence:
#
# PCOD9227843 Si02
#       8
#     4   2   4   4   4   4   2   4
#     4   9  18  33  45  68 104 152 185 232 257 294
#     4  10  23  39  62  74 110 140 183 241 292 348
#     4  10  20  30  49  74 117 155 186 217 270 319
#     4  11  18  34  49  78 114 149 183 225 271 333
#     4   9  17  30  50  71  99 143 195 213 263 317
#     4  10  19  33  54  78 111 151 186 233 265 334
#     4  10  19  29  44  72 112 162 183 223 260 318
#     4  11  20  40  57  82 107 144 183 230 290 344
#
# _framework density 18.836765
#
# number of rings (size 3 to 8) (size 9 to 14) (size 15 to 20)
#    0.000    2.000    4.286    1.286    0.000    7.429 
#    5.143    0.000    0.000    0.000    0.000    1.000 
#    0.000    0.000    0.000    0.000    0.000    0.000 
#
# Total GULP energy -156067.444270 kJ/mol
# GULP energy per Si atom -5573.837295 kJ/mol
# Density = 1.879389 g / cm^3
# Si number density = 18.836765 Si / 1000 Ang^3
#
#
#
# Elastic Constant Matrix: (Units=GPa)
#
#
# Indices 1 2 3 4 5 6 
#
# 1 55.8571 15.1233 41.4432 0.0000 4.6211 0.0000
# 2 15.1233 35.5265 38.6831 0.0000 -7.7722 0.0000
# 3 41.4432 38.6831 137.5930 0.0000 8.5592 0.0000
# 4 0.0000 0.0000 0.0000 24.9170 0.0000 -8.8738
# 5 4.6211 -7.7722 8.5592 0.0000 38.8975 0.0000
# 6 0.0000 0.0000 0.0000 -8.8738 0.0000 10.1318
#
#
#
# Elastic Compliance Matrix: (Units=1/GPa)
#
#
# Indices 1 2 3 4 5 6 
#
# 1 0.023512 -0.004300 -0.005724 0.000000 -0.002393 0.000000
# 2 -0.004300 0.046343 -0.012513 0.000000 0.012524 0.000000
# 3 -0.005724 -0.012513 0.012798 0.000000 -0.004636 0.000000
# 4 0.000000 0.000000 0.000000 0.058326 0.000000 0.051084
# 5 -0.002393 0.012524 -0.004636 0.000000 0.029516 0.000000
# 6 0.000000 0.000000 0.000000 0.051084 0.000000 0.143441
#
#
# Mechanical properties :
#
#
# Convention : Reuss Voigt Hill
#
# Bulk Modulus (GPa) = 26.61005 46.60843 36.60924
# Shear Modulus (GPa) = 13.45768 23.70440 18.58104
#
# Velocity S-wave (km/s) = 2.67579 3.55126 3.14415
# Velocity P-wave (km/s) = 4.86866 6.45076 5.71472
#
# Compressibility (1/GPa) = 0.03757979
#
# Stress axis : x y z
#
# Youngs Moduli (GPa) = 42.53158 21.57825 78.13550
#
# Poissons Ratio (x) = 0.09278 0.44726
# Poissons Ratio (y) = 0.18286 0.97771
# Poissons Ratio (z) = 0.24346 0.27001
#
# Static dielectric constant tensor:
#      x y z
#    x 1.737940 0.000000 -0.027130 
#    y 0.000000 1.663970 0.000000 
#    z -0.027130 0.000000 1.730860 
# 
# From -- ./inp_files/23411.got.cif
#   From: 2010.05.17/outbox.cif.g08.bks.cpg/sg13_12_cif.got.tgz:23411.got - 2010.06.03 16:44:36.
