data_PCOD9227834
_publ_section_title
;
Structure prediction by ZEFSAII (Michael W. Deem and Ramdas Pophale) SiO2 
 PCOD9227834
Probable space group: P 2/C
;
_chemical_formula_sum "Si O2"
_cell_formula_units_Z 32
_cell_length_a 7.255208
_cell_length_b 11.459667
_cell_length_c 17.827880
_cell_angle_alpha 90.000000
_cell_angle_beta 53.507787
_cell_angle_gamma 90.000000
_cell_volume 1191.636947
_symmetry_space_group_name_H-M "P 2/C"
_symmetry_group_IT_number 13
_symmetry_cell_setting 'monoclinic'
loop_
_space_group_symop_operation_xyz
x,y,z
-x,y,1/2-z
-x,-y,-z
x,-y,1/2+z
loop_
_atom_site_type_symbol
_atom_site_label
_atom_site_fract_x
_atom_site_fract_y
_atom_site_fract_z
Si Si1 0.751640 0.500000 0.597078
Si Si2 0.914191 0.500000 0.354437
Si Si3 0.690182 1.000000 0.137460
Si Si4 0.119869 0.748519 0.137930
Si Si5 0.129848 0.000000 0.637599
Si Si6 0.679875 0.750099 0.638785
Si Si7 0.880131 0.748519 0.862070
Si Si8 0.320125 0.750099 0.361215
O O1 0.642444 0.625896 0.608222
O O2 0.642444 0.374105 0.608222
O O3 0.000000 0.500000 0.500000
O O4 0.838091 0.500000 0.662411
O O5 0.779202 0.379883 0.399280
O O6 0.000000 0.500000 0.250000
O O7 0.779202 0.620117 0.399280
O O8 0.500000 0.000000 0.250000
O O9 0.665472 0.124074 0.102361
O O10 0.932531 1.000000 0.121797
O O11 0.665472 0.875926 0.102361
O O12 0.926384 0.750030 0.119739
O O13 0.000000 0.746690 0.250000
O O14 0.245183 0.872983 0.104715
O O15 0.245183 0.872983 0.604715
O O16 0.000000 1.000000 0.750000
O O17 0.500000 0.752686 0.750000
O O18 0.926384 0.750030 0.619739
O O19 0.000000 0.746690 0.750000
O O20 0.500000 0.752686 0.250000
#
# Coordination Sequence:
#
# PCOD9227834 Si02
#       8
#     4   4   4   4   4   4   4   4
#     4  10  19  29  42  65  93 118 143 180 224 263
#     4   8  14  25  40  57  76 106 141 172 205 249
#     4   8  14  24  39  59  84 109 139 178 217 252
#     4   8  13  21  35  57  79 102 131 168 207 246
#     4   8  12  18  30  51  80 101 122 162 209 244
#     4   9  16  27  43  63  85 113 146 180 215 258
#     4   8  13  21  35  57  79 102 131 168 207 246
#     4   9  16  27  43  63  85 113 146 180 215 258
#
# _framework density 26.853818
#
# number of rings (size 3 to 8) (size 9 to 14) (size 15 to 20)
#    0.000    3.500    0.000    0.375    0.000    0.000 
#    0.000    0.625    0.000    0.000    0.000   56.000 
#    0.000    0.000    0.000  355.250    0.000    0.000 
#
# Total GULP energy -178413.599464 kJ/mol
# GULP energy per Si atom -5575.424983 kJ/mol
# Density = 2.679270 g / cm^3
# Si number density = 26.853818 Si / 1000 Ang^3
#
#
#
# Elastic Constant Matrix: (Units=GPa)
#
#
# Indices 1 2 3 4 5 6 
#
# 1 121.1056 13.0417 -2.0749 0.0000 2.7020 0.0000
# 2 13.0417 450.3614 24.7382 0.0000 -9.4698 0.0000
# 3 -2.0749 24.7382 63.7387 0.0000 5.8412 0.0000
# 4 0.0000 0.0000 0.0000 -17.3960 0.0000 -8.0514
# 5 2.7020 -9.4698 5.8412 0.0000 22.0328 0.0000
# 6 0.0000 0.0000 0.0000 -8.0514 0.0000 -14.0492
#
#
#
# Elastic Compliance Matrix: (Units=1/GPa)
#
#
# Indices 1 2 3 4 5 6 
#
# 1 0.008326 -0.000296 0.000503 0.000000 -0.001282 0.000000
# 2 -0.000296 0.002313 -0.001027 0.000000 0.001302 0.000000
# 3 0.000503 -0.001027 0.016552 0.000000 -0.004891 0.000000
# 4 0.000000 0.000000 0.000000 -0.078236 0.000000 0.044836
# 5 -0.001282 0.001302 -0.004891 0.000000 0.047401 0.000000
# 6 0.000000 0.000000 0.000000 0.044836 0.000000 -0.096874
#
#
# Mechanical properties :
#
#
# Convention : Reuss Voigt Hill
#
# Bulk Modulus (GPa) = 39.13418 78.51286 58.82352
# Shear Modulus (GPa) = -55.33285 38.08423 -8.62431
#
# Velocity S-wave (km/s) = -4.54422 3.76999 -1.79403
# Velocity P-wave (km/s) = 3.59563 6.94630 4.20253
#
# Compressibility (1/GPa) = 0.02555311
#
# Stress axis : x y z
#
# Youngs Moduli (GPa) = 120.10113 432.37967 60.41520
#
# Poissons Ratio (x) = 0.12786 -0.03041
# Poissons Ratio (y) = 0.03552 0.06202
# Poissons Ratio (z) = -0.06044 0.44389
#
# Static dielectric constant tensor:
#      x y z
#    x 1.893530 0.000000 -0.063680 
#    y 0.000000 2.214940 0.000000 
#    z -0.063680 0.000000 1.952500 
# 
# From -- ./inp_files/76130.got.cif
#   From: 2010.05.17/outbox.cif.g08.bks.cpg/sg13_39_cif.got.tgz:76130.got - 2010.06.03 16:44:36.
