data_PCOD9227218
_publ_section_title
;
Structure prediction by ZEFSAII (Michael W. Deem and Ramdas Pophale) SiO2 
 PCOD9227218
Probable space group: P 2/C
;
_chemical_formula_sum "Si O2"
_cell_formula_units_Z 24
_cell_length_a 12.187916
_cell_length_b 9.362374
_cell_length_c 24.935714
_cell_angle_alpha 90.000000
_cell_angle_beta 159.531690
_cell_angle_gamma 90.000000
_cell_volume 994.991887
_symmetry_space_group_name_H-M "P 2/C"
_symmetry_group_IT_number 13
_symmetry_cell_setting 'monoclinic'
loop_
_space_group_symop_operation_xyz
x,y,z
-x,y,1/2-z
-x,-y,-z
x,-y,1/2+z
loop_
_atom_site_type_symbol
_atom_site_label
_atom_site_fract_x
_atom_site_fract_y
_atom_site_fract_z
Si Si1 0.589207 0.792978 0.602597
Si Si2 0.277392 0.120560 0.689756
Si Si3 0.667295 0.680184 0.118954
Si Si4 0.557294 0.600210 0.183816
Si Si5 0.216640 0.659562 0.528045
Si Si6 0.962454 0.035744 0.808514
O O1 0.552753 0.696131 0.533528
O O2 0.472882 0.716546 0.603421
O O3 0.319410 0.914304 0.470822
O O4 0.899314 0.881597 0.755997
O O5 0.500000 0.042628 0.750000
O O6 0.503879 0.246384 0.817254
O O7 0.157880 0.033182 0.685591
O O8 0.967902 0.209288 0.528577
O O9 0.512611 0.604887 0.099312
O O10 0.775605 0.835509 0.193104
O O11 0.000000 0.617705 0.250000
O O12 0.375758 0.473217 0.129755
O O13 0.931002 0.590767 0.363167
#
# Coordination Sequence:
#
# PCOD9227218 Si02
#       6
#     4   4   4   4   4   4
#     4  10  18  34  50  75 104 138 168 212 258 302
#     4   8  17  35  56  75 102 136 170 212 271 307
#     4   9  15  32  52  70 102 143 168 207 253 304
#     4   9  18  34  53  73 105 139 171 214 256 300
#     4   9  19  34  51  74 106 133 173 217 254 307
#     4   9  18  32  54  72 102 136 171 212 256 309
#
# _framework density 24.120799000000002
#
# number of rings (size 3 to 8) (size 9 to 14) (size 15 to 20)
#    1.000    2.000    3.333    0.500    0.000    1.333 
#    6.000    3.333    0.000    1.000    0.000    0.000 
#    0.000    0.000    0.000    0.000    0.000    0.000 
#
# Total GULP energy -133810.113179 kJ/mol
# GULP energy per Si atom -5575.421382 kJ/mol
# Density = 2.406590 g / cm^3
# Si number density = 24.120799 Si / 1000 Ang^3
#
#
#
# Elastic Constant Matrix: (Units=GPa)
#
#
# Indices 1 2 3 4 5 6 
#
# 1 86.4642 -2.6768 8.8131 0.0000 22.5736 0.0000
# 2 -2.6768 33.2760 23.7668 0.0000 1.6307 0.0000
# 3 8.8131 23.7668 -18.8483 0.0000 -1.0943 0.0000
# 4 0.0000 0.0000 0.0000 28.1107 0.0000 -3.8340
# 5 22.5736 1.6307 -1.0943 0.0000 20.0529 0.0000
# 6 0.0000 0.0000 0.0000 -3.8340 0.0000 -2.9769
#
#
#
# Elastic Compliance Matrix: (Units=1/GPa)
#
#
# Indices 1 2 3 4 5 6 
#
# 1 0.015305 -0.001975 0.005639 0.000000 -0.016761 0.000000
# 2 -0.001975 0.016067 0.019222 0.000000 0.001966 0.000000
# 3 0.005639 0.019222 -0.025639 0.000000 -0.009310 0.000000
# 4 0.000000 0.000000 0.000000 0.030259 0.000000 -0.038970
# 5 -0.016761 0.001966 -0.009310 0.000000 0.068068 0.000000
# 6 0.000000 0.000000 0.000000 -0.038970 0.000000 -0.285729
#
#
# Mechanical properties :
#
#
# Convention : Reuss Voigt Hill
#
# Bulk Modulus (GPa) = 19.41521 17.85537 18.63529
# Shear Modulus (GPa) = -23.77859 13.76993 -5.00433
#
# Velocity S-wave (km/s) = -3.14317 2.39189 -1.44194
# Velocity P-wave (km/s) = 2.25966 3.87901 2.22942
#
# Compressibility (1/GPa) = 0.05150602
#
# Stress axis : x y z
#
# Youngs Moduli (GPa) = 65.33641 62.23853 -39.00244
#
# Poissons Ratio (x) = 0.12293 0.21994
# Poissons Ratio (y) = 0.12905 0.74972
# Poissons Ratio (z) = -0.36844 -1.19637
#
# Static dielectric constant tensor:
#      x y z
#    x 1.981420 0.000000 0.005110 
#    y 0.000000 1.957820 0.000000 
#    z 0.005110 0.000000 1.966840 
# 
# From -- ./inp_files/92403.got.cif
#   From: 2010.05.17/outbox.cif.g08.bks.cpg/sg13_47_cif.got.tgz:92403.got - 2010.06.03 16:44:36.
