data_PCOD9227227
_publ_section_title
;
Structure prediction by ZEFSAII (Michael W. Deem and Ramdas Pophale) SiO2 
 PCOD9227227
Probable space group: P 2/C
;
_chemical_formula_sum "Si O2"
_cell_formula_units_Z 30
_cell_length_a 13.191067
_cell_length_b 20.951085
_cell_length_c 14.104220
_cell_angle_alpha 90.000000
_cell_angle_beta 21.264816
_cell_angle_gamma 90.000000
_cell_volume 1413.702307
_symmetry_space_group_name_H-M "P 2/C"
_symmetry_group_IT_number 13
_symmetry_cell_setting 'monoclinic'
loop_
_space_group_symop_operation_xyz
x,y,z
-x,y,1/2-z
-x,-y,-z
x,-y,1/2+z
loop_
_atom_site_type_symbol
_atom_site_label
_atom_site_fract_x
_atom_site_fract_y
_atom_site_fract_z
Si Si1 0.468670 0.116815 0.892136
Si Si2 0.319300 0.839839 0.002208
Si Si3 0.000000 0.797232 0.750000
Si Si4 0.194973 0.437615 0.221093
Si Si5 0.956871 0.704997 0.640838
Si Si6 0.362061 0.483883 0.274591
Si Si7 0.347065 0.765760 0.163564
Si Si8 0.676512 0.980447 0.500083
O O1 0.500000 0.116168 0.750000
O O2 0.677849 0.165441 0.760611
O O3 0.179359 0.154552 0.156474
O O4 0.434884 0.044026 0.953971
O O5 0.358672 0.784984 0.044123
O O6 0.368699 0.910512 0.004330
O O7 0.000000 0.840711 0.250000
O O8 0.500000 0.832183 0.750000
O O9 0.861279 0.747238 0.943652
O O10 0.057802 0.369181 0.324215
O O11 0.327715 0.439536 0.211581
O O12 0.945916 0.489236 0.434937
O O13 0.434788 0.458920 0.938977
O O14 0.094271 0.721957 0.420271
O O15 0.639469 0.730173 0.928692
O O16 0.500000 0.456650 0.250000
O O17 0.000000 0.989587 0.250000
O O18 0.500000 0.976837 0.750000
#
# Coordination Sequence:
#
# PCOD9227227 Si02
#       8
#     4   4   2   4   4   4   4   4
#     4  10  18  34  52  79 118 147 187 234 303 362
#     4  10  21  40  58  80 107 149 203 257 299 347
#     4  10  20  32  54  80 124 158 182 226 300 358
#     4  10  22  40  60  93 130 154 207 248 286 352
#     4  11  23  38  57  90 122 158 194 235 290 363
#     4  10  21  39  65  91 123 167 197 251 296 334
#     4  11  23  37  59  82 118 154 195 242 292 355
#     4   9  18  31  55  77 106 145 191 244 302 354
#
# _framework density 21.220876000000001
#
# number of rings (size 3 to 8) (size 9 to 14) (size 15 to 20)
#    0.000    1.867    2.000    2.000    1.867    0.533 
#    0.000    2.000    0.000   10.400    0.000    0.000 
#    0.000    0.000    0.000    0.000    0.000    0.000 
#
# Total GULP energy -167231.596860 kJ/mol
# GULP energy per Si atom -5574.386562 kJ/mol
# Density = 2.117258 g / cm^3
# Si number density = 21.220876 Si / 1000 Ang^3
#
#
#
# Elastic Constant Matrix: (Units=GPa)
#
#
# Indices 1 2 3 4 5 6 
#
# 1 63.1111 -10.5022 4.4578 0.0000 11.3123 0.0000
# 2 -10.5022 37.2269 1.7361 0.0000 3.4345 0.0000
# 3 4.4578 1.7361 106.8848 0.0000 6.0136 0.0000
# 4 0.0000 0.0000 0.0000 25.9341 0.0000 -1.0363
# 5 11.3123 3.4345 6.0136 0.0000 19.4145 0.0000
# 6 0.0000 0.0000 0.0000 -1.0363 0.0000 8.1827
#
#
#
# Elastic Compliance Matrix: (Units=1/GPa)
#
#
# Indices 1 2 3 4 5 6 
#
# 1 0.019143 0.006540 -0.000216 0.000000 -0.012245 0.000000
# 2 0.006540 0.029546 -0.000249 0.000000 -0.008961 0.000000
# 3 -0.000216 -0.000249 0.009525 0.000000 -0.002781 0.000000
# 4 0.000000 0.000000 0.000000 0.038755 0.000000 0.004908
# 5 -0.012245 -0.008961 -0.002781 0.000000 0.061089 0.000000
# 6 0.000000 0.000000 0.000000 0.004908 0.000000 0.122830
#
#
# Mechanical properties :
#
#
# Convention : Reuss Voigt Hill
#
# Bulk Modulus (GPa) = 14.21131 22.06738 18.13934
# Shear Modulus (GPa) = 17.11202 24.80835 20.96019
#
# Velocity S-wave (km/s) = 2.84276 3.42285 3.14620
# Velocity P-wave (km/s) = 4.18168 5.10320 4.66525
#
# Compressibility (1/GPa) = 0.07036650
#
# Stress axis : x y z
#
# Youngs Moduli (GPa) = 52.23728 33.84592 104.98302
#
# Poissons Ratio (x) = -0.22136 0.02265
# Poissons Ratio (y) = -0.34165 0.02609
# Poissons Ratio (z) = 0.01127 0.00841
#
# Static dielectric constant tensor:
#      x y z
#    x 1.813000 0.000000 0.003880 
#    y 0.000000 1.776340 0.000000 
#    z 0.003880 0.000000 1.782090 
# 
# From -- ./inp_files/53957.got.cif
#   From: 2010.05.17/outbox.cif.g08.bks.cpg/sg13_27_cif.got.tgz:53957.got - 2010.06.03 16:44:36.
