data_PCOD9227053
_publ_section_title
;
Structure prediction by ZEFSAII (Michael W. Deem and Ramdas Pophale) SiO2 
 PCOD9227053
Probable space group: P 2/C
;
_chemical_formula_sum "Si O2"
_cell_formula_units_Z 18
_cell_length_a 16.222652
_cell_length_b 11.245300
_cell_length_c 8.118776
_cell_angle_alpha 90.000000
_cell_angle_beta 33.306043
_cell_angle_gamma 90.000000
_cell_volume 813.286523
_symmetry_space_group_name_H-M "P 2/C"
_symmetry_group_IT_number 13
_symmetry_cell_setting 'monoclinic'
loop_
_space_group_symop_operation_xyz
x,y,z
-x,y,1/2-z
-x,-y,-z
x,-y,1/2+z
loop_
_atom_site_type_symbol
_atom_site_label
_atom_site_fract_x
_atom_site_fract_y
_atom_site_fract_z
Si Si1 0.969461 0.866207 0.998461
Si Si2 0.331592 0.217597 0.582527
Si Si3 0.714718 0.427063 0.057130
Si Si4 0.000000 0.690799 0.250000
Si Si5 0.416801 0.677674 0.232843
O O1 0.788886 0.857181 0.310145
O O2 0.030923 0.774413 0.036303
O O3 0.000000 0.842567 0.750000
O O4 0.000000 0.000000 0.000000
O O5 0.283852 0.353182 0.615225
O O6 0.332115 0.219671 0.777283
O O7 0.500000 0.190606 0.250000
O O8 0.690848 0.565121 0.059109
O O9 0.559613 0.376919 0.394248
O O10 0.857982 0.389224 0.927181
O O11 0.500000 0.727669 0.250000
#
# Coordination Sequence:
#
# PCOD9227053 Si02
#       5
#     4   4   4   2   4
#     4  11  23  43  68  90 120 159 205 264 323 359
#     4   9  20  39  60  89 123 162 203 248 301 369
#     4   9  18  34  55  82 122 163 193 240 292 356
#     4  10  22  40  62  88 126 162 206 246 310 368
#     4  10  18  32  57  86 119 159 202 236 290 356
#
# _framework density 22.132421000000001
#
# number of rings (size 3 to 8) (size 9 to 14) (size 15 to 20)
#    0.000    2.222    1.111    3.333    3.111    0.000 
#    2.000    4.444    0.000    0.000    0.000    0.000 
#    0.000    0.000    0.000    0.000    0.000    0.000 
#
# Total GULP energy -100288.228015 kJ/mol
# GULP energy per Si atom -5571.568223 kJ/mol
# Density = 2.208205 g / cm^3
# Si number density = 22.132421 Si / 1000 Ang^3
#
#
#
# Elastic Constant Matrix: (Units=GPa)
#
#
# Indices 1 2 3 4 5 6 
#
# 1 171.3299 34.0892 29.2019 0.0000 -16.6772 0.0000
# 2 34.0892 46.0599 12.0517 0.0000 -20.0439 0.0000
# 3 29.2019 12.0517 41.1232 0.0000 -12.0254 0.0000
# 4 0.0000 0.0000 0.0000 12.6762 0.0000 2.5630
# 5 -16.6772 -20.0439 -12.0254 0.0000 53.2346 0.0000
# 6 0.0000 0.0000 0.0000 2.5630 0.0000 17.4465
#
#
#
# Elastic Compliance Matrix: (Units=1/GPa)
#
#
# Indices 1 2 3 4 5 6 
#
# 1 0.007397 -0.004559 -0.004005 0.000000 -0.000304 0.000000
# 2 -0.004559 0.029808 -0.002821 0.000000 0.009158 0.000000
# 3 -0.004005 -0.002821 0.029242 0.000000 0.004289 0.000000
# 4 0.000000 0.000000 0.000000 0.081303 0.000000 -0.011944
# 5 -0.000304 0.009158 0.004289 0.000000 0.023107 0.000000
# 6 0.000000 0.000000 0.000000 -0.011944 0.000000 0.059073
#
#
# Mechanical properties :
#
#
# Convention : Reuss Voigt Hill
#
# Bulk Modulus (GPa) = 22.89488 45.46650 34.18069
# Shear Modulus (GPa) = 18.70851 28.88280 23.79566
#
# Velocity S-wave (km/s) = 2.91056 3.61640 3.28250
# Velocity P-wave (km/s) = 4.65425 6.16647 5.46294
#
# Compressibility (1/GPa) = 0.04367789
#
# Stress axis : x y z
#
# Youngs Moduli (GPa) = 135.19306 33.54794 34.19710
#
# Poissons Ratio (x) = 0.15293 0.13697
# Poissons Ratio (y) = 0.61630 0.09645
# Poissons Ratio (z) = 0.54151 0.09462
#
# Static dielectric constant tensor:
#      x y z
#    x 1.882760 0.000000 0.089560 
#    y 0.000000 1.808110 0.000000 
#    z 0.089560 0.000000 1.929950 
# 
# From -- ./inp_files/21468.got.cif
#   From: 2010.05.17/outbox.cif.g08.bks.cpg/sg13_11_cif.got.tgz:21468.got - 2010.06.03 16:44:36.
