data_PCOD9227013
_publ_section_title
;
Structure prediction by ZEFSAII (Michael W. Deem and Ramdas Pophale) SiO2 
 PCOD9227013
Probable space group: P 2/C
;
_chemical_formula_sum "Si O2"
_cell_formula_units_Z 26
_cell_length_a 16.390588
_cell_length_b 5.812603
_cell_length_c 18.826421
_cell_angle_alpha 90.000000
_cell_angle_beta 33.637737
_cell_angle_gamma 90.000000
_cell_volume 993.563673
_symmetry_space_group_name_H-M "P 2/C"
_symmetry_group_IT_number 13
_symmetry_cell_setting 'monoclinic'
loop_
_space_group_symop_operation_xyz
x,y,z
-x,y,1/2-z
-x,-y,-z
x,-y,1/2+z
loop_
_atom_site_type_symbol
_atom_site_label
_atom_site_fract_x
_atom_site_fract_y
_atom_site_fract_z
Si Si1 0.500000 0.909814 0.750000
Si Si2 0.152862 0.162880 0.355807
Si Si3 0.550148 0.612802 0.890867
Si Si4 0.221900 0.697315 0.105410
Si Si5 0.114579 0.802165 0.731167
Si Si6 0.689081 0.227722 0.692989
Si Si7 0.203027 0.386443 0.465065
O O1 0.645971 0.758745 0.645427
O O2 0.544753 0.080037 0.780696
O O3 0.318523 0.203712 0.202215
O O4 0.058887 0.195857 0.353168
O O5 0.125555 0.314613 0.446831
O O6 0.176149 0.909505 0.370034
O O7 0.630828 0.419938 0.787037
O O8 0.500000 0.500000 0.000000
O O9 0.398596 0.695011 0.966121
O O10 0.190598 0.451964 0.167028
O O11 0.189668 0.943736 0.165439
O O12 0.139254 0.676398 0.088289
O O13 0.000000 0.801385 0.750000
O O14 0.745593 0.351004 0.580347
#
# Coordination Sequence:
#
# PCOD9227013 Si02
#       7
#     2   4   4   4   4   4   4
#     4  10  18  32  54  90 140 176 202 256 330 416
#     4  10  23  41  68  97 144 181 216 284 342 415
#     4  11  21  35  61 106 136 173 221 269 342 408
#     4  12  26  44  74 101 138 175 233 286 337 415
#     4  12  29  51  70  95 133 185 235 289 344 398
#     4  10  20  34  59  91 145 171 212 263 345 407
#     4  10  22  37  61 102 131 180 222 276 342 403
#
# _framework density 26.168426
#
# number of rings (size 3 to 8) (size 9 to 14) (size 15 to 20)
#    0.000    1.231    1.538    5.538   10.769    1.231 
#    0.000    1.538    0.000    0.000    0.000    0.000 
#    0.000    0.000    0.000    0.000    0.000    0.000 
#
# Total GULP energy -145201.775162 kJ/mol
# GULP energy per Si atom -5584.683660 kJ/mol
# Density = 2.610887 g / cm^3
# Si number density = 26.168426 Si / 1000 Ang^3
#
#
#
# Elastic Constant Matrix: (Units=GPa)
#
#
# Indices 1 2 3 4 5 6 
#
# 1 151.4148 28.6734 21.8929 0.0000 36.8250 0.0000
# 2 28.6734 156.2588 46.1566 0.0000 13.7329 0.0000
# 3 21.8929 46.1566 75.5931 0.0000 28.7613 0.0000
# 4 0.0000 0.0000 0.0000 26.6672 0.0000 10.4890
# 5 36.8250 13.7329 28.7613 0.0000 40.6191 0.0000
# 6 0.0000 0.0000 0.0000 10.4890 0.0000 23.6462
#
#
#
# Elastic Compliance Matrix: (Units=1/GPa)
#
#
# Indices 1 2 3 4 5 6 
#
# 1 0.008704 -0.001295 0.001513 0.000000 -0.008525 0.000000
# 2 -0.001295 0.008031 -0.005396 0.000000 0.002280 0.000000
# 3 0.001513 -0.005396 0.021781 0.000000 -0.014970 0.000000
# 4 0.000000 0.000000 0.000000 0.045425 0.000000 -0.020150
# 5 -0.008525 0.002280 -0.014970 0.000000 0.042177 0.000000
# 6 0.000000 0.000000 0.000000 -0.020150 0.000000 0.051228
#
#
# Mechanical properties :
#
#
# Convention : Reuss Voigt Hill
#
# Bulk Modulus (GPa) = 35.51038 64.07918 49.79478
# Shear Modulus (GPa) = 25.36952 37.28942 31.32947
#
# Velocity S-wave (km/s) = 3.11701 3.77898 3.46385
# Velocity P-wave (km/s) = 5.15303 6.60161 5.92178
#
# Compressibility (1/GPa) = 0.02816078
#
# Stress axis : x y z
#
# Youngs Moduli (GPa) = 114.88882 124.52095 45.91193
#
# Poissons Ratio (x) = 0.16126 -0.06948
# Poissons Ratio (y) = 0.14878 0.24773
# Poissons Ratio (z) = -0.17387 0.67189
#
# Static dielectric constant tensor:
#      x y z
#    x 2.164040 0.000000 -0.035410 
#    y 0.000000 2.094060 0.000000 
#    z -0.035410 0.000000 2.155490 
# 
# From -- ./inp_files/80555.got.cif
#   From: 2010.05.17/outbox.cif.g08.bks.cpg/sg13_41_cif.got.tgz:80555.got - 2010.06.03 16:44:36.
