data_PCOD9227322
_publ_section_title
;
Structure prediction by ZEFSAII (Michael W. Deem and Ramdas Pophale) SiO2 
 PCOD9227322
Probable space group: P 2/C
;
_chemical_formula_sum "Si O2"
_cell_formula_units_Z 28
_cell_length_a 25.094929
_cell_length_b 11.474730
_cell_length_c 30.819096
_cell_angle_alpha 90.000000
_cell_angle_beta 170.045156
_cell_angle_gamma 90.000000
_cell_volume 1534.168068
_symmetry_space_group_name_H-M "P 2/C"
_symmetry_group_IT_number 13
_symmetry_cell_setting 'monoclinic'
loop_
_space_group_symop_operation_xyz
x,y,z
-x,y,1/2-z
-x,-y,-z
x,-y,1/2+z
loop_
_atom_site_type_symbol
_atom_site_label
_atom_site_fract_x
_atom_site_fract_y
_atom_site_fract_z
Si Si1 0.304796 0.544026 0.771013
Si Si2 0.156021 0.253732 0.992073
Si Si3 0.742287 0.719863 0.076918
Si Si4 0.418610 0.660260 0.423288
Si Si5 0.366555 0.912401 0.928602
Si Si6 0.655153 0.020018 0.493088
Si Si7 0.731670 0.988294 0.396089
O O1 0.452815 0.429000 0.911118
O O2 0.000000 0.500000 0.500000
O O3 0.506911 0.618423 0.899396
O O4 0.346217 0.626935 0.848299
O O5 0.938381 0.241021 0.775822
O O6 0.942087 0.339920 0.849443
O O7 0.500000 0.286773 0.250000
O O8 0.175273 0.125450 0.028448
O O9 0.000000 0.679465 0.250000
O O10 0.589862 0.840839 0.939833
O O11 0.478132 0.788673 0.453331
O O12 0.010994 0.904976 0.630728
O O13 0.500000 0.000000 0.000000
O O14 0.382171 0.967538 0.989077
O O15 0.424014 0.961190 0.274221
O O16 0.000000 0.007445 0.750000
O O17 0.500000 0.978567 0.250000
#
# Coordination Sequence:
#
# PCOD9227322 Si02
#       7
#     4   4   4   4   4   4   4
#     4  10  23  40  63  83 115 159 200 250 306 349
#     4  10  18  34  59  87 119 151 190 249 303 350
#     4  10  19  35  60  92 116 146 201 258 294 351
#     4  10  23  41  58  87 124 154 196 254 302 357
#     4  12  22  39  59  91 129 155 195 254 310 375
#     4  11  21  37  63  94 122 158 202 253 308 367
#     4  11  20  35  60  88 123 163 198 240 306 369
#
# _framework density 18.250934000000001
#
# number of rings (size 3 to 8) (size 9 to 14) (size 15 to 20)
#    0.000    1.429    4.286    3.429    4.000    1.714 
#    0.000    0.714    3.143    0.000    0.000    0.000 
#    0.000    0.000    0.000    0.000    0.000    0.000 
#
# Total GULP energy -155906.982130 kJ/mol
# GULP energy per Si atom -5568.106505 kJ/mol
# Density = 1.820939 g / cm^3
# Si number density = 18.250934 Si / 1000 Ang^3
#
#
#
# Elastic Constant Matrix: (Units=GPa)
#
#
# Indices 1 2 3 4 5 6 
#
# 1 122.6396 43.9482 45.1267 0.0000 -5.7256 0.0000
# 2 43.9482 82.3576 28.6018 0.0000 19.2147 0.0000
# 3 45.1267 28.6018 91.5491 0.0000 -2.7991 0.0000
# 4 0.0000 0.0000 0.0000 36.6925 0.0000 -0.8754
# 5 -5.7256 19.2147 -2.7991 0.0000 12.9800 0.0000
# 6 0.0000 0.0000 0.0000 -0.8754 0.0000 25.7203
#
#
#
# Elastic Compliance Matrix: (Units=1/GPa)
#
#
# Indices 1 2 3 4 5 6 
#
# 1 0.014904 -0.012957 -0.002528 0.000000 0.025210 0.000000
# 2 -0.012957 0.035004 -0.006350 0.000000 -0.058902 0.000000
# 3 -0.002528 -0.006350 0.014502 0.000000 0.011412 0.000000
# 4 0.000000 0.000000 0.000000 0.027276 0.000000 0.000928
# 5 0.025210 -0.058902 0.011412 0.000000 0.177817 0.000000
# 6 0.000000 0.000000 0.000000 0.000928 0.000000 0.038911
#
#
# Mechanical properties :
#
#
# Convention : Reuss Voigt Hill
#
# Bulk Modulus (GPa) = 48.21517 59.09997 53.65757
# Shear Modulus (GPa) = 13.92765 27.00321 20.46543
#
# Velocity S-wave (km/s) = 2.76546 3.85067 3.35227
# Velocity P-wave (km/s) = 6.05577 7.22650 6.66688
#
# Compressibility (1/GPa) = 0.02074036
#
# Stress axis : x y z
#
# Youngs Moduli (GPa) = 67.09463 28.56808 68.95647
#
# Poissons Ratio (x) = 0.37016 0.17431
# Poissons Ratio (y) = 0.86936 0.43787
# Poissons Ratio (z) = 0.16960 0.18141
#
# Static dielectric constant tensor:
#      x y z
#    x 1.659550 0.000000 -0.012400 
#    y 0.000000 1.612570 0.000000 
#    z -0.012400 0.000000 1.675420 
# 
# From -- ./inp_files/70707.got.cif
#   From: 2010.05.17/outbox.cif.g08.bks.cpg/sg13_36_cif.got.tgz:70707.got - 2010.06.03 16:44:36.
