data_PCOD9227772
_publ_section_title
;
Structure prediction by ZEFSAII (Michael W. Deem and Ramdas Pophale) SiO2 
 PCOD9227772
Probable space group: P 2/C
;
_chemical_formula_sum "Si O2"
_cell_formula_units_Z 22
_cell_length_a 20.209993
_cell_length_b 7.326288
_cell_length_c 20.660579
_cell_angle_alpha 90.000000
_cell_angle_beta 159.210562
_cell_angle_gamma 90.000000
_cell_volume 1085.777934
_symmetry_space_group_name_H-M "P 2/C"
_symmetry_group_IT_number 13
_symmetry_cell_setting 'monoclinic'
loop_
_space_group_symop_operation_xyz
x,y,z
-x,y,1/2-z
-x,-y,-z
x,-y,1/2+z
loop_
_atom_site_type_symbol
_atom_site_label
_atom_site_fract_x
_atom_site_fract_y
_atom_site_fract_z
Si Si1 0.710095 0.674631 0.055914
Si Si2 0.619658 0.715836 0.508877
Si Si3 0.500000 0.865267 0.750000
Si Si4 0.927567 0.987408 0.756266
Si Si5 0.408233 0.172026 0.379458
Si Si6 0.269806 0.078086 0.648022
O O1 0.712523 0.457529 0.060073
O O2 0.893648 0.796383 0.236876
O O3 0.631953 0.743093 0.915730
O O4 0.558096 0.728446 0.971490
O O5 0.651169 0.703089 0.614964
O O6 0.726924 0.894695 0.581714
O O7 0.401338 0.755171 0.292612
O O8 0.376507 0.987942 0.684655
O O9 0.000000 0.960350 0.750000
O O10 0.064352 0.892312 0.932697
O O11 0.263606 0.074611 0.198990
O O12 0.500000 0.000000 0.500000
#
# Coordination Sequence:
#
# PCOD9227772 Si02
#       6
#     4   4   2   4   4   4
#     4  11  22  39  66  91 124 160 211 260 303 369
#     4  11  23  42  63  92 123 164 206 257 309 368
#     4  10  18  40  62  82 118 170 194 244 310 364
#     4  12  23  40  62  90 128 162 205 257 314 370
#     4   9  18  41  66  85 122 170 200 249 318 365
#     4  10  20  39  65  85 124 164 203 248 310 371
#
# _framework density 20.261970000000002
#
# number of rings (size 3 to 8) (size 9 to 14) (size 15 to 20)
#    0.000    1.455    7.273    0.545    0.000    3.636 
#    6.545    0.909    0.000    0.000    0.000    0.000 
#    0.000    0.000    0.000    0.000    0.000    0.000 
#
# Total GULP energy -122680.949858 kJ/mol
# GULP energy per Si atom -5576.406812 kJ/mol
# Density = 2.021585 g / cm^3
# Si number density = 20.261970 Si / 1000 Ang^3
#
#
#
# Elastic Constant Matrix: (Units=GPa)
#
#
# Indices 1 2 3 4 5 6 
#
# 1 87.5515 2.2252 8.1159 0.0000 -19.7799 0.0000
# 2 2.2252 65.1610 3.7238 0.0000 -4.9490 0.0000
# 3 8.1159 3.7238 86.1803 0.0000 -9.9248 0.0000
# 4 0.0000 0.0000 0.0000 15.6317 0.0000 7.9990
# 5 -19.7799 -4.9490 -9.9248 0.0000 23.5923 0.0000
# 6 0.0000 0.0000 0.0000 7.9990 0.0000 17.4000
#
#
#
# Elastic Compliance Matrix: (Units=1/GPa)
#
#
# Indices 1 2 3 4 5 6 
#
# 1 0.014102 0.000422 0.000027 0.000000 0.011923 0.000000
# 2 0.000422 0.015616 -0.000312 0.000000 0.003499 0.000000
# 3 0.000027 -0.000312 0.012201 0.000000 0.005090 0.000000
# 4 0.000000 0.000000 0.000000 0.083651 0.000000 -0.038455
# 5 0.011923 0.003499 0.005090 0.000000 0.055258 0.000000
# 6 0.000000 0.000000 0.000000 -0.038455 0.000000 0.075150
#
#
# Mechanical properties :
#
#
# Convention : Reuss Voigt Hill
#
# Bulk Modulus (GPa) = 23.69997 29.66917 26.68457
# Shear Modulus (GPa) = 18.53454 26.31334 22.42394
#
# Velocity S-wave (km/s) = 3.02776 3.60760 3.33032
# Velocity P-wave (km/s) = 4.89339 5.65929 5.29022
#
# Compressibility (1/GPa) = 0.04219415
#
# Stress axis : x y z
#
# Youngs Moduli (GPa) = 70.90995 64.03802 81.96275
#
# Poissons Ratio (x) = -0.02705 -0.00220
# Poissons Ratio (y) = -0.02996 0.02554
# Poissons Ratio (z) = -0.00190 0.01995
#
# Static dielectric constant tensor:
#      x y z
#    x 1.732390 0.000000 -0.011450 
#    y 0.000000 1.737070 0.000000 
#    z -0.011450 0.000000 1.748590 
# 
# From -- ./inp_files/81588.got.cif
#   From: 2010.05.17/outbox.cif.g08.bks.cpg/sg13_41_cif.got.tgz:81588.got - 2010.06.03 16:44:36.
