data_PCOD9227799
_publ_section_title
;
Structure prediction by ZEFSAII (Michael W. Deem and Ramdas Pophale) SiO2 
 PCOD9227799
Probable space group: P 2/C
;
_chemical_formula_sum "Si O2"
_cell_formula_units_Z 28
_cell_length_a 9.412449
_cell_length_b 10.783216
_cell_length_c 16.998291
_cell_angle_alpha 90.000000
_cell_angle_beta 120.033491
_cell_angle_gamma 90.000000
_cell_volume 1493.620166
_symmetry_space_group_name_H-M "P 2/C"
_symmetry_group_IT_number 13
_symmetry_cell_setting 'monoclinic'
loop_
_space_group_symop_operation_xyz
x,y,z
-x,y,1/2-z
-x,-y,-z
x,-y,1/2+z
loop_
_atom_site_type_symbol
_atom_site_label
_atom_site_fract_x
_atom_site_fract_y
_atom_site_fract_z
Si Si1 0.500000 0.937746 0.750000
Si Si2 0.283812 0.358569 0.909475
Si Si3 0.000000 0.200836 0.750000
Si Si4 0.533923 0.544858 0.347840
Si Si5 0.852503 0.060013 0.854013
Si Si6 0.022322 0.190095 0.046631
Si Si7 0.866072 0.434039 0.018628
Si Si8 0.393094 0.739886 0.597979
O O1 0.494866 0.846251 0.671815
O O2 0.662021 0.021710 0.800638
O O3 0.134904 0.282037 0.832268
O O4 0.399579 0.410138 0.872983
O O5 0.202655 0.472203 0.935319
O O6 0.387264 0.276946 0.001665
O O7 0.095185 0.120312 0.712537
O O8 0.500000 0.583933 0.250000
O O9 0.708883 0.596539 0.422486
O O10 0.550364 0.395020 0.356111
O O11 0.911008 0.149235 0.941449
O O12 0.951235 0.932023 0.894871
O O13 0.202878 0.232799 0.067495
O O14 0.943760 0.306292 0.069320
O O15 0.000000 0.500000 0.000000
#
# Coordination Sequence:
#
# PCOD9227799 Si02
#       8
#     2   4   2   4   4   4   4   4
#     4  10  22  40  70  90 122 168 228 262 322 376
#     4  11  25  40  65  94 137 170 210 269 341 385
#     4  12  24  46  60  92 136 170 218 276 308 382
#     4  11  24  38  62  98 131 170 207 264 341 392
#     4  10  23  42  63  92 122 178 215 262 314 373
#     4  10  20  40  70  87 128 169 217 257 318 391
#     4  11  20  39  67  98 125 167 210 264 332 394
#     4  10  18  41  64  92 128 169 200 272 326 384
#
# _framework density 18.746399
#
# number of rings (size 3 to 8) (size 9 to 14) (size 15 to 20)
#    0.000    1.429    5.000    1.714    4.000    1.143 
#    5.143    0.714    0.000    0.000    0.000    0.000 
#    0.000    0.000    0.000    0.000    0.000    0.000 
#
# Total GULP energy -156280.363391 kJ/mol
# GULP energy per Si atom -5581.441550 kJ/mol
# Density = 1.870373 g / cm^3
# Si number density = 18.746399 Si / 1000 Ang^3
#
#
#
# Elastic Constant Matrix: (Units=GPa)
#
#
# Indices 1 2 3 4 5 6 
#
# 1 94.9767 35.2265 46.0219 0.0000 -5.8006 0.0000
# 2 35.2265 71.7030 33.1638 0.0000 -12.7889 0.0000
# 3 46.0219 33.1638 119.3158 0.0000 -15.2411 0.0000
# 4 0.0000 0.0000 0.0000 18.9764 0.0000 8.9195
# 5 -5.8006 -12.7889 -15.2411 0.0000 14.0286 0.0000
# 6 0.0000 0.0000 0.0000 8.9195 0.0000 37.1886
#
#
#
# Elastic Compliance Matrix: (Units=1/GPa)
#
#
# Indices 1 2 3 4 5 6 
#
# 1 0.014650 -0.005838 -0.004568 0.000000 -0.004228 0.000000
# 2 -0.005838 0.020048 -0.001503 0.000000 0.014229 0.000000
# 3 -0.004568 -0.001503 0.011779 0.000000 0.009539 0.000000
# 4 0.000000 0.000000 0.000000 0.059393 0.000000 -0.014245
# 5 -0.004228 0.014229 0.009539 0.000000 0.092870 0.000000
# 6 0.000000 0.000000 0.000000 -0.014245 0.000000 0.030307
#
#
# Mechanical properties :
#
#
# Convention : Reuss Voigt Hill
#
# Bulk Modulus (GPa) = 44.13347 57.20221 50.66784
# Shear Modulus (GPa) = 19.20007 25.47762 22.33885
#
# Velocity S-wave (km/s) = 3.20379 3.69055 3.45575
# Velocity P-wave (km/s) = 6.10566 6.98142 6.55817
#
# Compressibility (1/GPa) = 0.02265854
#
# Stress axis : x y z
#
# Youngs Moduli (GPa) = 68.26163 49.88108 84.89627
#
# Poissons Ratio (x) = 0.29123 0.38779
# Poissons Ratio (y) = 0.39854 0.12757
# Poissons Ratio (z) = 0.31181 0.07495
#
# Static dielectric constant tensor:
#      x y z
#    x 1.622070 0.000000 -0.001030 
#    y 0.000000 1.658160 0.000000 
#    z -0.001030 0.000000 1.684440 
# 
# From -- ./inp_files/47008.got.cif
#   From: 2010.05.17/outbox.cif.g08.bks.cpg/sg13_24_cif.got.tgz:47008.got - 2010.06.03 16:44:36.
