data_PCOD9227238
_publ_section_title
;
Structure prediction by ZEFSAII (Michael W. Deem and Ramdas Pophale) SiO2 
 PCOD9227238
Probable space group: P 2/C
;
_chemical_formula_sum "Si O2"
_cell_formula_units_Z 32
_cell_length_a 23.159376
_cell_length_b 13.642735
_cell_length_c 11.542451
_cell_angle_alpha 90.000000
_cell_angle_beta 28.069673
_cell_angle_gamma 90.000000
_cell_volume 1716.040003
_symmetry_space_group_name_H-M "P 2/C"
_symmetry_group_IT_number 13
_symmetry_cell_setting 'monoclinic'
loop_
_space_group_symop_operation_xyz
x,y,z
-x,y,1/2-z
-x,-y,-z
x,-y,1/2+z
loop_
_atom_site_type_symbol
_atom_site_label
_atom_site_fract_x
_atom_site_fract_y
_atom_site_fract_z
Si Si1 0.650704 0.952037 0.984872
Si Si2 0.551504 0.729485 0.390467
Si Si3 0.741432 0.735997 0.864126
Si Si4 0.101516 0.371878 0.252647
Si Si5 0.299188 0.357812 0.294598
Si Si6 0.633567 0.046656 0.772906
Si Si7 0.681629 0.575386 0.302294
Si Si8 0.164479 0.577519 0.253559
O O1 0.500000 0.945408 0.250000
O O2 0.689409 0.984661 0.047958
O O3 0.708164 0.843912 0.879635
O O4 0.685304 0.011967 0.806586
O O5 0.407201 0.720103 0.625845
O O6 0.607956 0.836399 0.316102
O O7 0.584193 0.654954 0.434779
O O8 0.622796 0.697883 0.146775
O O9 0.851511 0.722851 0.760478
O O10 0.765499 0.671336 0.709553
O O11 0.128312 0.465968 0.287302
O O12 0.958308 0.373142 0.478946
O O13 0.192456 0.392387 0.985621
O O14 0.353327 0.467079 0.179083
O O15 0.204417 0.367600 0.566434
O O16 0.500000 0.000000 0.000000
O O17 0.718716 0.576084 0.369744
#
# Coordination Sequence:
#
# PCOD9227238 Si02
#       8
#     4   4   4   4   4   4   4   4
#     4   9  17  31  53  77 105 133 176 218 267 325
#     4  10  21  35  51  73 111 142 171 203 262 332
#     4  10  18  34  54  76 101 141 178 207 260 320
#     4   9  19  34  55  68  99 142 178 224 250 304
#     4  11  20  32  50  75 108 142 173 214 250 312
#     4   9  17  33  51  74 102 135 174 216 262 319
#     4  10  20  35  49  73 103 144 180 204 263 308
#     4  10  20  34  48  76 103 135 182 221 261 283
#
# _framework density 18.647584999999999
#
# number of rings (size 3 to 8) (size 9 to 14) (size 15 to 20)
#    0.000    2.250    1.250    3.375    0.000    1.000 
#   11.250    0.000    0.000    0.000    0.000    0.875 
#   18.750    0.125    0.000    0.000    0.000    0.000 
#
# Total GULP energy -178169.167928 kJ/mol
# GULP energy per Si atom -5567.786498 kJ/mol
# Density = 1.860514 g / cm^3
# Si number density = 18.647585 Si / 1000 Ang^3
#
#
#
# Elastic Constant Matrix: (Units=GPa)
#
#
# Indices 1 2 3 4 5 6 
#
# 1 87.3108 29.9130 10.9802 0.0000 20.8461 0.0000
# 2 29.9130 42.0774 2.3125 0.0000 14.6105 0.0000
# 3 10.9802 2.3125 28.2913 0.0000 6.5991 0.0000
# 4 0.0000 0.0000 0.0000 12.5071 0.0000 7.4585
# 5 20.8461 14.6105 6.5991 0.0000 24.3794 0.0000
# 6 0.0000 0.0000 0.0000 7.4585 0.0000 29.1754
#
#
#
# Elastic Compliance Matrix: (Units=1/GPa)
#
#
# Indices 1 2 3 4 5 6 
#
# 1 0.016970 -0.009068 -0.003979 0.000000 -0.007999 0.000000
# 2 -0.009068 0.034948 0.003992 0.000000 -0.014271 0.000000
# 3 -0.003979 0.003992 0.038777 0.000000 -0.009486 0.000000
# 4 0.000000 0.000000 0.000000 0.094336 0.000000 -0.024116
# 5 -0.007999 -0.014271 -0.009486 0.000000 0.058978 0.000000
# 6 0.000000 0.000000 0.000000 -0.024116 0.000000 0.040441
#
#
# Mechanical properties :
#
#
# Convention : Reuss Voigt Hill
#
# Bulk Modulus (GPa) = 13.77704 27.12121 20.44912
# Shear Modulus (GPa) = 15.30187 20.84399 18.07293
#
# Velocity S-wave (km/s) = 2.86769 3.34696 3.11655
# Velocity P-wave (km/s) = 4.28591 5.43248 4.89289
#
# Compressibility (1/GPa) = 0.07258452
#
# Stress axis : x y z
#
# Youngs Moduli (GPa) = 58.92597 28.61380 25.78819
#
# Poissons Ratio (x) = 0.25947 0.10262
# Poissons Ratio (y) = 0.53435 -0.10294
# Poissons Ratio (z) = 0.23449 -0.11422
#
# Static dielectric constant tensor:
#      x y z
#    x 1.602030 0.000000 0.061760 
#    y 0.000000 1.668360 0.000000 
#    z 0.061760 0.000000 1.643900 
# 
# From -- ./inp_files/33841.got.cif
#   From: 2010.05.17/outbox.cif.g08.bks.cpg/sg13_17_cif.got.tgz:33841.got - 2010.06.03 16:44:36.
