data_PCOD9227703
_publ_section_title
;
Structure prediction by ZEFSAII (Michael W. Deem and Ramdas Pophale) SiO2 
 PCOD9227703
Probable space group: P 2/C
;
_chemical_formula_sum "Si O2"
_cell_formula_units_Z 24
_cell_length_a 8.233058
_cell_length_b 11.099265
_cell_length_c 19.135242
_cell_angle_alpha 90.000000
_cell_angle_beta 44.638691
_cell_angle_gamma 90.000000
_cell_volume 1228.622144
_symmetry_space_group_name_H-M "P 2/C"
_symmetry_group_IT_number 13
_symmetry_cell_setting 'monoclinic'
loop_
_space_group_symop_operation_xyz
x,y,z
-x,y,1/2-z
-x,-y,-z
x,-y,1/2+z
loop_
_atom_site_type_symbol
_atom_site_label
_atom_site_fract_x
_atom_site_fract_y
_atom_site_fract_z
Si Si1 0.907956 0.591679 0.433243
Si Si2 0.831706 0.673548 0.950091
Si Si3 0.000000 0.566029 0.250000
Si Si4 0.388849 0.378070 0.130929
Si Si5 0.157526 0.151252 0.270578
Si Si6 0.679964 0.741976 0.137998
Si Si7 0.500000 0.021869 0.750000
O O1 0.972508 0.450018 0.422163
O O2 0.915314 0.625331 0.348088
O O3 0.657275 0.596863 0.545198
O O4 0.074227 0.686797 0.418176
O O5 0.689053 0.641435 0.924963
O O6 0.992120 0.785686 0.879017
O O7 0.655279 0.705354 0.065628
O O8 0.782621 0.483791 0.292652
O O9 0.321114 0.258885 0.193241
O O10 0.322699 0.053489 0.256399
O O11 0.000000 0.115535 0.250000
O O12 0.500000 0.689716 0.250000
O O13 0.649718 0.884786 0.157216
#
# Coordination Sequence:
#
# PCOD9227703 Si02
#       7
#     4   4   2   4   4   4   2
#     4  11  22  36  66  96 128 166 203 262 338 390
#     4  10  20  41  65  94 126 162 207 267 326 404
#     4  10  18  38  62  96 138 162 200 266 318 408
#     4  10  20  37  66  98 124 164 211 258 325 389
#     4  10  21  45  69  93 125 173 228 266 318 382
#     4  10  26  43  54  92 131 164 210 269 325 375
#     4  10  26  46  64  86 136 176 220 282 306 372
#
# _framework density 19.534075999999999
#
# number of rings (size 3 to 8) (size 9 to 14) (size 15 to 20)
#    0.500    1.333    4.167    2.500    7.000    0.667 
#    6.000    1.667    0.000    0.000    0.000    0.000 
#    0.000    0.000    0.000    0.000    0.000    0.000 
#
# Total GULP energy -133707.550994 kJ/mol
# GULP energy per Si atom -5571.147958 kJ/mol
# Density = 1.948962 g / cm^3
# Si number density = 19.534076 Si / 1000 Ang^3
#
#
#
# Elastic Constant Matrix: (Units=GPa)
#
#
# Indices 1 2 3 4 5 6 
#
# 1 47.8421 36.7870 27.3907 0.0000 -15.2136 0.0000
# 2 36.7870 64.0669 10.1702 0.0000 -8.5168 0.0000
# 3 27.3907 10.1702 118.7448 0.0000 -1.2927 0.0000
# 4 0.0000 0.0000 0.0000 54.0087 0.0000 -14.9580
# 5 -15.2136 -8.5168 -1.2927 0.0000 41.2833 0.0000
# 6 0.0000 0.0000 0.0000 -14.9580 0.0000 22.6014
#
#
#
# Elastic Compliance Matrix: (Units=1/GPa)
#
#
# Indices 1 2 3 4 5 6 
#
# 1 0.049766 -0.025418 -0.009163 0.000000 0.012809 0.000000
# 2 -0.025418 0.029247 0.003323 0.000000 -0.003229 0.000000
# 3 -0.009163 0.003323 0.010225 0.000000 -0.002371 0.000000
# 4 0.000000 0.000000 0.000000 0.022671 0.000000 0.015004
# 5 0.012809 -0.003229 -0.002371 0.000000 0.028203 0.000000
# 6 0.000000 0.000000 0.000000 0.015004 0.000000 0.054175
#
#
# Mechanical properties :
#
#
# Convention : Reuss Voigt Hill
#
# Bulk Modulus (GPa) = 37.42324 42.14996 39.78660
# Shear Modulus (GPa) = 18.81754 33.99907 26.40831
#
# Velocity S-wave (km/s) = 3.10710 4.17646 3.68082
# Velocity P-wave (km/s) = 5.66318 6.69937 6.20295
#
# Compressibility (1/GPa) = 0.02672136
#
# Stress axis : x y z
#
# Youngs Moduli (GPa) = 20.09406 34.19162 97.80333
#
# Poissons Ratio (x) = 0.86909 0.89617
# Poissons Ratio (y) = 0.51075 -0.32501
# Poissons Ratio (z) = 0.18412 -0.11362
#
# Static dielectric constant tensor:
#      x y z
#    x 1.769610 0.000000 0.007230 
#    y 0.000000 1.684010 0.000000 
#    z 0.007230 0.000000 1.752330 
# 
# From -- ./inp_files/76196.got.cif
#   From: 2010.05.17/outbox.cif.g08.bks.cpg/sg13_39_cif.got.tgz:76196.got - 2010.06.03 16:44:36.
