data_PCOD9227519
_publ_section_title
;
Structure prediction by ZEFSAII (Michael W. Deem and Ramdas Pophale) SiO2 
 PCOD9227519
Probable space group: P 2/C
;
_chemical_formula_sum "Si O2"
_cell_formula_units_Z 22
_cell_length_a 22.457758
_cell_length_b 8.428726
_cell_length_c 17.263211
_cell_angle_alpha 90.000000
_cell_angle_beta 157.655290
_cell_angle_gamma 90.000000
_cell_volume 1242.329837
_symmetry_space_group_name_H-M "P 2/C"
_symmetry_group_IT_number 13
_symmetry_cell_setting 'monoclinic'
loop_
_space_group_symop_operation_xyz
x,y,z
-x,y,1/2-z
-x,-y,-z
x,-y,1/2+z
loop_
_atom_site_type_symbol
_atom_site_label
_atom_site_fract_x
_atom_site_fract_y
_atom_site_fract_z
Si Si1 0.000000 0.586706 0.750000
Si Si2 0.580576 0.351785 0.055000
Si Si3 0.133160 0.709833 0.323114
Si Si4 0.209810 0.849730 0.575236
Si Si5 0.251674 0.221971 0.648598
Si Si6 0.174367 0.579027 0.211442
O O1 0.915320 0.466130 0.706857
O O2 0.867679 0.693005 0.552737
O O3 0.674332 0.249791 0.231078
O O4 0.705333 0.431409 0.147788
O O5 0.500000 0.500000 0.000000
O O6 0.432572 0.256294 0.845017
O O7 0.227214 0.795429 0.505935
O O8 0.201881 0.683629 0.321213
O O9 0.968263 0.801587 0.118641
O O10 0.229112 0.034301 0.615907
O O11 0.208886 0.306144 0.679415
O O12 0.000000 0.500000 0.000000
#
# Coordination Sequence:
#
# PCOD9227519 Si02
#       6
#     2   4   4   4   4   4
#     4  10  18  36  58  82 110 158 200 234 294 360
#     4  10  20  38  59  82 115 159 198 234 297 365
#     4  10  19  35  60  85 115 152 199 248 285 359
#     4  10  20  36  57  87 119 154 195 243 312 355
#     4  11  22  36  61  86 119 158 193 245 304 362
#     4  11  19  38  61  89 114 151 205 246 283 356
#
# _framework density 17.708662
#
# number of rings (size 3 to 8) (size 9 to 14) (size 15 to 20)
#    0.000    1.818    3.636    4.909    0.000    0.727 
#    0.000    8.182    0.000    4.364    0.000    0.000 
#    0.000    0.000    0.000    0.000    0.000    0.000 
#
# Total GULP energy -122607.998370 kJ/mol
# GULP energy per Si atom -5573.090835 kJ/mol
# Density = 1.766836 g / cm^3
# Si number density = 17.708662 Si / 1000 Ang^3
#
#
#
# Elastic Constant Matrix: (Units=GPa)
#
#
# Indices 1 2 3 4 5 6 
#
# 1 84.5618 40.0614 60.4618 0.0000 4.3627 0.0000
# 2 40.0614 147.6604 64.4884 0.0000 -6.0876 0.0000
# 3 60.4618 64.4884 115.4006 0.0000 -13.7348 0.0000
# 4 0.0000 0.0000 0.0000 55.4642 0.0000 -12.0017
# 5 4.3627 -6.0876 -13.7348 0.0000 19.5157 0.0000
# 6 0.0000 0.0000 0.0000 -12.0017 0.0000 8.8038
#
#
#
# Elastic Compliance Matrix: (Units=1/GPa)
#
#
# Indices 1 2 3 4 5 6 
#
# 1 0.022141 -0.001042 -0.012710 0.000000 -0.014220 0.000000
# 2 -0.001042 0.009019 -0.004509 0.000000 -0.000127 0.000000
# 3 -0.012710 -0.004509 0.019662 0.000000 0.015273 0.000000
# 4 0.000000 0.000000 0.000000 0.025574 0.000000 0.034863
# 5 -0.014220 -0.000127 0.015273 0.000000 0.065129 0.000000
# 6 0.000000 0.000000 0.000000 0.034863 0.000000 0.161114
#
#
# Mechanical properties :
#
#
# Convention : Reuss Voigt Hill
#
# Bulk Modulus (GPa) = 69.93492 75.29400 72.61446
# Shear Modulus (GPa) = 14.53794 28.93084 21.73439
#
# Velocity S-wave (km/s) = 2.86833 4.04630 3.50713
# Velocity P-wave (km/s) = 7.10967 8.02749 7.58248
#
# Compressibility (1/GPa) = 0.01429901
#
# Stress axis : x y z
#
# Youngs Moduli (GPa) = 45.16525 110.87550 50.85868
#
# Poissons Ratio (x) = 0.11556 0.64643
# Poissons Ratio (y) = 0.04707 0.22933
# Poissons Ratio (z) = 0.57406 0.49996
#
# Static dielectric constant tensor:
#      x y z
#    x 1.641230 0.000000 0.003780 
#    y 0.000000 1.586300 0.000000 
#    z 0.003780 0.000000 1.613850 
# 
# From -- ./inp_files/63442.got.cif
#   From: 2010.05.17/outbox.cif.g08.bks.cpg/sg13_32_cif.got.tgz:63442.got - 2010.06.03 16:44:36.
