data_PCOD9227159
_publ_section_title
;
Structure prediction by ZEFSAII (Michael W. Deem and Ramdas Pophale) SiO2 
 PCOD9227159
Probable space group: P 2/C
;
_chemical_formula_sum "Si O2"
_cell_formula_units_Z 18
_cell_length_a 7.148380
_cell_length_b 13.036342
_cell_length_c 9.000691
_cell_angle_alpha 90.000000
_cell_angle_beta 118.106700
_cell_angle_gamma 90.000000
_cell_volume 739.849113
_symmetry_space_group_name_H-M "P 2/C"
_symmetry_group_IT_number 13
_symmetry_cell_setting 'monoclinic'
loop_
_space_group_symop_operation_xyz
x,y,z
-x,y,1/2-z
-x,-y,-z
x,-y,1/2+z
loop_
_atom_site_type_symbol
_atom_site_label
_atom_site_fract_x
_atom_site_fract_y
_atom_site_fract_z
Si Si1 0.690221 0.302751 0.550844
Si Si2 0.131926 0.727533 0.059486
Si Si3 0.668659 0.859660 0.588661
Si Si4 0.500000 0.996101 0.250000
Si Si5 0.830973 0.527383 0.561857
O O1 0.758302 0.259658 0.738666
O O2 0.491494 0.234010 0.431314
O O3 0.690555 0.428514 0.551820
O O4 0.887382 0.286083 0.512693
O O5 0.141074 0.809324 0.931903
O O6 0.262936 0.630623 0.040109
O O7 0.676104 0.931099 0.736720
O O8 0.575360 0.927684 0.416144
O O9 0.000000 0.557280 0.750000
O O10 0.000000 0.500000 0.500000
#
# Coordination Sequence:
#
# PCOD9227159 Si02
#       5
#     4   4   4   2   4
#     4  10  19  37  61  87 119 158 188 229 290 349
#     4  10  20  36  61  87 120 156 189 231 289 343
#     4  11  22  43  62  84 114 154 192 247 295 341
#     4  10  24  42  62  84 116 144 198 258 296 326
#     4  10  18  33  56  87 121 153 185 228 276 341
#
# _framework density 24.329286
#
# number of rings (size 3 to 8) (size 9 to 14) (size 15 to 20)
#    0.000    1.778    6.667    0.000    0.000    4.444 
#    0.000    6.667    0.000    0.000    0.000    0.000 
#    0.000    0.000    0.000    0.000    0.000    0.000 
#
# Total GULP energy -100229.156157 kJ/mol
# GULP energy per Si atom -5568.286453 kJ/mol
# Density = 2.427391 g / cm^3
# Si number density = 24.329286 Si / 1000 Ang^3
#
#
#
# Elastic Constant Matrix: (Units=GPa)
#
#
# Indices 1 2 3 4 5 6 
#
# 1 71.4255 37.5940 27.8826 0.0000 -26.9570 0.0000
# 2 37.5940 87.1378 24.2748 0.0000 -19.9780 0.0000
# 3 27.8826 24.2748 97.7450 0.0000 -35.2978 0.0000
# 4 0.0000 0.0000 0.0000 33.3677 0.0000 -17.5277
# 5 -26.9570 -19.9780 -35.2978 0.0000 33.1448 0.0000
# 6 0.0000 0.0000 0.0000 -17.5277 0.0000 24.4058
#
#
#
# Elastic Compliance Matrix: (Units=1/GPa)
#
#
# Indices 1 2 3 4 5 6 
#
# 1 0.023049 -0.006577 0.000644 0.000000 0.015467 0.000000
# 2 -0.006577 0.015220 -0.000849 0.000000 0.002920 0.000000
# 3 0.000644 -0.000849 0.016675 0.000000 0.017770 0.000000
# 4 0.000000 0.000000 0.000000 0.048124 0.000000 0.034562
# 5 0.015467 0.002920 0.017770 0.000000 0.063435 0.000000
# 6 0.000000 0.000000 0.000000 0.034562 0.000000 0.065795
#
#
# Mechanical properties :
#
#
# Convention : Reuss Voigt Hill
#
# Bulk Modulus (GPa) = 24.16674 48.42346 36.29510
# Shear Modulus (GPa) = 19.25634 29.28745 24.27189
#
# Velocity S-wave (km/s) = 2.81639 3.47334 3.16197
# Velocity P-wave (km/s) = 4.53110 6.00267 5.31803
#
# Compressibility (1/GPa) = 0.04137919
#
# Stress axis : x y z
#
# Youngs Moduli (GPa) = 43.38673 65.70423 59.96992
#
# Poissons Ratio (x) = 0.43215 -0.03863
# Poissons Ratio (y) = 0.28536 0.05092
# Poissons Ratio (z) = -0.02795 0.05579
#
# Static dielectric constant tensor:
#      x y z
#    x 2.004220 0.000000 0.020190 
#    y 0.000000 1.477300 0.000000 
#    z 0.020190 0.000000 1.879710 
# 
# From -- ./inp_files/11694.got.cif
#   From: 2010.05.17/outbox.cif.g08.bks.cpg/sg13_6_cif.got.tgz:11694.got - 2010.06.03 16:44:36.
