data_PCOD9227981
_publ_section_title
;
Structure prediction by ZEFSAII (Michael W. Deem and Ramdas Pophale) SiO2 
 PCOD9227981
Probable space group: P 2/C
;
_chemical_formula_sum "Si O2"
_cell_formula_units_Z 32
_cell_length_a 16.580895
_cell_length_b 11.916802
_cell_length_c 8.140343
_cell_angle_alpha 90.000000
_cell_angle_beta 95.648510
_cell_angle_gamma 90.000000
_cell_volume 1600.650487
_symmetry_space_group_name_H-M "P 2/C"
_symmetry_group_IT_number 13
_symmetry_cell_setting 'monoclinic'
loop_
_space_group_symop_operation_xyz
x,y,z
-x,y,1/2-z
-x,-y,-z
x,-y,1/2+z
loop_
_atom_site_type_symbol
_atom_site_label
_atom_site_fract_x
_atom_site_fract_y
_atom_site_fract_z
Si Si1 0.437592 0.547535 0.618372
Si Si2 0.919647 0.078755 0.134811
Si Si3 0.772289 0.175843 0.680743
Si Si4 0.826916 0.444044 0.243268
Si Si5 0.895258 0.646863 0.097079
Si Si6 0.193780 0.952484 0.611324
Si Si7 0.949295 0.683650 0.567987
Si Si8 0.673651 0.399719 0.683150
O O1 0.500000 0.612549 0.750000
O O2 0.500000 0.500000 0.500000
O O3 0.393466 0.444356 0.702801
O O4 0.368561 0.610510 0.503170
O O5 0.937643 0.186067 0.029838
O O6 0.000000 0.048102 0.250000
O O7 0.846878 0.112083 0.245301
O O8 0.882844 0.982461 0.018311
O O9 0.857975 0.238465 0.659389
O O10 0.775382 0.071805 0.809223
O O11 0.716267 0.280344 0.724980
O O12 0.749917 0.118763 0.499209
O O13 0.881882 0.554490 0.233540
O O14 0.841514 0.386806 0.423057
O O15 0.863296 0.369813 0.100907
O O16 0.738581 0.497287 0.196793
O O17 0.986311 0.642105 0.051021
O O18 0.000000 0.677820 0.750000
#
# Coordination Sequence:
#
# PCOD9227981 Si02
#       8
#     4   4   4   4   4   4   4   4
#     4   9  19  36  59  92 123 146 168 198 253 333
#     4  10  19  32  49  67  93 137 194 252 301 330
#     4  10  21  37  54  78 108 147 192 238 280 318
#     4  10  19  31  50  74 107 145 177 221 274 332
#     4  10  20  34  48  71 107 147 192 235 281 331
#     4  10  21  35  51  72 102 138 192 251 288 320
#     4   9  18  31  45  66 101 146 189 231 275 327
#     4  10  19  34  58  86 119 146 175 216 266 333
#
# _framework density 19.991872999999998
#
# number of rings (size 3 to 8) (size 9 to 14) (size 15 to 20)
#    0.000    2.250    0.000    4.500    0.000    4.000 
#    0.000    5.000    0.000    2.250    0.000   11.375 
#    0.000    0.000    0.000    0.000    0.000    0.000 
#
# Total GULP energy -178310.641978 kJ/mol
# GULP energy per Si atom -5572.207562 kJ/mol
# Density = 1.994637 g / cm^3
# Si number density = 19.991873 Si / 1000 Ang^3
#
#
#
# Elastic Constant Matrix: (Units=GPa)
#
#
# Indices 1 2 3 4 5 6 
#
# 1 91.6861 27.6295 27.7075 0.0000 -6.1749 0.0000
# 2 27.6295 77.6377 17.9502 0.0000 -2.7238 0.0000
# 3 27.7075 17.9502 69.8586 0.0000 -5.5484 0.0000
# 4 0.0000 0.0000 0.0000 31.8159 0.0000 -2.7585
# 5 -6.1749 -2.7238 -5.5484 0.0000 34.3821 0.0000
# 6 0.0000 0.0000 0.0000 -2.7585 0.0000 9.8049
#
#
#
# Elastic Compliance Matrix: (Units=1/GPa)
#
#
# Indices 1 2 3 4 5 6 
#
# 1 0.013413 -0.003742 -0.004245 0.000000 0.001428 0.000000
# 2 -0.003742 0.014747 -0.002295 0.000000 0.000126 0.000000
# 3 -0.004245 -0.002295 0.016728 0.000000 0.001755 0.000000
# 4 0.000000 0.000000 0.000000 0.032217 0.000000 0.009064
# 5 0.001428 0.000126 0.001755 0.000000 0.029634 0.000000
# 6 0.000000 0.000000 0.000000 0.009064 0.000000 0.104540
#
#
# Mechanical properties :
#
#
# Convention : Reuss Voigt Hill
#
# Bulk Modulus (GPa) = 41.11258 42.86188 41.98723
# Shear Modulus (GPa) = 20.83752 26.26026 23.54889
#
# Velocity S-wave (km/s) = 3.23197 3.62822 3.43581
# Velocity P-wave (km/s) = 5.87680 6.24805 6.06527
#
# Compressibility (1/GPa) = 0.02432345
#
# Stress axis : x y z
#
# Youngs Moduli (GPa) = 74.55197 67.81006 59.78177
#
# Poissons Ratio (x) = 0.25374 0.25379
# Poissons Ratio (y) = 0.27897 0.13721
# Poissons Ratio (z) = 0.31649 0.15563
#
# Static dielectric constant tensor:
#      x y z
#    x 1.755110 0.000000 0.025530 
#    y 0.000000 1.750350 0.000000 
#    z 0.025530 0.000000 1.840340 
# 
# From -- ./inp_files/21578.got.cif
#   From: 2010.05.17/outbox.cif.g08.bks.cpg/sg13_11_cif.got.tgz:21578.got - 2010.06.03 16:44:36.
