data_PCOD9227001
_publ_section_title
;
Structure prediction by ZEFSAII (Michael W. Deem and Ramdas Pophale) SiO2 
 PCOD9227001
Probable space group: P 2/C
;
_chemical_formula_sum "Si O2"
_cell_formula_units_Z 30
_cell_length_a 28.239305
_cell_length_b 11.084047
_cell_length_c 14.781004
_cell_angle_alpha 90.000000
_cell_angle_beta 160.391098
_cell_angle_gamma 90.000000
_cell_volume 1552.657172
_symmetry_space_group_name_H-M "P 2/C"
_symmetry_group_IT_number 13
_symmetry_cell_setting 'monoclinic'
loop_
_space_group_symop_operation_xyz
x,y,z
-x,y,1/2-z
-x,-y,-z
x,-y,1/2+z
loop_
_atom_site_type_symbol
_atom_site_label
_atom_site_fract_x
_atom_site_fract_y
_atom_site_fract_z
Si Si1 0.260291 0.184599 0.784123
Si Si2 0.275319 0.724740 0.118335
Si Si3 0.396587 0.778128 0.836665
Si Si4 0.158740 0.870706 0.282981
Si Si5 0.643611 0.912191 0.556170
Si Si6 0.385768 0.485357 0.371960
Si Si7 0.851801 0.850398 0.780375
Si Si8 0.500000 0.619023 0.750000
O O1 0.217381 0.208405 0.603343
O O2 0.142496 0.172434 0.649764
O O3 0.336679 0.054994 0.921422
O O4 0.366465 0.290329 0.007017
O O5 0.441550 0.762490 0.405040
O O6 0.268964 0.583625 0.133967
O O7 0.204616 0.757962 0.896365
O O8 0.296056 0.809579 0.572453
O O9 0.373875 0.881031 0.870502
O O10 0.348441 0.654714 0.800103
O O11 0.176230 0.015279 0.310822
O O12 0.019871 0.839788 0.089707
O O13 0.770321 0.848528 0.728954
O O14 0.500000 0.871861 0.250000
O O15 0.500000 0.500000 0.500000
O O16 0.465249 0.531514 0.604135
#
# Coordination Sequence:
#
# PCOD9227001 Si02
#       8
#     4   4   4   4   4   4   4   2
#     4  10  19  33  55  83 112 142 181 222 280 320
#     4  10  20  35  58  84 107 144 189 233 262 325
#     4  11  22  35  56  83 113 146 184 228 276 320
#     4  10  22  38  55  80 116 150 176 225 277 336
#     4  11  21  33  56  86 111 140 180 228 275 328
#     4   9  20  33  53  79 111 144 183 225 274 317
#     4  10  22  38  56  82 114 145 184 220 280 330
#     4  10  18  32  54  82 114 140 180 234 270 320
#
# _framework density 19.321715000000001
#
# number of rings (size 3 to 8) (size 9 to 14) (size 15 to 20)
#    0.000    1.867    2.000    3.200    2.800    2.133 
#    0.000    4.667    0.000    3.200    0.000    0.000 
#    0.000    0.000    0.000    0.000    0.000    0.000 
#
# Total GULP energy -167236.525580 kJ/mol
# GULP energy per Si atom -5574.550853 kJ/mol
# Density = 1.927774 g / cm^3
# Si number density = 19.321715 Si / 1000 Ang^3
#
#
#
# Elastic Constant Matrix: (Units=GPa)
#
#
# Indices 1 2 3 4 5 6 
#
# 1 88.0067 5.3407 -5.4136 0.0000 -1.4872 0.0000
# 2 5.3407 41.1646 0.7077 0.0000 -5.4429 0.0000
# 3 -5.4136 0.7077 18.8789 0.0000 0.7797 0.0000
# 4 0.0000 0.0000 0.0000 5.6045 0.0000 -4.4168
# 5 -1.4872 -5.4429 0.7797 0.0000 30.8523 0.0000
# 6 0.0000 0.0000 0.0000 -4.4168 0.0000 21.3459
#
#
#
# Elastic Compliance Matrix: (Units=1/GPa)
#
#
# Indices 1 2 3 4 5 6 
#
# 1 0.011669 -0.001545 0.003396 0.000000 0.000204 0.000000
# 2 -0.001545 0.025101 -0.001566 0.000000 0.004393 0.000000
# 3 0.003396 -0.001566 0.054063 0.000000 -0.001479 0.000000
# 4 0.000000 0.000000 0.000000 0.213193 0.000000 0.044113
# 5 0.000204 0.004393 -0.001479 0.000000 0.033235 0.000000
# 6 0.000000 0.000000 0.000000 0.044113 0.000000 0.055975
#
#
# Mechanical properties :
#
#
# Convention : Reuss Voigt Hill
#
# Bulk Modulus (GPa) = 10.94066 16.59108 13.76587
# Shear Modulus (GPa) = 11.81660 21.38825 16.60242
#
# Velocity S-wave (km/s) = 2.47568 3.33070 2.93450
# Velocity P-wave (km/s) = 3.72111 4.83703 4.31529
#
# Compressibility (1/GPa) = 0.09140219
#
# Stress axis : x y z
#
# Youngs Moduli (GPa) = 85.69812 39.83905 18.49701
#
# Poissons Ratio (x) = 0.06156 -0.06281
# Poissons Ratio (y) = 0.13243 0.02896
# Poissons Ratio (z) = -0.29100 0.06237
#
# Static dielectric constant tensor:
#      x y z
#    x 1.693030 0.000000 0.001320 
#    y 0.000000 1.728890 0.000000 
#    z 0.001320 0.000000 1.658170 
# 
# From -- ./inp_files/59638.got.cif
#   From: 2010.05.17/outbox.cif.g08.bks.cpg/sg13_30_cif.got.tgz:59638.got - 2010.06.03 16:44:36.
