data_PCOD9227916
_publ_section_title
;
Structure prediction by ZEFSAII (Michael W. Deem and Ramdas Pophale) SiO2 
 PCOD9227916
Probable space group: P 2/C
;
_chemical_formula_sum "Si O2"
_cell_formula_units_Z 32
_cell_length_a 8.403077
_cell_length_b 14.636896
_cell_length_c 26.655904
_cell_angle_alpha 90.000000
_cell_angle_beta 30.006891
_cell_angle_gamma 90.000000
_cell_volume 1639.612451
_symmetry_space_group_name_H-M "P 2/C"
_symmetry_group_IT_number 13
_symmetry_cell_setting 'monoclinic'
loop_
_space_group_symop_operation_xyz
x,y,z
-x,y,1/2-z
-x,-y,-z
x,-y,1/2+z
loop_
_atom_site_type_symbol
_atom_site_label
_atom_site_fract_x
_atom_site_fract_y
_atom_site_fract_z
Si Si1 0.185806 0.831030 0.508232
Si Si2 0.629723 0.867867 0.588892
Si Si3 0.849932 0.385505 0.498252
Si Si4 0.732281 0.715172 0.863530
Si Si5 0.513681 0.449302 0.125562
Si Si6 0.774616 0.925376 0.709572
Si Si7 0.645204 0.976681 0.406088
Si Si8 0.173637 0.370786 0.313905
O O1 0.198204 0.721917 0.497264
O O2 0.983683 0.865569 0.514835
O O3 0.989374 0.870722 0.610229
O O4 0.533150 0.876197 0.420396
O O5 0.545047 0.786306 0.573120
O O6 0.408132 0.863429 0.699409
O O7 0.525916 0.957370 0.587209
O O8 0.562010 0.446477 0.596804
O O9 0.143709 0.404780 0.455236
O O10 0.984286 0.423781 0.408631
O O11 0.620579 0.613173 0.881733
O O12 0.000000 0.740425 0.750000
O O13 0.928320 0.704646 0.860659
O O14 0.297827 0.430443 0.233355
O O15 0.500000 0.970377 0.750000
O O16 0.990345 0.994174 0.683793
O O17 0.500000 0.000000 0.500000
O O18 0.500000 0.332727 0.250000
#
# Coordination Sequence:
#
# PCOD9227916 Si02
#       8
#     4   4   4   4   4   4   4   4
#     4  10  21  34  56  85 119 148 186 237 299 347
#     4  11  20  34  55  85 111 148 188 238 290 345
#     4  10  19  34  56  82 116 153 185 236 295 352
#     4  10  19  30  52  82 110 138 182 240 288 335
#     4   9  19  34  52  85 113 145 190 235 288 354
#     4   9  20  34  56  83 112 148 196 238 287 343
#     4  10  21  35  51  82 116 149 185 234 287 348
#     4   9  20  33  53  77 112 149 187 242 292 342
#
# _framework density 19.516808000000001
#
# number of rings (size 3 to 8) (size 9 to 14) (size 15 to 20)
#    0.000    2.250    1.250    1.500    7.000    2.000 
#    0.000    0.000    0.000    4.500    3.250    3.500 
#    0.000    0.000    0.000    0.000    0.000    0.000 
#
# Total GULP energy -178160.275247 kJ/mol
# GULP energy per Si atom -5567.508601 kJ/mol
# Density = 1.947239 g / cm^3
# Si number density = 19.516808 Si / 1000 Ang^3
#
#
#
# Elastic Constant Matrix: (Units=GPa)
#
#
# Indices 1 2 3 4 5 6 
#
# 1 120.6627 53.3438 31.8605 0.0000 -15.3243 0.0000
# 2 53.3438 102.8971 27.3066 0.0000 -16.2877 0.0000
# 3 31.8605 27.3066 31.1174 0.0000 -14.1407 0.0000
# 4 0.0000 0.0000 0.0000 17.3212 0.0000 -4.0092
# 5 -15.3243 -16.2877 -14.1407 0.0000 25.0165 0.0000
# 6 0.0000 0.0000 0.0000 -4.0092 0.0000 25.9393
#
#
#
# Elastic Compliance Matrix: (Units=1/GPa)
#
#
# Indices 1 2 3 4 5 6 
#
# 1 0.012521 -0.004040 -0.009398 0.000000 -0.000273 0.000000
# 2 -0.004040 0.014104 -0.006986 0.000000 0.002759 0.000000
# 3 -0.009398 -0.006986 0.058142 0.000000 0.022559 0.000000
# 4 0.000000 0.000000 0.000000 0.059875 0.000000 0.009254
# 5 -0.000273 0.002759 0.022559 0.000000 0.054354 0.000000
# 6 0.000000 0.000000 0.000000 0.009254 0.000000 0.039982
#
#
# Mechanical properties :
#
#
# Convention : Reuss Voigt Hill
#
# Bulk Modulus (GPa) = 22.77065 53.29990 38.03528
# Shear Modulus (GPa) = 16.97997 23.13313 20.05655
#
# Velocity S-wave (km/s) = 2.95281 3.44654 3.20918
# Velocity P-wave (km/s) = 4.82887 6.57322 5.76737
#
# Compressibility (1/GPa) = 0.04391618
#
# Stress axis : x y z
#
# Youngs Moduli (GPa) = 79.86878 70.90423 17.19941
#
# Poissons Ratio (x) = 0.28645 0.16165
# Poissons Ratio (y) = 0.32267 0.12016
# Poissons Ratio (z) = 0.75064 0.49535
#
# Static dielectric constant tensor:
#      x y z
#    x 1.758820 0.000000 -0.011930 
#    y 0.000000 1.710050 0.000000 
#    z -0.011930 0.000000 1.719730 
# 
# From -- ./inp_files/96174.got.cif
#   From: 2010.05.17/outbox.cif.g08.bks.cpg/sg13_49_cif.got.tgz:96174.got - 2010.06.03 16:44:36.
