data_PCOD9227038
_publ_section_title
;
Structure prediction by ZEFSAII (Michael W. Deem and Ramdas Pophale) SiO2 
 PCOD9227038
Probable space group: P 2/C
;
_chemical_formula_sum "Si O2"
_cell_formula_units_Z 18
_cell_length_a 10.817921
_cell_length_b 8.747389
_cell_length_c 18.349555
_cell_angle_alpha 90.000000
_cell_angle_beta 150.170540
_cell_angle_gamma 90.000000
_cell_volume 863.716256
_symmetry_space_group_name_H-M "P 2/C"
_symmetry_group_IT_number 13
_symmetry_cell_setting 'monoclinic'
loop_
_space_group_symop_operation_xyz
x,y,z
-x,y,1/2-z
-x,-y,-z
x,-y,1/2+z
loop_
_atom_site_type_symbol
_atom_site_label
_atom_site_fract_x
_atom_site_fract_y
_atom_site_fract_z
Si Si1 0.706581 0.915532 0.917730
Si Si2 0.500000 0.468965 0.750000
Si Si3 0.356583 0.367827 0.029614
Si Si4 0.894386 0.767880 0.480879
Si Si5 0.909456 0.598000 0.777064
O O1 0.500000 0.894895 0.750000
O O2 0.338746 0.814867 0.533239
O O3 0.947361 0.846833 0.001050
O O4 0.740789 0.097331 0.942415
O O5 0.586628 0.569654 0.860688
O O6 0.271491 0.355661 0.645830
O O7 0.611122 0.417097 0.119270
O O8 0.098837 0.450977 0.875242
O O9 0.041468 0.684500 0.621288
O O10 0.000000 0.683322 0.750000
#
# Coordination Sequence:
#
# PCOD9227038 Si02
#       5
#     4   2   4   4   4
#     4  11  19  35  58  86 114 139 182 240 289 333
#     4  10  18  32  56  88 110 138 182 240 286 332
#     4  11  21  37  60  86 113 148 190 238 285 330
#     4  10  21  34  57  85 114 146 183 229 290 334
#     4  11  23  40  57  81 117 156 192 227 273 341
#
# _framework density 20.840176
#
# number of rings (size 3 to 8) (size 9 to 14) (size 15 to 20)
#    0.000    1.333    4.444    2.000    0.000    3.556 
#    0.000    2.222    0.000    0.000    0.000    0.000 
#    0.000    0.000    0.000    0.000    0.000    0.000 
#
# Total GULP energy -100302.308578 kJ/mol
# GULP energy per Si atom -5572.350477 kJ/mol
# Density = 2.079274 g / cm^3
# Si number density = 20.840176 Si / 1000 Ang^3
#
#
#
# Elastic Constant Matrix: (Units=GPa)
#
#
# Indices 1 2 3 4 5 6 
#
# 1 53.1181 -3.7828 10.7908 0.0000 15.8205 0.0000
# 2 -3.7828 79.1436 26.0724 0.0000 14.0709 0.0000
# 3 10.7908 26.0724 59.7838 0.0000 -0.5678 0.0000
# 4 0.0000 0.0000 0.0000 82.2742 0.0000 -60.2692
# 5 15.8205 14.0709 -0.5678 0.0000 32.3944 0.0000
# 6 0.0000 0.0000 0.0000 -60.2692 0.0000 104.3153
#
#
#
# Elastic Compliance Matrix: (Units=1/GPa)
#
#
# Indices 1 2 3 4 5 6 
#
# 1 0.025369 0.006411 -0.007520 0.000000 -0.015306 0.000000
# 2 0.006411 0.017895 -0.009067 0.000000 -0.011063 0.000000
# 3 -0.007520 -0.009067 0.022114 0.000000 0.007999 0.000000
# 4 0.000000 0.000000 0.000000 0.021073 0.000000 0.012175
# 5 -0.015306 -0.011063 0.007999 0.000000 0.043290 0.000000
# 6 0.000000 0.000000 0.000000 0.012175 0.000000 0.016621
#
#
# Mechanical properties :
#
#
# Convention : Reuss Voigt Hill
#
# Bulk Modulus (GPa) = 22.20882 28.68961 25.44921
# Shear Modulus (GPa) = 27.51420 54.39445 40.95433
#
# Velocity S-wave (km/s) = 3.63746 5.11443 4.43782
# Velocity P-wave (km/s) = 5.32178 6.97660 6.20461
#
# Compressibility (1/GPa) = 0.04502716
#
# Stress axis : x y z
#
# Youngs Moduli (GPa) = 39.41809 55.88006 45.21927
#
# Poissons Ratio (x) = -0.35826 0.34007
# Poissons Ratio (y) = -0.25272 0.40999
# Poissons Ratio (z) = 0.29644 0.50665
#
# Static dielectric constant tensor:
#      x y z
#    x 1.835880 0.000000 0.067020 
#    y 0.000000 1.808950 0.000000 
#    z 0.067020 0.000000 1.772650 
# 
# From -- ./inp_files/31757.got.cif
#   From: 2010.05.17/outbox.cif.g08.bks.cpg/sg13_16_cif.got.tgz:31757.got - 2010.06.03 16:44:36.
