data_PCOD9227816
_publ_section_title
;
Structure prediction by ZEFSAII (Michael W. Deem and Ramdas Pophale) SiO2 
 PCOD9227816
Probable space group: P 2/C
;
_chemical_formula_sum "Si O2"
_cell_formula_units_Z 22
_cell_length_a 8.954490
_cell_length_b 8.772208
_cell_length_c 17.808334
_cell_angle_alpha 90.000000
_cell_angle_beta 129.442591
_cell_angle_gamma 90.000000
_cell_volume 1080.282823
_symmetry_space_group_name_H-M "P 2/C"
_symmetry_group_IT_number 13
_symmetry_cell_setting 'monoclinic'
loop_
_space_group_symop_operation_xyz
x,y,z
-x,y,1/2-z
-x,-y,-z
x,-y,1/2+z
loop_
_atom_site_type_symbol
_atom_site_label
_atom_site_fract_x
_atom_site_fract_y
_atom_site_fract_z
Si Si1 0.260028 0.142262 0.451941
Si Si2 0.662168 0.932876 0.162302
Si Si3 0.115921 0.473436 0.420847
Si Si4 0.500000 0.108985 0.250000
Si Si5 0.182320 0.312738 0.067048
Si Si6 0.000000 0.305776 0.750000
Si Si7 0.000000 0.000000 0.500000
O O1 0.268382 0.061072 0.374263
O O2 0.219180 0.319932 0.428319
O O3 0.100424 0.060703 0.453260
O O4 0.460027 0.123021 0.561651
O O5 0.618086 0.004425 0.229605
O O6 0.820678 0.801495 0.215208
O O7 0.239211 0.571558 0.519820
O O8 0.926741 0.412526 0.405129
O O9 0.060679 0.585043 0.336996
O O10 0.354425 0.213634 0.156765
O O11 0.040798 0.181059 0.990384
#
# Coordination Sequence:
#
# PCOD9227816 Si02
#       7
#     4   4   4   2   4   2   2
#     4  10  23  46  72  98 138 185 236 291 358 410
#     4  11  27  43  69 104 134 188 239 295 336 425
#     4  10  25  43  68 100 140 186 219 296 361 414
#     4  12  26  42  74 102 134 182 248 290 330 422
#     4  10  23  42  68  99 134 182 227 284 356 414
#     4  12  28  42  68 106 144 180 240 288 352 426
#     4  10  18  42  74  92 132 178 234 280 342 424
#
# _framework density 20.365034999999999
#
# number of rings (size 3 to 8) (size 9 to 14) (size 15 to 20)
#    0.000    1.455    1.818    1.091   12.727    3.636 
#    0.000    0.000    0.000    0.000    0.000    0.000 
#    0.000    0.000    0.000    0.000    0.000    0.000 
#
# Total GULP energy -122467.712854 kJ/mol
# GULP energy per Si atom -5566.714221 kJ/mol
# Density = 2.031868 g / cm^3
# Si number density = 20.365035 Si / 1000 Ang^3
#
#
#
# Elastic Constant Matrix: (Units=GPa)
#
#
# Indices 1 2 3 4 5 6 
#
# 1 93.1463 92.7239 49.7623 0.0000 -25.5840 0.0000
# 2 92.7239 187.8063 81.9067 0.0000 -24.4455 0.0000
# 3 49.7623 81.9067 75.0605 0.0000 -18.6958 0.0000
# 4 0.0000 0.0000 0.0000 56.0627 0.0000 -29.5286
# 5 -25.5840 -24.4455 -18.6958 0.0000 18.5410 0.0000
# 6 0.0000 0.0000 0.0000 -29.5286 0.0000 53.0214
#
#
#
# Elastic Compliance Matrix: (Units=1/GPa)
#
#
# Indices 1 2 3 4 5 6 
#
# 1 0.028304 -0.010065 -0.001815 0.000000 0.023956 0.000000
# 2 -0.010065 0.013861 -0.009829 0.000000 -0.005523 0.000000
# 3 -0.001815 -0.009829 0.028577 0.000000 0.013352 0.000000
# 4 0.000000 0.000000 0.000000 0.025241 0.000000 0.014057
# 5 0.023956 -0.005523 0.013352 0.000000 0.093172 0.000000
# 6 0.000000 0.000000 0.000000 0.014057 0.000000 0.026689
#
#
# Mechanical properties :
#
#
# Convention : Reuss Voigt Hill
#
# Bulk Modulus (GPa) = 36.59626 89.42209 63.00918
# Shear Modulus (GPa) = 18.63090 34.29971 26.46530
#
# Velocity S-wave (km/s) = 3.02793 4.10841 3.60883
# Velocity P-wave (km/s) = 5.49851 8.15538 6.95499
#
# Compressibility (1/GPa) = 0.02732520
#
# Stress axis : x y z
#
# Youngs Moduli (GPa) = 35.33015 72.14239 34.99300
#
# Poissons Ratio (x) = 0.72608 0.06353
# Poissons Ratio (y) = 0.35558 0.34395
# Poissons Ratio (z) = 0.06414 0.70909
#
# Static dielectric constant tensor:
#      x y z
#    x 1.749200 0.000000 0.027790 
#    y 0.000000 1.686420 0.000000 
#    z 0.027790 0.000000 1.762910 
# 
# From -- ./inp_files/63985.got.cif
#   From: 2010.05.17/outbox.cif.g08.bks.cpg/sg13_32_cif.got.tgz:63985.got - 2010.06.03 16:44:36.
