data_PCOD9227978
_publ_section_title
;
Structure prediction by ZEFSAII (Michael W. Deem and Ramdas Pophale) SiO2 
 PCOD9227978
Probable space group: P 2/C
;
_chemical_formula_sum "Si O2"
_cell_formula_units_Z 24
_cell_length_a 12.838872
_cell_length_b 20.446982
_cell_length_c 15.421981
_cell_angle_alpha 90.000000
_cell_angle_beta 162.734577
_cell_angle_gamma 90.000000
_cell_volume 1201.595109
_symmetry_space_group_name_H-M "P 2/C"
_symmetry_group_IT_number 13
_symmetry_cell_setting 'monoclinic'
loop_
_space_group_symop_operation_xyz
x,y,z
-x,y,1/2-z
-x,-y,-z
x,-y,1/2+z
loop_
_atom_site_type_symbol
_atom_site_label
_atom_site_fract_x
_atom_site_fract_y
_atom_site_fract_z
Si Si1 0.311285 0.963566 0.931902
Si Si2 0.843944 0.251928 0.861595
Si Si3 0.876655 0.305679 0.247031
Si Si4 0.197468 0.874852 0.072673
Si Si5 0.577557 0.426792 0.089719
Si Si6 0.149754 0.372006 0.022953
O O1 0.000000 0.992145 0.750000
O O2 0.120306 0.900324 0.738073
O O3 0.621527 0.938000 0.240109
O O4 0.500000 0.000000 0.000000
O O5 0.474065 0.262275 0.519996
O O6 0.906752 0.177296 0.937152
O O7 0.852988 0.288536 0.962363
O O8 0.116728 0.296072 0.024980
O O9 0.000000 0.290317 0.250000
O O10 0.759319 0.381085 0.161914
O O11 0.500000 0.845978 0.250000
O O12 0.200548 0.392618 0.805381
O O13 0.500000 0.500000 0.000000
O O14 0.816863 0.416485 0.364272
O O15 0.500000 0.383354 0.250000
#
# Coordination Sequence:
#
# PCOD9227978 Si02
#       6
#     4   4   4   4   4   4
#     4  10  21  37  56  81 112 145 181 220 267 318
#     4  10  20  34  52  78 105 130 172 213 255 314
#     4  10  19  31  50  74 102 130 160 213 267 301
#     4  10  19  33  57  82 106 140 178 218 263 312
#     4  10  21  36  52  75 100 131 179 217 253 315
#     4  10  21  37  55  74 105 142 170 213 269 318
#
# _framework density 19.973448999999999
#
# number of rings (size 3 to 8) (size 9 to 14) (size 15 to 20)
#    0.000    2.000    0.000    4.000    0.000    2.667 
#    0.000    1.667    0.000    0.000    0.000    0.000 
#    0.000    0.000    0.000    0.000    0.000    0.000 
#
# Total GULP energy -133719.893711 kJ/mol
# GULP energy per Si atom -5571.662238 kJ/mol
# Density = 1.992799 g / cm^3
# Si number density = 19.973449 Si / 1000 Ang^3
#
#
#
# Elastic Constant Matrix: (Units=GPa)
#
#
# Indices 1 2 3 4 5 6 
#
# 1 46.9730 11.1795 -2.4193 0.0000 5.1947 0.0000
# 2 11.1795 56.0344 -1.4202 0.0000 10.0006 0.0000
# 3 -2.4193 -1.4202 50.8355 0.0000 -8.8726 0.0000
# 4 0.0000 0.0000 0.0000 16.5129 0.0000 -3.7406
# 5 5.1947 10.0006 -8.8726 0.0000 29.4775 0.0000
# 6 0.0000 0.0000 0.0000 -3.7406 0.0000 15.5698
#
#
#
# Elastic Compliance Matrix: (Units=1/GPa)
#
#
# Indices 1 2 3 4 5 6 
#
# 1 0.022550 -0.004050 0.000534 0.000000 -0.002439 0.000000
# 2 -0.004050 0.019743 -0.000724 0.000000 -0.006202 0.000000
# 3 0.000534 -0.000724 0.020795 0.000000 0.006411 0.000000
# 4 0.000000 0.000000 0.000000 0.064044 0.000000 0.015386
# 5 -0.002439 -0.006202 0.006411 0.000000 0.038388 0.000000
# 6 0.000000 0.000000 0.000000 0.015386 0.000000 0.067924
#
#
# Mechanical properties :
#
#
# Convention : Reuss Voigt Hill
#
# Bulk Modulus (GPa) = 18.31195 18.72478 18.51836
# Shear Modulus (GPa) = 19.22150 22.07890 20.65020
#
# Velocity S-wave (km/s) = 3.10555 3.32838 3.21889
# Velocity P-wave (km/s) = 4.69545 4.91589 4.80694
#
# Compressibility (1/GPa) = 0.05460916
#
# Stress axis : x y z
#
# Youngs Moduli (GPa) = 44.34587 50.65147 48.08757
#
# Poissons Ratio (x) = 0.20515 -0.02569
# Poissons Ratio (y) = 0.17961 0.03480
# Poissons Ratio (z) = -0.02369 0.03665
#
# Static dielectric constant tensor:
#      x y z
#    x 1.729160 0.000000 0.022950 
#    y 0.000000 1.709690 0.000000 
#    z 0.022950 0.000000 1.687340 
# 
# From -- ./inp_files/26525.got.cif
#   From: 2010.05.17/outbox.cif.g08.bks.cpg/sg13_14_cif.got.tgz:26525.got - 2010.06.03 16:44:36.
