data_PCOD9227750
_publ_section_title
;
Structure prediction by ZEFSAII (Michael W. Deem and Ramdas Pophale) SiO2 
 PCOD9227750
Probable space group: P 2/C
;
_chemical_formula_sum "Si O2"
_cell_formula_units_Z 28
_cell_length_a 15.434750
_cell_length_b 6.118379
_cell_length_c 13.775355
_cell_angle_alpha 90.000000
_cell_angle_beta 65.254888
_cell_angle_gamma 90.000000
_cell_volume 1181.435935
_symmetry_space_group_name_H-M "P 2/C"
_symmetry_group_IT_number 13
_symmetry_cell_setting 'monoclinic'
loop_
_space_group_symop_operation_xyz
x,y,z
-x,y,1/2-z
-x,-y,-z
x,-y,1/2+z
loop_
_atom_site_type_symbol
_atom_site_label
_atom_site_fract_x
_atom_site_fract_y
_atom_site_fract_z
Si Si1 0.931995 0.190606 0.989963
Si Si2 0.765541 0.913694 0.077257
Si Si3 0.541368 0.161258 0.839738
Si Si4 0.623034 0.551641 0.075222
Si Si5 0.713065 0.402258 0.851536
Si Si6 0.110395 0.416028 0.846684
Si Si7 0.370142 0.754223 0.743229
O O1 0.001990 0.333471 0.890477
O O2 0.895574 0.351480 0.093877
O O3 0.841791 0.066985 0.986824
O O4 0.000000 0.000000 0.000000
O O5 0.695602 0.754212 0.053444
O O6 0.829735 0.748268 0.111644
O O7 0.699266 0.077500 0.169301
O O8 0.500000 0.186552 0.750000
O O9 0.471316 0.333670 0.923590
O O10 0.646897 0.234869 0.821946
O O11 0.544384 0.897848 0.843477
O O12 0.607286 0.425075 0.184337
O O13 0.675341 0.389703 0.977501
O O14 0.825821 0.400051 0.779586
O O15 0.682655 0.632874 0.818459
#
# Coordination Sequence:
#
# PCOD9227750 Si02
#       7
#     4   4   4   4   4   4   4
#     4   9  19  32  69  96 126 173 230 270 341 422
#     4  11  19  40  64  99 126 176 225 271 349 408
#     4  12  24  44  65  95 131 185 235 275 345 408
#     4  12  27  42  66 103 136 180 234 294 340 414
#     4  12  25  43  68  99 139 176 230 290 351 409
#     4  10  18  39  63 100 129 173 224 284 342 416
#     4  12  23  43  71  87 136 182 223 286 351 406
#
# _framework density 23.699971999999999
#
# number of rings (size 3 to 8) (size 9 to 14) (size 15 to 20)
#    0.000    0.857    7.143    0.429    2.000    1.714 
#    0.000    0.000    0.000   20.571    0.000    0.000 
#    0.000    0.000    0.000    0.000    0.000    0.000 
#
# Total GULP energy -156221.117744 kJ/mol
# GULP energy per Si atom -5579.325634 kJ/mol
# Density = 2.364603 g / cm^3
# Si number density = 23.699972 Si / 1000 Ang^3
#
#
#
# Elastic Constant Matrix: (Units=GPa)
#
#
# Indices 1 2 3 4 5 6 
#
# 1 72.0927 36.0494 16.0203 0.0000 -30.3842 0.0000
# 2 36.0494 103.3495 6.8560 0.0000 -7.2501 0.0000
# 3 16.0203 6.8560 67.2522 0.0000 -18.7468 0.0000
# 4 0.0000 0.0000 0.0000 32.1810 0.0000 -20.7903
# 5 -30.3842 -7.2501 -18.7468 0.0000 34.7443 0.0000
# 6 0.0000 0.0000 0.0000 -20.7903 0.0000 50.3027
#
#
#
# Elastic Compliance Matrix: (Units=1/GPa)
#
#
# Indices 1 2 3 4 5 6 
#
# 1 0.027153 -0.007938 0.000587 0.000000 0.022406 0.000000
# 2 -0.007938 0.012155 -0.000678 0.000000 -0.004772 0.000000
# 3 0.000587 -0.000678 0.017541 0.000000 0.009836 0.000000
# 4 0.000000 0.000000 0.000000 0.042394 0.000000 0.017521
# 5 0.022406 -0.004772 0.009836 0.000000 0.052687 0.000000
# 6 0.000000 0.000000 0.000000 0.017521 0.000000 0.027121
#
#
# Mechanical properties :
#
#
# Convention : Reuss Voigt Hill
#
# Bulk Modulus (GPa) = 24.51636 40.06063 32.28850
# Shear Modulus (GPa) = 23.95694 35.69688 29.82691
#
# Velocity S-wave (km/s) = 3.18282 3.88519 3.55141
# Velocity P-wave (km/s) = 4.88611 6.08820 5.51998
#
# Compressibility (1/GPa) = 0.04078909
#
# Stress axis : x y z
#
# Youngs Moduli (GPa) = 36.82781 82.26949 57.01074
#
# Poissons Ratio (x) = 0.65310 -0.03345
# Poissons Ratio (y) = 0.29236 0.03867
# Poissons Ratio (z) = -0.02161 0.05580
#
# Static dielectric constant tensor:
#      x y z
#    x 1.890040 0.000000 -0.072700 
#    y 0.000000 1.937990 0.000000 
#    z -0.072700 0.000000 1.998090 
# 
# From -- ./inp_files/54558.got.cif
#   From: 2010.05.17/outbox.cif.g08.bks.cpg/sg13_28_cif.got.tgz:54558.got - 2010.06.03 16:44:36.
