data_PCOD9227987
_publ_section_title
;
Structure prediction by ZEFSAII (Michael W. Deem and Ramdas Pophale) SiO2 
 PCOD9227987
Probable space group: P 2/C
;
_chemical_formula_sum "Si O2"
_cell_formula_units_Z 24
_cell_length_a 15.123794
_cell_length_b 13.085147
_cell_length_c 17.928758
_cell_angle_alpha 90.000000
_cell_angle_beta 164.962413
_cell_angle_gamma 90.000000
_cell_volume 920.550632
_symmetry_space_group_name_H-M "P 2/C"
_symmetry_group_IT_number 13
_symmetry_cell_setting 'monoclinic'
loop_
_space_group_symop_operation_xyz
x,y,z
-x,y,1/2-z
-x,-y,-z
x,-y,1/2+z
loop_
_atom_site_type_symbol
_atom_site_label
_atom_site_fract_x
_atom_site_fract_y
_atom_site_fract_z
Si Si1 0.137493 0.873715 0.527720
Si Si2 0.350053 0.085346 0.735339
Si Si3 0.691133 0.505557 0.056582
Si Si4 0.376985 0.256096 0.975029
Si Si5 0.207700 0.581962 0.060075
Si Si6 0.135783 0.785488 0.762966
O O1 0.826877 0.915052 0.326994
O O2 0.958027 0.816114 0.311561
O O3 0.394818 0.971043 0.741275
O O4 0.351885 0.790211 0.746746
O O5 0.080244 0.130652 0.457456
O O6 0.670662 0.161340 0.009504
O O7 0.660153 0.627074 0.030739
O O8 0.000000 0.480649 0.250000
O O9 0.855310 0.476395 0.269444
O O10 0.384409 0.429569 0.783614
O O11 0.563965 0.252134 0.047379
O O12 0.500000 0.526422 0.250000
O O13 0.119924 0.688667 0.948092
#
# Coordination Sequence:
#
# PCOD9227987 Si02
#       6
#     4   4   4   4   4   4
#     4   9  17  30  49  75 105 132 161 200 247 300
#     4   9  17  30  49  75 105 132 161 200 247 300
#     4  10  21  36  52  71  98 134 171 207 254 307
#     4  10  19  31  51  77 101 130 168 208 249 293
#     4  10  21  36  52  71  98 134 171 207 254 307
#     4  10  19  31  51  77 101 130 168 208 249 293
#
# _framework density 26.071349999999999
#
# number of rings (size 3 to 8) (size 9 to 14) (size 15 to 20)
#    0.000    2.333    0.000    3.000    0.000    5.333 
#    0.000    0.000    0.000    4.000    0.000    0.000 
#    0.000    0.000    0.000    0.000    0.000    0.000 
#
# Total GULP energy -133841.528455 kJ/mol
# GULP energy per Si atom -5576.730352 kJ/mol
# Density = 2.601201 g / cm^3
# Si number density = 26.071350 Si / 1000 Ang^3
#
#
#
# Elastic Constant Matrix: (Units=GPa)
#
#
# Indices 1 2 3 4 5 6 
#
# 1 47.7703 -4.3493 23.0661 0.0000 -5.1805 0.0000
# 2 -4.3493 160.3842 63.8737 0.0000 -11.3305 0.0000
# 3 23.0661 63.8737 182.1674 0.0000 -33.3743 0.0000
# 4 0.0000 0.0000 0.0000 39.9476 0.0000 -20.9566
# 5 -5.1805 -11.3305 -33.3743 0.0000 30.1373 0.0000
# 6 0.0000 0.0000 0.0000 -20.9566 0.0000 -13.2996
#
#
#
# Elastic Compliance Matrix: (Units=1/GPa)
#
#
# Indices 1 2 3 4 5 6 
#
# 1 0.022887 0.002060 -0.003460 0.000000 0.000878 0.000000
# 2 0.002060 0.007433 -0.002873 0.000000 -0.000033 0.000000
# 3 -0.003460 -0.002873 0.008315 0.000000 0.007533 0.000000
# 4 0.000000 0.000000 0.000000 0.013704 0.000000 -0.021594
# 5 0.000878 -0.000033 0.007533 0.000000 0.041662 0.000000
# 6 0.000000 0.000000 0.000000 -0.021594 0.000000 -0.041163
#
#
# Mechanical properties :
#
#
# Convention : Reuss Voigt Hill
#
# Bulk Modulus (GPa) = 33.23355 61.72253 47.47804
# Shear Modulus (GPa) = 70.01566 31.87250 50.94408
#
# Velocity S-wave (km/s) = 5.18784 3.50024 4.42523
# Velocity P-wave (km/s) = 6.97565 6.32941 6.66037
#
# Compressibility (1/GPa) = 0.03009008
#
# Stress axis : x y z
#
# Youngs Moduli (GPa) = 43.69334 134.53872 120.26337
#
# Poissons Ratio (x) = -0.27721 0.41606
# Poissons Ratio (y) = -0.09003 0.34553
# Poissons Ratio (z) = 0.15116 0.38655
#
# Static dielectric constant tensor:
#      x y z
#    x 2.184150 0.000000 -0.002880 
#    y 0.000000 2.039360 0.000000 
#    z -0.002880 0.000000 2.113340 
# 
# From -- ./inp_files/88596.got.cif
#   From: 2010.05.17/outbox.cif.g08.bks.cpg/sg13_45_cif.got.tgz:88596.got - 2010.06.03 16:44:36.
