data_PCOD9227021
_publ_section_title
;
Structure prediction by ZEFSAII (Michael W. Deem and Ramdas Pophale) SiO2 
 PCOD9227021
Probable space group: P 2/C
;
_chemical_formula_sum "Si O2"
_cell_formula_units_Z 30
_cell_length_a 22.298947
_cell_length_b 8.368580
_cell_length_c 17.576177
_cell_angle_alpha 90.000000
_cell_angle_beta 25.400243
_cell_angle_gamma 90.000000
_cell_volume 1406.876722
_symmetry_space_group_name_H-M "P 2/C"
_symmetry_group_IT_number 13
_symmetry_cell_setting 'monoclinic'
loop_
_space_group_symop_operation_xyz
x,y,z
-x,y,1/2-z
-x,-y,-z
x,-y,1/2+z
loop_
_atom_site_type_symbol
_atom_site_label
_atom_site_fract_x
_atom_site_fract_y
_atom_site_fract_z
Si Si1 0.046987 0.826166 0.612201
Si Si2 0.664111 0.621417 0.217897
Si Si3 0.254561 0.660667 0.977193
Si Si4 0.786422 0.415506 0.202057
Si Si5 0.466043 0.053390 0.627146
Si Si6 0.500000 0.107734 0.250000
Si Si7 0.184452 0.124899 0.421034
Si Si8 0.909988 0.479275 0.209988
O O1 0.188577 0.719141 0.455155
O O2 0.000000 0.873546 0.750000
O O3 0.936845 0.702158 0.704714
O O4 0.066768 0.991524 0.544115
O O5 0.662805 0.491277 0.152764
O O6 0.676299 0.516747 0.280275
O O7 0.545103 0.754832 0.355961
O O8 0.365073 0.781333 0.887882
O O9 0.172216 0.745272 0.002121
O O10 0.143055 0.590702 0.162774
O O11 0.774269 0.227249 0.199986
O O12 0.791523 0.472350 0.281833
O O13 0.943247 0.456624 0.991264
O O14 0.500000 0.000000 0.500000
O O15 0.528333 0.988052 0.636884
O O16 0.310872 0.980561 0.807492
#
# Coordination Sequence:
#
# PCOD9227021 Si02
#       8
#     4   4   4   4   4   2   4   4
#     4  10  18  32  55  85 113 151 185 236 291 360
#     4   9  19  37  61  82 117 148 199 237 301 362
#     4  10  20  39  59  85 115 157 200 253 293 351
#     4   9  20  36  54  88 117 150 191 241 289 368
#     4  10  22  43  62  86 118 161 197 258 308 358
#     4  10  24  42  60  90 122 150 216 258 298 360
#     4   9  21  37  56  83 116 148 198 241 296 361
#     4  10  20  34  57  84 119 149 192 235 299 350
#
# _framework density 21.323829
#
# number of rings (size 3 to 8) (size 9 to 14) (size 15 to 20)
#    0.000    2.400    1.333    0.000    3.733    1.067 
#    4.800    2.000    0.000    0.000    0.000    0.000 
#    0.000    0.000    0.000    0.000    0.000    0.000 
#
# Total GULP energy -167115.530324 kJ/mol
# GULP energy per Si atom -5570.517677 kJ/mol
# Density = 2.127530 g / cm^3
# Si number density = 21.323829 Si / 1000 Ang^3
#
#
#
# Elastic Constant Matrix: (Units=GPa)
#
#
# Indices 1 2 3 4 5 6 
#
# 1 77.5943 22.1076 15.4983 0.0000 6.3906 0.0000
# 2 22.1076 105.6451 16.4644 0.0000 -1.9914 0.0000
# 3 15.4983 16.4644 35.1707 0.0000 9.0084 0.0000
# 4 0.0000 0.0000 0.0000 30.2112 0.0000 22.0211
# 5 6.3906 -1.9914 9.0084 0.0000 18.8848 0.0000
# 6 0.0000 0.0000 0.0000 22.0211 0.0000 77.9941
#
#
#
# Elastic Compliance Matrix: (Units=1/GPa)
#
#
# Indices 1 2 3 4 5 6 
#
# 1 0.014746 -0.002431 -0.004576 0.000000 -0.003064 0.000000
# 2 -0.002431 0.010859 -0.005145 0.000000 0.004422 0.000000
# 3 -0.004576 -0.005145 0.037137 0.000000 -0.016709 0.000000
# 4 0.000000 0.000000 0.000000 0.041678 0.000000 -0.011767
# 5 -0.003064 0.004422 -0.016709 0.000000 0.062426 0.000000
# 6 0.000000 0.000000 0.000000 -0.011767 0.000000 0.016144
#
#
# Mechanical properties :
#
#
# Convention : Reuss Voigt Hill
#
# Bulk Modulus (GPa) = 26.01415 36.28340 31.14877
# Shear Modulus (GPa) = 22.71623 36.37403 29.54513
#
# Velocity S-wave (km/s) = 3.26743 4.13460 3.72633
# Velocity P-wave (km/s) = 5.14401 6.31234 5.75789
#
# Compressibility (1/GPa) = 0.03844062
#
# Stress axis : x y z
#
# Youngs Moduli (GPa) = 67.81382 92.08544 26.92705
#
# Poissons Ratio (x) = 0.22381 0.12321
# Poissons Ratio (y) = 0.16482 0.13855
# Poissons Ratio (z) = 0.31028 0.47380
#
# Static dielectric constant tensor:
#      x y z
#    x 1.777750 0.000000 0.003610 
#    y 0.000000 1.828240 0.000000 
#    z 0.003610 0.000000 1.819730 
# 
# From -- ./inp_files/71051.got.cif
#   From: 2010.05.17/outbox.cif.g08.bks.cpg/sg13_36_cif.got.tgz:71051.got - 2010.06.03 16:44:36.
