data_PCOD9227389
_publ_section_title
;
Structure prediction by ZEFSAII (Michael W. Deem and Ramdas Pophale) SiO2 
 PCOD9227389
Probable space group: P 2/C
;
_chemical_formula_sum "Si O2"
_cell_formula_units_Z 32
_cell_length_a 13.805099
_cell_length_b 18.836563
_cell_length_c 13.718011
_cell_angle_alpha 90.000000
_cell_angle_beta 31.791716
_cell_angle_gamma 90.000000
_cell_volume 1879.339453
_symmetry_space_group_name_H-M "P 2/C"
_symmetry_group_IT_number 13
_symmetry_cell_setting 'monoclinic'
loop_
_space_group_symop_operation_xyz
x,y,z
-x,y,1/2-z
-x,-y,-z
x,-y,1/2+z
loop_
_atom_site_type_symbol
_atom_site_label
_atom_site_fract_x
_atom_site_fract_y
_atom_site_fract_z
Si Si1 0.108915 0.473651 0.755955
Si Si2 0.957262 0.260971 0.960657
Si Si3 0.720856 0.006329 0.825668
Si Si4 0.123395 0.599206 0.873575
Si Si5 0.477865 0.604695 0.881353
Si Si6 0.700853 0.086723 0.037224
Si Si7 0.047815 0.900082 0.987987
Si Si8 0.280589 0.252185 0.528953
O O1 0.104552 0.556512 0.789353
O O2 0.308607 0.438648 0.572056
O O3 0.000000 0.459857 0.750000
O O4 0.003783 0.436158 0.934625
O O5 0.955420 0.184147 0.010676
O O6 0.805278 0.269248 0.004296
O O7 0.138864 0.265118 0.738343
O O8 0.929816 0.319033 0.067335
O O9 0.844249 0.065038 0.661141
O O10 0.822893 0.934832 0.704598
O O11 0.747464 0.031501 0.913307
O O12 0.500000 0.000000 0.000000
O O13 0.334320 0.590350 0.724210
O O14 0.500000 0.582402 0.750000
O O15 0.435251 0.689345 0.916437
O O16 0.500000 0.069725 0.250000
O O17 0.850934 0.084563 0.994626
O O18 0.685249 0.167388 0.007101
#
# Coordination Sequence:
#
# PCOD9227389 Si02
#       8
#     4   4   4   4   4   4   4   4
#     4  11  22  39  54  79 112 149 191 228 269 325
#     4  10  18  35  53  81 111 143 175 219 278 331
#     4  11  21  35  52  80 109 144 181 217 263 325
#     4  11  23  35  58  82 111 148 185 228 280 327
#     4  12  20  33  55  85 118 144 174 226 285 332
#     4  11  20  34  54  84 114 145 175 219 280 339
#     4  10  22  36  55  77 114 144 179 226 274 329
#     4  10  19  30  54  84 117 138 169 218 279 342
#
# _framework density 17.027259000000001
#
# number of rings (size 3 to 8) (size 9 to 14) (size 15 to 20)
#    0.000    1.250    6.250    1.125    1.750    0.000 
#    0.000    0.000    0.000    3.000    0.000    0.000 
#    0.000    0.000    0.000    0.000    0.000    0.000 
#
# Total GULP energy -178375.978047 kJ/mol
# GULP energy per Si atom -5574.249314 kJ/mol
# Density = 1.698850 g / cm^3
# Si number density = 17.027259 Si / 1000 Ang^3
#
#
#
# Elastic Constant Matrix: (Units=GPa)
#
#
# Indices 1 2 3 4 5 6 
#
# 1 12.7773 13.7124 19.5400 0.0000 1.8362 0.0000
# 2 13.7124 88.4881 44.5436 0.0000 6.1218 0.0000
# 3 19.5400 44.5436 135.6532 0.0000 -8.4575 0.0000
# 4 0.0000 0.0000 0.0000 39.8570 0.0000 7.9837
# 5 1.8362 6.1218 -8.4575 0.0000 20.9461 0.0000
# 6 0.0000 0.0000 0.0000 7.9837 0.0000 27.5296
#
#
#
# Elastic Compliance Matrix: (Units=1/GPa)
#
#
# Indices 1 2 3 4 5 6 
#
# 1 0.111144 -0.009473 -0.013678 0.000000 -0.012497 0.000000
# 2 -0.009473 0.015097 -0.003914 0.000000 -0.005162 0.000000
# 3 -0.013678 -0.003914 0.011052 0.000000 0.006805 0.000000
# 4 0.000000 0.000000 0.000000 0.026637 0.000000 -0.007725
# 5 -0.012497 -0.005162 0.006805 0.000000 0.053094 0.000000
# 6 0.000000 0.000000 0.000000 -0.007725 0.000000 0.038565
#
#
# Mechanical properties :
#
#
# Convention : Reuss Voigt Hill
#
# Bulk Modulus (GPa) = 12.02489 43.61230 27.81860
# Shear Modulus (GPa) = 14.81744 28.27472 21.54608
#
# Velocity S-wave (km/s) = 2.95315 4.07941 3.56109
# Velocity P-wave (km/s) = 4.32499 6.91792 5.76902
#
# Compressibility (1/GPa) = 0.08316082
#
# Stress axis : x y z
#
# Youngs Moduli (GPa) = 8.99730 66.24020 90.48420
#
# Poissons Ratio (x) = 0.62751 1.23766
# Poissons Ratio (y) = 0.08523 0.35420
# Poissons Ratio (z) = 0.12307 0.25929
#
# Static dielectric constant tensor:
#      x y z
#    x 1.540620 0.000000 0.009430 
#    y 0.000000 1.607060 0.000000 
#    z 0.009430 0.000000 1.549800 
# 
# From -- ./inp_files/53926.got.cif
#   From: 2010.05.17/outbox.cif.g08.bks.cpg/sg13_27_cif.got.tgz:53926.got - 2010.06.03 16:44:36.
