data_PCOD9227328
_publ_section_title
;
Structure prediction by ZEFSAII (Michael W. Deem and Ramdas Pophale) SiO2 
 PCOD9227328
Probable space group: P 2/C
;
_chemical_formula_sum "Si O2"
_cell_formula_units_Z 28
_cell_length_a 11.606588
_cell_length_b 6.188672
_cell_length_c 22.063469
_cell_angle_alpha 90.000000
_cell_angle_beta 47.164077
_cell_angle_gamma 90.000000
_cell_volume 1162.143410
_symmetry_space_group_name_H-M "P 2/C"
_symmetry_group_IT_number 13
_symmetry_cell_setting 'monoclinic'
loop_
_space_group_symop_operation_xyz
x,y,z
-x,y,1/2-z
-x,-y,-z
x,-y,1/2+z
loop_
_atom_site_type_symbol
_atom_site_label
_atom_site_fract_x
_atom_site_fract_y
_atom_site_fract_z
Si Si1 0.789211 0.202884 0.110493
Si Si2 0.371284 0.180644 0.888912
Si Si3 0.044602 0.206019 0.330945
Si Si4 0.000000 0.434339 0.750000
Si Si5 0.216137 0.130045 0.615997
Si Si6 0.328589 0.425803 0.467256
Si Si7 0.618814 0.150514 0.353978
Si Si8 0.500000 0.473379 0.250000
O O1 0.933099 0.229029 0.104829
O O2 0.775248 0.326868 0.051346
O O3 0.646853 0.312398 0.199434
O O4 0.754002 0.953725 0.105939
O O5 0.308469 0.316901 0.968746
O O6 0.455419 0.362401 0.818963
O O7 0.499198 0.007700 0.862713
O O8 0.215518 0.166297 0.239229
O O9 0.990124 0.416377 0.312989
O O10 0.929734 0.008650 0.357065
O O11 0.150876 0.279430 0.693931
O O12 0.278665 0.293314 0.543607
O O13 0.340158 0.959506 0.596932
O O14 0.514889 0.366308 0.395730
#
# Coordination Sequence:
#
# PCOD9227328 Si02
#       8
#     4   4   4   2   4   4   4   2
#     4  10  22  39  65  95 132 174 216 275 335 391
#     4  10  21  38  64 100 131 165 223 269 339 393
#     4  12  24  45  69  95 135 173 227 279 329 393
#     4  12  26  44  66  98 128 184 226 276 334 396
#     4  12  26  45  65  98 137 176 227 270 331 402
#     4  10  25  43  66 101 135 174 217 274 340 398
#     4  11  22  42  69 100 131 174 218 282 331 385
#     4  10  18  34  60 100 130 166 212 276 326 390
#
# _framework density 24.093411
#
# number of rings (size 3 to 8) (size 9 to 14) (size 15 to 20)
#    0.000    1.143    2.857    4.286    4.000    5.714 
#    0.000    1.429    0.000    0.000    0.000    0.000 
#    0.000    0.000    0.000    0.000    0.000    0.000 
#
# Total GULP energy -156540.269864 kJ/mol
# GULP energy per Si atom -5590.723924 kJ/mol
# Density = 2.403857 g / cm^3
# Si number density = 24.093411 Si / 1000 Ang^3
#
#
#
# Elastic Constant Matrix: (Units=GPa)
#
#
# Indices 1 2 3 4 5 6 
#
# 1 90.1244 16.9660 3.0309 0.0000 8.7840 0.0000
# 2 16.9660 80.6335 0.3560 0.0000 -5.7408 0.0000
# 3 3.0309 0.3560 37.5474 0.0000 1.5010 0.0000
# 4 0.0000 0.0000 0.0000 31.2480 0.0000 -4.8940
# 5 8.7840 -5.7408 1.5010 0.0000 32.4870 0.0000
# 6 0.0000 0.0000 0.0000 -4.8940 0.0000 3.3026
#
#
#
# Elastic Compliance Matrix: (Units=1/GPa)
#
#
# Indices 1 2 3 4 5 6 
#
# 1 0.012008 -0.002787 -0.000795 0.000000 -0.003702 0.000000
# 2 -0.002787 0.013208 -0.000024 0.000000 0.003089 0.000000
# 3 -0.000795 -0.000024 0.026738 0.000000 -0.001025 0.000000
# 4 0.000000 0.000000 0.000000 0.041675 0.000000 0.061757
# 5 -0.003702 0.003089 -0.001025 0.000000 0.032376 0.000000
# 6 0.000000 0.000000 0.000000 0.061757 0.000000 0.394315
#
#
# Mechanical properties :
#
#
# Convention : Reuss Voigt Hill
#
# Bulk Modulus (GPa) = 22.34943 27.66789 25.00866
# Shear Modulus (GPa) = 9.21753 25.93767 17.57760
#
# Velocity S-wave (km/s) = 1.95807 3.28464 2.70397
# Velocity P-wave (km/s) = 3.79584 5.08858 4.48899
#
# Compressibility (1/GPa) = 0.04474388
#
# Stress axis : x y z
#
# Youngs Moduli (GPa) = 83.27809 75.71091 37.39945
#
# Poissons Ratio (x) = 0.21098 0.02973
# Poissons Ratio (y) = 0.23207 0.00089
# Poissons Ratio (z) = 0.06619 0.00180
#
# Static dielectric constant tensor:
#      x y z
#    x 1.904790 0.000000 0.001950 
#    y 0.000000 1.908530 0.000000 
#    z 0.001950 0.000000 2.043310 
# 
# From -- ./inp_files/77285.got.cif
#   From: 2010.05.17/outbox.cif.g08.bks.cpg/sg13_39_cif.got.tgz:77285.got - 2010.06.03 16:44:36.
