data_PCOD9227900
_publ_section_title
;
Structure prediction by ZEFSAII (Michael W. Deem and Ramdas Pophale) SiO2 
 PCOD9227900
Probable space group: P 2/C
;
_chemical_formula_sum "Si O2"
_cell_formula_units_Z 32
_cell_length_a 11.687557
_cell_length_b 18.422489
_cell_length_c 11.502428
_cell_angle_alpha 90.000000
_cell_angle_beta 136.416170
_cell_angle_gamma 90.000000
_cell_volume 1707.427957
_symmetry_space_group_name_H-M "P 2/C"
_symmetry_group_IT_number 13
_symmetry_cell_setting 'monoclinic'
loop_
_space_group_symop_operation_xyz
x,y,z
-x,y,1/2-z
-x,-y,-z
x,-y,1/2+z
loop_
_atom_site_type_symbol
_atom_site_label
_atom_site_fract_x
_atom_site_fract_y
_atom_site_fract_z
Si Si1 0.471807 0.774431 0.035879
Si Si2 0.858862 0.046428 0.554228
Si Si3 0.849956 0.396299 0.056226
Si Si4 0.222593 0.240899 0.558621
Si Si5 0.603092 0.073669 0.552780
Si Si6 0.431219 0.383114 0.457938
Si Si7 0.905883 0.094298 0.960493
Si Si8 0.642354 0.490794 0.755485
O O1 0.627400 0.759725 0.237456
O O2 0.310161 0.776538 0.999713
O O3 0.501969 0.851527 0.996447
O O4 0.463844 0.700848 0.953921
O O5 0.687226 0.068107 0.487369
O O6 0.000000 0.068655 0.750000
O O7 0.920900 0.078172 0.477003
O O8 0.872188 0.960540 0.541205
O O9 0.689484 0.383950 0.019690
O O10 0.000000 0.413927 0.250000
O O11 0.868098 0.318061 0.009712
O O12 0.805753 0.459962 0.935692
O O13 0.102891 0.176073 0.504730
O O14 0.754202 0.078719 0.758256
O O15 0.500000 0.000000 0.500000
O O16 0.587068 0.430951 0.618145
O O17 0.348509 0.431137 0.297103
O O18 0.500000 0.494595 0.750000
#
# Coordination Sequence:
#
# PCOD9227900 Si02
#       8
#     4   4   4   4   4   4   4   4
#     4   9  16  29  51  74  98 128 172 224 263 306
#     4   9  18  32  47  70  99 137 183 209 257 316
#     4  10  19  30  49  81 109 131 163 219 266 309
#     4   9  16  29  48  73 100 128 171 215 266 314
#     4  10  19  30  50  77 103 133 176 225 266 304
#     4   9  17  32  54  76  99 136 176 211 257 314
#     4   9  18  32  51  69  98 142 175 214 259 320
#     4   9  17  32  55  77 100 135 175 209 252 320
#
# _framework density 18.74164
#
# number of rings (size 3 to 8) (size 9 to 14) (size 15 to 20)
#    0.000    2.750    1.250    0.750    0.000    2.500 
#    0.000    3.750    5.500    0.000    0.000    0.000 
#    0.000    0.000    0.000    0.000    0.000    0.000 
#
# Total GULP energy -178288.833169 kJ/mol
# GULP energy per Si atom -5571.526037 kJ/mol
# Density = 1.869898 g / cm^3
# Si number density = 18.741640 Si / 1000 Ang^3
#
#
#
# Elastic Constant Matrix: (Units=GPa)
#
#
# Indices 1 2 3 4 5 6 
#
# 1 47.9359 50.6335 5.2293 0.0000 -7.8408 0.0000
# 2 50.6335 177.2155 42.5372 0.0000 -9.3129 0.0000
# 3 5.2293 42.5372 43.7917 0.0000 -1.7810 0.0000
# 4 0.0000 0.0000 0.0000 35.9161 0.0000 -17.2829
# 5 -7.8408 -9.3129 -1.7810 0.0000 13.5718 0.0000
# 6 0.0000 0.0000 0.0000 -17.2829 0.0000 35.6328
#
#
#
# Elastic Compliance Matrix: (Units=1/GPa)
#
#
# Indices 1 2 3 4 5 6 
#
# 1 0.033264 -0.010428 0.006684 0.000000 0.012938 0.000000
# 2 -0.010428 0.010866 -0.009301 0.000000 0.000211 0.000000
# 3 0.006684 -0.009301 0.031135 0.000000 0.001565 0.000000
# 4 0.000000 0.000000 0.000000 0.036320 0.000000 0.017616
# 5 0.012938 0.000211 0.001565 0.000000 0.081507 0.000000
# 6 0.000000 0.000000 0.000000 0.017616 0.000000 0.036608
#
#
# Mechanical properties :
#
#
# Convention : Reuss Voigt Hill
#
# Bulk Modulus (GPa) = 20.33598 51.74923 36.04260
# Shear Modulus (GPa) = 18.37005 28.39367 23.38186
#
# Velocity S-wave (km/s) = 3.13417 3.89653 3.53595
# Velocity P-wave (km/s) = 4.89608 6.92212 5.99530
#
# Compressibility (1/GPa) = 0.04917393
#
# Stress axis : x y z
#
# Youngs Moduli (GPa) = 30.06292 92.03031 32.11788
#
# Poissons Ratio (x) = 0.95972 -0.21467
# Poissons Ratio (y) = 0.31351 0.29872
# Poissons Ratio (z) = -0.20093 0.85596
#
# Static dielectric constant tensor:
#      x y z
#    x 1.655990 0.000000 0.001650 
#    y 0.000000 1.651470 0.000000 
#    z 0.001650 0.000000 1.683800 
# 
# From -- ./inp_files/34714.got.cif
#   From: 2010.05.17/outbox.cif.g08.bks.cpg/sg13_18_cif.got.tgz:34714.got - 2010.06.03 16:44:36.
