data_PCOD9227047
_publ_section_title
;
Structure prediction by ZEFSAII (Michael W. Deem and Ramdas Pophale) SiO2 
 PCOD9227047
Probable space group: P 2/C
;
_chemical_formula_sum "Si O2"
_cell_formula_units_Z 32
_cell_length_a 12.970963
_cell_length_b 7.896624
_cell_length_c 13.756370
_cell_angle_alpha 90.000000
_cell_angle_beta 114.259392
_cell_angle_gamma 90.000000
_cell_volume 1284.597171
_symmetry_space_group_name_H-M "P 2/C"
_symmetry_group_IT_number 13
_symmetry_cell_setting 'monoclinic'
loop_
_space_group_symop_operation_xyz
x,y,z
-x,y,1/2-z
-x,-y,-z
x,-y,1/2+z
loop_
_atom_site_type_symbol
_atom_site_label
_atom_site_fract_x
_atom_site_fract_y
_atom_site_fract_z
Si Si1 0.835383 0.384536 0.927752
Si Si2 0.748363 0.942713 0.121055
Si Si3 0.708383 0.293535 0.453054
Si Si4 0.505727 0.474450 0.647191
Si Si5 0.964715 0.154706 0.127812
Si Si6 0.201408 0.077225 0.168234
Si Si7 0.234334 0.558797 0.781948
Si Si8 0.330572 0.736594 0.995221
O O1 0.801048 0.570064 0.955006
O O2 0.838334 0.424540 0.812087
O O3 0.931758 0.291763 0.030447
O O4 0.727515 0.271596 0.921103
O O5 0.864635 0.025226 0.121758
O O6 0.747610 0.946506 0.236374
O O7 0.659768 0.082075 0.049281
O O8 0.725878 0.758792 0.070729
O O9 0.584958 0.370157 0.384908
O O10 0.735278 0.119939 0.405930
O O11 0.500000 0.388923 0.750000
O O12 0.634284 0.521189 0.685260
O O13 0.451055 0.352116 0.546939
O O14 0.000000 0.227370 0.250000
O O15 0.067303 0.048767 0.119618
O O16 0.210150 0.259265 0.224579
O O17 0.242744 0.619890 0.897715
#
# Coordination Sequence:
#
# PCOD9227047 Si02
#       8
#     4   4   4   4   4   4   4   4
#     4   9  18  34  56  81 110 135 181 223 267 318
#     4   9  19  36  53  76 109 143 181 218 265 325
#     4  10  20  34  56  77 108 145 179 223 271 317
#     4  11  18  35  57  77 109 141 178 225 276 315
#     4   9  18  35  58  81 110 144 175 224 274 322
#     4   9  18  34  56  77 106 147 180 215 281 326
#     4  10  18  32  57  79 107 145 175 217 275 325
#     4   9  18  33  55  78 106 142 180 218 267 326
#
# _framework density 24.910533000000001
#
# number of rings (size 3 to 8) (size 9 to 14) (size 15 to 20)
#    0.000    2.500    3.750    1.125    0.000    2.500 
#    0.000   10.000    0.000    0.000    0.000    0.000 
#    0.000    0.000    0.000    0.000    0.000    0.000 
#
# Total GULP energy -178268.226057 kJ/mol
# GULP energy per Si atom -5570.882064 kJ/mol
# Density = 2.485384 g / cm^3
# Si number density = 24.910533 Si / 1000 Ang^3
#
#
#
# Elastic Constant Matrix: (Units=GPa)
#
#
# Indices 1 2 3 4 5 6 
#
# 1 44.8605 -9.1077 12.4449 0.0000 2.8872 0.0000
# 2 -9.1077 86.4662 32.5546 0.0000 0.1886 0.0000
# 3 12.4449 32.5546 134.6949 0.0000 -0.7103 0.0000
# 4 0.0000 0.0000 0.0000 49.4761 0.0000 -4.7627
# 5 2.8872 0.1886 -0.7103 0.0000 34.4049 0.0000
# 6 0.0000 0.0000 0.0000 -4.7627 0.0000 -15.0709
#
#
#
# Elastic Compliance Matrix: (Units=1/GPa)
#
#
# Indices 1 2 3 4 5 6 
#
# 1 0.024050 0.003717 -0.003131 0.000000 -0.002103 0.000000
# 2 0.003717 0.013298 -0.003560 0.000000 -0.000458 0.000000
# 3 -0.003131 -0.003560 0.008576 0.000000 0.000459 0.000000
# 4 0.000000 0.000000 0.000000 0.019615 0.000000 -0.006199
# 5 -0.002103 -0.000458 0.000459 0.000000 0.029254 0.000000
# 6 0.000000 0.000000 0.000000 -0.006199 0.000000 -0.064394
#
#
# Mechanical properties :
#
#
# Convention : Reuss Voigt Hill
#
# Bulk Modulus (GPa) = 25.01542 37.53390 31.27466
# Shear Modulus (GPa) = 100.65724 29.10401 64.88062
#
# Velocity S-wave (km/s) = 6.36359 3.42181 5.10901
# Velocity P-wave (km/s) = 8.00360 5.54183 6.88366
#
# Compressibility (1/GPa) = 0.03997535
#
# Stress axis : x y z
#
# Youngs Moduli (GPa) = 41.58009 75.19928 116.60022
#
# Poissons Ratio (x) = -0.27950 0.36513
# Poissons Ratio (y) = -0.15455 0.41508
# Poissons Ratio (z) = 0.13021 0.26770
#
# Static dielectric constant tensor:
#      x y z
#    x 2.028790 0.000000 -0.055460 
#    y 0.000000 2.000540 0.000000 
#    z -0.055460 0.000000 2.137050 
# 
# From -- ./inp_files/53068.got.cif
#   From: 2010.05.17/outbox.cif.g08.bks.cpg/sg13_27_cif.got.tgz:53068.got - 2010.06.03 16:44:36.
