data_PCOD9227123
_publ_section_title
;
Structure prediction by ZEFSAII (Michael W. Deem and Ramdas Pophale) SiO2 
 PCOD9227123
Probable space group: P 2/C
;
_chemical_formula_sum "Si O2"
_cell_formula_units_Z 22
_cell_length_a 7.302608
_cell_length_b 13.512424
_cell_length_c 14.817655
_cell_angle_alpha 90.000000
_cell_angle_beta 140.982306
_cell_angle_gamma 90.000000
_cell_volume 920.509141
_symmetry_space_group_name_H-M "P 2/C"
_symmetry_group_IT_number 13
_symmetry_cell_setting 'monoclinic'
loop_
_space_group_symop_operation_xyz
x,y,z
-x,y,1/2-z
-x,-y,-z
x,-y,1/2+z
loop_
_atom_site_type_symbol
_atom_site_label
_atom_site_fract_x
_atom_site_fract_y
_atom_site_fract_z
Si Si1 0.909883 0.655200 0.368848
Si Si2 0.000000 0.525255 0.250000
Si Si3 0.846677 0.875963 0.292415
Si Si4 0.000000 0.192754 0.250000
Si Si5 0.718406 0.958316 0.507510
Si Si6 0.500000 0.506385 0.250000
Si Si7 0.595733 0.372480 0.125669
O O1 0.817031 0.602277 0.240088
O O2 0.843686 0.770063 0.339696
O O3 0.746224 0.585105 0.377314
O O4 0.252469 0.638375 0.494784
O O5 0.764861 0.445692 0.121730
O O6 0.000000 0.864392 0.250000
O O7 0.517716 0.915970 0.152968
O O8 0.055603 0.952946 0.425190
O O9 0.907176 0.125812 0.129828
O O10 0.735170 0.265071 0.172416
O O11 0.500000 0.000000 0.500000
O O12 0.652722 0.430313 0.240507
#
# Coordination Sequence:
#
# PCOD9227123 Si02
#       7
#     4   2   4   2   4   2   4
#     4  11  20  37  60  83 118 157 200 242 300 351
#     4   9  20  33  54  90 110 147 198 257 288 350
#     4  10  19  32  58  87 120 148 188 244 307 353
#     4  11  20  33  62  92 120 153 198 243 300 356
#     4  10  18  33  53  92 123 147 185 250 303 354
#     4  10  24  42  54  84 118 166 202 246 286 354
#     4  10  21  37  57  83 119 157 201 243 297 345
#
# _framework density 23.899818
#
# number of rings (size 3 to 8) (size 9 to 14) (size 15 to 20)
#    0.000    1.818    3.636    3.273    0.000    0.000 
#    9.818    0.000    0.000    2.182    0.000    0.000 
#    0.000    0.000    0.000    0.000    0.000    0.000 
#
# Total GULP energy -122642.436914 kJ/mol
# GULP energy per Si atom -5574.656223 kJ/mol
# Density = 2.384542 g / cm^3
# Si number density = 23.899818 Si / 1000 Ang^3
#
#
#
# Elastic Constant Matrix: (Units=GPa)
#
#
# Indices 1 2 3 4 5 6 
#
# 1 66.7467 16.6604 11.6427 0.0000 14.0038 0.0000
# 2 16.6604 169.7137 40.8614 0.0000 12.2141 0.0000
# 3 11.6427 40.8614 106.8975 0.0000 34.6534 0.0000
# 4 0.0000 0.0000 0.0000 36.0102 0.0000 19.5076
# 5 14.0038 12.2141 34.6534 0.0000 35.5482 0.0000
# 6 0.0000 0.0000 0.0000 19.5076 0.0000 28.7267
#
#
#
# Elastic Compliance Matrix: (Units=1/GPa)
#
#
# Indices 1 2 3 4 5 6 
#
# 1 0.016629 -0.001365 0.000997 0.000000 -0.007054 0.000000
# 2 -0.001365 0.006603 -0.002652 0.000000 0.000855 0.000000
# 3 0.000997 -0.002652 0.014755 0.000000 -0.013865 0.000000
# 4 0.000000 0.000000 0.000000 0.043931 0.000000 -0.029832
# 5 -0.007054 0.000855 -0.013865 0.000000 0.044132 0.000000
# 6 0.000000 0.000000 0.000000 -0.029832 0.000000 0.055069
#
#
# Mechanical properties :
#
#
# Convention : Reuss Voigt Hill
#
# Bulk Modulus (GPa) = 31.30222 53.52079 42.41151
# Shear Modulus (GPa) = 25.27709 38.33658 31.80683
#
# Velocity S-wave (km/s) = 3.25565 4.00941 3.65203
# Velocity P-wave (km/s) = 5.22092 6.62391 5.96382
#
# Compressibility (1/GPa) = 0.03194662
#
# Stress axis : x y z
#
# Youngs Moduli (GPa) = 60.13706 151.43728 67.77530
#
# Poissons Ratio (x) = 0.20669 -0.06759
# Poissons Ratio (y) = 0.08208 0.17977
# Poissons Ratio (z) = -0.05997 0.40169
#
# Static dielectric constant tensor:
#      x y z
#    x 2.207160 0.000000 0.013470 
#    y 0.000000 1.855930 0.000000 
#    z 0.013470 0.000000 1.956420 
# 
# From -- ./inp_files/64708.got.cif
#   From: 2010.05.17/outbox.cif.g08.bks.cpg/sg13_33_cif.got.tgz:64708.got - 2010.06.03 16:44:36.
