data_PCOD9227699
_publ_section_title
;
Structure prediction by ZEFSAII (Michael W. Deem and Ramdas Pophale) SiO2 
 PCOD9227699
Probable space group: P 2/C
;
_chemical_formula_sum "Si O2"
_cell_formula_units_Z 26
_cell_length_a 17.184002
_cell_length_b 11.657414
_cell_length_c 10.749004
_cell_angle_alpha 90.000000
_cell_angle_beta 31.545649
_cell_angle_gamma 90.000000
_cell_volume 1126.533210
_symmetry_space_group_name_H-M "P 2/C"
_symmetry_group_IT_number 13
_symmetry_cell_setting 'monoclinic'
loop_
_space_group_symop_operation_xyz
x,y,z
-x,y,1/2-z
-x,-y,-z
x,-y,1/2+z
loop_
_atom_site_type_symbol
_atom_site_label
_atom_site_fract_x
_atom_site_fract_y
_atom_site_fract_z
Si Si1 0.500000 0.575469 0.250000
Si Si2 0.939966 0.374580 0.602437
Si Si3 0.337006 0.232620 0.117265
Si Si4 0.500000 0.955072 0.250000
Si Si5 0.041318 0.841541 0.875713
Si Si6 0.000000 0.764623 0.250000
Si Si7 0.814890 0.949086 0.376628
Si Si8 0.375469 0.646070 0.831457
O O1 0.375534 0.659223 0.475002
O O2 0.567166 0.485952 0.259203
O O3 0.000000 0.500000 0.500000
O O4 0.977805 0.285554 0.440115
O O5 0.027264 0.321160 0.600590
O O6 0.772275 0.365051 0.881886
O O7 0.185609 0.174928 0.269996
O O8 0.133330 0.149026 0.600345
O O9 0.455932 0.131380 0.923415
O O10 0.357653 0.031423 0.409245
O O11 0.115206 0.928885 0.679194
O O12 0.904590 0.905962 0.131533
O O13 0.643028 0.711292 0.773293
O O14 0.500000 0.702810 0.750000
#
# Coordination Sequence:
#
# PCOD9227699 Si02
#       8
#     2   4   4   2   4   2   4   4
#     4   9  20  34  57  90 132 182 231 289 340 416
#     4  11  22  41  65  95 133 180 231 275 345 417
#     4  10  18  38  62  93 135 182 228 284 352 403
#     4   9  20  36  69 104 134 174 229 289 340 422
#     4   9  19  36  68  87 131 180 223 282 329 417
#     4  10  22  42  68  96 134 176 216 294 346 398
#     4   9  18  39  64 102 128 173 228 275 353 389
#     4  10  22  35  56  94 133 180 225 286 343 410
#
# _framework density 23.079657000000001
#
# number of rings (size 3 to 8) (size 9 to 14) (size 15 to 20)
#    0.462    1.846    0.000    3.231    0.000    0.000 
#    8.308    0.769    0.000   12.000    0.000    0.000 
#    0.000    0.000    0.000    0.000    0.000    0.000 
#
# Total GULP energy -144782.917916 kJ/mol
# GULP energy per Si atom -5568.573766 kJ/mol
# Density = 2.302713 g / cm^3
# Si number density = 23.079657 Si / 1000 Ang^3
#
#
#
# Elastic Constant Matrix: (Units=GPa)
#
#
# Indices 1 2 3 4 5 6 
#
# 1 109.9616 55.7257 56.3994 0.0000 -16.1483 0.0000
# 2 55.7257 190.4673 62.9371 0.0000 -13.1133 0.0000
# 3 56.3994 62.9371 114.4692 0.0000 -28.2583 0.0000
# 4 0.0000 0.0000 0.0000 40.4258 0.0000 -7.5113
# 5 -16.1483 -13.1133 -28.2583 0.0000 32.1383 0.0000
# 6 0.0000 0.0000 0.0000 -7.5113 0.0000 25.7380
#
#
#
# Elastic Compliance Matrix: (Units=1/GPa)
#
#
# Indices 1 2 3 4 5 6 
#
# 1 0.012823 -0.002054 -0.004860 0.000000 0.001332 0.000000
# 2 -0.002054 0.006755 -0.002907 0.000000 -0.000832 0.000000
# 3 -0.004860 -0.002907 0.015114 0.000000 0.009661 0.000000
# 4 0.000000 0.000000 0.000000 0.026155 0.000000 0.007633
# 5 0.001332 -0.000832 0.009661 0.000000 0.039940 0.000000
# 6 0.000000 0.000000 0.000000 0.007633 0.000000 0.041081
#
#
# Mechanical properties :
#
#
# Convention : Reuss Voigt Hill
#
# Bulk Modulus (GPa) = 66.44816 85.00249 75.72533
# Shear Modulus (GPa) = 30.02536 35.64948 32.83742
#
# Velocity S-wave (km/s) = 3.61077 3.93444 3.77608
# Velocity P-wave (km/s) = 6.79977 7.58616 7.20370
#
# Compressibility (1/GPa) = 0.01504932
#
# Stress axis : x y z
#
# Youngs Moduli (GPa) = 77.98290 148.04816 66.16472
#
# Poissons Ratio (x) = 0.30412 0.32155
# Poissons Ratio (y) = 0.16019 0.19235
# Poissons Ratio (z) = 0.37899 0.43039
#
# Static dielectric constant tensor:
#      x y z
#    x 1.930810 0.000000 0.035250 
#    y 0.000000 1.900830 0.000000 
#    z 0.035250 0.000000 2.089010 
# 
# From -- ./inp_files/59585.got.cif
#   From: 2010.05.17/outbox.cif.g08.bks.cpg/sg13_30_cif.got.tgz:59585.got - 2010.06.03 16:44:36.
