data_PCOD9227138
_publ_section_title
;
Structure prediction by ZEFSAII (Michael W. Deem and Ramdas Pophale) SiO2 
 PCOD9227138
Probable space group: P 2/C
;
_chemical_formula_sum "Si O2"
_cell_formula_units_Z 32
_cell_length_a 15.249687
_cell_length_b 9.867294
_cell_length_c 24.604458
_cell_angle_alpha 90.000000
_cell_angle_beta 29.050096
_cell_angle_gamma 90.000000
_cell_volume 1797.746117
_symmetry_space_group_name_H-M "P 2/C"
_symmetry_group_IT_number 13
_symmetry_cell_setting 'monoclinic'
loop_
_space_group_symop_operation_xyz
x,y,z
-x,y,1/2-z
-x,-y,-z
x,-y,1/2+z
loop_
_atom_site_type_symbol
_atom_site_label
_atom_site_fract_x
_atom_site_fract_y
_atom_site_fract_z
Si Si1 0.957871 0.417804 0.214876
Si Si2 0.452202 0.607091 0.900811
Si Si3 0.558310 0.344299 0.456999
Si Si4 0.667632 0.699720 0.011804
Si Si5 0.662551 0.114825 0.618718
Si Si6 0.851139 0.502347 0.660188
Si Si7 0.682649 0.803535 0.615693
Si Si8 0.955355 0.286731 0.520742
O O1 0.767898 0.343997 0.326581
O O2 0.925759 0.514526 0.180843
O O3 0.000000 0.487394 0.250000
O O4 0.118120 0.311642 0.116552
O O5 0.454407 0.686095 0.957479
O O6 0.376053 0.456144 0.949568
O O7 0.657708 0.577163 0.769508
O O8 0.340581 0.692362 0.918345
O O9 0.500000 0.500000 0.500000
O O10 0.555673 0.270890 0.516858
O O11 0.628931 0.798103 0.082639
O O12 0.500000 0.126779 0.750000
O O13 0.835855 0.175530 0.555676
O O14 0.689968 0.957139 0.590491
O O15 0.987924 0.601338 0.554560
O O16 0.846728 0.365837 0.627196
O O17 0.500000 0.793199 0.750000
O O18 0.860720 0.771659 0.553831
#
# Coordination Sequence:
#
# PCOD9227138 Si02
#       8
#     4   4   4   4   4   4   4   4
#     4   9  16  29  50  79 109 137 174 222 276 331
#     4  10  19  34  56  81 113 139 183 231 279 332
#     4   8  17  31  52  83 110 137 174 228 286 326
#     4  10  18  33  55  80 108 142 185 230 275 329
#     4  11  24  38  54  78 111 154 192 227 282 331
#     4  10  19  31  54  85 105 137 182 231 276 320
#     4  11  23  37  53  78 113 154 187 228 279 333
#     4  11  21  36  53  79 114 143 185 229 276 325
#
# _framework density 17.800066000000001
#
# number of rings (size 3 to 8) (size 9 to 14) (size 15 to 20)
#    0.000    2.000    2.500    1.875    1.750    0.500 
#    0.000    0.625    0.000    0.000    0.000   40.250 
#    0.000    0.000    0.000    0.000    0.000    0.000 
#
# Total GULP energy -178300.208003 kJ/mol
# GULP energy per Si atom -5571.881500 kJ/mol
# Density = 1.775955 g / cm^3
# Si number density = 17.800066 Si / 1000 Ang^3
#
#
#
# Elastic Constant Matrix: (Units=GPa)
#
#
# Indices 1 2 3 4 5 6 
#
# 1 116.4296 39.0762 19.8833 0.0000 18.2196 0.0000
# 2 39.0762 62.7987 14.3684 0.0000 13.2305 0.0000
# 3 19.8833 14.3684 48.4830 0.0000 6.8253 0.0000
# 4 0.0000 0.0000 0.0000 13.4479 0.0000 -4.2393
# 5 18.2196 13.2305 6.8253 0.0000 29.6818 0.0000
# 6 0.0000 0.0000 0.0000 -4.2393 0.0000 3.2249
#
#
#
# Elastic Compliance Matrix: (Units=1/GPa)
#
#
# Indices 1 2 3 4 5 6 
#
# 1 0.011578 -0.005807 -0.002471 0.000000 -0.003950 0.000000
# 2 -0.005807 0.021374 -0.003218 0.000000 -0.005223 0.000000
# 3 -0.002471 -0.003218 0.022919 0.000000 -0.002319 0.000000
# 4 0.000000 0.000000 0.000000 0.126980 0.000000 0.166921
# 5 -0.003950 -0.005223 -0.002319 0.000000 0.038977 0.000000
# 6 0.000000 0.000000 0.000000 0.166921 0.000000 0.529513
#
#
# Mechanical properties :
#
#
# Convention : Reuss Voigt Hill
#
# Bulk Modulus (GPa) = 30.41374 41.59634 36.00504
# Shear Modulus (GPa) = 6.36706 19.56315 12.96511
#
# Velocity S-wave (km/s) = 1.89334 3.31879 2.70177
# Velocity P-wave (km/s) = 4.68007 6.17294 5.47760
#
# Compressibility (1/GPa) = 0.03287988
#
# Stress axis : x y z
#
# Youngs Moduli (GPa) = 86.37145 46.78666 43.63132
#
# Poissons Ratio (x) = 0.27167 0.10782
# Poissons Ratio (y) = 0.50152 0.14039
# Poissons Ratio (z) = 0.21345 0.15054
#
# Static dielectric constant tensor:
#      x y z
#    x 1.652250 0.000000 0.012240 
#    y 0.000000 1.544830 0.000000 
#    z 0.012240 0.000000 1.651380 
# 
# From -- ./inp_files/53054.got.cif
#   From: 2010.05.17/outbox.cif.g08.bks.cpg/sg13_27_cif.got.tgz:53054.got - 2010.06.03 16:44:36.
