data_PCOD9227197
_publ_section_title
;
Structure prediction by ZEFSAII (Michael W. Deem and Ramdas Pophale) SiO2 
 PCOD9227197
Probable space group: P 2/C
;
_chemical_formula_sum "Si O2"
_cell_formula_units_Z 24
_cell_length_a 10.316243
_cell_length_b 9.196533
_cell_length_c 13.244986
_cell_angle_alpha 90.000000
_cell_angle_beta 72.496136
_cell_angle_gamma 90.000000
_cell_volume 1198.415635
_symmetry_space_group_name_H-M "P 2/C"
_symmetry_group_IT_number 13
_symmetry_cell_setting 'monoclinic'
loop_
_space_group_symop_operation_xyz
x,y,z
-x,y,1/2-z
-x,-y,-z
x,-y,1/2+z
loop_
_atom_site_type_symbol
_atom_site_label
_atom_site_fract_x
_atom_site_fract_y
_atom_site_fract_z
Si Si1 0.640698 0.745827 0.096879
Si Si2 0.500165 0.185524 0.432995
Si Si3 0.407017 0.500291 0.653075
Si Si4 0.000000 0.367523 0.750000
Si Si5 0.228550 0.313967 0.552459
Si Si6 0.500000 0.969352 0.250000
Si Si7 0.183574 0.504140 0.375716
O O1 0.516901 0.628544 0.132918
O O2 0.777806 0.654249 0.075574
O O3 0.622304 0.861348 0.190807
O O4 0.605265 0.826481 0.000932
O O5 0.523857 0.347517 0.385056
O O6 0.343109 0.191963 0.506380
O O7 0.526380 0.070153 0.339858
O O8 0.309013 0.449552 0.585342
O O9 0.313682 0.519871 0.772657
O O10 0.115597 0.277978 0.663128
O O11 0.064071 0.465897 0.824312
O O12 0.170162 0.376228 0.460543
#
# Coordination Sequence:
#
# PCOD9227197 Si02
#       7
#     4   4   4   2   4   2   4
#     4  11  20  36  56  86 120 150 180 228 291 344
#     4  11  21  36  58  92 117 150 184 227 295 351
#     4  10  18  33  61  88 112 147 182 225 299 356
#     4  10  24  32  52  88 110 148 198 242 276 328
#     4  10  19  35  57  82 114 148 186 241 281 334
#     4  12  24  32  54  94 126 142 182 230 286 358
#     4  11  18  34  57  81 119 147 185 232 290 333
#
# _framework density 20.026440000000001
#
# number of rings (size 3 to 8) (size 9 to 14) (size 15 to 20)
#    0.000    1.333    5.000    3.000    0.000    0.000 
#    0.000    0.000    0.000    1.000    0.000    0.000 
#    0.000    0.000    0.000    0.000    0.000    0.000 
#
# Total GULP energy -133912.483095 kJ/mol
# GULP energy per Si atom -5579.686796 kJ/mol
# Density = 1.998086 g / cm^3
# Si number density = 20.026440 Si / 1000 Ang^3
#
#
#
# Elastic Constant Matrix: (Units=GPa)
#
#
# Indices 1 2 3 4 5 6 
#
# 1 78.1820 8.4335 29.7941 0.0000 19.5141 0.0000
# 2 8.4335 74.6092 28.5539 0.0000 1.7813 0.0000
# 3 29.7941 28.5539 96.5382 0.0000 12.5825 0.0000
# 4 0.0000 0.0000 0.0000 36.1375 0.0000 -1.2611
# 5 19.5141 1.7813 12.5825 0.0000 37.7913 0.0000
# 6 0.0000 0.0000 0.0000 -1.2611 0.0000 2.5385
#
#
#
# Elastic Compliance Matrix: (Units=1/GPa)
#
#
# Indices 1 2 3 4 5 6 
#
# 1 0.016071 -0.000112 -0.004020 0.000000 -0.006955 0.000000
# 2 -0.000112 0.015139 -0.004555 0.000000 0.000861 0.000000
# 3 -0.004020 -0.004555 0.013222 0.000000 -0.002112 0.000000
# 4 0.000000 0.000000 0.000000 0.028160 0.000000 0.013990
# 5 -0.006955 0.000861 -0.002112 0.000000 0.030715 0.000000
# 6 0.000000 0.000000 0.000000 0.013990 0.000000 0.400889
#
#
# Mechanical properties :
#
#
# Convention : Reuss Voigt Hill
#
# Bulk Modulus (GPa) = 36.96015 42.54361 39.75188
# Shear Modulus (GPa) = 9.42349 27.46330 18.44340
#
# Velocity S-wave (km/s) = 2.17158 3.70719 3.03801
# Velocity P-wave (km/s) = 4.97829 6.29398 5.67440
#
# Compressibility (1/GPa) = 0.02705617
#
# Stress axis : x y z
#
# Youngs Moduli (GPa) = 62.22524 66.05606 75.63186
#
# Poissons Ratio (x) = 0.00739 0.30406
# Poissons Ratio (y) = 0.00696 0.34453
# Poissons Ratio (z) = 0.25016 0.30091
#
# Static dielectric constant tensor:
#      x y z
#    x 1.773430 0.000000 0.019310 
#    y 0.000000 1.703550 0.000000 
#    z 0.019310 0.000000 1.802800 
# 
# From -- ./inp_files/49355.got.cif
#   From: 2010.05.17/outbox.cif.g08.bks.cpg/sg13_25_cif.got.tgz:49355.got - 2010.06.03 16:44:36.
