data_PCOD9227896
_publ_section_title
;
Structure prediction by ZEFSAII (Michael W. Deem and Ramdas Pophale) SiO2 
 PCOD9227896
Probable space group: P 2/C
;
_chemical_formula_sum "Si O2"
_cell_formula_units_Z 22
_cell_length_a 11.547024
_cell_length_b 11.781021
_cell_length_c 9.681118
_cell_angle_alpha 90.000000
_cell_angle_beta 68.776522
_cell_angle_gamma 90.000000
_cell_volume 1227.654657
_symmetry_space_group_name_H-M "P 2/C"
_symmetry_group_IT_number 13
_symmetry_cell_setting 'monoclinic'
loop_
_space_group_symop_operation_xyz
x,y,z
-x,y,1/2-z
-x,-y,-z
x,-y,1/2+z
loop_
_atom_site_type_symbol
_atom_site_label
_atom_site_fract_x
_atom_site_fract_y
_atom_site_fract_z
Si Si1 0.813569 0.200985 0.149213
Si Si2 0.362740 0.397635 0.250347
Si Si3 0.000000 0.353472 0.250000
Si Si4 0.767577 0.490152 0.928753
Si Si5 0.143903 0.748621 0.185916
Si Si6 0.093583 0.969030 0.336655
O O1 0.688455 0.269750 0.230954
O O2 0.926321 0.273178 0.172220
O O3 0.813954 0.074675 0.208418
O O4 0.831060 0.198570 0.976385
O O5 0.500000 0.406214 0.250000
O O6 0.270642 0.461747 0.398331
O O7 0.340321 0.446436 0.108222
O O8 0.892993 0.434135 0.362368
O O9 0.783387 0.369086 0.844626
O O10 0.157824 0.845438 0.297251
O O11 0.000000 0.714507 0.250000
O O12 0.000000 0.969780 0.250000
O O13 0.000000 0.000000 0.500000
#
# Coordination Sequence:
#
# PCOD9227896 Si02
#       6
#     4   4   2   4   4   4
#     4  10  20  32  51  78 107 140 164 221 257 314
#     4  10  22  38  55  75 103 146 182 211 253 304
#     4  10  20  30  52  86 108 128 176 208 282 314
#     4  10  21  34  57  77 109 136 169 224 259 319
#     4  10  19  30  49  76 112 134 161 202 269 316
#     4  11  19  31  50  76 110 137 165 206 264 328
#
# _framework density 17.920349999999999
#
# number of rings (size 3 to 8) (size 9 to 14) (size 15 to 20)
#    0.000    1.818    5.455    0.545    2.545    2.182 
#    0.000    0.000    0.000    5.455    0.000    0.000 
#    0.000    0.000    0.000    0.000    0.000    0.000 
#
# Total GULP energy -122542.562854 kJ/mol
# GULP energy per Si atom -5570.116493 kJ/mol
# Density = 1.787956 g / cm^3
# Si number density = 17.920350 Si / 1000 Ang^3
#
#
#
# Elastic Constant Matrix: (Units=GPa)
#
#
# Indices 1 2 3 4 5 6 
#
# 1 50.9164 2.6530 -12.8079 0.0000 -2.0205 0.0000
# 2 2.6530 79.0028 11.8377 0.0000 -3.0323 0.0000
# 3 -12.8079 11.8377 38.1655 0.0000 3.0730 0.0000
# 4 0.0000 0.0000 0.0000 27.0623 0.0000 7.1439
# 5 -2.0205 -3.0323 3.0730 0.0000 13.6553 0.0000
# 6 0.0000 0.0000 0.0000 7.1439 0.0000 13.6970
#
#
#
# Elastic Compliance Matrix: (Units=1/GPa)
#
#
# Indices 1 2 3 4 5 6 
#
# 1 0.021737 -0.001856 0.007786 0.000000 0.001052 0.000000
# 2 -0.001856 0.013645 -0.005171 0.000000 0.003919 0.000000
# 3 0.007786 -0.005171 0.030979 0.000000 -0.006968 0.000000
# 4 0.000000 0.000000 0.000000 0.042852 0.000000 -0.022350
# 5 0.001052 0.003919 -0.006968 0.000000 0.075826 0.000000
# 6 0.000000 0.000000 0.000000 -0.022350 0.000000 0.084665
#
#
# Mechanical properties :
#
#
# Convention : Reuss Voigt Hill
#
# Bulk Modulus (GPa) = 14.73207 19.05002 16.89104
# Shear Modulus (GPa) = 17.19314 21.97637 19.58475
#
# Velocity S-wave (km/s) = 3.10081 3.50571 3.30946
# Velocity P-wave (km/s) = 4.58898 5.20001 4.90402
#
# Compressibility (1/GPa) = 0.06787914
#
# Stress axis : x y z
#
# Youngs Moduli (GPa) = 46.00455 73.28515 32.27954
#
# Poissons Ratio (x) = 0.13603 -0.25132
# Poissons Ratio (y) = 0.08539 0.16691
# Poissons Ratio (z) = -0.35818 0.37894
#
# Static dielectric constant tensor:
#      x y z
#    x 1.529990 0.000000 0.090180 
#    y 0.000000 1.676960 0.000000 
#    z 0.090180 0.000000 1.497100 
# 
# From -- ./inp_files/15580.got.cif
#   From: 2010.05.17/outbox.cif.g08.bks.cpg/sg13_8_cif.got.tgz:15580.got - 2010.06.03 16:44:36.
