data_PCOD9227581
_publ_section_title
;
Structure prediction by ZEFSAII (Michael W. Deem and Ramdas Pophale) SiO2 
 PCOD9227581
Probable space group: P 2/C
;
_chemical_formula_sum "Si O2"
_cell_formula_units_Z 18
_cell_length_a 6.833117
_cell_length_b 10.059662
_cell_length_c 15.798577
_cell_angle_alpha 90.000000
_cell_angle_beta 41.546823
_cell_angle_gamma 90.000000
_cell_volume 720.253892
_symmetry_space_group_name_H-M "P 2/C"
_symmetry_group_IT_number 13
_symmetry_cell_setting 'monoclinic'
loop_
_space_group_symop_operation_xyz
x,y,z
-x,y,1/2-z
-x,-y,-z
x,-y,1/2+z
loop_
_atom_site_type_symbol
_atom_site_label
_atom_site_fract_x
_atom_site_fract_y
_atom_site_fract_z
Si Si1 0.085461 0.111736 0.078837
Si Si2 0.143688 0.594620 0.525040
Si Si3 0.723210 0.566073 0.256171
Si Si4 0.593856 0.959421 0.860085
Si Si5 0.000000 0.794404 0.250000
O O1 0.099962 0.248998 0.024088
O O2 0.278186 0.127907 0.104135
O O3 0.760902 0.082098 0.220833
O O4 0.247388 0.988184 0.979394
O O5 0.493305 0.565135 0.408695
O O6 0.000000 0.500000 0.500000
O O7 0.941339 0.556571 0.670876
O O8 0.500000 0.579380 0.250000
O O9 0.932695 0.694027 0.195828
O O10 0.728504 0.105436 0.837465
#
# Coordination Sequence:
#
# PCOD9227581 Si02
#       5
#     4   4   4   4   2
#     4   9  17  36  58  94 126 161 212 264 323 384
#     4  10  21  40  60  87 127 173 211 268 320 385
#     4  10  22  39  60  88 128 170 210 270 323 378
#     4   9  19  34  63  92 128 161 207 273 316 381
#     4  10  18  36  62  92 120 168 214 252 330 388
#
# _framework density 24.991187
#
# number of rings (size 3 to 8) (size 9 to 14) (size 15 to 20)
#    0.000    2.667    2.222    0.000    0.000    2.667 
#   16.000    0.000    0.000   37.333    0.000    0.000 
#    0.000    0.000    0.000    0.000    0.000    0.000 
#
# Total GULP energy -100371.968107 kJ/mol
# GULP energy per Si atom -5576.220450 kJ/mol
# Density = 2.493431 g / cm^3
# Si number density = 24.991187 Si / 1000 Ang^3
#
#
#
# Elastic Constant Matrix: (Units=GPa)
#
#
# Indices 1 2 3 4 5 6 
#
# 1 89.3315 16.7483 23.8073 0.0000 -19.4503 0.0000
# 2 16.7483 99.7197 30.3480 0.0000 -3.5189 0.0000
# 3 23.8073 30.3480 181.6387 0.0000 2.2305 0.0000
# 4 0.0000 0.0000 0.0000 33.1163 0.0000 9.8600
# 5 -19.4503 -3.5189 2.2305 0.0000 24.9198 0.0000
# 6 0.0000 0.0000 0.0000 9.8600 0.0000 33.1624
#
#
#
# Elastic Compliance Matrix: (Units=1/GPa)
#
#
# Indices 1 2 3 4 5 6 
#
# 1 0.014377 -0.001481 -0.001774 0.000000 0.011171 0.000000
# 2 -0.001481 0.010786 -0.001614 0.000000 0.000512 0.000000
# 3 -0.001774 -0.001614 0.006034 0.000000 -0.002153 0.000000
# 4 0.000000 0.000000 0.000000 0.033129 0.000000 -0.009850
# 5 0.011171 0.000512 -0.002153 0.000000 0.049113 0.000000
# 6 0.000000 0.000000 0.000000 -0.009850 0.000000 0.033083
#
#
# Mechanical properties :
#
#
# Convention : Reuss Voigt Hill
#
# Bulk Modulus (GPa) = 46.60027 56.94415 51.77221
# Shear Modulus (GPa) = 30.59704 38.22544 34.41124
#
# Velocity S-wave (km/s) = 3.50281 3.91520 3.71473
# Velocity P-wave (km/s) = 5.92003 6.57826 6.25781
#
# Compressibility (1/GPa) = 0.02145910
#
# Stress axis : x y z
#
# Youngs Moduli (GPa) = 69.55552 92.71154 165.72360
#
# Poissons Ratio (x) = 0.13726 0.29403
# Poissons Ratio (y) = 0.10298 0.26754
# Poissons Ratio (z) = 0.12341 0.14967
#
# Static dielectric constant tensor:
#      x y z
#    x 2.098510 0.000000 0.046250 
#    y 0.000000 1.919350 0.000000 
#    z 0.046250 0.000000 2.163150 
# 
# From -- ./inp_files/75499.got.cif
#   From: 2010.05.17/outbox.cif.g08.bks.cpg/sg13_38_cif.got.tgz:75499.got - 2010.06.03 16:44:36.
