data_PCOD9227725
_publ_section_title
;
Structure prediction by ZEFSAII (Michael W. Deem and Ramdas Pophale) SiO2 
 PCOD9227725
Probable space group: P 2/C
;
_chemical_formula_sum "Si O2"
_cell_formula_units_Z 28
_cell_length_a 8.068447
_cell_length_b 6.562614
_cell_length_c 25.412544
_cell_angle_alpha 90.000000
_cell_angle_beta 77.508697
_cell_angle_gamma 90.000000
_cell_volume 1313.745003
_symmetry_space_group_name_H-M "P 2/C"
_symmetry_group_IT_number 13
_symmetry_cell_setting 'monoclinic'
loop_
_space_group_symop_operation_xyz
x,y,z
-x,y,1/2-z
-x,-y,-z
x,-y,1/2+z
loop_
_atom_site_type_symbol
_atom_site_label
_atom_site_fract_x
_atom_site_fract_y
_atom_site_fract_z
Si Si1 0.023740 0.832264 0.069852
Si Si2 0.491551 0.802906 0.392283
Si Si3 0.754092 0.844590 0.998109
Si Si4 0.229104 0.149805 0.825682
Si Si5 0.000000 0.135679 0.750000
Si Si6 0.500000 0.147251 0.250000
Si Si7 0.240511 0.528105 0.591504
Si Si8 0.274186 0.149450 0.175248
O O1 0.907075 0.937784 0.122561
O O2 0.085286 0.620207 0.089266
O O3 0.914307 0.797000 0.024977
O O4 0.184255 0.967762 0.041937
O O5 0.394587 0.884706 0.450463
O O6 0.355847 0.733061 0.356770
O O7 0.606990 0.614950 0.400475
O O8 0.603480 0.986520 0.361766
O O9 0.714050 0.656609 0.963305
O O10 0.117090 0.246791 0.785946
O O11 0.356558 0.991563 0.788632
O O12 0.127001 0.987691 0.710068
O O13 0.390934 0.255075 0.212257
O O14 0.203432 0.686196 0.640201
#
# Coordination Sequence:
#
# PCOD9227725 Si02
#       8
#     4   4   4   4   2   2   4   4
#     4  10  22  40  61  87 117 156 198 239 289 343
#     4  10  22  39  59  86 119 156 193 236 291 348
#     4  10  22  40  61  85 120 159 195 237 288 346
#     4   9  18  37  61  84 112 148 194 239 286 342
#     4  10  18  38  66  84 110 154 196 244 298 338
#     4   8  18  40  64  82 112 156 192 238 298 342
#     4  12  22  36  58  90 122 153 193 239 289 351
#     4  10  22  40  61  86 117 152 194 243 291 346
#
# _framework density 21.313117999999999
#
# number of rings (size 3 to 8) (size 9 to 14) (size 15 to 20)
#    0.000    2.000    0.000    3.429    0.000    3.429 
#    0.000   27.143    0.000    0.000    0.000    0.000 
#    0.000    0.000    0.000    0.000    0.000    0.000 
#
# Total GULP energy -156231.777578 kJ/mol
# GULP energy per Si atom -5579.706342 kJ/mol
# Density = 2.126461 g / cm^3
# Si number density = 21.313118 Si / 1000 Ang^3
#
#
#
# Elastic Constant Matrix: (Units=GPa)
#
#
# Indices 1 2 3 4 5 6 
#
# 1 57.2088 23.2983 37.6763 0.0000 10.3604 0.0000
# 2 23.2983 60.6073 37.7568 0.0000 3.2749 0.0000
# 3 37.6763 37.7568 122.7252 0.0000 3.1372 0.0000
# 4 0.0000 0.0000 0.0000 7.5084 0.0000 -1.6477
# 5 10.3604 3.2749 3.1372 0.0000 60.8954 0.0000
# 6 0.0000 0.0000 0.0000 -1.6477 0.0000 13.4970
#
#
#
# Elastic Compliance Matrix: (Units=1/GPa)
#
#
# Indices 1 2 3 4 5 6 
#
# 1 0.024064 -0.005585 -0.005580 0.000000 -0.003506 0.000000
# 2 -0.005585 0.021745 -0.004976 0.000000 0.000037 0.000000
# 3 -0.005580 -0.004976 0.011376 0.000000 0.000631 0.000000
# 4 0.000000 0.000000 0.000000 0.136851 0.000000 0.016707
# 5 -0.003506 0.000037 0.000631 0.000000 0.016984 0.000000
# 6 0.000000 0.000000 0.000000 0.016707 0.000000 0.076130
#
#
# Mechanical properties :
#
#
# Convention : Reuss Voigt Hill
#
# Bulk Modulus (GPa) = 40.15605 48.66713 44.41159
# Shear Modulus (GPa) = 15.25633 25.83414 20.54523
#
# Velocity S-wave (km/s) = 2.67838 3.48533 3.10816
# Velocity P-wave (km/s) = 5.33356 6.25145 5.81066
#
# Compressibility (1/GPa) = 0.02490285
#
# Stress axis : x y z
#
# Youngs Moduli (GPa) = 41.55585 45.98832 87.90402
#
# Poissons Ratio (x) = 0.25685 0.49048
# Poissons Ratio (y) = 0.23209 0.43742
# Poissons Ratio (z) = 0.23187 0.22885
#
# Static dielectric constant tensor:
#      x y z
#    x 1.811670 0.000000 0.038640 
#    y 0.000000 1.730360 0.000000 
#    z 0.038640 0.000000 1.799350 
# 
# From -- ./inp_files/90813.got.cif
#   From: 2010.05.17/outbox.cif.g08.bks.cpg/sg13_46_cif.got.tgz:90813.got - 2010.06.03 16:44:36.
