data_PCOD9227716
_publ_section_title
;
Structure prediction by ZEFSAII (Michael W. Deem and Ramdas Pophale) SiO2 
 PCOD9227716
Probable space group: P 2/C
;
_chemical_formula_sum "Si O2"
_cell_formula_units_Z 28
_cell_length_a 23.548038
_cell_length_b 10.527319
_cell_length_c 29.704879
_cell_angle_alpha 90.000000
_cell_angle_beta 169.515296
_cell_angle_gamma 90.000000
_cell_volume 1340.007751
_symmetry_space_group_name_H-M "P 2/C"
_symmetry_group_IT_number 13
_symmetry_cell_setting 'monoclinic'
loop_
_space_group_symop_operation_xyz
x,y,z
-x,y,1/2-z
-x,-y,-z
x,-y,1/2+z
loop_
_atom_site_type_symbol
_atom_site_label
_atom_site_fract_x
_atom_site_fract_y
_atom_site_fract_z
Si Si1 0.425769 0.821922 0.318083
Si Si2 0.732847 0.080733 0.969036
Si Si3 0.573138 0.981163 0.004112
Si Si4 0.002649 0.592404 0.543839
Si Si5 0.881737 0.319661 0.236061
Si Si6 0.448391 0.293910 0.985617
Si Si7 0.155303 0.443661 0.991663
O O1 0.563569 0.905857 0.384835
O O2 0.693081 0.724958 0.544988
O O3 0.370075 0.923235 0.315054
O O4 0.148426 0.729429 0.085635
O O5 0.500000 0.028752 0.750000
O O6 0.828466 0.225219 0.031685
O O7 0.067445 0.011883 0.228399
O O8 0.528034 0.831211 0.965650
O O9 0.500000 0.000000 0.000000
O O10 0.000000 0.500000 0.500000
O O11 0.831560 0.528288 0.452834
O O12 0.361644 0.600802 0.839072
O O13 0.013569 0.460509 0.343653
O O14 0.645063 0.288494 0.092663
O O15 0.098244 0.332920 0.701409
O O16 0.500000 0.397706 0.250000
#
# Coordination Sequence:
#
# PCOD9227716 Si02
#       7
#     4   4   4   4   4   4   4
#     4  11  22  38  68  98 129 165 223 275 330 387
#     4  11  22  39  63  94 126 165 219 275 324 378
#     4  11  23  41  64  90 129 178 216 265 325 389
#     4  11  23  41  67 101 127 164 219 276 329 401
#     4  10  18  38  64  90 122 161 213 273 323 386
#     4  11  22  41  63  91 129 171 215 266 325 393
#     4  11  23  39  64  92 132 172 212 264 341 390
#
# _framework density 20.895402000000001
#
# number of rings (size 3 to 8) (size 9 to 14) (size 15 to 20)
#    0.000    1.143    2.857    8.143    0.000    1.143 
#    0.000    5.000    0.000    0.000    0.000    0.000 
#    0.000    0.000    0.000    0.000    0.000    0.000 
#
# Total GULP energy -156298.264312 kJ/mol
# GULP energy per Si atom -5582.080868 kJ/mol
# Density = 2.084784 g / cm^3
# Si number density = 20.895402 Si / 1000 Ang^3
#
#
#
# Elastic Constant Matrix: (Units=GPa)
#
#
# Indices 1 2 3 4 5 6 
#
# 1 106.5114 23.6444 36.0035 0.0000 -5.7259 0.0000
# 2 23.6444 33.3250 3.8055 0.0000 5.5914 0.0000
# 3 36.0035 3.8055 96.7550 0.0000 2.2011 0.0000
# 4 0.0000 0.0000 0.0000 38.3286 0.0000 -3.5903
# 5 -5.7259 5.5914 2.2011 0.0000 27.9489 0.0000
# 6 0.0000 0.0000 0.0000 -3.5903 0.0000 31.5534
#
#
#
# Elastic Compliance Matrix: (Units=1/GPa)
#
#
# Indices 1 2 3 4 5 6 
#
# 1 0.013452 -0.009859 -0.004734 0.000000 0.005101 0.000000
# 2 -0.009859 0.038390 0.002384 0.000000 -0.009888 0.000000
# 3 -0.004734 0.002384 0.012058 0.000000 -0.002396 0.000000
# 4 0.000000 0.000000 0.000000 0.026371 0.000000 0.003001
# 5 0.005101 -0.009888 -0.002396 0.000000 0.038991 0.000000
# 6 0.000000 0.000000 0.000000 0.003001 0.000000 0.032034
#
#
# Mechanical properties :
#
#
# Convention : Reuss Voigt Hill
#
# Bulk Modulus (GPa) = 25.32914 40.38868 32.85891
# Shear Modulus (GPa) = 25.14150 31.10872 28.12511
#
# Velocity S-wave (km/s) = 3.47249 3.86266 3.67276
# Velocity P-wave (km/s) = 5.31279 6.26614 5.80906
#
# Compressibility (1/GPa) = 0.03948022
#
# Stress axis : x y z
#
# Youngs Moduli (GPa) = 74.33995 26.04866 82.93510
#
# Poissons Ratio (x) = 0.25683 0.39260
# Poissons Ratio (y) = 0.73295 -0.19770
# Poissons Ratio (z) = 0.35191 -0.06210
#
# Static dielectric constant tensor:
#      x y z
#    x 1.836220 0.000000 -0.020490 
#    y 0.000000 1.807260 0.000000 
#    z -0.020490 0.000000 1.746670 
# 
# From -- ./inp_files/97718.got.cif
#   From: 2010.05.17/outbox.cif.g08.bks.cpg/sg13_49_cif.got.tgz:97718.got - 2010.06.03 16:44:36.
