data_PCOD9227424
_publ_section_title
;
Structure prediction by ZEFSAII (Michael W. Deem and Ramdas Pophale) SiO2 
 PCOD9227424
Probable space group: P 2/C
;
_chemical_formula_sum "Si O2"
_cell_formula_units_Z 24
_cell_length_a 9.091464
_cell_length_b 8.906837
_cell_length_c 15.599591
_cell_angle_alpha 90.000000
_cell_angle_beta 82.346742
_cell_angle_gamma 90.000000
_cell_volume 1251.943090
_symmetry_space_group_name_H-M "P 2/C"
_symmetry_group_IT_number 13
_symmetry_cell_setting 'monoclinic'
loop_
_space_group_symop_operation_xyz
x,y,z
-x,y,1/2-z
-x,-y,-z
x,-y,1/2+z
loop_
_atom_site_type_symbol
_atom_site_label
_atom_site_fract_x
_atom_site_fract_y
_atom_site_fract_z
Si Si1 0.302463 0.438609 0.923740
Si Si2 0.825974 0.956164 0.769156
Si Si3 0.833481 0.613903 0.723666
Si Si4 0.429349 0.928551 0.590439
Si Si5 0.375217 0.422373 0.104179
Si Si6 0.620710 0.157922 0.680353
O O1 0.203341 0.534232 0.864281
O O2 0.475176 0.483824 0.903345
O O3 0.307780 0.264924 0.895849
O O4 0.275591 0.455531 0.027487
O O5 0.798943 0.793155 0.726920
O O6 0.742490 0.956310 0.867985
O O7 0.000000 0.975278 0.750000
O O8 0.752065 0.091760 0.725375
O O9 0.720253 0.552506 0.803726
O O10 0.000000 0.596142 0.750000
O O11 0.434805 0.749080 0.591634
O O12 0.500000 0.000000 0.500000
O O13 0.528752 0.015152 0.652473
O O14 0.500000 0.240871 0.750000
#
# Coordination Sequence:
#
# PCOD9227424 Si02
#       6
#     4   4   4   4   4   4
#     4  11  21  35  58  86 111 144 188 235 278 325
#     4   9  20  37  57  79 110 148 187 224 280 338
#     4  10  21  38  58  77 114 156 184 222 282 341
#     4  10  18  35  58  82 107 142 184 232 276 325
#     4  10  21  36  58  84 113 143 189 234 276 334
#     4  10  19  32  56  82 110 140 184 230 275 330
#
# _framework density 19.170200999999999
#
# number of rings (size 3 to 8) (size 9 to 14) (size 15 to 20)
#    0.000    2.000    1.667    2.500    0.000    4.000 
#    0.000    0.833    3.667    0.000    0.000    0.000 
#    0.000    0.000    0.000    0.000    0.000    0.000 
#
# Total GULP energy -133634.199232 kJ/mol
# GULP energy per Si atom -5568.091635 kJ/mol
# Density = 1.912657 g / cm^3
# Si number density = 19.170201 Si / 1000 Ang^3
#
#
#
# Elastic Constant Matrix: (Units=GPa)
#
#
# Indices 1 2 3 4 5 6 
#
# 1 57.9407 24.0014 17.7648 0.0000 -2.1218 0.0000
# 2 24.0014 51.9627 24.0225 0.0000 5.6029 0.0000
# 3 17.7648 24.0225 70.9310 0.0000 9.8018 0.0000
# 4 0.0000 0.0000 0.0000 22.8227 0.0000 0.3724
# 5 -2.1218 5.6029 9.8018 0.0000 27.7740 0.0000
# 6 0.0000 0.0000 0.0000 0.3724 0.0000 18.4719
#
#
#
# Elastic Compliance Matrix: (Units=1/GPa)
#
#
# Indices 1 2 3 4 5 6 
#
# 1 0.022244 -0.009371 -0.003042 0.000000 0.004663 0.000000
# 2 -0.009371 0.026868 -0.006207 0.000000 -0.003945 0.000000
# 3 -0.003042 -0.006207 0.017684 0.000000 -0.005221 0.000000
# 4 0.000000 0.000000 0.000000 0.043830 0.000000 -0.000884
# 5 0.004663 -0.003945 -0.005221 0.000000 0.039000 0.000000
# 6 0.000000 0.000000 0.000000 -0.000884 0.000000 0.054154
#
#
# Mechanical properties :
#
#
# Convention : Reuss Voigt Hill
#
# Bulk Modulus (GPa) = 33.83440 34.71242 34.27341
# Shear Modulus (GPa) = 19.93040 21.48343 20.70692
#
# Velocity S-wave (km/s) = 3.22787 3.35127 3.29015
# Velocity P-wave (km/s) = 5.61960 5.75513 5.68777
#
# Compressibility (1/GPa) = 0.02955572
#
# Stress axis : x y z
#
# Youngs Moduli (GPa) = 44.95519 37.21876 56.54914
#
# Poissons Ratio (x) = 0.34879 0.17201
# Poissons Ratio (y) = 0.42129 0.35102
# Poissons Ratio (z) = 0.13674 0.23103
#
# Static dielectric constant tensor:
#      x y z
#    x 1.652360 0.000000 -0.004010 
#    y 0.000000 1.684720 0.000000 
#    z -0.004010 0.000000 1.750820 
# 
# From -- ./inp_files/46011.got.cif
#   From: 2010.05.17/outbox.cif.g08.bks.cpg/sg13_24_cif.got.tgz:46011.got - 2010.06.03 16:44:36.
