data_PCOD9227184
_publ_section_title
;
Structure prediction by ZEFSAII (Michael W. Deem and Ramdas Pophale) SiO2 
 PCOD9227184
Probable space group: P 2/C
;
_chemical_formula_sum "Si O2"
_cell_formula_units_Z 32
_cell_length_a 13.831162
_cell_length_b 17.670092
_cell_length_c 17.322504
_cell_angle_alpha 90.000000
_cell_angle_beta 23.443437
_cell_angle_gamma 90.000000
_cell_volume 1684.303935
_symmetry_space_group_name_H-M "P 2/C"
_symmetry_group_IT_number 13
_symmetry_cell_setting 'monoclinic'
loop_
_space_group_symop_operation_xyz
x,y,z
-x,y,1/2-z
-x,-y,-z
x,-y,1/2+z
loop_
_atom_site_type_symbol
_atom_site_label
_atom_site_fract_x
_atom_site_fract_y
_atom_site_fract_z
Si Si1 0.667787 0.720594 0.350625
Si Si2 0.634551 0.173543 0.230766
Si Si3 0.769942 0.875919 0.363029
Si Si4 0.286590 0.206295 0.846426
Si Si5 0.822005 0.284796 0.213290
Si Si6 0.239735 0.565404 0.127920
Si Si7 0.110539 0.925836 0.381121
Si Si8 0.803512 0.544563 0.697468
O O1 0.770079 0.791764 0.324552
O O2 0.715450 0.737652 0.226263
O O3 0.378028 0.718539 0.573914
O O4 0.755643 0.642964 0.325063
O O5 0.500000 0.187538 0.250000
O O6 0.467970 0.123610 0.409576
O O7 0.691353 0.251362 0.232769
O O8 0.881616 0.129515 0.034761
O O9 0.769414 0.932843 0.291033
O O10 0.000000 0.886555 0.250000
O O11 0.500000 0.217099 0.750000
O O12 0.279551 0.122064 0.815494
O O13 0.037681 0.227073 0.071537
O O14 0.896639 0.370325 0.142613
O O15 0.207932 0.498275 0.212580
O O16 0.000000 0.567286 0.250000
O O17 0.511024 0.554070 0.890168
O O18 0.000000 0.000000 0.500000
O O19 0.000000 0.500000 0.500000
#
# Coordination Sequence:
#
# PCOD9227184 Si02
#       8
#     4   4   4   4   4   4   4   4
#     4   9  19  36  60  86 120 145 193 258 291 350
#     4  10  19  35  61  87 115 144 191 244 294 351
#     4  10  18  33  58  89 114 147 188 230 299 348
#     4  10  21  39  59  85 112 158 204 235 291 358
#     4   9  20  38  55  84 115 151 194 249 295 347
#     4  10  21  39  61  87 121 161 200 251 315 366
#     4  10  22  38  58  85 124 151 186 242 288 355
#     4  10  21  40  55  83 127 154 201 248 304 370
#
# _framework density 18.998944999999999
#
# number of rings (size 3 to 8) (size 9 to 14) (size 15 to 20)
#    0.000    2.250    1.250    1.125    0.000    2.000 
#   15.750    0.000    0.000    0.000    0.000    0.000 
#    0.000    0.000    0.000    0.000    0.000    0.000 
#
# Total GULP energy -178332.795828 kJ/mol
# GULP energy per Si atom -5572.899870 kJ/mol
# Density = 1.895570 g / cm^3
# Si number density = 18.998945 Si / 1000 Ang^3
#
#
#
# Elastic Constant Matrix: (Units=GPa)
#
#
# Indices 1 2 3 4 5 6 
#
# 1 90.0007 14.5243 33.7059 0.0000 -15.1206 0.0000
# 2 14.5243 59.1861 17.8577 0.0000 10.1789 0.0000
# 3 33.7059 17.8577 89.1289 0.0000 4.3218 0.0000
# 4 0.0000 0.0000 0.0000 23.8377 0.0000 5.3543
# 5 -15.1206 10.1789 4.3218 0.0000 23.1798 0.0000
# 6 0.0000 0.0000 0.0000 5.3543 0.0000 10.4673
#
#
#
# Elastic Compliance Matrix: (Units=1/GPa)
#
#
# Indices 1 2 3 4 5 6 
#
# 1 0.016409 -0.004611 -0.005953 0.000000 0.013839 0.000000
# 2 -0.004611 0.020589 -0.001814 0.000000 -0.011711 0.000000
# 3 -0.005953 -0.001814 0.014111 0.000000 -0.005718 0.000000
# 4 0.000000 0.000000 0.000000 0.047396 0.000000 -0.024244
# 5 0.013839 -0.011711 -0.005718 0.000000 0.058377 0.000000
# 6 0.000000 0.000000 0.000000 -0.024244 0.000000 0.107937
#
#
# Mechanical properties :
#
#
# Convention : Reuss Voigt Hill
#
# Bulk Modulus (GPa) = 37.94326 41.16571 39.55448
# Shear Modulus (GPa) = 16.75835 22.97882 19.86859
#
# Velocity S-wave (km/s) = 2.97318 3.48153 3.23735
# Velocity P-wave (km/s) = 5.63924 6.15433 5.90241
#
# Compressibility (1/GPa) = 0.02635515
#
# Stress axis : x y z
#
# Youngs Moduli (GPa) = 60.94042 48.57069 70.86431
#
# Poissons Ratio (x) = 0.22395 0.42184
# Poissons Ratio (y) = 0.28099 0.12852
# Poissons Ratio (z) = 0.36277 0.08809
#
# Static dielectric constant tensor:
#      x y z
#    x 1.658420 0.000000 0.048040 
#    y 0.000000 1.671480 0.000000 
#    z 0.048040 0.000000 1.830030 
# 
# From -- ./inp_files/51653.got.cif
#   From: 2010.05.17/outbox.cif.g08.bks.cpg/sg13_26_cif.got.tgz:51653.got - 2010.06.03 16:44:36.
