data_PCOD9227213
_publ_section_title
;
Structure prediction by ZEFSAII (Michael W. Deem and Ramdas Pophale) SiO2 
 PCOD9227213
Probable space group: P 2/C
;
_chemical_formula_sum "Si O2"
_cell_formula_units_Z 26
_cell_length_a 5.735499
_cell_length_b 15.823490
_cell_length_c 14.995496
_cell_angle_alpha 90.000000
_cell_angle_beta 52.491865
_cell_angle_gamma 90.000000
_cell_volume 1079.577074
_symmetry_space_group_name_H-M "P 2/C"
_symmetry_group_IT_number 13
_symmetry_cell_setting 'monoclinic'
loop_
_space_group_symop_operation_xyz
x,y,z
-x,y,1/2-z
-x,-y,-z
x,-y,1/2+z
loop_
_atom_site_type_symbol
_atom_site_label
_atom_site_fract_x
_atom_site_fract_y
_atom_site_fract_z
Si Si1 0.920180 0.422645 0.956913
Si Si2 0.137148 0.896756 0.071976
Si Si3 0.359455 0.943017 0.431651
Si Si4 0.379999 0.259116 0.415118
Si Si5 0.000000 0.404166 0.750000
Si Si6 0.560869 0.289736 0.644330
Si Si7 0.889316 0.797795 0.906537
O O1 0.915641 0.456653 0.857032
O O2 0.196713 0.360135 0.892089
O O3 0.664851 0.358223 0.049444
O O4 0.000000 0.500000 0.000000
O O5 0.306715 0.913631 0.125535
O O6 0.806302 0.921896 0.121941
O O7 0.193168 0.800925 0.027251
O O8 0.323800 0.958298 0.961699
O O9 0.156753 0.895832 0.555893
O O10 0.713358 0.228518 0.357979
O O11 0.208183 0.237865 0.362262
O O12 0.270939 0.340517 0.690318
O O13 0.500000 0.240581 0.750000
O O14 0.678765 0.241543 0.532451
#
# Coordination Sequence:
#
# PCOD9227213 Si02
#       7
#     4   4   4   4   2   4   4
#     4  10  20  32  48  70  94 129 165 210 260 308
#     4   8  13  21  34  54  81 113 141 175 221 262
#     4   8  13  20  34  54  80 113 141 175 216 263
#     4   9  16  27  41  61  88 119 152 189 234 289
#     4  10  18  34  48  64  94 126 166 202 258 308
#     4   9  18  30  46  65  91 127 160 198 247 305
#     4   9  15  26  40  60  87 119 153 184 230 285
#
# _framework density 24.083507999999998
#
# number of rings (size 3 to 8) (size 9 to 14) (size 15 to 20)
#    0.000    3.077    1.538    0.000    0.000    0.615 
#    0.000    0.000    0.000    0.000    0.000    0.000 
#    0.000    3.692    5.846    1.846    0.000    0.615 
#
# Total GULP energy -144761.760618 kJ/mol
# GULP energy per Si atom -5567.760024 kJ/mol
# Density = 2.402869 g / cm^3
# Si number density = 24.083508 Si / 1000 Ang^3
#
#
#
# Elastic Constant Matrix: (Units=GPa)
#
#
# Indices 1 2 3 4 5 6 
#
# 1 212.8724 11.9508 38.0462 0.0000 9.7542 0.0000
# 2 11.9508 106.6685 16.9575 0.0000 13.3671 0.0000
# 3 38.0462 16.9575 45.4535 0.0000 5.6154 0.0000
# 4 0.0000 0.0000 0.0000 1.3167 0.0000 9.5785
# 5 9.7542 13.3671 5.6154 0.0000 42.0573 0.0000
# 6 0.0000 0.0000 0.0000 9.5785 0.0000 26.3644
#
#
#
# Elastic Compliance Matrix: (Units=1/GPa)
#
#
# Indices 1 2 3 4 5 6 
#
# 1 0.005547 0.000206 -0.004629 0.000000 -0.000734 0.000000
# 2 0.000206 0.010288 -0.003662 0.000000 -0.002829 0.000000
# 3 -0.004629 -0.003662 0.027417 0.000000 -0.001423 0.000000
# 4 0.000000 0.000000 0.000000 -0.462268 0.000000 0.167948
# 5 -0.000734 -0.002829 -0.001423 0.000000 0.025036 0.000000
# 6 0.000000 0.000000 0.000000 0.167948 0.000000 -0.023087
#
#
# Mechanical properties :
#
#
# Convention : Reuss Voigt Hill
#
# Bulk Modulus (GPa) = 36.92270 55.43369 46.17820
# Shear Modulus (GPa) = -12.75937 33.81702 10.52882
#
# Velocity S-wave (km/s) = -2.30423 3.75127 2.09315
# Velocity P-wave (km/s) = 2.87839 6.46761 5.00575
#
# Compressibility (1/GPa) = 0.02708361
#
# Stress axis : x y z
#
# Youngs Moduli (GPa) = 180.27413 97.19762 36.47315
#
# Poissons Ratio (x) = -0.02007 0.16885
# Poissons Ratio (y) = -0.03722 0.13355
# Poissons Ratio (z) = 0.83457 0.35590
#
# Static dielectric constant tensor:
#      x y z
#    x 2.114850 0.000000 0.078160 
#    y 0.000000 1.922590 0.000000 
#    z 0.078160 0.000000 1.927590 
# 
# From -- ./inp_files/61322.got.cif
#   From: 2010.05.17/outbox.cif.g08.bks.cpg/sg13_31_cif.got.tgz:61322.got - 2010.06.03 16:44:36.
