data_PCOD9227717
_publ_section_title
;
Structure prediction by ZEFSAII (Michael W. Deem and Ramdas Pophale) SiO2 
 PCOD9227717
Probable space group: P 2/C
;
_chemical_formula_sum "Si O2"
_cell_formula_units_Z 26
_cell_length_a 8.436511
_cell_length_b 14.616824
_cell_length_c 15.814534
_cell_angle_alpha 90.000000
_cell_angle_beta 144.409253
_cell_angle_gamma 90.000000
_cell_volume 1134.982194
_symmetry_space_group_name_H-M "P 2/C"
_symmetry_group_IT_number 13
_symmetry_cell_setting 'monoclinic'
loop_
_space_group_symop_operation_xyz
x,y,z
-x,y,1/2-z
-x,-y,-z
x,-y,1/2+z
loop_
_atom_site_type_symbol
_atom_site_label
_atom_site_fract_x
_atom_site_fract_y
_atom_site_fract_z
Si Si1 0.253960 0.303919 0.580627
Si Si2 0.000000 0.309096 0.750000
Si Si3 0.356906 0.109075 0.537743
Si Si4 0.078028 0.034317 0.683633
Si Si5 0.684422 0.780751 0.636252
Si Si6 0.452770 0.599169 0.017346
Si Si7 0.181929 0.789718 0.500033
O O1 0.500000 0.327792 0.750000
O O2 0.342479 0.206921 0.577164
O O3 0.248323 0.381709 0.506224
O O4 0.971769 0.277772 0.502757
O O5 0.751251 0.368416 0.676326
O O6 0.892460 0.250867 0.625245
O O7 0.596483 0.045998 0.677819
O O8 0.437581 0.140207 0.477908
O O9 0.068557 0.058446 0.408875
O O10 0.000000 0.045533 0.750000
O O11 0.957273 0.111577 0.568605
O O12 0.633804 0.675144 0.588734
O O13 0.510236 0.793841 0.645679
O O14 0.000000 0.792606 0.750000
O O15 0.500000 0.500000 0.000000
#
# Coordination Sequence:
#
# PCOD9227717 Si02
#       7
#     4   2   4   4   4   4   4
#     4  11  21  43  65  93 136 180 225 286 354 416
#     4  10  18  38  64  92 118 168 216 268 326 414
#     4  11  24  37  61  92 136 186 239 290 339 398
#     4  12  21  36  61  96 129 178 252 296 320 403
#     4  10  22  41  63  94 131 174 226 283 352 411
#     4  10  22  39  68  98 125 166 220 274 345 427
#     4  11  20  38  67  89 126 181 232 268 347 402
#
# _framework density 22.907848000000001
#
# number of rings (size 3 to 8) (size 9 to 14) (size 15 to 20)
#    0.000    1.231    5.385    1.846    3.231    0.615 
#    0.000    6.154    0.000    0.000    0.000    0.000 
#    0.000    0.000    0.000    0.000    0.000    0.000 
#
# Total GULP energy -145074.091416 kJ/mol
# GULP energy per Si atom -5579.772747 kJ/mol
# Density = 2.285571 g / cm^3
# Si number density = 22.907848 Si / 1000 Ang^3
#
#
#
# Elastic Constant Matrix: (Units=GPa)
#
#
# Indices 1 2 3 4 5 6 
#
# 1 99.1616 21.9543 15.5898 0.0000 24.6438 0.0000
# 2 21.9543 123.9932 32.3521 0.0000 -1.9173 0.0000
# 3 15.5898 32.3521 95.3853 0.0000 35.4552 0.0000
# 4 0.0000 0.0000 0.0000 14.0263 0.0000 2.5562
# 5 24.6438 -1.9173 35.4552 0.0000 32.3939 0.0000
# 6 0.0000 0.0000 0.0000 2.5562 0.0000 29.2962
#
#
#
# Elastic Compliance Matrix: (Units=1/GPa)
#
#
# Indices 1 2 3 4 5 6 
#
# 1 0.014456 -0.004263 0.005504 0.000000 -0.017274 0.000000
# 2 -0.004263 0.010975 -0.007540 0.000000 0.012145 0.000000
# 3 0.005504 -0.007540 0.023373 0.000000 -0.030215 0.000000
# 4 0.000000 0.000000 0.000000 0.072447 0.000000 -0.006321
# 5 -0.017274 0.012145 -0.030215 0.000000 0.077800 0.000000
# 6 0.000000 0.000000 0.000000 -0.006321 0.000000 0.034686
#
#
# Mechanical properties :
#
#
# Convention : Reuss Voigt Hill
#
# Bulk Modulus (GPa) = 27.62011 50.92583 39.27297
# Shear Modulus (GPa) = 19.34967 31.71954 25.53460
#
# Velocity S-wave (km/s) = 2.90948 3.72514 3.34228
# Velocity P-wave (km/s) = 4.83425 6.38601 5.66353
#
# Compressibility (1/GPa) = 0.03620551
#
# Stress axis : x y z
#
# Youngs Moduli (GPa) = 69.17586 91.11740 42.78507
#
# Poissons Ratio (x) = 0.38841 -0.23548
# Poissons Ratio (y) = 0.29488 0.32260
# Poissons Ratio (z) = -0.38073 0.68703
#
# Static dielectric constant tensor:
#      x y z
#    x 1.945950 0.000000 -0.006300 
#    y 0.000000 1.816280 0.000000 
#    z -0.006300 0.000000 2.006180 
# 
# From -- ./inp_files/76650.got.cif
#   From: 2010.05.17/outbox.cif.g08.bks.cpg/sg13_39_cif.got.tgz:76650.got - 2010.06.03 16:44:36.
