data_PCOD9227477
_publ_section_title
;
Structure prediction by ZEFSAII (Michael W. Deem and Ramdas Pophale) SiO2 
 PCOD9227477
Probable space group: P 2/C
;
_chemical_formula_sum "Si O2"
_cell_formula_units_Z 26
_cell_length_a 11.649355
_cell_length_b 8.616834
_cell_length_c 12.903324
_cell_angle_alpha 90.000000
_cell_angle_beta 113.088238
_cell_angle_gamma 90.000000
_cell_volume 1191.496528
_symmetry_space_group_name_H-M "P 2/C"
_symmetry_group_IT_number 13
_symmetry_cell_setting 'monoclinic'
loop_
_space_group_symop_operation_xyz
x,y,z
-x,y,1/2-z
-x,-y,-z
x,-y,1/2+z
loop_
_atom_site_type_symbol
_atom_site_label
_atom_site_fract_x
_atom_site_fract_y
_atom_site_fract_z
Si Si1 0.857426 0.500468 0.214861
Si Si2 0.000000 0.979771 0.250000
Si Si3 0.421615 0.457287 0.126502
Si Si4 0.819524 0.291610 0.495171
Si Si5 0.906434 0.749411 0.398316
Si Si6 0.220590 0.936015 0.967216
Si Si7 0.375785 0.700250 0.927400
O O1 0.832877 0.621552 0.111010
O O2 0.854899 0.601960 0.318588
O O3 0.749549 0.373836 0.166848
O O4 0.000000 0.444181 0.250000
O O5 0.108392 0.072871 0.344500
O O6 0.058650 0.872707 0.179809
O O7 0.500000 0.519283 0.250000
O O8 0.508452 0.323180 0.107199
O O9 0.288374 0.381835 0.102137
O O10 0.404550 0.591655 0.036419
O O11 0.960214 0.290443 0.501116
O O12 0.778267 0.114063 0.496946
O O13 0.815840 0.825464 0.449640
O O14 0.342963 0.870608 0.955447
#
# Coordination Sequence:
#
# PCOD9227477 Si02
#       7
#     4   2   4   4   4   4   4
#     4   9  17  37  59  82 119 159 183 233 310 352
#     4  10  18  36  56  92 134 152 172 246 302 354
#     4  10  23  44  60  75 118 169 203 237 295 343
#     4   9  18  39  60  82 119 155 193 238 293 351
#     4  10  18  35  64  89 121 159 185 231 313 363
#     4  11  22  34  61  97 120 146 200 246 295 348
#     4  10  24  39  58  89 118 153 202 254 281 350
#
# _framework density 21.821297000000001
#
# number of rings (size 3 to 8) (size 9 to 14) (size 15 to 20)
#    0.000    2.154    3.846    1.846    3.231    3.077 
#    0.000    3.077    0.000    0.000    0.000    0.000 
#    0.000    0.000    0.000    0.000    0.000    0.000 
#
# Total GULP energy -145334.617342 kJ/mol
# GULP energy per Si atom -5589.792975 kJ/mol
# Density = 2.177163 g / cm^3
# Si number density = 21.821297 Si / 1000 Ang^3
#
#
#
# Elastic Constant Matrix: (Units=GPa)
#
#
# Indices 1 2 3 4 5 6 
#
# 1 70.0772 20.4993 28.7998 0.0000 -3.1229 0.0000
# 2 20.4993 48.0404 8.2556 0.0000 4.6824 0.0000
# 3 28.7998 8.2556 99.9307 0.0000 16.9394 0.0000
# 4 0.0000 0.0000 0.0000 3.7209 0.0000 -1.8238
# 5 -3.1229 4.6824 16.9394 0.0000 25.1245 0.0000
# 6 0.0000 0.0000 0.0000 -1.8238 0.0000 28.6814
#
#
#
# Elastic Compliance Matrix: (Units=1/GPa)
#
#
# Indices 1 2 3 4 5 6 
#
# 1 0.019627 -0.008082 -0.006388 0.000000 0.008252 0.000000
# 2 -0.008082 0.024662 0.001401 0.000000 -0.006545 0.000000
# 3 -0.006388 0.001401 0.013448 0.000000 -0.010122 0.000000
# 4 0.000000 0.000000 0.000000 0.277396 0.000000 0.017639
# 5 0.008252 -0.006545 -0.010122 0.000000 0.048872 0.000000
# 6 0.000000 0.000000 0.000000 0.017639 0.000000 0.035987
#
#
# Mechanical properties :
#
#
# Convention : Reuss Voigt Hill
#
# Bulk Modulus (GPa) = 31.64538 37.01753 34.33146
# Shear Modulus (GPa) = 10.94904 22.20492 16.57698
#
# Velocity S-wave (km/s) = 2.24243 3.19341 2.75920
# Velocity P-wave (km/s) = 4.60849 5.53154 5.09098
#
# Compressibility (1/GPa) = 0.03160019
#
# Stress axis : x y z
#
# Youngs Moduli (GPa) = 50.95025 40.54903 74.36125
#
# Poissons Ratio (x) = 0.32770 0.47500
# Poissons Ratio (y) = 0.41176 -0.10420
# Poissons Ratio (z) = 0.32545 -0.05682
#
# Static dielectric constant tensor:
#      x y z
#    x 1.815650 0.000000 -0.009220 
#    y 0.000000 1.785740 0.000000 
#    z -0.009220 0.000000 1.808360 
# 
# From -- ./inp_files/50159.got.cif
#   From: 2010.05.17/outbox.cif.g08.bks.cpg/sg13_26_cif.got.tgz:50159.got - 2010.06.03 16:44:36.
