data_PCOD9227410
_publ_section_title
;
Structure prediction by ZEFSAII (Michael W. Deem and Ramdas Pophale) SiO2 
 PCOD9227410
Probable space group: P 2/C
;
_chemical_formula_sum "Si O2"
_cell_formula_units_Z 26
_cell_length_a 19.655840
_cell_length_b 8.876876
_cell_length_c 8.442315
_cell_angle_alpha 90.000000
_cell_angle_beta 125.348900
_cell_angle_gamma 90.000000
_cell_volume 1201.473010
_symmetry_space_group_name_H-M "P 2/C"
_symmetry_group_IT_number 13
_symmetry_cell_setting 'monoclinic'
loop_
_space_group_symop_operation_xyz
x,y,z
-x,y,1/2-z
-x,-y,-z
x,-y,1/2+z
loop_
_atom_site_type_symbol
_atom_site_label
_atom_site_fract_x
_atom_site_fract_y
_atom_site_fract_z
Si Si1 0.061838 0.068913 0.954242
Si Si2 0.401348 0.223219 0.487446
Si Si3 0.340691 0.656203 0.448123
Si Si4 0.500000 0.528906 0.250000
Si Si5 0.275171 0.591047 0.023943
Si Si6 0.346501 0.961692 0.605888
Si Si7 0.171531 0.859777 0.882878
O O1 0.000000 0.155564 0.750000
O O2 0.107202 0.938474 0.914632
O O3 0.133484 0.145714 0.154917
O O4 0.000000 0.000000 0.000000
O O5 0.475594 0.346350 0.581553
O O6 0.322495 0.321701 0.444038
O O7 0.379602 0.132225 0.300363
O O8 0.407130 0.094527 0.630310
O O9 0.421686 0.582248 0.638957
O O10 0.332157 0.606001 0.256046
O O11 0.266906 0.578434 0.451566
O O12 0.339884 0.834552 0.461246
O O13 0.195384 0.689678 0.958392
O O14 0.255950 0.039012 0.504064
#
# Coordination Sequence:
#
# PCOD9227410 Si02
#       7
#     4   4   4   2   4   4   4
#     4   9  18  31  55  92 119 143 176 217 274 340
#     4  10  22  37  54  79 108 145 194 238 297 340
#     4  11  22  37  57  82 111 150 203 239 289 349
#     4  10  24  40  54  74 116 154 186 252 304 340
#     4  10  21  36  55  81 111 149 193 236 278 341
#     4  11  21  36  59  84 110 148 198 243 277 344
#     4  10  18  35  57  83 119 145 177 236 284 317
#
# _framework density 21.640104000000001
#
# number of rings (size 3 to 8) (size 9 to 14) (size 15 to 20)
#    0.000    1.846    0.000    6.462    0.000    6.769 
#    0.000    0.000    0.000    0.000    0.000   67.846 
#    0.000    0.000    0.000    0.000    0.000    0.000 
#
# Total GULP energy -144972.909012 kJ/mol
# GULP energy per Si atom -5575.881116 kJ/mol
# Density = 2.159085 g / cm^3
# Si number density = 21.640104 Si / 1000 Ang^3
#
#
#
# Elastic Constant Matrix: (Units=GPa)
#
#
# Indices 1 2 3 4 5 6 
#
# 1 65.5372 20.1161 25.3097 0.0000 6.3512 0.0000
# 2 20.1161 94.7702 7.4483 0.0000 11.1701 0.0000
# 3 25.3097 7.4483 120.7794 0.0000 2.7684 0.0000
# 4 0.0000 0.0000 0.0000 23.1834 0.0000 -13.0504
# 5 6.3512 11.1701 2.7684 0.0000 29.8899 0.0000
# 6 0.0000 0.0000 0.0000 -13.0504 0.0000 11.2071
#
#
#
# Elastic Compliance Matrix: (Units=1/GPa)
#
#
# Indices 1 2 3 4 5 6 
#
# 1 0.017817 -0.003243 -0.003482 0.000000 -0.002251 0.000000
# 2 -0.003243 0.011670 0.000044 0.000000 -0.003676 0.000000
# 3 -0.003482 0.000044 0.009009 0.000000 -0.000111 0.000000
# 4 0.000000 0.000000 0.000000 0.125210 0.000000 0.145804
# 5 -0.002251 -0.003676 -0.000111 0.000000 0.035319 0.000000
# 6 0.000000 0.000000 0.000000 0.145804 0.000000 0.259014
#
#
# Mechanical properties :
#
#
# Convention : Reuss Voigt Hill
#
# Bulk Modulus (GPa) = 39.78593 42.98167 41.38380
# Shear Modulus (GPa) = 10.42149 28.07025 19.24587
#
# Velocity S-wave (km/s) = 2.19688 3.60549 2.98545
# Velocity P-wave (km/s) = 4.98600 6.10229 5.57217
#
# Compressibility (1/GPa) = 0.02513451
#
# Stress axis : x y z
#
# Youngs Moduli (GPa) = 56.12703 85.68986 110.99968
#
# Poissons Ratio (x) = 0.27787 0.38650
# Poissons Ratio (y) = 0.18201 -0.00490
# Poissons Ratio (z) = 0.19543 -0.00378
#
# Static dielectric constant tensor:
#      x y z
#    x 1.825140 0.000000 0.003550 
#    y 0.000000 1.787300 0.000000 
#    z 0.003550 0.000000 1.889320 
# 
# From -- ./inp_files/21204.got.cif
#   From: 2010.05.17/outbox.cif.g08.bks.cpg/sg13_11_cif.got.tgz:21204.got - 2010.06.03 16:44:36.
