data_PCOD9227753
_publ_section_title
;
Structure prediction by ZEFSAII (Michael W. Deem and Ramdas Pophale) SiO2 
 PCOD9227753
Probable space group: P 2/C
;
_chemical_formula_sum "Si O2"
_cell_formula_units_Z 20
_cell_length_a 8.992035
_cell_length_b 7.796488
_cell_length_c 14.527688
_cell_angle_alpha 90.000000
_cell_angle_beta 79.715786
_cell_angle_gamma 90.000000
_cell_volume 1002.119682
_symmetry_space_group_name_H-M "P 2/C"
_symmetry_group_IT_number 13
_symmetry_cell_setting 'monoclinic'
loop_
_space_group_symop_operation_xyz
x,y,z
-x,y,1/2-z
-x,-y,-z
x,-y,1/2+z
loop_
_atom_site_type_symbol
_atom_site_label
_atom_site_fract_x
_atom_site_fract_y
_atom_site_fract_z
Si Si1 0.565854 0.305803 0.501217
Si Si2 0.706658 0.245710 0.855263
Si Si3 0.823690 0.474091 0.008020
Si Si4 0.682901 0.451285 0.223494
Si Si5 0.624982 0.888603 0.815644
O O1 0.500000 0.500000 0.500000
O O2 0.473557 0.240437 0.598965
O O3 0.742403 0.346983 0.488764
O O4 0.542655 0.181640 0.417368
O O5 0.737984 0.380371 0.770832
O O6 0.730764 0.050415 0.824858
O O7 0.785649 0.326518 0.937027
O O8 0.745357 0.436909 0.114467
O O9 0.000000 0.500000 0.000000
O O10 0.500000 0.459735 0.250000
O O11 0.719687 0.275839 0.271619
O O12 0.500000 0.926625 0.750000
#
# Coordination Sequence:
#
# PCOD9227753 Si02
#       5
#     4   4   4   4   4
#     4  10  18  39  63  92 128 162 208 264 312 372
#     4  11  21  40  65  96 126 164 217 262 317 380
#     4  11  24  42  67  91 131 178 207 260 324 375
#     4  11  20  40  68  94 124 162 220 263 316 375
#     4  11  21  34  66 101 125 162 210 271 317 369
#
# _framework density 19.957695000000001
#
# number of rings (size 3 to 8) (size 9 to 14) (size 15 to 20)
#    0.000    1.200    6.000    4.800    0.000    0.800 
#    0.000    1.000    4.400    0.000    0.000    0.000 
#    0.000    0.000    0.000    0.000    0.000    0.000 
#
# Total GULP energy -111487.933697 kJ/mol
# GULP energy per Si atom -5574.396685 kJ/mol
# Density = 1.991227 g / cm^3
# Si number density = 19.957695 Si / 1000 Ang^3
#
#
#
# Elastic Constant Matrix: (Units=GPa)
#
#
# Indices 1 2 3 4 5 6 
#
# 1 91.7984 12.4343 12.1139 0.0000 5.3063 0.0000
# 2 12.4343 141.3305 52.6213 0.0000 12.1068 0.0000
# 3 12.1139 52.6213 103.7175 0.0000 6.9249 0.0000
# 4 0.0000 0.0000 0.0000 28.8521 0.0000 9.4449
# 5 5.3063 12.1068 6.9249 0.0000 14.4591 0.0000
# 6 0.0000 0.0000 0.0000 9.4449 0.0000 9.2774
#
#
#
# Elastic Compliance Matrix: (Units=1/GPa)
#
#
# Indices 1 2 3 4 5 6 
#
# 1 0.011258 -0.000363 -0.000904 0.000000 -0.003395 0.000000
# 2 -0.000363 0.009156 -0.004235 0.000000 -0.005505 0.000000
# 3 -0.000904 -0.004235 0.012021 0.000000 -0.001879 0.000000
# 4 0.000000 0.000000 0.000000 0.051984 0.000000 -0.052923
# 5 -0.003395 -0.005505 -0.001879 0.000000 0.075916 0.000000
# 6 0.000000 0.000000 0.000000 -0.052923 0.000000 0.161668
#
#
# Mechanical properties :
#
#
# Convention : Reuss Voigt Hill
#
# Bulk Modulus (GPa) = 46.66227 54.57614 50.61921
# Shear Modulus (GPa) = 14.69927 27.82951 21.26439
#
# Velocity S-wave (km/s) = 2.71684 3.73825 3.26770
# Velocity P-wave (km/s) = 5.76827 6.78513 6.29726
#
# Compressibility (1/GPa) = 0.02143059
#
# Stress axis : x y z
#
# Youngs Moduli (GPa) = 88.82466 109.21706 83.18445
#
# Poissons Ratio (x) = 0.03966 0.07520
# Poissons Ratio (y) = 0.03225 0.35232
# Poissons Ratio (z) = 0.08030 0.46258
#
# Static dielectric constant tensor:
#      x y z
#    x 1.754700 0.000000 0.038190 
#    y 0.000000 1.790860 0.000000 
#    z 0.038190 0.000000 1.784450 
# 
# From -- ./inp_files/45833.got.cif
#   From: 2010.05.17/outbox.cif.g08.bks.cpg/sg13_23_cif.got.tgz:45833.got - 2010.06.03 16:44:36.
