data_PCOD9227538
_publ_section_title
;
Structure prediction by ZEFSAII (Michael W. Deem and Ramdas Pophale) SiO2 
 PCOD9227538
Probable space group: P 2/C
;
_chemical_formula_sum "Si O2"
_cell_formula_units_Z 24
_cell_length_a 9.153084
_cell_length_b 14.499979
_cell_length_c 21.476046
_cell_angle_alpha 90.000000
_cell_angle_beta 156.388329
_cell_angle_gamma 90.000000
_cell_volume 1141.643114
_symmetry_space_group_name_H-M "P 2/C"
_symmetry_group_IT_number 13
_symmetry_cell_setting 'monoclinic'
loop_
_space_group_symop_operation_xyz
x,y,z
-x,y,1/2-z
-x,-y,-z
x,-y,1/2+z
loop_
_atom_site_type_symbol
_atom_site_label
_atom_site_fract_x
_atom_site_fract_y
_atom_site_fract_z
Si Si1 0.846366 0.784481 0.967546
Si Si2 0.972913 0.163793 0.379632
Si Si3 0.678389 0.299101 0.072609
Si Si4 0.396565 0.452966 0.870581
Si Si5 0.094292 0.037199 0.604800
Si Si6 0.070373 0.373542 0.915331
O O1 0.413475 0.786835 0.785716
O O2 0.040175 0.810072 0.977979
O O3 0.992579 0.687920 0.048989
O O4 0.884892 0.868165 0.032241
O O5 0.251068 0.207475 0.439774
O O6 0.935404 0.052236 0.362777
O O7 0.000000 0.309150 0.250000
O O8 0.635426 0.382860 0.006099
O O9 0.294325 0.304355 0.957649
O O10 0.000000 0.468263 0.750000
O O11 0.275589 0.411606 0.757071
O O12 0.639775 0.544212 0.959667
O O13 0.500000 0.067927 0.750000
O O14 0.000000 0.000000 0.500000
#
# Coordination Sequence:
#
# PCOD9227538 Si02
#       6
#     4   4   4   4   4   4
#     4  10  21  36  62  89 117 155 196 242 292 348
#     4  10  20  37  61  90 116 153 196 242 293 348
#     4  11  20  36  64  85 115 156 195 241 290 348
#     4  10  22  37  60  89 114 158 202 239 286 360
#     4  10  18  36  59  86 113 153 195 229 282 357
#     4  11  21  38  62  88 116 156 199 244 291 347
#
# _framework density 21.02233
#
# number of rings (size 3 to 8) (size 9 to 14) (size 15 to 20)
#    0.000    1.667    5.000    3.500    0.000    2.667 
#    0.000    1.667    0.000    0.000    0.000    0.000 
#    0.000    0.000    0.000    0.000    0.000    0.000 
#
# Total GULP energy -133755.651185 kJ/mol
# GULP energy per Si atom -5573.152133 kJ/mol
# Density = 2.097448 g / cm^3
# Si number density = 21.022330 Si / 1000 Ang^3
#
#
#
# Elastic Constant Matrix: (Units=GPa)
#
#
# Indices 1 2 3 4 5 6 
#
# 1 41.3774 45.7874 25.5114 0.0000 -9.3614 0.0000
# 2 45.7874 131.3724 40.4569 0.0000 -24.2727 0.0000
# 3 25.5114 40.4569 83.2264 0.0000 -30.5773 0.0000
# 4 0.0000 0.0000 0.0000 30.0247 0.0000 9.7185
# 5 -9.3614 -24.2727 -30.5773 0.0000 22.3211 0.0000
# 6 0.0000 0.0000 0.0000 9.7185 0.0000 57.9981
#
#
#
# Elastic Compliance Matrix: (Units=1/GPa)
#
#
# Indices 1 2 3 4 5 6 
#
# 1 0.043851 -0.014119 -0.010997 0.000000 -0.012027 0.000000
# 2 -0.014119 0.014187 0.001860 0.000000 0.012054 0.000000
# 3 -0.010997 0.001860 0.027241 0.000000 0.034728 0.000000
# 4 0.000000 0.000000 0.000000 0.035216 0.000000 -0.005901
# 5 -0.012027 0.012054 0.034728 0.000000 0.100438 0.000000
# 6 0.000000 0.000000 0.000000 -0.005901 0.000000 0.018231
#
#
# Mechanical properties :
#
#
# Convention : Reuss Voigt Hill
#
# Bulk Modulus (GPa) = 25.79496 53.27640 39.53568
# Shear Modulus (GPa) = 16.74491 31.68346 24.21419
#
# Velocity S-wave (km/s) = 2.82535 3.88639 3.39755
# Velocity P-wave (km/s) = 4.78961 6.74808 5.85136
#
# Compressibility (1/GPa) = 0.03876727
#
# Stress axis : x y z
#
# Youngs Moduli (GPa) = 22.80462 70.48606 36.70923
#
# Poissons Ratio (x) = 0.99519 0.40370
# Poissons Ratio (y) = 0.32198 -0.06829
# Poissons Ratio (z) = 0.25079 -0.13112
#
# Static dielectric constant tensor:
#      x y z
#    x 1.817310 0.000000 0.002600 
#    y 0.000000 1.790010 0.000000 
#    z 0.002600 0.000000 1.764570 
# 
# From -- ./inp_files/92411.got.cif
#   From: 2010.05.17/outbox.cif.g08.bks.cpg/sg13_47_cif.got.tgz:92411.got - 2010.06.03 16:44:36.
