data_PCOD9227880
_publ_section_title
;
Structure prediction by ZEFSAII (Michael W. Deem and Ramdas Pophale) SiO2 
 PCOD9227880
Probable space group: P 2/C
;
_chemical_formula_sum "Si O2"
_cell_formula_units_Z 30
_cell_length_a 18.167275
_cell_length_b 12.811296
_cell_length_c 17.949090
_cell_angle_alpha 90.000000
_cell_angle_beta 18.541534
_cell_angle_gamma 90.000000
_cell_volume 1328.438670
_symmetry_space_group_name_H-M "P 2/C"
_symmetry_group_IT_number 13
_symmetry_cell_setting 'monoclinic'
loop_
_space_group_symop_operation_xyz
x,y,z
-x,y,1/2-z
-x,-y,-z
x,-y,1/2+z
loop_
_atom_site_type_symbol
_atom_site_label
_atom_site_fract_x
_atom_site_fract_y
_atom_site_fract_z
Si Si1 0.592611 0.590803 0.862258
Si Si2 0.780498 0.942217 0.315898
Si Si3 0.854370 0.695588 0.814487
Si Si4 0.121644 0.228308 0.363077
Si Si5 0.500000 0.391785 0.750000
Si Si6 0.731396 0.988347 0.700666
Si Si7 0.832208 0.290862 0.783725
Si Si8 0.903490 0.517221 0.439130
O O1 0.676597 0.686408 0.830305
O O2 0.794035 0.536043 0.623823
O O3 0.500000 0.500000 0.000000
O O4 0.402931 0.643598 0.991384
O O5 0.531893 0.992795 0.577372
O O6 0.796996 0.829423 0.339315
O O7 0.750562 0.934356 0.253409
O O8 0.038652 0.994162 0.072152
O O9 0.930035 0.772287 0.675181
O O10 0.000000 0.719460 0.750000
O O11 0.916472 0.577133 0.729761
O O12 0.591286 0.682610 0.095913
O O13 0.228984 0.124959 0.297618
O O14 0.934507 0.275459 0.600987
O O15 0.706040 0.468446 0.576749
O O16 0.002057 0.366560 0.666509
#
# Coordination Sequence:
#
# PCOD9227880 Si02
#       8
#     4   4   4   4   2   4   4   4
#     4  11  19  28  45  72 101 131 160 206 256 311
#     4   9  17  31  49  75 110 137 168 204 258 312
#     4  10  21  36  49  68  96 135 179 215 254 305
#     4  10  19  31  48  73 102 132 170 213 264 311
#     4  10  20  36  50  64  92 140 176 220 248 306
#     4   9  17  31  50  74 107 140 166 208 254 316
#     4  10  19  30  47  76 104 133 165 213 260 321
#     4  10  20  32  48  68  98 131 172 210 254 304
#
# _framework density 22.582902000000001
#
# number of rings (size 3 to 8) (size 9 to 14) (size 15 to 20)
#    0.000    2.133    1.333    3.200    0.000    3.200 
#    0.000    0.000    0.000    0.000    0.000    4.667 
#    0.000    1.067    0.000    0.000    0.000    0.000 
#
# Total GULP energy -167021.108167 kJ/mol
# GULP energy per Si atom -5567.370272 kJ/mol
# Density = 2.253150 g / cm^3
# Si number density = 22.582902 Si / 1000 Ang^3
#
#
#
# Elastic Constant Matrix: (Units=GPa)
#
#
# Indices 1 2 3 4 5 6 
#
# 1 49.1875 4.2650 10.0991 0.0000 12.6365 0.0000
# 2 4.2650 83.8229 10.5530 0.0000 7.6897 0.0000
# 3 10.0991 10.5530 114.5232 0.0000 -4.7662 0.0000
# 4 0.0000 0.0000 0.0000 18.3251 0.0000 0.7143
# 5 12.6365 7.6897 -4.7662 0.0000 27.4260 0.0000
# 6 0.0000 0.0000 0.0000 0.7143 0.0000 9.4806
#
#
#
# Elastic Compliance Matrix: (Units=1/GPa)
#
#
# Indices 1 2 3 4 5 6 
#
# 1 0.023792 0.000167 -0.002590 0.000000 -0.011459 0.000000
# 2 0.000167 0.012435 -0.001318 0.000000 -0.003793 0.000000
# 3 -0.002590 -0.001318 0.009213 0.000000 0.003164 0.000000
# 4 0.000000 0.000000 0.000000 0.054731 0.000000 -0.004124
# 5 -0.011459 -0.003793 0.003164 0.000000 0.043355 0.000000
# 6 0.000000 0.000000 0.000000 -0.004124 0.000000 0.105790
#
#
# Mechanical properties :
#
#
# Convention : Reuss Voigt Hill
#
# Bulk Modulus (GPa) = 26.34594 33.04088 29.69341
# Shear Modulus (GPa) = 18.55620 25.88743 22.22181
#
# Velocity S-wave (km/s) = 2.86963 3.38942 3.14030
# Velocity P-wave (km/s) = 4.76144 5.47542 5.13087
#
# Compressibility (1/GPa) = 0.03795651
#
# Stress axis : x y z
#
# Youngs Moduli (GPa) = 42.03162 80.41603 108.53690
#
# Poissons Ratio (x) = -0.01341 0.28114
# Poissons Ratio (y) = -0.00701 0.14310
# Poissons Ratio (z) = 0.10887 0.10602
#
# Static dielectric constant tensor:
#      x y z
#    x 1.871930 0.000000 -0.032700 
#    y 0.000000 1.873340 0.000000 
#    z -0.032700 0.000000 1.968080 
# 
# From -- ./inp_files/70034.got.cif
#   From: 2010.05.17/outbox.cif.g08.bks.cpg/sg13_36_cif.got.tgz:70034.got - 2010.06.03 16:44:36.
