data_PCOD9227315
_publ_section_title
;
Structure prediction by ZEFSAII (Michael W. Deem and Ramdas Pophale) SiO2 
 PCOD9227315
Probable space group: P 2/C
;
_chemical_formula_sum "Si O2"
_cell_formula_units_Z 30
_cell_length_a 17.697752
_cell_length_b 5.450724
_cell_length_c 17.368429
_cell_angle_alpha 90.000000
_cell_angle_beta 129.221380
_cell_angle_gamma 90.000000
_cell_volume 1297.989583
_symmetry_space_group_name_H-M "P 2/C"
_symmetry_group_IT_number 13
_symmetry_cell_setting 'monoclinic'
loop_
_space_group_symop_operation_xyz
x,y,z
-x,y,1/2-z
-x,-y,-z
x,-y,1/2+z
loop_
_atom_site_type_symbol
_atom_site_label
_atom_site_fract_x
_atom_site_fract_y
_atom_site_fract_z
Si Si1 0.315144 0.723837 0.391491
Si Si2 0.500000 0.853463 0.250000
Si Si3 0.758465 0.413700 0.376879
Si Si4 0.927983 0.300117 0.592658
Si Si5 0.675300 0.936807 0.261637
Si Si6 0.818644 0.092856 0.100923
Si Si7 0.881378 0.487083 0.234250
Si Si8 0.646095 0.458517 0.942954
O O1 0.354701 0.868240 0.344513
O O2 0.227390 0.544853 0.307987
O O3 0.382589 0.577143 0.494158
O O4 0.255240 0.904775 0.407771
O O5 0.579376 0.990400 0.250092
O O6 0.440586 0.687670 0.151485
O O7 0.866353 0.407045 0.482512
O O8 0.725137 0.683857 0.326251
O O9 0.688629 0.358619 0.406118
O O10 0.741836 0.179229 0.311039
O O11 0.899502 0.407493 0.659147
O O12 0.040076 0.382894 0.661106
O O13 0.889474 0.022425 0.582131
O O14 0.883196 0.200978 0.213196
O O15 0.741610 0.288937 0.018521
#
# Coordination Sequence:
#
# PCOD9227315 Si02
#       8
#     4   2   4   4   4   4   4   4
#     4  10  22  41  63  93 130 178 212 268 341 390
#     4  10  24  44  68 104 124 170 226 276 332 404
#     4  11  22  43  66  95 130 177 216 269 338 386
#     4  10  18  34  58  98 119 172 223 268 312 382
#     4  11  27  43  68  93 136 173 217 275 337 401
#     4  10  18  38  64  90 134 169 218 273 332 381
#     4   9  20  32  60  91 128 163 225 270 316 384
#     4  10  21  41  69  94 131 170 221 279 331 397
#
# _framework density 23.112665
#
# number of rings (size 3 to 8) (size 9 to 14) (size 15 to 20)
#    0.000    1.867    4.000    1.600    3.733    6.933 
#    0.000    2.000    0.000    0.000    0.000    0.000 
#    0.000    0.000    0.000    0.000    0.000    0.000 
#
# Total GULP energy -167204.066937 kJ/mol
# GULP energy per Si atom -5573.468898 kJ/mol
# Density = 2.306006 g / cm^3
# Si number density = 23.112665 Si / 1000 Ang^3
#
#
#
# Elastic Constant Matrix: (Units=GPa)
#
#
# Indices 1 2 3 4 5 6 
#
# 1 26.4170 4.1574 12.1389 0.0000 -11.2115 0.0000
# 2 4.1574 74.6136 33.1431 0.0000 -1.3953 0.0000
# 3 12.1389 33.1431 110.5975 0.0000 7.8416 0.0000
# 4 0.0000 0.0000 0.0000 27.1175 0.0000 -1.5286
# 5 -11.2115 -1.3953 7.8416 0.0000 25.9518 0.0000
# 6 0.0000 0.0000 0.0000 -1.5286 0.0000 18.1691
#
#
#
# Elastic Compliance Matrix: (Units=1/GPa)
#
#
# Indices 1 2 3 4 5 6 
#
# 1 0.051757 0.001017 -0.007741 0.000000 0.024753 0.000000
# 2 0.001017 0.015614 -0.004988 0.000000 0.002786 0.000000
# 3 -0.007741 -0.004988 0.011897 0.000000 -0.007207 0.000000
# 4 0.000000 0.000000 0.000000 0.037052 0.000000 0.003117
# 5 0.024753 0.002786 -0.007207 0.000000 0.051554 0.000000
# 6 0.000000 0.000000 0.000000 0.003117 0.000000 0.055301
#
#
# Mechanical properties :
#
#
# Convention : Reuss Voigt Hill
#
# Bulk Modulus (GPa) = 17.90682 34.50076 26.20379
# Shear Modulus (GPa) = 18.85283 25.06025 21.95654
#
# Velocity S-wave (km/s) = 2.85913 3.29639 3.08552
# Velocity P-wave (km/s) = 4.32018 5.42659 4.90468
#
# Compressibility (1/GPa) = 0.05584465
#
# Stress axis : x y z
#
# Youngs Moduli (GPa) = 19.32122 64.04696 84.05338
#
# Poissons Ratio (x) = -0.06516 0.65062
# Poissons Ratio (y) = -0.01966 0.41927
# Poissons Ratio (z) = 0.14956 0.31948
#
# Static dielectric constant tensor:
#      x y z
#    x 1.885680 0.000000 -0.007590 
#    y 0.000000 2.085850 0.000000 
#    z -0.007590 0.000000 1.940780 
# 
# From -- ./inp_files/81398.got.cif
#   From: 2010.05.17/outbox.cif.g08.bks.cpg/sg13_41_cif.got.tgz:81398.got - 2010.06.03 16:44:36.
