data_PCOD9227127
_publ_section_title
;
Structure prediction by ZEFSAII (Michael W. Deem and Ramdas Pophale) SiO2 
 PCOD9227127
Probable space group: P 2/C
;
_chemical_formula_sum "Si O2"
_cell_formula_units_Z 24
_cell_length_a 9.923626
_cell_length_b 6.970305
_cell_length_c 23.634661
_cell_angle_alpha 90.000000
_cell_angle_beta 130.892771
_cell_angle_gamma 90.000000
_cell_volume 1235.823978
_symmetry_space_group_name_H-M "P 2/C"
_symmetry_group_IT_number 13
_symmetry_cell_setting 'monoclinic'
loop_
_space_group_symop_operation_xyz
x,y,z
-x,y,1/2-z
-x,-y,-z
x,-y,1/2+z
loop_
_atom_site_type_symbol
_atom_site_label
_atom_site_fract_x
_atom_site_fract_y
_atom_site_fract_z
Si Si1 0.003927 0.723089 0.514267
Si Si2 0.855015 0.507216 0.661405
Si Si3 0.729910 0.982578 0.972314
Si Si4 0.187636 0.083504 0.884062
Si Si5 0.895728 0.808508 0.833960
Si Si6 0.356140 0.175835 0.336300
O O1 0.112229 0.772481 0.601674
O O2 0.000000 0.500000 0.500000
O O3 0.809056 0.817833 0.470470
O O4 0.107662 0.835104 0.493742
O O5 0.797158 0.310524 0.617108
O O6 0.692909 0.626956 0.644423
O O7 0.000000 0.460736 0.750000
O O8 0.962896 0.649778 0.649835
O O9 0.556929 0.896378 0.895331
O O10 0.700600 0.993541 0.031513
O O11 0.244983 0.982750 0.841548
O O12 0.989316 0.010344 0.844522
O O13 0.719845 0.799298 0.747671
#
# Coordination Sequence:
#
# PCOD9227127 Si02
#       6
#     4   4   4   4   4   4
#     4  10  21  39  57  73 102 146 190 228 267 320
#     4   9  17  30  51  78 105 138 175 212 268 330
#     4  10  22  35  53  80 105 139 185 225 271 324
#     4  10  18  33  54  78 110 142 173 214 268 331
#     4   9  19  34  54  77 106 141 177 220 268 322
#     4  10  20  33  51  81 111 135 172 225 277 322
#
# _framework density 19.420241000000001
#
# number of rings (size 3 to 8) (size 9 to 14) (size 15 to 20)
#    0.000    2.333    0.000    4.000    0.000    2.667 
#    0.000    0.000    0.000    6.000    0.000    0.000 
#    0.000    0.000    0.000    0.000    0.000    0.000 
#
# Total GULP energy -133839.079028 kJ/mol
# GULP energy per Si atom -5576.628293 kJ/mol
# Density = 1.937604 g / cm^3
# Si number density = 19.420241 Si / 1000 Ang^3
#
#
#
# Elastic Constant Matrix: (Units=GPa)
#
#
# Indices 1 2 3 4 5 6 
#
# 1 45.9576 26.7346 34.7285 0.0000 -3.4229 0.0000
# 2 26.7346 126.3659 30.0384 0.0000 12.9225 0.0000
# 3 34.7285 30.0384 70.3635 0.0000 -1.2889 0.0000
# 4 0.0000 0.0000 0.0000 15.4690 0.0000 -8.3824
# 5 -3.4229 12.9225 -1.2889 0.0000 24.0750 0.0000
# 6 0.0000 0.0000 0.0000 -8.3824 0.0000 15.5179
#
#
#
# Elastic Compliance Matrix: (Units=1/GPa)
#
#
# Indices 1 2 3 4 5 6 
#
# 1 0.037338 -0.004745 -0.016275 0.000000 0.006984 0.000000
# 2 -0.004745 0.010037 -0.002056 0.000000 -0.006172 0.000000
# 3 -0.016275 -0.002056 0.023123 0.000000 0.000028 0.000000
# 4 0.000000 0.000000 0.000000 0.091399 0.000000 0.049372
# 5 0.006984 -0.006172 0.000028 0.000000 0.045844 0.000000
# 6 0.000000 0.000000 0.000000 0.049372 0.000000 0.091111
#
#
# Mechanical properties :
#
#
# Convention : Reuss Voigt Hill
#
# Bulk Modulus (GPa) = 41.07423 47.29889 44.18656
# Shear Modulus (GPa) = 14.15949 21.09140 17.62545
#
# Velocity S-wave (km/s) = 2.70313 3.29911 3.01588
# Velocity P-wave (km/s) = 5.56226 6.23863 5.91013
#
# Compressibility (1/GPa) = 0.02434617
#
# Stress axis : x y z
#
# Youngs Moduli (GPa) = 26.78244 99.62786 43.24740
#
# Poissons Ratio (x) = 0.47273 0.70385
# Poissons Ratio (y) = 0.12708 0.08892
# Poissons Ratio (z) = 0.43588 0.20485
#
# Static dielectric constant tensor:
#      x y z
#    x 1.687000 0.000000 -0.013390 
#    y 0.000000 1.671530 0.000000 
#    z -0.013390 0.000000 1.717300 
# 
# From -- ./inp_files/91855.got.cif
#   From: 2010.05.17/outbox.cif.g08.bks.cpg/sg13_46_cif.got.tgz:91855.got - 2010.06.03 16:44:36.
