data_PCOD9227381
_publ_section_title
;
Structure prediction by ZEFSAII (Michael W. Deem and Ramdas Pophale) SiO2 
 PCOD9227381
Probable space group: P 2/C
;
_chemical_formula_sum "Si O2"
_cell_formula_units_Z 30
_cell_length_a 14.031072
_cell_length_b 8.385709
_cell_length_c 22.555517
_cell_angle_alpha 90.000000
_cell_angle_beta 31.719843
_cell_angle_gamma 90.000000
_cell_volume 1395.327500
_symmetry_space_group_name_H-M "P 2/C"
_symmetry_group_IT_number 13
_symmetry_cell_setting 'monoclinic'
loop_
_space_group_symop_operation_xyz
x,y,z
-x,y,1/2-z
-x,-y,-z
x,-y,1/2+z
loop_
_atom_site_type_symbol
_atom_site_label
_atom_site_fract_x
_atom_site_fract_y
_atom_site_fract_z
Si Si1 0.233422 0.750068 0.025420
Si Si2 0.480104 0.532820 0.692541
Si Si3 0.621497 0.915284 0.003562
Si Si4 0.152418 0.283777 0.341407
Si Si5 0.248258 0.973310 0.691122
Si Si6 0.000000 0.783947 0.250000
Si Si7 0.173610 0.078264 0.439100
Si Si8 0.737356 0.757756 0.052114
O O1 0.114960 0.681424 0.142099
O O2 0.389034 0.636111 0.918886
O O3 0.134275 0.816623 0.018549
O O4 0.318270 0.906205 0.011274
O O5 0.500000 0.586778 0.750000
O O6 0.277089 0.558620 0.774914
O O7 0.569754 0.359012 0.647839
O O8 0.738603 0.800423 0.982082
O O9 0.409223 0.916069 0.131558
O O10 0.659481 0.887825 0.914587
O O11 0.177772 0.159235 0.273827
O O12 0.238683 0.189757 0.351864
O O13 0.936406 0.311106 0.463779
O O14 0.103049 0.093505 0.739872
O O15 0.287673 0.926276 0.400815
O O16 0.000000 0.000000 0.500000
#
# Coordination Sequence:
#
# PCOD9227381 Si02
#       8
#     4   4   4   4   4   2   4   4
#     4  10  19  39  60  88 126 162 209 259 325 380
#     4  12  25  43  61  89 135 174 204 261 332 394
#     4   9  19  37  64  93 123 159 221 274 309 383
#     4  11  21  40  68  93 129 178 208 267 334 379
#     4  10  18  34  66  96 123 162 213 271 326 360
#     4  10  20  34  62  98 124 160 216 276 310 382
#     4   9  18  37  66  93 117 157 219 268 310 378
#     4  10  24  42  62  95 126 167 224 264 315 391
#
# _framework density 21.500329000000001
#
# number of rings (size 3 to 8) (size 9 to 14) (size 15 to 20)
#    0.000    1.867    2.667    3.200    0.000    1.600 
#    2.400    2.000    0.000    0.000    0.000    0.000 
#    0.000    0.000    0.000    0.000    0.000    0.000 
#
# Total GULP energy -167173.172625 kJ/mol
# GULP energy per Si atom -5572.439087 kJ/mol
# Density = 2.145139 g / cm^3
# Si number density = 21.500329 Si / 1000 Ang^3
#
#
#
# Elastic Constant Matrix: (Units=GPa)
#
#
# Indices 1 2 3 4 5 6 
#
# 1 97.6293 15.1035 20.4121 0.0000 7.6324 0.0000
# 2 15.1035 39.7871 15.1653 0.0000 -0.4258 0.0000
# 3 20.4121 15.1653 56.7536 0.0000 10.7316 0.0000
# 4 0.0000 0.0000 0.0000 19.4926 0.0000 -10.1233
# 5 7.6324 -0.4258 10.7316 0.0000 40.3334 0.0000
# 6 0.0000 0.0000 0.0000 -10.1233 0.0000 13.6166
#
#
#
# Elastic Compliance Matrix: (Units=1/GPa)
#
#
# Indices 1 2 3 4 5 6 
#
# 1 0.011480 -0.003230 -0.003000 0.000000 -0.001408 0.000000
# 2 -0.003230 0.029116 -0.007152 0.000000 0.002822 0.000000
# 3 -0.003000 -0.007152 0.021604 0.000000 -0.005256 0.000000
# 4 0.000000 0.000000 0.000000 0.083567 0.000000 0.062128
# 5 -0.001408 0.002822 -0.005256 0.000000 0.026488 0.000000
# 6 0.000000 0.000000 0.000000 0.062128 0.000000 0.119629
#
#
# Mechanical properties :
#
#
# Convention : Reuss Voigt Hill
#
# Bulk Modulus (GPa) = 28.21899 32.83687 30.52793
# Shear Modulus (GPa) = 15.13050 24.25448 19.69249
#
# Velocity S-wave (km/s) = 2.65568 3.36236 3.02969
# Velocity P-wave (km/s) = 4.74941 5.51179 5.14474
#
# Compressibility (1/GPa) = 0.03543714
#
# Stress axis : x y z
#
# Youngs Moduli (GPa) = 87.11050 34.34534 46.28804
#
# Poissons Ratio (x) = 0.11092 0.13884
# Poissons Ratio (y) = 0.28133 0.33106
# Poissons Ratio (z) = 0.26129 0.24564
#
# Static dielectric constant tensor:
#      x y z
#    x 1.781360 0.000000 -0.039820 
#    y 0.000000 1.816560 0.000000 
#    z -0.039820 0.000000 1.804150 
# 
# From -- ./inp_files/87301.got.cif
#   From: 2010.05.17/outbox.cif.g08.bks.cpg/sg13_44_cif.got.tgz:87301.got - 2010.06.03 16:44:36.
