data_PCOD9227744
_publ_section_title
;
Structure prediction by ZEFSAII (Michael W. Deem and Ramdas Pophale) SiO2 
 PCOD9227744
Probable space group: P 2/C
;
_chemical_formula_sum "Si O2"
_cell_formula_units_Z 28
_cell_length_a 14.070136
_cell_length_b 6.634310
_cell_length_c 16.461411
_cell_angle_alpha 90.000000
_cell_angle_beta 122.526108
_cell_angle_gamma 90.000000
_cell_volume 1295.579805
_symmetry_space_group_name_H-M "P 2/C"
_symmetry_group_IT_number 13
_symmetry_cell_setting 'monoclinic'
loop_
_space_group_symop_operation_xyz
x,y,z
-x,y,1/2-z
-x,-y,-z
x,-y,1/2+z
loop_
_atom_site_type_symbol
_atom_site_label
_atom_site_fract_x
_atom_site_fract_y
_atom_site_fract_z
Si Si1 0.000000 0.033195 0.250000
Si Si2 0.500000 0.701812 0.750000
Si Si3 0.610220 0.862445 0.047937
Si Si4 0.280010 0.127143 0.074744
Si Si5 0.220920 0.144012 0.278410
Si Si6 0.794176 0.802031 0.360888
Si Si7 0.372495 0.528626 0.316311
Si Si8 0.970301 0.167147 0.557276
O O1 0.104956 0.168391 0.272507
O O2 0.027349 0.907512 0.346375
O O3 0.616592 0.823507 0.816024
O O4 0.521867 0.564374 0.681852
O O5 0.593755 0.658836 0.090746
O O6 0.704551 0.989735 0.136946
O O7 0.659317 0.832008 0.981876
O O8 0.500000 0.000000 0.000000
O O9 0.242519 0.892499 0.069268
O O10 0.157843 0.239494 0.018830
O O11 0.288029 0.348560 0.299256
O O12 0.198229 0.013127 0.186833
O O13 0.696096 0.668800 0.278129
O O14 0.916364 0.699757 0.403850
O O15 0.000000 0.000000 0.500000
#
# Coordination Sequence:
#
# PCOD9227744 Si02
#       8
#     2   2   4   4   4   4   4   4
#     4  10  18  38  72  96 138 180 214 288 350 404
#     4  12  26  40  70  94 140 180 226 280 336 404
#     4  11  25  41  67  92 133 175 223 275 331 400
#     4  11  22  43  67  99 126 179 222 273 339 403
#     4  10  20  43  63  98 131 170 220 270 336 396
#     4   9  21  41  72  91 128 175 218 274 338 401
#     4  11  25  45  64 101 132 175 222 280 334 407
#     4   9  19  39  70  99 129 174 231 275 340 414
#
# _framework density 21.611944999999999
#
# number of rings (size 3 to 8) (size 9 to 14) (size 15 to 20)
#    0.000    1.714    2.857    0.857    4.000    2.286 
#    2.571    0.714    0.000    0.000    0.000    0.000 
#    0.000    0.000    0.000    0.000    0.000    0.000 
#
# Total GULP energy -156026.043180 kJ/mol
# GULP energy per Si atom -5572.358685 kJ/mol
# Density = 2.156276 g / cm^3
# Si number density = 21.611945 Si / 1000 Ang^3
#
#
#
# Elastic Constant Matrix: (Units=GPa)
#
#
# Indices 1 2 3 4 5 6 
#
# 1 173.4391 35.2053 32.7750 0.0000 16.9117 0.0000
# 2 35.2053 57.5474 11.0877 0.0000 6.1882 0.0000
# 3 32.7750 11.0877 96.7414 0.0000 6.8409 0.0000
# 4 0.0000 0.0000 0.0000 11.9894 0.0000 -6.2190
# 5 16.9117 6.1882 6.8409 0.0000 25.9730 0.0000
# 6 0.0000 0.0000 0.0000 -6.2190 0.0000 17.0400
#
#
#
# Elastic Compliance Matrix: (Units=1/GPa)
#
#
# Indices 1 2 3 4 5 6 
#
# 1 0.007174 -0.003690 -0.001772 0.000000 -0.003325 0.000000
# 2 -0.003690 0.020036 -0.000895 0.000000 -0.002135 0.000000
# 3 -0.001772 -0.000895 0.011151 0.000000 -0.001570 0.000000
# 4 0.000000 0.000000 0.000000 0.102884 0.000000 0.037549
# 5 -0.003325 -0.002135 -0.001570 0.000000 0.041589 0.000000
# 6 0.000000 0.000000 0.000000 0.037549 0.000000 0.072389
#
#
# Mechanical properties :
#
#
# Convention : Reuss Voigt Hill
#
# Bulk Modulus (GPa) = 38.99212 53.98489 46.48851
# Shear Modulus (GPa) = 18.08408 27.57783 22.83095
#
# Velocity S-wave (km/s) = 2.89582 3.57605 3.25376
# Velocity P-wave (km/s) = 5.40945 6.48724 5.97271
#
# Compressibility (1/GPa) = 0.02564620
#
# Stress axis : x y z
#
# Youngs Moduli (GPa) = 139.39605 49.90949 89.67868
#
# Poissons Ratio (x) = 0.18415 0.15895
# Poissons Ratio (y) = 0.51432 0.08030
# Poissons Ratio (z) = 0.24707 0.04469
#
# Static dielectric constant tensor:
#      x y z
#    x 1.833170 0.000000 -0.032020 
#    y 0.000000 1.813130 0.000000 
#    z -0.032020 0.000000 1.934280 
# 
# From -- ./inp_files/67460.got.cif
#   From: 2010.05.17/outbox.cif.g08.bks.cpg/sg13_34_cif.got.tgz:67460.got - 2010.06.03 16:44:36.
