data_PCOD9227416
_publ_section_title
;
Structure prediction by ZEFSAII (Michael W. Deem and Ramdas Pophale) SiO2 
 PCOD9227416
Probable space group: P 2/C
;
_chemical_formula_sum "Si O2"
_cell_formula_units_Z 26
_cell_length_a 14.040160
_cell_length_b 13.842253
_cell_length_c 14.135042
_cell_angle_alpha 90.000000
_cell_angle_beta 22.712251
_cell_angle_gamma 90.000000
_cell_volume 1060.667950
_symmetry_space_group_name_H-M "P 2/C"
_symmetry_group_IT_number 13
_symmetry_cell_setting 'monoclinic'
loop_
_space_group_symop_operation_xyz
x,y,z
-x,y,1/2-z
-x,-y,-z
x,-y,1/2+z
loop_
_atom_site_type_symbol
_atom_site_label
_atom_site_fract_x
_atom_site_fract_y
_atom_site_fract_z
Si Si1 0.399314 0.730360 0.451837
Si Si2 0.000000 0.599416 0.750000
Si Si3 0.717281 0.055698 0.472023
Si Si4 0.228019 0.232510 0.416987
Si Si5 0.285105 0.156800 0.582658
Si Si6 0.306764 0.584553 0.195595
Si Si7 0.141180 0.447791 0.505279
O O1 0.500000 0.720910 0.250000
O O2 0.356686 0.843091 0.507007
O O3 0.573466 0.678165 0.367473
O O4 0.142650 0.670966 0.688629
O O5 0.800044 0.516447 0.960205
O O6 0.000000 0.067593 0.250000
O O7 0.725856 0.958722 0.402878
O O8 0.500000 0.039075 0.750000
O O9 0.252125 0.191075 0.502146
O O10 0.282469 0.347671 0.368215
O O11 0.947962 0.201453 0.648414
O O12 0.433118 0.188262 0.160589
O O13 0.155044 0.534540 0.418306
O O14 0.134129 0.594528 0.262665
O O15 0.500000 0.500000 0.000000
#
# Coordination Sequence:
#
# PCOD9227416 Si02
#       7
#     4   2   4   4   4   4   4
#     4  11  23  37  63  91 121 162 217 260 313 379
#     4  12  20  38  60  96 118 156 218 266 304 388
#     4  11  19  35  60  92 124 159 200 265 321 373
#     4  10  20  33  58  86 121 159 203 248 314 378
#     4  10  18  35  57  94 122 151 203 266 318 370
#     4  11  24  43  58  85 131 172 209 262 320 378
#     4  11  25  38  62  89 125 171 210 261 323 377
#
# _framework density 24.512857
#
# number of rings (size 3 to 8) (size 9 to 14) (size 15 to 20)
#    0.000    1.231    6.923    0.923    2.154    2.462 
#    0.000    0.000    0.000    1.846    0.000    0.000 
#    0.000    0.000    0.000    0.000    0.000    0.000 
#
# Total GULP energy -144834.005375 kJ/mol
# GULP energy per Si atom -5570.538668 kJ/mol
# Density = 2.445706 g / cm^3
# Si number density = 24.512857 Si / 1000 Ang^3
#
#
#
# Elastic Constant Matrix: (Units=GPa)
#
#
# Indices 1 2 3 4 5 6 
#
# 1 36.6176 10.5025 0.0914 0.0000 -5.6074 0.0000
# 2 10.5025 221.3874 32.0622 0.0000 -11.8255 0.0000
# 3 0.0914 32.0622 128.6548 0.0000 -25.4015 0.0000
# 4 0.0000 0.0000 0.0000 42.0710 0.0000 -9.7872
# 5 -5.6074 -11.8255 -25.4015 0.0000 23.0256 0.0000
# 6 0.0000 0.0000 0.0000 -9.7872 0.0000 13.0799
#
#
#
# Elastic Compliance Matrix: (Units=1/GPa)
#
#
# Indices 1 2 3 4 5 6 
#
# 1 0.028969 -0.001201 0.001981 0.000000 0.008624 0.000000
# 2 -0.001201 0.004773 -0.000975 0.000000 0.001084 0.000000
# 3 0.001981 -0.000975 0.010241 0.000000 0.011280 0.000000
# 4 0.000000 0.000000 0.000000 0.028779 0.000000 0.021534
# 5 0.008624 0.001084 0.011280 0.000000 0.058531 0.000000
# 6 0.000000 0.000000 0.000000 0.021534 0.000000 0.092566
#
#
# Mechanical properties :
#
#
# Convention : Reuss Voigt Hill
#
# Bulk Modulus (GPa) = 22.93793 52.44133 37.68963
# Shear Modulus (GPa) = 20.93985 38.56890 29.75437
#
# Velocity S-wave (km/s) = 2.92591 3.97093 3.48778
# Velocity P-wave (km/s) = 4.55987 6.51646 5.62391
#
# Compressibility (1/GPa) = 0.04359591
#
# Stress axis : x y z
#
# Youngs Moduli (GPa) = 34.51923 209.51347 97.64344
#
# Poissons Ratio (x) = 0.25154 -0.19347
# Poissons Ratio (y) = 0.04144 0.09517
# Poissons Ratio (z) = -0.06840 0.20420
#
# Static dielectric constant tensor:
#      x y z
#    x 2.097340 0.000000 0.169720 
#    y 0.000000 1.859150 0.000000 
#    z 0.169720 0.000000 2.366370 
# 
# From -- ./inp_files/69927.got.cif
#   From: 2010.05.17/outbox.cif.g08.bks.cpg/sg13_35_cif.got.tgz:69927.got - 2010.06.03 16:44:36.
