data_PCOD9227883
_publ_section_title
;
Structure prediction by ZEFSAII (Michael W. Deem and Ramdas Pophale) SiO2 
 PCOD9227883
Probable space group: P 2/C
;
_chemical_formula_sum "Si O2"
_cell_formula_units_Z 28
_cell_length_a 11.654939
_cell_length_b 25.729915
_cell_length_c 5.162087
_cell_angle_alpha 90.000000
_cell_angle_beta 108.150734
_cell_angle_gamma 90.000000
_cell_volume 1470.981138
_symmetry_space_group_name_H-M "P 2/C"
_symmetry_group_IT_number 13
_symmetry_cell_setting 'monoclinic'
loop_
_space_group_symop_operation_xyz
x,y,z
-x,y,1/2-z
-x,-y,-z
x,-y,1/2+z
loop_
_atom_site_type_symbol
_atom_site_label
_atom_site_fract_x
_atom_site_fract_y
_atom_site_fract_z
Si Si1 0.921705 0.928652 0.454037
Si Si2 0.623749 0.857887 0.955768
Si Si3 0.344090 0.029913 0.806209
Si Si4 0.145546 0.284235 0.349394
Si Si5 0.229938 0.832892 0.949031
Si Si6 0.852614 0.348124 0.648630
Si Si7 0.147203 0.532255 0.353400
O O1 0.801035 0.961035 0.306078
O O2 0.871194 0.872647 0.515720
O O3 0.000000 0.923129 0.250000
O O4 0.000000 0.950189 0.750000
O O5 0.500000 0.836914 0.750000
O O6 0.716369 0.856647 0.779111
O O7 0.605074 0.916309 0.048516
O O8 0.674949 0.829748 0.246467
O O9 0.375896 0.014294 0.536596
O O10 0.185192 0.224789 0.361249
O O11 0.186183 0.313647 0.636075
O O12 0.000000 0.284254 0.250000
O O13 0.186534 0.318510 0.136265
O O14 0.812983 0.407969 0.633215
O O15 0.000000 0.349175 0.750000
O O16 0.185202 0.502543 0.638182
O O17 0.000000 0.533440 0.250000
#
# Coordination Sequence:
#
# PCOD9227883 Si02
#       7
#     4   4   4   4   4   4   4
#     4  11  22  36  55  78 108 140 166 197 237 292
#     4  11  24  42  61  78  99 127 164 211 254 302
#     4  11  23  38  56  81 105 129 165 201 242 298
#     4  10  19  30  48  71 100 132 163 206 249 291
#     4  11  22  38  57  79 102 130 172 206 249 307
#     4   9  17  27  39  63  94 128 173 213 246 283
#     4   9  15  23  36  53  81 125 175 219 245 268
#
# _framework density 19.034915999999999
#
# number of rings (size 3 to 8) (size 9 to 14) (size 15 to 20)
#    0.000    1.714    0.000    6.857    0.000    7.429 
#    0.000    0.000    0.000    0.000    0.000    0.000 
#    0.000    0.000    0.000    0.000    0.000  180.000 
#
# Total GULP energy -156477.369927 kJ/mol
# GULP energy per Si atom -5588.477497 kJ/mol
# Density = 1.899159 g / cm^3
# Si number density = 19.034916 Si / 1000 Ang^3
#
#
#
# Elastic Constant Matrix: (Units=GPa)
#
#
# Indices 1 2 3 4 5 6 
#
# 1 39.1441 16.5129 22.1722 0.0000 -14.1139 0.0000
# 2 16.5129 110.9341 27.6837 0.0000 -19.2321 0.0000
# 3 22.1722 27.6837 106.1104 0.0000 -22.8670 0.0000
# 4 0.0000 0.0000 0.0000 34.1381 0.0000 -4.4733
# 5 -14.1139 -19.2321 -22.8670 0.0000 37.9782 0.0000
# 6 0.0000 0.0000 0.0000 -4.4733 0.0000 8.0097
#
#
#
# Elastic Compliance Matrix: (Units=1/GPa)
#
#
# Indices 1 2 3 4 5 6 
#
# 1 0.031869 -0.002261 -0.004325 0.000000 0.008094 0.000000
# 2 -0.002261 0.010324 -0.001466 0.000000 0.003505 0.000000
# 3 -0.004325 -0.001466 0.011725 0.000000 0.004710 0.000000
# 4 0.000000 0.000000 0.000000 0.031606 0.000000 0.017651
# 5 0.008094 0.003505 0.004710 0.000000 0.033950 0.000000
# 6 0.000000 0.000000 0.000000 0.017651 0.000000 0.134706
#
#
# Mechanical properties :
#
#
# Convention : Reuss Voigt Hill
#
# Bulk Modulus (GPa) = 26.44453 43.21404 34.82928
# Shear Modulus (GPa) = 17.67476 28.67985 23.17730
#
# Velocity S-wave (km/s) = 3.05051 3.88583 3.49323
# Velocity P-wave (km/s) = 5.13130 6.54864 5.88281
#
# Compressibility (1/GPa) = 0.03781501
#
# Stress axis : x y z
#
# Youngs Moduli (GPa) = 31.37877 96.85758 85.28536
#
# Poissons Ratio (x) = 0.21902 0.36884
# Poissons Ratio (y) = 0.07096 0.12500
# Poissons Ratio (z) = 0.13571 0.14196
#
# Static dielectric constant tensor:
#      x y z
#    x 1.704880 0.000000 -0.004860 
#    y 0.000000 1.634550 0.000000 
#    z -0.004860 0.000000 1.697500 
# 
# From -- ./inp_files/3943.got.cif
#   From: 2010.05.17/outbox.cif.g08.bks.cpg/sg13_2_cif.got.tgz:3943.got - 2010.06.03 16:44:36.
