data_PCOD9227785
_publ_section_title
;
Structure prediction by ZEFSAII (Michael W. Deem and Ramdas Pophale) SiO2 
 PCOD9227785
Probable space group: P 2/C
;
_chemical_formula_sum "Si O2"
_cell_formula_units_Z 30
_cell_length_a 11.863530
_cell_length_b 13.855107
_cell_length_c 9.323801
_cell_angle_alpha 90.000000
_cell_angle_beta 73.411695
_cell_angle_gamma 90.000000
_cell_volume 1468.773905
_symmetry_space_group_name_H-M "P 2/C"
_symmetry_group_IT_number 13
_symmetry_cell_setting 'monoclinic'
loop_
_space_group_symop_operation_xyz
x,y,z
-x,y,1/2-z
-x,-y,-z
x,-y,1/2+z
loop_
_atom_site_type_symbol
_atom_site_label
_atom_site_fract_x
_atom_site_fract_y
_atom_site_fract_z
Si Si1 0.720627 0.929292 0.138374
Si Si2 0.780348 0.321157 0.991501
Si Si3 0.474868 0.599191 0.929836
Si Si4 0.830960 0.225498 0.244420
Si Si5 0.052017 0.826354 0.518137
Si Si6 0.000000 0.291781 0.750000
Si Si7 0.590280 0.201558 0.468682
Si Si8 0.336955 0.886173 0.018235
O O1 0.642641 0.842229 0.096694
O O2 0.702534 0.925686 0.313324
O O3 0.855362 0.910960 0.041749
O O4 0.679749 0.029035 0.087483
O O5 0.886179 0.347722 0.847981
O O6 0.740374 0.209697 0.979582
O O7 0.663549 0.380084 0.007747
O O8 0.823140 0.316841 0.141192
O O9 0.500000 0.598120 0.750000
O O10 0.500000 0.500000 0.000000
O O11 0.549124 0.686929 0.974782
O O12 0.885425 0.240278 0.382762
O O13 0.698585 0.190063 0.318962
O O14 0.923904 0.153711 0.132957
O O15 0.035677 0.773224 0.373401
O O16 0.473447 0.143668 0.471229
#
# Coordination Sequence:
#
# PCOD9227785 Si02
#       8
#     4   4   4   4   4   2   4   4
#     4  11  23  39  58  92 125 171 220 264 318 371
#     4  10  21  40  66  89 130 167 213 256 317 371
#     4  11  24  43  67 102 127 168 207 260 321 386
#     4   9  18  37  64  87 116 166 212 251 316 375
#     4   9  19  35  62  89 121 163 214 261 311 368
#     4  10  18  40  66  92 126 166 216 266 312 374
#     4  10  22  40  66  85 127 163 215 257 322 375
#     4  11  24  37  59  90 126 172 215 265 313 373
#
# _framework density 20.425201000000001
#
# number of rings (size 3 to 8) (size 9 to 14) (size 15 to 20)
#    0.000    1.867    2.667    0.800    3.733    2.133 
#    0.000    5.333    0.000    4.000    0.000    0.000 
#    0.000    0.000    0.000    0.000    0.000    0.000 
#
# Total GULP energy -167484.179196 kJ/mol
# GULP energy per Si atom -5582.805973 kJ/mol
# Density = 2.037871 g / cm^3
# Si number density = 20.425201 Si / 1000 Ang^3
#
#
#
# Elastic Constant Matrix: (Units=GPa)
#
#
# Indices 1 2 3 4 5 6 
#
# 1 114.1182 26.5750 40.7384 0.0000 -25.8156 0.0000
# 2 26.5750 78.9351 21.9766 0.0000 9.5987 0.0000
# 3 40.7384 21.9766 102.0609 0.0000 0.7942 0.0000
# 4 0.0000 0.0000 0.0000 13.3218 0.0000 5.1004
# 5 -25.8156 9.5987 0.7942 0.0000 46.8490 0.0000
# 6 0.0000 0.0000 0.0000 5.1004 0.0000 15.9545
#
#
#
# Elastic Compliance Matrix: (Units=1/GPa)
#
#
# Indices 1 2 3 4 5 6 
#
# 1 0.013171 -0.004201 -0.004417 0.000000 0.008194 0.000000
# 2 -0.004201 0.015170 -0.001548 0.000000 -0.005397 0.000000
# 3 -0.004417 -0.001548 0.011912 0.000000 -0.002319 0.000000
# 4 0.000000 0.000000 0.000000 0.085534 0.000000 -0.027344
# 5 0.008194 -0.005397 -0.002319 0.000000 0.027005 0.000000
# 6 0.000000 0.000000 0.000000 -0.027344 0.000000 0.071420
#
#
# Mechanical properties :
#
#
# Convention : Reuss Voigt Hill
#
# Bulk Modulus (GPa) = 50.19300 52.63268 51.41284
# Shear Modulus (GPa) = 19.90572 28.94669 24.42620
#
# Velocity S-wave (km/s) = 3.12519 3.76866 3.46191
# Velocity P-wave (km/s) = 6.13595 6.69041 6.41916
#
# Compressibility (1/GPa) = 0.01992310
#
# Stress axis : x y z
#
# Youngs Moduli (GPa) = 75.92238 65.91883 83.94693
#
# Poissons Ratio (x) = 0.27693 0.37076
# Poissons Ratio (y) = 0.31896 0.12992
# Poissons Ratio (z) = 0.33532 0.10202
#
# Static dielectric constant tensor:
#      x y z
#    x 1.772930 0.000000 0.007010 
#    y 0.000000 1.708220 0.000000 
#    z 0.007010 0.000000 1.749050 
# 
# From -- ./inp_files/16752.got.cif
#   From: 2010.05.17/outbox.cif.g08.bks.cpg/sg13_9_cif.got.tgz:16752.got - 2010.06.03 16:44:36.
