data_PCOD9227062
_publ_section_title
;
Structure prediction by ZEFSAII (Michael W. Deem and Ramdas Pophale) SiO2 
 PCOD9227062
Probable space group: P 2/C
;
_chemical_formula_sum "Si O2"
_cell_formula_units_Z 22
_cell_length_a 13.830164
_cell_length_b 9.206323
_cell_length_c 8.398285
_cell_angle_alpha 90.000000
_cell_angle_beta 128.413119
_cell_angle_gamma 90.000000
_cell_volume 837.860147
_symmetry_space_group_name_H-M "P 2/C"
_symmetry_group_IT_number 13
_symmetry_cell_setting 'monoclinic'
loop_
_space_group_symop_operation_xyz
x,y,z
-x,y,1/2-z
-x,-y,-z
x,-y,1/2+z
loop_
_atom_site_type_symbol
_atom_site_label
_atom_site_fract_x
_atom_site_fract_y
_atom_site_fract_z
Si Si1 0.500000 0.056500 0.750000
Si Si2 0.771615 0.044199 0.033387
Si Si3 0.082420 0.134821 0.023071
Si Si4 0.327058 0.470934 0.668186
Si Si5 0.439208 0.681896 0.971968
Si Si6 0.903119 0.692752 0.506157
O O1 0.633574 0.988344 0.867770
O O2 0.470134 0.158849 0.566638
O O3 0.861109 0.909998 0.086353
O O4 0.804881 0.122632 0.233883
O O5 0.810504 0.170511 0.946667
O O6 0.995722 0.273928 0.956310
O O7 0.000000 0.000000 0.000000
O O8 0.370050 0.636645 0.739949
O O9 0.358582 0.395478 0.531912
O O10 0.188523 0.442095 0.581798
O O11 0.424240 0.388120 0.882200
O O12 0.000000 0.689577 0.750000
#
# Coordination Sequence:
#
# PCOD9227062 Si02
#       6
#     2   4   4   4   4   4
#     4  10  18  32  58  82 110 152 188 224 276 346
#     4  10  18  34  55  80 110 144 190 227 281 333
#     4   9  19  32  57  78 104 151 184 230 276 336
#     4   9  16  31  53  78 106 144 188 228 280 324
#     4   9  17  30  56  77 106 144 185 233 271 333
#     4   9  16  30  53  79 106 150 189 222 275 343
#
# _framework density 26.257368
#
# number of rings (size 3 to 8) (size 9 to 14) (size 15 to 20)
#    0.000    2.909    3.636    1.636    0.000    0.727 
#    0.000    0.909   12.000    2.182    0.000    0.000 
#    0.000    0.000    0.000    0.000    0.000    0.182 
#
# Total GULP energy -122721.276484 kJ/mol
# GULP energy per Si atom -5578.239840 kJ/mol
# Density = 2.619760 g / cm^3
# Si number density = 26.257368 Si / 1000 Ang^3
#
#
#
# Elastic Constant Matrix: (Units=GPa)
#
#
# Indices 1 2 3 4 5 6 
#
# 1 97.4238 26.4566 64.1716 0.0000 25.5897 0.0000
# 2 26.4566 42.5452 23.6480 0.0000 13.7124 0.0000
# 3 64.1716 23.6480 115.4383 0.0000 38.1028 0.0000
# 4 0.0000 0.0000 0.0000 34.6902 0.0000 9.5470
# 5 25.5897 13.7124 38.1028 0.0000 54.5511 0.0000
# 6 0.0000 0.0000 0.0000 9.5470 0.0000 30.8976
#
#
#
# Elastic Compliance Matrix: (Units=1/GPa)
#
#
# Indices 1 2 3 4 5 6 
#
# 1 0.017568 -0.006047 -0.008199 0.000000 -0.000994 0.000000
# 2 -0.006047 0.029204 -0.001474 0.000000 -0.003475 0.000000
# 3 -0.008199 -0.001474 0.015765 0.000000 -0.006795 0.000000
# 4 0.000000 0.000000 0.000000 0.031506 0.000000 -0.009735
# 5 -0.000994 -0.003475 -0.006795 0.000000 0.024417 0.000000
# 6 0.000000 0.000000 0.000000 -0.009735 0.000000 0.035373
#
#
# Mechanical properties :
#
#
# Convention : Reuss Voigt Hill
#
# Bulk Modulus (GPa) = 32.15756 53.77329 42.96542
# Shear Modulus (GPa) = 25.55709 33.43653 29.49681
#
# Velocity S-wave (km/s) = 3.12321 3.57237 3.35531
# Velocity P-wave (km/s) = 5.02788 6.12695 5.60442
#
# Compressibility (1/GPa) = 0.03109689
#
# Stress axis : x y z
#
# Youngs Moduli (GPa) = 56.92007 34.24192 63.43003
#
# Poissons Ratio (x) = 0.20706 0.52008
# Poissons Ratio (y) = 0.34420 0.09351
# Poissons Ratio (z) = 0.46671 0.05048
#
# Static dielectric constant tensor:
#      x y z
#    x 2.144570 0.000000 -0.030500 
#    y 0.000000 2.156020 0.000000 
#    z -0.030500 0.000000 2.117840 
# 
# From -- ./inp_files/36756.got.cif
#   From: 2010.05.17/outbox.cif.g08.bks.cpg/sg13_19_cif.got.tgz:36756.got - 2010.06.03 16:44:36.
