data_PCOD9227507
_publ_section_title
;
Structure prediction by ZEFSAII (Michael W. Deem and Ramdas Pophale) SiO2 
 PCOD9227507
Probable space group: P 2/C
;
_chemical_formula_sum "Si O2"
_cell_formula_units_Z 18
_cell_length_a 18.513113
_cell_length_b 9.023074
_cell_length_c 13.320344
_cell_angle_alpha 90.000000
_cell_angle_beta 155.681916
_cell_angle_gamma 90.000000
_cell_volume 916.300373
_symmetry_space_group_name_H-M "P 2/C"
_symmetry_group_IT_number 13
_symmetry_cell_setting 'monoclinic'
loop_
_space_group_symop_operation_xyz
x,y,z
-x,y,1/2-z
-x,-y,-z
x,-y,1/2+z
loop_
_atom_site_type_symbol
_atom_site_label
_atom_site_fract_x
_atom_site_fract_y
_atom_site_fract_z
Si Si1 0.952528 0.290846 0.551890
Si Si2 0.226312 0.699370 0.875900
Si Si3 0.000000 0.571098 0.750000
Si Si4 0.299448 0.201280 0.104579
Si Si5 0.500000 0.451638 0.250000
Si Si6 0.500000 0.047288 0.750000
O O1 0.923456 0.294557 0.397419
O O2 0.948292 0.455186 0.596324
O O3 0.791356 0.207315 0.402370
O O4 0.134082 0.216648 0.817959
O O5 0.147890 0.672463 0.887318
O O6 0.351646 0.557967 0.016616
O O7 0.344685 0.844758 0.018834
O O8 0.415046 0.346010 0.226173
O O9 0.417422 0.060444 0.229182
#
# Coordination Sequence:
#
# PCOD9227507 Si02
#       6
#     4   4   2   4   2   2
#     4  10  20  38  66  86 108 164 197 229 286 362
#     4  11  22  37  61  90 117 148 202 238 293 332
#     4  10  20  38  58  92 116 150 188 256 280 344
#     4   9  20  40  59  81 122 155 191 232 293 343
#     4  10  18  36  56  86 122 148 182 254 280 336
#     4  10  24  40  54  88 124 152 186 252 284 336
#
# _framework density 19.644213000000001
#
# number of rings (size 3 to 8) (size 9 to 14) (size 15 to 20)
#    0.000    2.222    4.444    0.667    0.000    4.444 
#    0.000    0.000    0.000    0.000    0.000    0.000 
#    0.000    0.000    0.000    0.000    0.000    0.000 
#
# Total GULP energy -100377.956199 kJ/mol
# GULP energy per Si atom -5576.553122 kJ/mol
# Density = 1.959950 g / cm^3
# Si number density = 19.644213 Si / 1000 Ang^3
#
#
#
# Elastic Constant Matrix: (Units=GPa)
#
#
# Indices 1 2 3 4 5 6 
#
# 1 50.6440 32.9587 21.1373 0.0000 23.9752 0.0000
# 2 32.9587 107.8821 21.1879 0.0000 17.7074 0.0000
# 3 21.1373 21.1879 38.3500 0.0000 12.1412 0.0000
# 4 0.0000 0.0000 0.0000 9.7348 0.0000 16.0181
# 5 23.9752 17.7074 12.1412 0.0000 37.2416 0.0000
# 6 0.0000 0.0000 0.0000 16.0181 0.0000 19.5152
#
#
#
# Elastic Compliance Matrix: (Units=1/GPa)
#
#
# Indices 1 2 3 4 5 6 
#
# 1 0.036464 -0.006141 -0.011371 0.000000 -0.016848 0.000000
# 2 -0.006141 0.011839 -0.002928 0.000000 -0.000721 0.000000
# 3 -0.011371 -0.002928 0.034793 0.000000 -0.002631 0.000000
# 4 0.000000 0.000000 0.000000 -0.293001 0.000000 0.240496
# 5 -0.016848 -0.000721 -0.002631 0.000000 0.038898 0.000000
# 6 0.000000 0.000000 0.000000 0.240496 0.000000 -0.146158
#
#
# Mechanical properties :
#
#
# Convention : Reuss Voigt Hill
#
# Bulk Modulus (GPa) = 23.68768 38.60485 31.14626
# Shear Modulus (GPa) = -19.06853 21.40447 1.16797
#
# Velocity S-wave (km/s) = -3.11898 3.30450 0.77192
# Velocity P-wave (km/s) = 0.94136 5.85272 4.08461
#
# Compressibility (1/GPa) = 0.04221604
#
# Stress axis : x y z
#
# Youngs Moduli (GPa) = 27.42414 84.46689 28.74124
#
# Poissons Ratio (x) = 0.51875 0.32682
# Poissons Ratio (y) = 0.16843 0.08414
# Poissons Ratio (z) = 0.31184 0.24729
#
# Static dielectric constant tensor:
#      x y z
#    x 1.702620 0.000000 0.019030 
#    y 0.000000 1.706310 0.000000 
#    z 0.019030 0.000000 1.702180 
# 
# From -- ./inp_files/27704.got.cif
#   From: 2010.05.17/outbox.cif.g08.bks.cpg/sg13_14_cif.got.tgz:27704.got - 2010.06.03 16:44:36.
