data_PCOD9227286
_publ_section_title
;
Structure prediction by ZEFSAII (Michael W. Deem and Ramdas Pophale) SiO2 
 PCOD9227286
Probable space group: P 2/C
;
_chemical_formula_sum "Si O2"
_cell_formula_units_Z 28
_cell_length_a 17.401091
_cell_length_b 6.498149
_cell_length_c 13.997825
_cell_angle_alpha 90.000000
_cell_angle_beta 107.618329
_cell_angle_gamma 90.000000
_cell_volume 1508.559308
_symmetry_space_group_name_H-M "P 2/C"
_symmetry_group_IT_number 13
_symmetry_cell_setting 'monoclinic'
loop_
_space_group_symop_operation_xyz
x,y,z
-x,y,1/2-z
-x,-y,-z
x,-y,1/2+z
loop_
_atom_site_type_symbol
_atom_site_label
_atom_site_fract_x
_atom_site_fract_y
_atom_site_fract_z
Si Si1 0.637985 0.524986 0.847265
Si Si2 0.613192 0.147428 0.697670
Si Si3 0.710665 0.757083 0.719257
Si Si4 0.500000 0.147215 0.250000
Si Si5 0.995791 0.991869 0.611679
Si Si6 0.000000 0.369632 0.750000
Si Si7 0.402775 0.490412 0.955016
Si Si8 0.886188 0.250575 0.207552
O O1 0.613767 0.319515 0.780839
O O2 0.712860 0.623363 0.817710
O O3 0.569900 0.702051 0.811606
O O4 0.640468 0.482936 0.959904
O O5 0.614903 0.270461 0.599883
O O6 0.687660 0.991435 0.733298
O O7 0.535156 0.004421 0.682913
O O8 0.636642 0.656841 0.631325
O O9 0.791871 0.744553 0.690122
O O10 0.998921 0.218421 0.658964
O O11 0.917626 0.874245 0.626377
O O12 0.000000 0.000000 0.500000
O O13 0.069836 0.866426 0.687581
O O14 0.923781 0.521798 0.718780
O O15 0.500000 0.500000 0.000000
#
# Coordination Sequence:
#
# PCOD9227286 Si02
#       8
#     4   4   4   2   4   2   4   4
#     4  10  21  36  53  82 110 147 201 240 301 360
#     4  10  21  37  58  75 117 151 185 255 303 338
#     4  10  23  40  54  85 121 155 194 247 309 356
#     4  10  18  34  58  78 104 150 196 244 298 354
#     4   9  19  37  62  95 116 157 203 229 290 371
#     4   8  18  38  66  82 128 158 180 250 288 338
#     4  11  22  37  57  84 113 154 212 249 295 368
#     4   9  20  39  58  88 125 154 197 241 300 358
#
# _framework density 18.560755
#
# number of rings (size 3 to 8) (size 9 to 14) (size 15 to 20)
#    0.000    2.571    0.000    3.857    0.000   11.429 
#   10.286    0.000    0.000    0.000    0.000    0.000 
#    0.000    0.000    0.000    0.000    0.000    0.000 
#
# Total GULP energy -156084.419805 kJ/mol
# GULP energy per Si atom -5574.443564 kJ/mol
# Density = 1.851851 g / cm^3
# Si number density = 18.560755 Si / 1000 Ang^3
#
#
#
# Elastic Constant Matrix: (Units=GPa)
#
#
# Indices 1 2 3 4 5 6 
#
# 1 111.0238 44.2284 31.0660 0.0000 -14.7565 0.0000
# 2 44.2284 139.0672 40.6588 0.0000 -12.4385 0.0000
# 3 31.0660 40.6588 109.4176 0.0000 -39.7005 0.0000
# 4 0.0000 0.0000 0.0000 12.5646 0.0000 -4.8164
# 5 -14.7565 -12.4385 -39.7005 0.0000 28.4279 0.0000
# 6 0.0000 0.0000 0.0000 -4.8164 0.0000 9.8664
#
#
#
# Elastic Compliance Matrix: (Units=1/GPa)
#
#
# Indices 1 2 3 4 5 6 
#
# 1 0.010824 -0.002913 -0.000840 0.000000 0.003170 0.000000
# 2 -0.002913 0.008876 -0.003265 0.000000 -0.002189 0.000000
# 3 -0.000840 -0.003265 0.020099 0.000000 0.026204 0.000000
# 4 0.000000 0.000000 0.000000 0.097910 0.000000 0.047796
# 5 0.003170 -0.002189 0.026204 0.000000 0.072459 0.000000
# 6 0.000000 0.000000 0.000000 0.047796 0.000000 0.124686
#
#
# Mechanical properties :
#
#
# Convention : Reuss Voigt Hill
#
# Bulk Modulus (GPa) = 38.81751 65.71278 52.26514
# Shear Modulus (GPa) = 13.98681 26.40881 20.19781
#
# Velocity S-wave (km/s) = 2.74810 3.77613 3.30237
# Velocity P-wave (km/s) = 5.57033 7.38196 6.53918
#
# Compressibility (1/GPa) = 0.02576157
#
# Stress axis : x y z
#
# Youngs Moduli (GPa) = 92.38617 112.66096 49.75392
#
# Poissons Ratio (x) = 0.32820 0.04181
# Poissons Ratio (y) = 0.26914 0.16246
# Poissons Ratio (z) = 0.07764 0.36787
#
# Static dielectric constant tensor:
#      x y z
#    x 1.665960 0.000000 -0.016930 
#    y 0.000000 1.645080 0.000000 
#    z -0.016930 0.000000 1.644230 
# 
# From -- ./inp_files/54312.got.cif
#   From: 2010.05.17/outbox.cif.g08.bks.cpg/sg13_28_cif.got.tgz:54312.got - 2010.06.03 16:44:36.
