data_PCOD9227145
_publ_section_title
;
Structure prediction by ZEFSAII (Michael W. Deem and Ramdas Pophale) SiO2 
 PCOD9227145
Probable space group: P 2/C
;
_chemical_formula_sum "Si O2"
_cell_formula_units_Z 28
_cell_length_a 23.829892
_cell_length_b 8.761345
_cell_length_c 8.718831
_cell_angle_alpha 90.000000
_cell_angle_beta 129.979644
_cell_angle_gamma 90.000000
_cell_volume 1394.872478
_symmetry_space_group_name_H-M "P 2/C"
_symmetry_group_IT_number 13
_symmetry_cell_setting 'monoclinic'
loop_
_space_group_symop_operation_xyz
x,y,z
-x,y,1/2-z
-x,-y,-z
x,-y,1/2+z
loop_
_atom_site_type_symbol
_atom_site_label
_atom_site_fract_x
_atom_site_fract_y
_atom_site_fract_z
Si Si1 0.650644 0.777369 0.448155
Si Si2 0.444535 0.484565 0.266563
Si Si3 0.301334 0.966309 0.666575
Si Si4 0.706367 0.668335 0.013939
Si Si5 0.238851 0.408773 0.559682
Si Si6 0.053560 0.062514 0.963374
Si Si7 0.147073 0.856578 0.904409
O O1 0.586495 0.650374 0.343646
O O2 0.669831 0.867751 0.638162
O O3 0.720200 0.679326 0.508035
O O4 0.643114 0.905485 0.301252
O O5 0.500000 0.402066 0.250000
O O6 0.500000 0.500000 0.500000
O O7 0.373269 0.387720 0.178967
O O8 0.287731 0.846424 0.504716
O O9 0.223428 0.050002 0.556544
O O10 0.763397 0.580541 0.003750
O O11 0.714528 0.615353 0.203701
O O12 0.164993 0.319731 0.466727
O O13 0.117099 0.136519 0.177679
O O14 0.091308 0.931401 0.926634
O O15 0.000000 0.150710 0.750000
O O16 0.000000 0.000000 0.000000
#
# Coordination Sequence:
#
# PCOD9227145 Si02
#       7
#     4   4   4   4   4   4   4
#     4  10  21  36  54  82 109 141 182 237 289 327
#     4  11  22  39  57  74 106 152 192 224 277 357
#     4  11  20  35  59  85 116 141 180 246 294 331
#     4  11  21  36  56  83 110 143 186 241 288 334
#     4  10  20  34  54  81 112 142 184 235 284 335
#     4   9  18  31  51  83 117 147 183 225 264 323
#     4  10  18  33  55  84 111 144 182 226 287 335
#
# _framework density 20.073521
#
# number of rings (size 3 to 8) (size 9 to 14) (size 15 to 20)
#    0.000    1.714    0.000    8.571    0.000    0.000 
#    0.000    3.571    0.000    0.000    0.000   63.000 
#    0.000    0.000    0.000    0.000    0.000    0.000 
#
# Total GULP energy -155926.537884 kJ/mol
# GULP energy per Si atom -5568.804924 kJ/mol
# Density = 2.002783 g / cm^3
# Si number density = 20.073521 Si / 1000 Ang^3
#
#
#
# Elastic Constant Matrix: (Units=GPa)
#
#
# Indices 1 2 3 4 5 6 
#
# 1 63.0721 13.2027 11.7202 0.0000 1.9059 0.0000
# 2 13.2027 72.7363 1.5141 0.0000 9.4013 0.0000
# 3 11.7202 1.5141 116.5177 0.0000 -2.9865 0.0000
# 4 0.0000 0.0000 0.0000 15.5143 0.0000 -19.7295
# 5 1.9059 9.4013 -2.9865 0.0000 29.0312 0.0000
# 6 0.0000 0.0000 0.0000 -19.7295 0.0000 2.0562
#
#
#
# Elastic Compliance Matrix: (Units=1/GPa)
#
#
# Indices 1 2 3 4 5 6 
#
# 1 0.016795 -0.002974 -0.001659 0.000000 -0.000310 0.000000
# 2 -0.002974 0.014886 -0.000013 0.000000 -0.004627 0.000000
# 3 -0.001659 -0.000013 0.008775 0.000000 0.001016 0.000000
# 4 0.000000 0.000000 0.000000 -0.005754 0.000000 -0.055210
# 5 -0.000310 -0.004627 0.001016 0.000000 0.036069 0.000000
# 6 0.000000 0.000000 0.000000 -0.055210 0.000000 -0.043414
#
#
# Mechanical properties :
#
#
# Convention : Reuss Voigt Hill
#
# Bulk Modulus (GPa) = 32.08642 33.91114 32.99878
# Shear Modulus (GPa) = 106.29937 24.37960 65.33949
#
# Velocity S-wave (km/s) = 7.28491 3.48877 5.71146
# Velocity P-wave (km/s) = 9.31553 5.75837 7.74396
#
# Compressibility (1/GPa) = 0.03116584
#
# Stress axis : x y z
#
# Youngs Moduli (GPa) = 59.54156 67.17540 113.95455
#
# Poissons Ratio (x) = 0.19977 0.18901
# Poissons Ratio (y) = 0.17707 0.00147
# Poissons Ratio (z) = 0.09876 0.00087
#
# Static dielectric constant tensor:
#      x y z
#    x 1.708580 0.000000 -0.010530 
#    y 0.000000 1.749190 0.000000 
#    z -0.010530 0.000000 1.765360 
# 
# From -- ./inp_files/24539.got.cif
#   From: 2010.05.17/outbox.cif.g08.bks.cpg/sg13_13_cif.got.tgz:24539.got - 2010.06.03 16:44:36.
