data_PCOD9227835
_publ_section_title
;
Structure prediction by ZEFSAII (Michael W. Deem and Ramdas Pophale) SiO2 
 PCOD9227835
Probable space group: P 2/C
;
_chemical_formula_sum "Si O2"
_cell_formula_units_Z 28
_cell_length_a 15.045712
_cell_length_b 10.855867
_cell_length_c 26.497378
_cell_angle_alpha 90.000000
_cell_angle_beta 18.724829
_cell_angle_gamma 90.000000
_cell_volume 1389.366724
_symmetry_space_group_name_H-M "P 2/C"
_symmetry_group_IT_number 13
_symmetry_cell_setting 'monoclinic'
loop_
_space_group_symop_operation_xyz
x,y,z
-x,y,1/2-z
-x,-y,-z
x,-y,1/2+z
loop_
_atom_site_type_symbol
_atom_site_label
_atom_site_fract_x
_atom_site_fract_y
_atom_site_fract_z
Si Si1 0.457423 0.646788 0.064600
Si Si2 0.000000 0.950659 0.250000
Si Si3 0.187790 0.840056 0.437470
Si Si4 0.000000 0.482794 0.750000
Si Si5 0.798466 0.876663 0.562968
Si Si6 0.291712 0.799526 0.491733
Si Si7 0.324932 0.904131 0.980856
Si Si8 0.271754 0.168890 0.157508
O O1 0.467137 0.720495 0.112270
O O2 0.535289 0.742354 0.978076
O O3 0.725361 0.554126 0.919437
O O4 0.161931 0.589562 0.207806
O O5 0.227462 0.043603 0.150388
O O6 0.887389 0.881577 0.359111
O O7 0.500000 0.845708 0.250000
O O8 0.202622 0.769752 0.482572
O O9 0.997462 0.800774 0.492924
O O10 0.092381 0.981536 0.499402
O O11 0.500000 0.879369 0.750000
O O12 0.759073 0.841895 0.526001
O O13 0.033183 0.779589 0.668426
O O14 0.349130 0.947056 0.461291
O O15 0.610362 0.858350 0.850679
#
# Coordination Sequence:
#
# PCOD9227835 Si02
#       8
#     4   2   4   2   4   4   4   4
#     4  11  20  40  58  83 108 139 180 222 286 334
#     4  10  19  29  42  70 118 162 181 215 262 322
#     4   9  18  31  48  71 102 142 187 222 260 301
#     4  10  23  39  62  78 112 134 179 241 278 342
#     4   9  17  32  47  68 100 150 195 223 253 299
#     4  10  19  34  55  76 110 155 180 224 271 326
#     4  10  20  29  48  75 117 154 184 217 260 320
#     4  11  18  34  49  78 110 152 182 215 266 335
#
# _framework density 20.153065999999999
#
# number of rings (size 3 to 8) (size 9 to 14) (size 15 to 20)
#    0.000    2.000    4.286    1.286    0.000    7.429 
#    5.143    0.000    0.000    0.000    0.000    1.000 
#    0.000    0.000    0.000    0.000    0.000    0.000 
#
# Total GULP energy -156047.626001 kJ/mol
# GULP energy per Si atom -5573.129500 kJ/mol
# Density = 2.010720 g / cm^3
# Si number density = 20.153066 Si / 1000 Ang^3
#
#
#
# Elastic Constant Matrix: (Units=GPa)
#
#
# Indices 1 2 3 4 5 6 
#
# 1 213.3598 32.8160 42.8485 0.0000 -17.2441 0.0000
# 2 32.8160 23.6657 17.6248 0.0000 -12.5829 0.0000
# 3 42.8485 17.6248 65.9041 0.0000 -15.6757 0.0000
# 4 0.0000 0.0000 0.0000 20.8655 0.0000 -17.5731
# 5 -17.2441 -12.5829 -15.6757 0.0000 42.6779 0.0000
# 6 0.0000 0.0000 0.0000 -17.5731 0.0000 24.5479
#
#
#
# Elastic Compliance Matrix: (Units=1/GPa)
#
#
# Indices 1 2 3 4 5 6 
#
# 1 0.006201 -0.007175 -0.002213 0.000000 -0.000423 0.000000
# 2 -0.007175 0.066629 -0.010049 0.000000 0.013055 0.000000
# 3 -0.002213 -0.010049 0.020142 0.000000 0.003541 0.000000
# 4 0.000000 0.000000 0.000000 0.120693 0.000000 0.086400
# 5 -0.000423 0.013055 0.003541 0.000000 0.028410 0.000000
# 6 0.000000 0.000000 0.000000 0.086400 0.000000 0.102588
#
#
# Mechanical properties :
#
#
# Convention : Reuss Voigt Hill
#
# Bulk Modulus (GPa) = 18.48486 54.38980 36.43733
# Shear Modulus (GPa) = 12.45115 31.59429 22.02272
#
# Velocity S-wave (km/s) = 2.48831 3.96374 3.30930
# Velocity P-wave (km/s) = 4.17705 6.92786 5.72027
#
# Compressibility (1/GPa) = 0.05409834
#
# Stress axis : x y z
#
# Youngs Moduli (GPa) = 161.27039 15.00848 49.64691
#
# Poissons Ratio (x) = 0.10768 0.10989
# Poissons Ratio (y) = 1.15708 0.49889
# Poissons Ratio (z) = 0.35695 0.15082
#
# Static dielectric constant tensor:
#      x y z
#    x 1.772880 0.000000 -0.036640 
#    y 0.000000 1.756000 0.000000 
#    z -0.036640 0.000000 1.778660 
# 
# From -- ./inp_files/92901.got.cif
#   From: 2010.05.17/outbox.cif.g08.bks.cpg/sg13_47_cif.got.tgz:92901.got - 2010.06.03 16:44:36.
