data_PCOD9227954
_publ_section_title
;
Structure prediction by ZEFSAII (Michael W. Deem and Ramdas Pophale) SiO2 
 PCOD9227954
Probable space group: P 2/C
;
_chemical_formula_sum "Si O2"
_cell_formula_units_Z 24
_cell_length_a 11.025015
_cell_length_b 20.747960
_cell_length_c 5.331467
_cell_angle_alpha 90.000000
_cell_angle_beta 90.180183
_cell_angle_gamma 90.000000
_cell_volume 1219.548760
_symmetry_space_group_name_H-M "P 2/C"
_symmetry_group_IT_number 13
_symmetry_cell_setting 'monoclinic'
loop_
_space_group_symop_operation_xyz
x,y,z
-x,y,1/2-z
-x,-y,-z
x,-y,1/2+z
loop_
_atom_site_type_symbol
_atom_site_label
_atom_site_fract_x
_atom_site_fract_y
_atom_site_fract_z
Si Si1 0.868851 0.420520 0.322093
Si Si2 0.218229 0.642660 0.196243
Si Si3 0.862791 0.956679 0.768984
Si Si4 0.638915 0.228225 0.739621
Si Si5 0.652468 0.479961 0.835870
Si Si6 0.359912 0.857285 0.761333
O O1 0.869695 0.377875 0.575659
O O2 0.780294 0.480971 0.368549
O O3 0.000000 0.445422 0.250000
O O4 0.825535 0.377394 0.082989
O O5 0.265145 0.714626 0.224933
O O6 0.330335 0.593494 0.241716
O O7 0.749147 0.908379 0.755566
O O8 0.000000 0.927307 0.750000
O O9 0.855057 0.005033 0.531773
O O10 0.500000 0.253426 0.750000
O O11 0.653115 0.191378 0.474983
O O12 0.651157 0.179611 0.973902
O O13 0.598688 0.518718 0.608060
O O14 0.500000 0.883138 0.750000
#
# Coordination Sequence:
#
# PCOD9227954 Si02
#       6
#     4   4   4   4   4   4
#     4  10  19  31  48  71 101 133 168 218 277 332
#     4  10  19  32  50  71  98 133 175 215 263 326
#     4  10  21  38  61  89 122 156 184 218 271 324
#     4  10  21  38  57  76 104 143 183 227 275 319
#     4   8  16  27  44  66  93 125 164 212 266 321
#     4  10  21  38  61  87 114 148 190 230 267 312
#
# _framework density 19.679410000000001
#
# number of rings (size 3 to 8) (size 9 to 14) (size 15 to 20)
#    0.000    2.333    0.000    2.500    0.000    6.667 
#    0.000    5.000    0.000    9.000    0.000    0.000 
#    0.000    0.000    0.000    0.000    0.000    0.000 
#
# Total GULP energy -133711.338518 kJ/mol
# GULP energy per Si atom -5571.305772 kJ/mol
# Density = 1.963462 g / cm^3
# Si number density = 19.679410 Si / 1000 Ang^3
#
#
#
# Elastic Constant Matrix: (Units=GPa)
#
#
# Indices 1 2 3 4 5 6 
#
# 1 116.2555 40.0855 8.9240 0.0000 -6.2100 0.0000
# 2 40.0855 34.9681 -10.0531 0.0000 3.7443 0.0000
# 3 8.9240 -10.0531 102.7801 0.0000 -4.0422 0.0000
# 4 0.0000 0.0000 0.0000 23.0299 0.0000 3.7636
# 5 -6.2100 3.7443 -4.0422 0.0000 29.7248 0.0000
# 6 0.0000 0.0000 0.0000 3.7636 0.0000 29.6909
#
#
#
# Elastic Compliance Matrix: (Units=1/GPa)
#
#
# Indices 1 2 3 4 5 6 
#
# 1 0.015932 -0.019732 -0.003101 0.000000 0.005392 0.000000
# 2 -0.019732 0.054196 0.006619 0.000000 -0.010049 0.000000
# 3 -0.003101 0.006619 0.010645 0.000000 -0.000034 0.000000
# 4 0.000000 0.000000 0.000000 0.044340 0.000000 -0.005620
# 5 0.005392 -0.010049 -0.000034 0.000000 0.036030 0.000000
# 6 0.000000 0.000000 0.000000 -0.005620 0.000000 0.034393
#
#
# Mechanical properties :
#
#
# Convention : Reuss Voigt Hill
#
# Bulk Modulus (GPa) = 20.68500 36.87961 28.78231
# Shear Modulus (GPa) = 20.48521 30.82559 25.65540
#
# Velocity S-wave (km/s) = 3.22987 3.96206 3.61455
# Velocity P-wave (km/s) = 4.94401 6.30170 5.66368
#
# Compressibility (1/GPa) = 0.04834421
#
# Stress axis : x y z
#
# Youngs Moduli (GPa) = 62.76854 18.45149 93.94200
#
# Poissons Ratio (x) = 0.36409 0.29134
# Poissons Ratio (y) = 1.23855 -0.62181
# Poissons Ratio (z) = 0.19466 -0.12213
#
# Static dielectric constant tensor:
#      x y z
#    x 1.945140 0.000000 0.007750 
#    y 0.000000 1.646380 0.000000 
#    z 0.007750 0.000000 1.728500 
# 
# From -- ./inp_files/3637.got.cif
#   From: 2010.05.17/outbox.cif.g08.bks.cpg/sg13_2_cif.got.tgz:3637.got - 2010.06.03 16:44:36.
