data_PCOD9227036
_publ_section_title
;
Structure prediction by ZEFSAII (Michael W. Deem and Ramdas Pophale) SiO2 
 PCOD9227036
Probable space group: P 2/C
;
_chemical_formula_sum "Si O2"
_cell_formula_units_Z 26
_cell_length_a 14.605351
_cell_length_b 15.933674
_cell_length_c 10.368532
_cell_angle_alpha 90.000000
_cell_angle_beta 147.188599
_cell_angle_gamma 90.000000
_cell_volume 1307.508984
_symmetry_space_group_name_H-M "P 2/C"
_symmetry_group_IT_number 13
_symmetry_cell_setting 'monoclinic'
loop_
_space_group_symop_operation_xyz
x,y,z
-x,y,1/2-z
-x,-y,-z
x,-y,1/2+z
loop_
_atom_site_type_symbol
_atom_site_label
_atom_site_fract_x
_atom_site_fract_y
_atom_site_fract_z
Si Si1 0.000000 0.788816 0.250000
Si Si2 0.890984 0.310439 0.248964
Si Si3 0.764404 0.155681 0.248238
Si Si4 0.802622 0.671353 0.192750
Si Si5 0.879512 0.505558 0.732016
Si Si6 0.618802 0.014526 0.517095
Si Si7 0.565492 0.806134 0.973237
O O1 0.852094 0.728332 0.128795
O O2 0.086478 0.839990 0.468370
O O3 0.790868 0.228165 0.173424
O O4 0.800106 0.401275 0.129163
O O5 0.000000 0.295727 0.250000
O O6 0.026024 0.325942 0.522389
O O7 0.589449 0.177219 0.115002
O O8 0.747474 0.062731 0.169026
O O9 0.762380 0.576493 0.104895
O O10 0.664873 0.720467 0.113383
O O11 0.000000 0.495833 0.750000
O O12 0.000000 0.500000 0.000000
O O13 0.500000 0.012047 0.250000
O O14 0.500000 0.000000 0.500000
O O15 0.682626 0.110120 0.609518
O O16 0.500000 0.799074 0.750000
#
# Coordination Sequence:
#
# PCOD9227036 Si02
#       7
#     2   4   4   4   4   4   4
#     4  10  18  32  56  86 110 144 190 238 280 328
#     4   9  20  35  53  80 116 146 190 223 281 339
#     4  10  20  36  59  83 115 151 191 237 287 340
#     4  10  18  32  57  80 108 143 188 230 274 331
#     4   9  17  31  53  80 107 149 185 222 274 343
#     4   9  20  37  59  81 110 155 194 224 284 356
#     4  10  19  34  58  83 110 142 191 233 279 335
#
# _framework density 19.88514
#
# number of rings (size 3 to 8) (size 9 to 14) (size 15 to 20)
#    0.000    2.462    2.308    0.000    0.000    2.462 
#    0.000    3.846    3.385    0.923    0.000    0.000 
#    0.000    0.000    0.000    0.000    0.000    0.000 
#
# Total GULP energy -144797.211978 kJ/mol
# GULP energy per Si atom -5569.123538 kJ/mol
# Density = 1.983988 g / cm^3
# Si number density = 19.885140 Si / 1000 Ang^3
#
#
#
# Elastic Constant Matrix: (Units=GPa)
#
#
# Indices 1 2 3 4 5 6 
#
# 1 69.9860 38.1365 9.1148 0.0000 -9.0626 0.0000
# 2 38.1365 185.1131 33.6712 0.0000 13.9213 0.0000
# 3 9.1148 33.6712 20.9063 0.0000 -4.0224 0.0000
# 4 0.0000 0.0000 0.0000 19.6370 0.0000 -1.0881
# 5 -9.0626 13.9213 -4.0224 0.0000 28.3937 0.0000
# 6 0.0000 0.0000 0.0000 -1.0881 0.0000 10.5690
#
#
#
# Elastic Compliance Matrix: (Units=1/GPa)
#
#
# Indices 1 2 3 4 5 6 
#
# 1 0.017578 -0.004379 0.000907 0.000000 0.007886 0.000000
# 2 -0.004379 0.009726 -0.015359 0.000000 -0.008342 0.000000
# 3 0.000907 -0.015359 0.075744 0.000000 0.018550 0.000000
# 4 0.000000 0.000000 0.000000 0.051217 0.000000 0.005273
# 5 0.007886 -0.008342 0.018550 0.000000 0.044454 0.000000
# 6 0.000000 0.000000 0.000000 0.005273 0.000000 0.095160
#
#
# Mechanical properties :
#
#
# Convention : Reuss Voigt Hill
#
# Bulk Modulus (GPa) = 15.29434 48.65006 31.97220
# Shear Modulus (GPa) = 14.15084 24.72543 19.43814
#
# Velocity S-wave (km/s) = 2.67053 3.53003 3.12992
# Velocity P-wave (km/s) = 4.14934 6.41354 5.40141
#
# Compressibility (1/GPa) = 0.06538368
#
# Stress axis : x y z
#
# Youngs Moduli (GPa) = 56.88900 102.82244 13.20241
#
# Poissons Ratio (x) = 0.45031 -0.01197
# Poissons Ratio (y) = 0.24914 0.20278
# Poissons Ratio (z) = -0.05160 1.57929
#
# Static dielectric constant tensor:
#      x y z
#    x 1.707780 0.000000 0.002040 
#    y 0.000000 1.804430 0.000000 
#    z 0.002040 0.000000 1.711470 
# 
# From -- ./inp_files/39354.got.cif
#   From: 2010.05.17/outbox.cif.g08.bks.cpg/sg13_20_cif.got.tgz:39354.got - 2010.06.03 16:44:36.
