data_PCOD9227414
_publ_section_title
;
Structure prediction by ZEFSAII (Michael W. Deem and Ramdas Pophale) SiO2 
 PCOD9227414
Probable space group: P 2/C
;
_chemical_formula_sum "Si O2"
_cell_formula_units_Z 22
_cell_length_a 8.535927
_cell_length_b 8.704190
_cell_length_c 14.825774
_cell_angle_alpha 90.000000
_cell_angle_beta 98.205848
_cell_angle_gamma 90.000000
_cell_volume 1090.252423
_symmetry_space_group_name_H-M "P 2/C"
_symmetry_group_IT_number 13
_symmetry_cell_setting 'monoclinic'
loop_
_space_group_symop_operation_xyz
x,y,z
-x,y,1/2-z
-x,-y,-z
x,-y,1/2+z
loop_
_atom_site_type_symbol
_atom_site_label
_atom_site_fract_x
_atom_site_fract_y
_atom_site_fract_z
Si Si1 0.313962 0.881792 0.861632
Si Si2 0.495501 0.180758 0.655551
Si Si3 0.903877 0.249628 0.433351
Si Si4 0.564437 0.664324 0.975696
Si Si5 0.000000 0.248090 0.250000
Si Si6 0.830546 0.101970 0.952807
O O1 0.438269 0.747280 0.898670
O O2 0.165308 0.837860 0.787212
O O3 0.413246 0.019574 0.827521
O O4 0.241414 0.928760 0.953139
O O5 0.500000 0.269970 0.750000
O O6 0.570089 0.249202 0.571762
O O7 0.312568 0.158313 0.618564
O O8 0.739171 0.324127 0.448395
O O9 0.964704 0.323028 0.344894
O O10 0.038952 0.235332 0.521399
O O11 0.883772 0.063220 0.418862
O O12 0.500000 0.500000 0.000000
#
# Coordination Sequence:
#
# PCOD9227414 Si02
#       6
#     4   4   4   4   2   4
#     4  10  19  37  60  87 122 156 212 255 321 373
#     4  11  20  37  59  91 120 155 211 265 309 364
#     4  10  18  35  57  89 120 152 208 249 315 373
#     4  11  23  41  61  85 124 176 205 252 319 391
#     4  10  22  32  58  98 116 156 204 276 316 366
#     4   9  17  33  58  85 121 157 193 262 318 364
#
# _framework density 20.178813999999999
#
# number of rings (size 3 to 8) (size 9 to 14) (size 15 to 20)
#    0.000    1.818    3.636    2.182    0.000    0.000 
#    3.273    8.182    0.000    0.000    0.000    0.000 
#    0.000    0.000    0.000    0.000    0.000    0.000 
#
# Total GULP energy -122526.492479 kJ/mol
# GULP energy per Si atom -5569.386022 kJ/mol
# Density = 2.013289 g / cm^3
# Si number density = 20.178814 Si / 1000 Ang^3
#
#
#
# Elastic Constant Matrix: (Units=GPa)
#
#
# Indices 1 2 3 4 5 6 
#
# 1 159.1710 32.4063 41.0916 0.0000 10.5050 0.0000
# 2 32.4063 42.9637 0.9528 0.0000 -7.2614 0.0000
# 3 41.0916 0.9528 81.7915 0.0000 18.5960 0.0000
# 4 0.0000 0.0000 0.0000 -1.3807 0.0000 -5.9328
# 5 10.5050 -7.2614 18.5960 0.0000 20.7142 0.0000
# 6 0.0000 0.0000 0.0000 -5.9328 0.0000 15.6434
#
#
#
# Elastic Compliance Matrix: (Units=1/GPa)
#
#
# Indices 1 2 3 4 5 6 
#
# 1 0.008943 -0.007337 -0.003507 0.000000 -0.003958 0.000000
# 2 -0.007337 0.031297 -0.000024 0.000000 0.014713 0.000000
# 3 -0.003507 -0.000024 0.017070 0.000000 -0.013554 0.000000
# 4 0.000000 0.000000 0.000000 -0.275427 0.000000 -0.104457
# 5 -0.003958 0.014713 -0.013554 0.000000 0.067610 0.000000
# 6 0.000000 0.000000 0.000000 -0.104457 0.000000 0.024309
#
#
# Mechanical properties :
#
#
# Convention : Reuss Voigt Hill
#
# Bulk Modulus (GPa) = 28.11050 48.09196 38.10123
# Shear Modulus (GPa) = -53.99298 20.96041 -16.51628
#
# Velocity S-wave (km/s) = -5.17835 3.22644 -2.86404
# Velocity P-wave (km/s) = 4.66828 6.14528 2.82592
#
# Compressibility (1/GPa) = 0.03557389
#
# Stress axis : x y z
#
# Youngs Moduli (GPa) = 111.81938 31.95234 58.58133
#
# Poissons Ratio (x) = 0.23442 0.20547
# Poissons Ratio (y) = 0.82038 0.00140
# Poissons Ratio (z) = 0.39220 0.00076
#
# Static dielectric constant tensor:
#      x y z
#    x 1.725460 0.000000 0.019350 
#    y 0.000000 1.801610 0.000000 
#    z 0.019350 0.000000 1.767420 
# 
# From -- ./inp_files/45945.got.cif
#   From: 2010.05.17/outbox.cif.g08.bks.cpg/sg13_23_cif.got.tgz:45945.got - 2010.06.03 16:44:36.
