data_PCOD9227623
_publ_section_title
;
Structure prediction by ZEFSAII (Michael W. Deem and Ramdas Pophale) SiO2 
 PCOD9227623
Probable space group: P 2/C
;
_chemical_formula_sum "Si O2"
_cell_formula_units_Z 28
_cell_length_a 8.897068
_cell_length_b 19.364079
_cell_length_c 13.783338
_cell_angle_alpha 90.000000
_cell_angle_beta 30.251367
_cell_angle_gamma 90.000000
_cell_volume 1196.331832
_symmetry_space_group_name_H-M "P 2/C"
_symmetry_group_IT_number 13
_symmetry_cell_setting 'monoclinic'
loop_
_space_group_symop_operation_xyz
x,y,z
-x,y,1/2-z
-x,-y,-z
x,-y,1/2+z
loop_
_atom_site_type_symbol
_atom_site_label
_atom_site_fract_x
_atom_site_fract_y
_atom_site_fract_z
Si Si1 0.500000 0.738963 0.750000
Si Si2 0.394199 0.849208 0.656721
Si Si3 0.325409 0.398000 0.551133
Si Si4 0.260308 0.455045 0.023466
Si Si5 0.190264 0.900912 0.410559
Si Si6 0.138435 0.031829 0.574780
Si Si7 0.077479 0.662024 0.870421
Si Si8 0.000000 0.230852 0.250000
O O1 0.550541 0.788831 0.630164
O O2 0.199755 0.694663 0.900701
O O3 0.591690 0.917493 0.548057
O O4 0.278217 0.818095 0.621004
O O5 0.095005 0.864405 0.884785
O O6 0.442432 0.428436 0.589112
O O7 0.294364 0.463072 0.493832
O O8 0.601816 0.354540 0.358701
O O9 0.000000 0.366963 0.750000
O O10 0.000000 0.448078 0.250000
O O11 0.135556 0.404818 0.009748
O O12 0.500000 0.861543 0.250000
O O13 0.102417 0.923458 0.351250
O O14 0.228645 0.970337 0.453777
O O15 0.000000 0.002781 0.750000
O O16 0.939177 0.719277 0.875597
#
# Coordination Sequence:
#
# PCOD9227623 Si02
#       8
#     2   4   4   4   4   4   4   2
#     4  10  22  40  64  70 122 170 198 240 298 374
#     4  11  23  45  63  91 122 167 209 255 311 371
#     4   9  15  26  51  87 113 137 184 259 301 336
#     4   8  14  27  51  79 113 143 189 242 296 357
#     4  11  24  41  65  97 130 162 203 263 318 369
#     4  11  24  42  67  96 128 161 206 260 321 375
#     4  10  18  37  56  84 108 160 204 233 298 377
#     4  10  22  36  64  80 114 164 216 242 284 390
#
# _framework density 23.404879000000001
#
# number of rings (size 3 to 8) (size 9 to 14) (size 15 to 20)
#    0.000    2.000    3.571    2.571    3.000    1.143 
#    0.000    5.000    0.000    0.000    0.000    0.000 
#    0.000    0.000    0.000    0.000    0.000    0.000 
#
# Total GULP energy -156411.441144 kJ/mol
# GULP energy per Si atom -5586.122898 kJ/mol
# Density = 2.335161 g / cm^3
# Si number density = 23.404879 Si / 1000 Ang^3
#
#
#
# Elastic Constant Matrix: (Units=GPa)
#
#
# Indices 1 2 3 4 5 6 
#
# 1 117.9429 38.7825 29.5231 0.0000 -20.9923 0.0000
# 2 38.7825 87.8999 1.5077 0.0000 -12.2316 0.0000
# 3 29.5231 1.5077 69.0352 0.0000 -16.4554 0.0000
# 4 0.0000 0.0000 0.0000 13.1917 0.0000 -25.3589
# 5 -20.9923 -12.2316 -16.4554 0.0000 29.4158 0.0000
# 6 0.0000 0.0000 0.0000 -25.3589 0.0000 48.2621
#
#
#
# Elastic Compliance Matrix: (Units=1/GPa)
#
#
# Indices 1 2 3 4 5 6 
#
# 1 0.011693 -0.004493 -0.003875 0.000000 0.004308 0.000000
# 2 -0.004493 0.013872 0.002572 0.000000 0.004000 0.000000
# 3 -0.003875 0.002572 0.018095 0.000000 0.008426 0.000000
# 4 0.000000 0.000000 0.000000 -7.521579 0.000000 -3.952146
# 5 0.004308 0.004000 0.008426 0.000000 0.043447 0.000000
# 6 0.000000 0.000000 0.000000 -3.952146 0.000000 -2.055899
#
#
# Mechanical properties :
#
#
# Convention : Reuss Voigt Hill
#
# Bulk Modulus (GPa) = 31.18509 46.05608 38.62059
# Shear Modulus (GPa) = -0.52809 31.84489 15.65840
#
# Velocity S-wave (km/s) = -0.47552 3.69264 2.58935
# Velocity P-wave (km/s) = 3.61270 6.15642 5.04743
#
# Compressibility (1/GPa) = 0.03206661
#
# Stress axis : x y z
#
# Youngs Moduli (GPa) = 85.52079 72.09000 55.26367
#
# Poissons Ratio (x) = 0.32391 0.21417
# Poissons Ratio (y) = 0.38426 -0.14214
# Poissons Ratio (z) = 0.33144 -0.18542
#
# Static dielectric constant tensor:
#      x y z
#    x 1.958780 0.000000 -0.014680 
#    y 0.000000 1.947790 0.000000 
#    z -0.014680 0.000000 1.851560 
# 
# From -- ./inp_files/48223.got.cif
#   From: 2010.05.17/outbox.cif.g08.bks.cpg/sg13_25_cif.got.tgz:48223.got - 2010.06.03 16:44:36.
