data_PCOD9227583
_publ_section_title
;
Structure prediction by ZEFSAII (Michael W. Deem and Ramdas Pophale) SiO2 
 PCOD9227583
Probable space group: P 2/C
;
_chemical_formula_sum "Si O2"
_cell_formula_units_Z 28
_cell_length_a 8.817222
_cell_length_b 8.522261
_cell_length_c 26.866155
_cell_angle_alpha 90.000000
_cell_angle_beta 40.243711
_cell_angle_gamma 90.000000
_cell_volume 1304.222432
_symmetry_space_group_name_H-M "P 2/C"
_symmetry_group_IT_number 13
_symmetry_cell_setting 'monoclinic'
loop_
_space_group_symop_operation_xyz
x,y,z
-x,y,1/2-z
-x,-y,-z
x,-y,1/2+z
loop_
_atom_site_type_symbol
_atom_site_label
_atom_site_fract_x
_atom_site_fract_y
_atom_site_fract_z
Si Si1 0.740813 0.392176 0.806339
Si Si2 0.236955 0.897148 0.950928
Si Si3 0.790931 0.140446 0.923518
Si Si4 0.571039 0.380747 0.524811
Si Si5 0.242936 0.019840 0.668678
Si Si6 0.254747 0.352560 0.804925
Si Si7 0.915122 0.595007 0.569604
O O1 0.544320 0.442718 0.894791
O O2 0.754138 0.203281 0.813323
O O3 0.699013 0.431365 0.759814
O O4 0.000000 0.457089 0.750000
O O5 0.214370 0.745165 0.921084
O O6 0.501417 0.962208 0.877928
O O7 0.224090 0.873975 0.013848
O O8 0.000000 0.000000 0.000000
O O9 0.561903 0.227100 0.959815
O O10 0.794615 0.003136 0.881832
O O11 0.024559 0.245832 0.856719
O O12 0.500000 0.500000 0.500000
O O13 0.844029 0.353661 0.463698
O O14 0.000000 0.949195 0.750000
O O15 0.500000 0.259432 0.750000
O O16 0.207528 0.476500 0.860780
O O17 0.000000 0.500000 0.500000
#
# Coordination Sequence:
#
# PCOD9227583 Si02
#       7
#     4   4   4   4   4   4   4
#     4  10  18  36  62  98 127 166 235 281 336 410
#     4  12  26  43  70 105 141 187 236 295 355 423
#     4  11  22  41  67 103 127 182 235 287 340 420
#     4  11  19  37  68  95 130 174 222 280 338 409
#     4  10  21  41  67  98 139 177 237 294 354 424
#     4  12  23  38  67  99 137 174 231 290 351 412
#     4  12  24  44  65 100 142 178 227 286 353 415
#
# _framework density 21.468733
#
# number of rings (size 3 to 8) (size 9 to 14) (size 15 to 20)
#    0.000    0.857    7.143    3.000    2.000    0.000 
#    0.000    2.857    0.000    0.000    0.000    0.000 
#    0.000    0.000    0.000    0.000    0.000    0.000 
#
# Total GULP energy -156057.251431 kJ/mol
# GULP energy per Si atom -5573.473265 kJ/mol
# Density = 2.141987 g / cm^3
# Si number density = 21.468733 Si / 1000 Ang^3
#
#
#
# Elastic Constant Matrix: (Units=GPa)
#
#
# Indices 1 2 3 4 5 6 
#
# 1 148.8605 31.4134 68.1496 0.0000 -18.8329 0.0000
# 2 31.4134 38.7657 30.1384 0.0000 -7.5612 0.0000
# 3 68.1496 30.1384 138.3043 0.0000 -5.2237 0.0000
# 4 0.0000 0.0000 0.0000 21.0679 0.0000 0.4445
# 5 -18.8329 -7.5612 -5.2237 0.0000 68.2866 0.0000
# 6 0.0000 0.0000 0.0000 0.4445 0.0000 38.4726
#
#
#
# Elastic Compliance Matrix: (Units=1/GPa)
#
#
# Indices 1 2 3 4 5 6 
#
# 1 0.009593 -0.004563 -0.003662 0.000000 0.001860 0.000000
# 2 -0.004563 0.033824 -0.005043 0.000000 0.002101 0.000000
# 3 -0.003662 -0.005043 0.010104 0.000000 -0.000795 0.000000
# 4 0.000000 0.000000 0.000000 0.047477 0.000000 -0.000549
# 5 0.001860 0.002101 -0.000795 0.000000 0.015329 0.000000
# 6 0.000000 0.000000 0.000000 -0.000549 0.000000 0.025999
#
#
# Mechanical properties :
#
#
# Convention : Reuss Voigt Hill
#
# Bulk Modulus (GPa) = 37.05888 65.03704 51.04796
# Shear Modulus (GPa) = 28.11252 38.64734 33.37993
#
# Velocity S-wave (km/s) = 3.62258 4.24744 3.94739
# Velocity P-wave (km/s) = 5.89887 7.37658 6.67872
#
# Compressibility (1/GPa) = 0.02698409
#
# Stress axis : x y z
#
# Youngs Moduli (GPa) = 104.24771 29.56461 98.97294
#
# Poissons Ratio (x) = 0.13491 0.36244
# Poissons Ratio (y) = 0.47572 0.49910
# Poissons Ratio (z) = 0.38176 0.14909
#
# Static dielectric constant tensor:
#      x y z
#    x 1.829540 0.000000 -0.032120 
#    y 0.000000 1.811030 0.000000 
#    z -0.032120 0.000000 1.973530 
# 
# From -- ./inp_files/91391.got.cif
#   From: 2010.05.17/outbox.cif.g08.bks.cpg/sg13_46_cif.got.tgz:91391.got - 2010.06.03 16:44:36.
