data_PCOD9227913
_publ_section_title
;
Structure prediction by ZEFSAII (Michael W. Deem and Ramdas Pophale) SiO2 
 PCOD9227913
Probable space group: P 2/C
;
_chemical_formula_sum "Si O2"
_cell_formula_units_Z 30
_cell_length_a 16.269810
_cell_length_b 19.912446
_cell_length_c 5.451726
_cell_angle_alpha 90.000000
_cell_angle_beta 63.902973
_cell_angle_gamma 90.000000
_cell_volume 1586.141121
_symmetry_space_group_name_H-M "P 2/C"
_symmetry_group_IT_number 13
_symmetry_cell_setting 'monoclinic'
loop_
_space_group_symop_operation_xyz
x,y,z
-x,y,1/2-z
-x,-y,-z
x,-y,1/2+z
loop_
_atom_site_type_symbol
_atom_site_label
_atom_site_fract_x
_atom_site_fract_y
_atom_site_fract_z
Si Si1 0.631908 0.960756 0.304336
Si Si2 0.831218 0.011988 0.043068
Si Si3 0.000000 0.785760 0.250000
Si Si4 0.104072 0.526467 0.320033
Si Si5 0.192036 0.836072 0.913924
Si Si6 0.084565 0.670668 0.468598
Si Si7 0.751087 0.761712 0.154954
Si Si8 0.557223 0.191766 0.924215
O O1 0.596251 0.884905 0.365874
O O2 0.604525 0.002628 0.584884
O O3 0.743096 0.962865 0.157960
O O4 0.883781 0.000328 0.723902
O O5 0.787795 0.085795 0.099377
O O6 0.042517 0.735395 0.391902
O O7 0.917594 0.828954 0.461544
O O8 0.146404 0.511018 0.531271
O O9 0.103685 0.606200 0.275270
O O10 0.000000 0.500000 0.500000
O O11 0.231877 0.803090 0.617340
O O12 0.222714 0.800106 0.125372
O O13 0.180162 0.697837 0.453034
O O14 0.000000 0.647603 0.750000
O O15 0.641939 0.756247 0.314729
O O16 0.500000 0.200765 0.750000
O O17 0.500000 0.198408 0.250000
#
# Coordination Sequence:
#
# PCOD9227913 Si02
#       8
#     4   4   2   4   4   4   4   4
#     4  10  19  33  52  74  99 129 166 216 290 356
#     4  10  19  33  52  70  95 132 171 221 289 348
#     4  10  22  34  54  84 110 154 196 240 256 330
#     4  10  19  30  51  80 125 161 177 213 267 298
#     4  11  21  37  57  78 110 140 188 232 290 329
#     4  11  20  35  57  87 120 156 195 218 262 331
#     4  11  23  38  59  82 112 151 186 232 282 331
#     4  12  25  40  57  79 108 137 183 237 291 344
#
# _framework density 18.913829
#
# number of rings (size 3 to 8) (size 9 to 14) (size 15 to 20)
#    0.000    1.333    2.667    6.400    0.000    1.600 
#    0.000    0.667    0.000    0.000    0.000    0.000 
#    0.000    3.200    0.000    0.000    0.000    0.000 
#
# Total GULP energy -167351.740943 kJ/mol
# GULP energy per Si atom -5578.391365 kJ/mol
# Density = 1.887078 g / cm^3
# Si number density = 18.913829 Si / 1000 Ang^3
#
#
#
# Elastic Constant Matrix: (Units=GPa)
#
#
# Indices 1 2 3 4 5 6 
#
# 1 80.9710 24.2643 44.4177 0.0000 -2.2049 0.0000
# 2 24.2643 46.1094 9.5874 0.0000 1.0143 0.0000
# 3 44.4177 9.5874 128.0908 0.0000 22.2732 0.0000
# 4 0.0000 0.0000 0.0000 19.7709 0.0000 1.6118
# 5 -2.2049 1.0143 22.2732 0.0000 40.3398 0.0000
# 6 0.0000 0.0000 0.0000 1.6118 0.0000 25.0593
#
#
#
# Elastic Compliance Matrix: (Units=1/GPa)
#
#
# Indices 1 2 3 4 5 6 
#
# 1 0.018738 -0.008573 -0.006717 0.000000 0.004948 0.000000
# 2 -0.008573 0.025958 0.001355 0.000000 -0.001869 0.000000
# 3 -0.006717 0.001355 0.011178 0.000000 -0.006573 0.000000
# 4 0.000000 0.000000 0.000000 0.050846 0.000000 -0.003270
# 5 0.004948 -0.001869 -0.006573 0.000000 0.028736 0.000000
# 6 0.000000 0.000000 0.000000 -0.003270 0.000000 0.040116
#
#
# Mechanical properties :
#
#
# Convention : Reuss Voigt Hill
#
# Bulk Modulus (GPa) = 35.70800 45.74555 40.72678
# Shear Modulus (GPa) = 23.49886 28.82747 26.16317
#
# Velocity S-wave (km/s) = 3.52862 3.90827 3.72329
# Velocity P-wave (km/s) = 5.96002 6.67869 6.32956
#
# Compressibility (1/GPa) = 0.02800493
#
# Stress axis : x y z
#
# Youngs Moduli (GPa) = 53.36632 38.52319 89.46495
#
# Poissons Ratio (x) = 0.33026 0.60090
# Poissons Ratio (y) = 0.45751 -0.12122
# Poissons Ratio (z) = 0.35844 -0.05220
#
# Static dielectric constant tensor:
#      x y z
#    x 1.718300 0.000000 0.055080 
#    y 0.000000 1.628580 0.000000 
#    z 0.055080 0.000000 1.765570 
# 
# From -- ./inp_files/6423.got.cif
#   From: 2010.05.17/outbox.cif.g08.bks.cpg/sg13_4_cif.got.tgz:6423.got - 2010.06.03 16:44:36.
