data_PCOD9227768
_publ_section_title
;
Structure prediction by ZEFSAII (Michael W. Deem and Ramdas Pophale) SiO2 
 PCOD9227768
Probable space group: P 2/C
;
_chemical_formula_sum "Si O2"
_cell_formula_units_Z 20
_cell_length_a 12.003052
_cell_length_b 10.338799
_cell_length_c 10.812905
_cell_angle_alpha 90.000000
_cell_angle_beta 37.922800
_cell_angle_gamma 90.000000
_cell_volume 824.700250
_symmetry_space_group_name_H-M "P 2/C"
_symmetry_group_IT_number 13
_symmetry_cell_setting 'monoclinic'
loop_
_space_group_symop_operation_xyz
x,y,z
-x,y,1/2-z
-x,-y,-z
x,-y,1/2+z
loop_
_atom_site_type_symbol
_atom_site_label
_atom_site_fract_x
_atom_site_fract_y
_atom_site_fract_z
Si Si1 0.500000 0.421331 0.250000
Si Si2 0.719067 0.075576 0.063902
Si Si3 0.723277 0.754814 0.804644
Si Si4 0.344267 0.768384 0.099446
Si Si5 0.000000 0.126612 0.250000
Si Si6 0.789269 0.476912 0.667402
O O1 0.423172 0.326972 0.422874
O O2 0.328039 0.502181 0.353561
O O3 0.500000 0.052009 0.250000
O O4 0.758447 0.181298 0.137526
O O5 0.760313 0.126796 0.888324
O O6 0.854718 0.956666 0.957401
O O7 0.877115 0.793160 0.764080
O O8 0.708365 0.598234 0.817235
O O9 0.525312 0.813847 0.010525
O O10 0.233308 0.671548 0.278291
O O11 0.000000 0.500000 0.500000
#
# Coordination Sequence:
#
# PCOD9227768 Si02
#       6
#     2   4   4   4   2   4
#     4  10  18  40  60  88 134 172 202 272 336 404
#     4  10  22  44  69  92 132 182 229 273 337 401
#     4  10  22  45  61  98 131 171 227 278 334 406
#     4  10  20  41  70  91 130 174 217 275 345 404
#     4  12  26  40  70  94 138 178 228 288 322 398
#     4  11  24  38  68 102 131 171 221 276 349 421
#
# _framework density 24.251235999999999
#
# number of rings (size 3 to 8) (size 9 to 14) (size 15 to 20)
#    0.000    1.600    5.000    3.000    2.800    7.200 
#    3.600    0.000    2.200    0.000    0.000    0.000 
#    0.000    0.000    0.000    0.000    0.000    0.000 
#
# Total GULP energy -111620.145648 kJ/mol
# GULP energy per Si atom -5581.007282 kJ/mol
# Density = 2.419604 g / cm^3
# Si number density = 24.251236 Si / 1000 Ang^3
#
#
#
# Elastic Constant Matrix: (Units=GPa)
#
#
# Indices 1 2 3 4 5 6 
#
# 1 181.9694 35.3542 25.8776 0.0000 -40.6119 0.0000
# 2 35.3542 68.7795 -0.7098 0.0000 -3.1350 0.0000
# 3 25.8776 -0.7098 24.1436 0.0000 -17.3794 0.0000
# 4 0.0000 0.0000 0.0000 16.8034 0.0000 -16.8099
# 5 -40.6119 -3.1350 -17.3794 0.0000 26.2711 0.0000
# 6 0.0000 0.0000 0.0000 -16.8099 0.0000 40.1436
#
#
#
# Elastic Compliance Matrix: (Units=1/GPa)
#
#
# Indices 1 2 3 4 5 6 
#
# 1 0.009472 -0.004232 -0.000191 0.000000 0.014011 0.000000
# 2 -0.004232 0.016642 0.003332 0.000000 -0.002352 0.000000
# 3 -0.000191 0.003332 0.079793 0.000000 0.052889 0.000000
# 4 0.000000 0.000000 0.000000 0.102413 0.000000 0.042885
# 5 0.014011 -0.002352 0.052889 0.000000 0.094431 0.000000
# 6 0.000000 0.000000 0.000000 0.042885 0.000000 0.042868
#
#
# Mechanical properties :
#
#
# Convention : Reuss Voigt Hill
#
# Bulk Modulus (GPa) = 9.64088 43.99295 26.81691
# Shear Modulus (GPa) = 13.07616 30.93499 22.00558
#
# Velocity S-wave (km/s) = 2.32458 3.57544 3.01558
# Velocity P-wave (km/s) = 3.34499 5.93505 4.81735
#
# Compressibility (1/GPa) = 0.10372497
#
# Stress axis : x y z
#
# Youngs Moduli (GPa) = 105.57704 60.08973 12.53245
#
# Poissons Ratio (x) = 0.25430 0.00239
# Poissons Ratio (y) = 0.44681 -0.04176
# Poissons Ratio (z) = 0.02016 -0.20023
#
# Static dielectric constant tensor:
#      x y z
#    x 1.940020 0.000000 0.058850 
#    y 0.000000 1.995650 0.000000 
#    z 0.058850 0.000000 2.018200 
# 
# From -- ./inp_files/28972.got.cif
#   From: 2010.05.17/outbox.cif.g08.bks.cpg/sg13_15_cif.got.tgz:28972.got - 2010.06.03 16:44:36.
