data_PCOD9227782
_publ_section_title
;
Structure prediction by ZEFSAII (Michael W. Deem and Ramdas Pophale) SiO2 
 PCOD9227782
Probable space group: P 2/C
;
_chemical_formula_sum "Si O2"
_cell_formula_units_Z 30
_cell_length_a 12.465506
_cell_length_b 9.665887
_cell_length_c 13.826513
_cell_angle_alpha 90.000000
_cell_angle_beta 113.029980
_cell_angle_gamma 90.000000
_cell_volume 1533.182470
_symmetry_space_group_name_H-M "P 2/C"
_symmetry_group_IT_number 13
_symmetry_cell_setting 'monoclinic'
loop_
_space_group_symop_operation_xyz
x,y,z
-x,y,1/2-z
-x,-y,-z
x,-y,1/2+z
loop_
_atom_site_type_symbol
_atom_site_label
_atom_site_fract_x
_atom_site_fract_y
_atom_site_fract_z
Si Si1 0.387399 0.540364 0.897668
Si Si2 0.485955 0.155463 0.643761
Si Si3 0.973501 0.398073 0.904911
Si Si4 0.713100 0.162537 0.068690
Si Si5 0.894242 0.889016 0.461365
Si Si6 0.747665 0.914966 0.220138
Si Si7 0.171252 0.360561 0.819528
Si Si8 0.500000 0.572047 0.250000
O O1 0.329937 0.687917 0.906572
O O2 0.293193 0.424497 0.889808
O O3 0.424536 0.518963 0.797623
O O4 0.500000 0.500000 0.000000
O O5 0.500000 0.073099 0.750000
O O6 0.397495 0.105257 0.532344
O O7 0.620815 0.156798 0.662722
O O8 0.439566 0.309442 0.659843
O O9 0.953447 0.249749 0.944109
O O10 0.862761 0.425506 0.796725
O O11 0.079250 0.398653 0.867683
O O12 0.000000 0.500000 0.000000
O O13 0.740715 0.061775 0.166928
O O14 0.823749 0.149314 0.034816
O O15 0.795600 0.926924 0.346108
O O16 0.000000 0.000000 0.500000
O O17 0.830352 0.804454 0.195707
#
# Coordination Sequence:
#
# PCOD9227782 Si02
#       8
#     4   4   4   4   4   4   4   2
#     4  12  23  40  66 100 132 171 212 274 335 403
#     4  10  18  40  66  88 125 173 209 253 329 406
#     4  10  22  39  63  90 119 165 222 274 324 383
#     4  12  24  39  66 101 132 172 221 277 327 395
#     4  11  24  43  66  90 133 179 220 273 338 386
#     4  11  22  41  65  95 125 176 222 264 325 402
#     4  10  21  40  63  89 123 169 218 263 327 397
#     4  10  20  38  64  92 132 170 210 250 338 402
#
# _framework density 19.567143000000002
#
# number of rings (size 3 to 8) (size 9 to 14) (size 15 to 20)
#    0.400    0.800    4.000    2.000    1.867    3.733 
#    1.200    1.333    0.000    0.000    0.000    0.000 
#    0.000    0.000    0.000    0.000    0.000    0.000 
#
# Total GULP energy -167046.897200 kJ/mol
# GULP energy per Si atom -5568.229907 kJ/mol
# Density = 1.952261 g / cm^3
# Si number density = 19.567143 Si / 1000 Ang^3
#
#
#
# Elastic Constant Matrix: (Units=GPa)
#
#
# Indices 1 2 3 4 5 6 
#
# 1 95.1593 44.1509 43.6639 0.0000 1.1905 0.0000
# 2 44.1509 104.9553 61.4768 0.0000 -6.5241 0.0000
# 3 43.6639 61.4768 78.5943 0.0000 -6.8555 0.0000
# 4 0.0000 0.0000 0.0000 30.1697 0.0000 0.6210
# 5 1.1905 -6.5241 -6.8555 0.0000 34.4635 0.0000
# 6 0.0000 0.0000 0.0000 0.6210 0.0000 27.8477
#
#
#
# Elastic Compliance Matrix: (Units=1/GPa)
#
#
# Indices 1 2 3 4 5 6 
#
# 1 0.014632 -0.002618 -0.006277 0.000000 -0.002250 0.000000
# 2 -0.002618 0.018065 -0.012589 0.000000 0.001006 0.000000
# 3 -0.006277 -0.012589 0.026326 0.000000 0.003070 0.000000
# 4 0.000000 0.000000 0.000000 0.033161 0.000000 -0.000740
# 5 -0.002250 0.001006 0.003070 0.000000 0.029895 0.000000
# 6 0.000000 0.000000 0.000000 -0.000740 0.000000 0.035926
#
#
# Mechanical properties :
#
#
# Convention : Reuss Voigt Hill
#
# Bulk Modulus (GPa) = 62.28554 64.14357 63.21456
# Shear Modulus (GPa) = 24.23366 27.12401 25.67883
#
# Velocity S-wave (km/s) = 3.52303 3.72721 3.62656
# Velocity P-wave (km/s) = 6.96059 7.16765 7.06488
#
# Compressibility (1/GPa) = 0.01605509
#
# Stress axis : x y z
#
# Youngs Moduli (GPa) = 68.34404 55.35445 37.98587
#
# Poissons Ratio (x) = 0.14492 0.23845
# Poissons Ratio (y) = 0.17893 0.47819
# Poissons Ratio (z) = 0.42901 0.69683
#
# Static dielectric constant tensor:
#      x y z
#    x 1.720150 0.000000 -0.016720 
#    y 0.000000 1.714670 0.000000 
#    z -0.016720 0.000000 1.706240 
# 
# From -- ./inp_files/50380.got.cif
#   From: 2010.05.17/outbox.cif.g08.bks.cpg/sg13_26_cif.got.tgz:50380.got - 2010.06.03 16:44:36.
