data_PCOD9227911
_publ_section_title
;
Structure prediction by ZEFSAII (Michael W. Deem and Ramdas Pophale) SiO2 
 PCOD9227911
Probable space group: P 2/C
;
_chemical_formula_sum "Si O2"
_cell_formula_units_Z 22
_cell_length_a 11.312078
_cell_length_b 21.065849
_cell_length_c 5.359509
_cell_angle_alpha 90.000000
_cell_angle_beta 113.836835
_cell_angle_gamma 90.000000
_cell_volume 1168.221142
_symmetry_space_group_name_H-M "P 2/C"
_symmetry_group_IT_number 13
_symmetry_cell_setting 'monoclinic'
loop_
_space_group_symop_operation_xyz
x,y,z
-x,y,1/2-z
-x,-y,-z
x,-y,1/2+z
loop_
_atom_site_type_symbol
_atom_site_label
_atom_site_fract_x
_atom_site_fract_y
_atom_site_fract_z
Si Si1 0.146626 0.974473 0.673047
Si Si2 0.655769 0.465184 0.887465
Si Si3 0.647229 0.241671 0.394794
Si Si4 0.000000 0.269057 0.250000
Si Si5 0.883471 0.840489 0.982698
Si Si6 0.722809 0.317514 0.951840
O O1 0.147687 0.899216 0.724537
O O2 0.207808 0.988477 0.455847
O O3 0.000000 0.000000 0.500000
O O4 0.500000 0.470039 0.750000
O O5 0.703318 0.497064 0.671756
O O6 0.688858 0.391254 0.932477
O O7 0.500000 0.218813 0.250000
O O8 0.753820 0.185698 0.499543
O O9 0.661844 0.284554 0.655240
O O10 0.677834 0.282366 0.168794
O O11 0.946281 0.221111 0.411326
O O12 0.122688 0.308898 0.440544
O O13 0.000000 0.866661 0.250000
#
# Coordination Sequence:
#
# PCOD9227911 Si02
#       6
#     4   4   4   2   4   4
#     4  10  19  30  51  79 107 138 185 228 271 315
#     4  10  20  35  55  78 105 143 188 228 269 325
#     4  11  23  37  58  85 115 149 186 231 284 335
#     4  10  22  36  56  88 112 150 182 234 280 346
#     4  11  20  35  57  82 115 144 187 233 279 329
#     4  11  22  38  60  82 117 144 188 228 288 329
#
# _framework density 18.832049000000001
#
# number of rings (size 3 to 8) (size 9 to 14) (size 15 to 20)
#    0.000    1.455    3.636    3.818    0.000    1.455 
#    0.000    0.909    0.000    1.091    0.000    0.000 
#    0.000    0.000    0.000    0.000    0.000    0.000 
#
# Total GULP energy -122680.666349 kJ/mol
# GULP energy per Si atom -5576.393925 kJ/mol
# Density = 1.878919 g / cm^3
# Si number density = 18.832049 Si / 1000 Ang^3
#
#
#
# Elastic Constant Matrix: (Units=GPa)
#
#
# Indices 1 2 3 4 5 6 
#
# 1 64.5527 15.2738 29.9698 0.0000 8.7425 0.0000
# 2 15.2738 82.0379 22.6099 0.0000 -8.5015 0.0000
# 3 29.9698 22.6099 103.5957 0.0000 -16.8733 0.0000
# 4 0.0000 0.0000 0.0000 26.4774 0.0000 -9.3224
# 5 8.7425 -8.5015 -16.8733 0.0000 27.1841 0.0000
# 6 0.0000 0.0000 0.0000 -9.3224 0.0000 10.0924
#
#
#
# Elastic Compliance Matrix: (Units=1/GPa)
#
#
# Indices 1 2 3 4 5 6 
#
# 1 0.021471 -0.003220 -0.007562 0.000000 -0.012606 0.000000
# 2 -0.003220 0.013614 -0.001310 0.000000 0.004480 0.000000
# 3 -0.007562 -0.001310 0.013857 0.000000 0.010623 0.000000
# 4 0.000000 0.000000 0.000000 0.055972 0.000000 0.051701
# 5 -0.012606 0.004480 0.010623 0.000000 0.048835 0.000000
# 6 0.000000 0.000000 0.000000 0.051701 0.000000 0.146841
#
#
# Mechanical properties :
#
#
# Convention : Reuss Voigt Hill
#
# Bulk Modulus (GPa) = 40.39049 42.87705 41.63377
# Shear Modulus (GPa) = 15.01382 24.90631 19.96007
#
# Velocity S-wave (km/s) = 2.82662 3.64063 3.25914
# Velocity P-wave (km/s) = 5.66986 6.36316 6.02649
#
# Compressibility (1/GPa) = 0.02475830
#
# Stress axis : x y z
#
# Youngs Moduli (GPa) = 46.57432 73.45233 72.16682
#
# Poissons Ratio (x) = 0.23650 0.54572
# Poissons Ratio (y) = 0.14996 0.09455
# Poissons Ratio (z) = 0.35219 0.09624
#
# Static dielectric constant tensor:
#      x y z
#    x 1.671340 0.000000 -0.047170 
#    y 0.000000 1.621100 0.000000 
#    z -0.047170 0.000000 1.734870 
# 
# From -- ./inp_files/2133.got.cif
#   From: 2010.05.17/outbox.cif.g08.bks.cpg/sg13_2_cif.got.tgz:2133.got - 2010.06.03 16:44:36.
