data_PCOD9227846
_publ_section_title
;
Structure prediction by ZEFSAII (Michael W. Deem and Ramdas Pophale) SiO2 
 PCOD9227846
Probable space group: P 2/C
;
_chemical_formula_sum "Si O2"
_cell_formula_units_Z 30
_cell_length_a 18.504249
_cell_length_b 16.727452
_cell_length_c 5.047084
_cell_angle_alpha 90.000000
_cell_angle_beta 63.752767
_cell_angle_gamma 90.000000
_cell_volume 1401.144596
_symmetry_space_group_name_H-M "P 2/C"
_symmetry_group_IT_number 13
_symmetry_cell_setting 'monoclinic'
loop_
_space_group_symop_operation_xyz
x,y,z
-x,y,1/2-z
-x,-y,-z
x,-y,1/2+z
loop_
_atom_site_type_symbol
_atom_site_label
_atom_site_fract_x
_atom_site_fract_y
_atom_site_fract_z
Si Si1 0.000000 0.656737 0.250000
Si Si2 0.886682 0.048341 0.267504
Si Si3 0.307215 0.043052 0.894872
Si Si4 0.416045 0.172635 0.953706
Si Si5 0.414521 0.723955 0.957270
Si Si6 0.122188 0.446985 0.849273
Si Si7 0.230616 0.704399 0.158396
Si Si8 0.859865 0.227653 0.179393
O O1 0.041862 0.600465 0.398700
O O2 0.932329 0.711984 0.493175
O O3 0.789035 0.045465 0.441325
O O4 0.898795 0.139999 0.161326
O O5 0.914349 0.017223 0.508041
O O6 0.342524 0.121251 0.969880
O O7 0.333307 0.027395 0.553143
O O8 0.500000 0.128732 0.750000
O O9 0.416836 0.249764 0.758924
O O10 0.415912 0.199575 0.256118
O O11 0.500000 0.681451 0.750000
O O12 0.325772 0.691386 0.040425
O O13 0.127320 0.520791 0.637667
O O14 0.191329 0.382292 0.681848
O O15 0.188425 0.744008 0.483066
O O16 0.203191 0.762149 0.961436
#
# Coordination Sequence:
#
# PCOD9227846 Si02
#       8
#     2   4   4   4   4   4   4   4
#     4  10  24  42  64  94 124 160 192 232 292 350
#     4  10  20  35  53  77 108 149 198 246 296 338
#     4  10  19  29  45  66  95 137 182 230 287 351
#     4  10  20  32  48  73 104 141 184 237 297 343
#     4  10  20  35  56  80 109 145 191 241 283 331
#     4  11  23  40  64  94 127 156 186 228 285 358
#     4  11  22  38  62  90 119 158 198 241 293 344
#     4  11  23  39  61  88 120 155 202 249 291 354
#
# _framework density 21.411065000000001
#
# number of rings (size 3 to 8) (size 9 to 14) (size 15 to 20)
#    0.000    1.600    0.000    6.000    0.000    6.933 
#    0.000    0.667    0.000    0.800    0.000    0.000 
#    0.000    0.000    0.000    0.000    0.000    0.000 
#
# Total GULP energy -167608.165706 kJ/mol
# GULP energy per Si atom -5586.938857 kJ/mol
# Density = 2.136233 g / cm^3
# Si number density = 21.411065 Si / 1000 Ang^3
#
#
#
# Elastic Constant Matrix: (Units=GPa)
#
#
# Indices 1 2 3 4 5 6 
#
# 1 97.3349 14.7634 21.6982 0.0000 -12.7401 0.0000
# 2 14.7634 71.6373 16.4621 0.0000 -7.6340 0.0000
# 3 21.6982 16.4621 78.3350 0.0000 7.7638 0.0000
# 4 0.0000 0.0000 0.0000 -10.4545 0.0000 1.1639
# 5 -12.7401 -7.6340 7.7638 0.0000 34.3602 0.0000
# 6 0.0000 0.0000 0.0000 1.1639 0.0000 24.6550
#
#
#
# Elastic Compliance Matrix: (Units=1/GPa)
#
#
# Indices 1 2 3 4 5 6 
#
# 1 0.011882 -0.001104 -0.003551 0.000000 0.004963 0.000000
# 2 -0.001104 0.015341 -0.003289 0.000000 0.003742 0.000000
# 3 -0.003551 -0.003289 0.014979 0.000000 -0.005432 0.000000
# 4 0.000000 0.000000 0.000000 -0.095152 0.000000 0.004492
# 5 0.004963 0.003742 -0.005432 0.000000 0.033002 0.000000
# 6 0.000000 0.000000 0.000000 0.004492 0.000000 0.040348
#
#
# Mechanical properties :
#
#
# Convention : Reuss Voigt Hill
#
# Bulk Modulus (GPa) = 38.00219 39.23940 38.62079
# Shear Modulus (GPa) = 110.96160 22.67103 66.81632
#
# Velocity S-wave (km/s) = 7.20673 3.25752 5.59233
# Velocity P-wave (km/s) = 9.32934 5.70220 7.73148
#
# Compressibility (1/GPa) = 0.02631427
#
# Stress axis : x y z
#
# Youngs Moduli (GPa) = 84.15742 65.18335 66.76035
#
# Poissons Ratio (x) = 0.07195 0.23708
# Poissons Ratio (y) = 0.09290 0.21958
# Poissons Ratio (z) = 0.29887 0.21440
#
# Static dielectric constant tensor:
#      x y z
#    x 1.850850 0.000000 -0.010490 
#    y 0.000000 1.768180 0.000000 
#    z -0.010490 0.000000 1.785180 
# 
# From -- ./inp_files/6257.got.cif
#   From: 2010.05.17/outbox.cif.g08.bks.cpg/sg13_4_cif.got.tgz:6257.got - 2010.06.03 16:44:36.
