data_PCOD9227847
_publ_section_title
;
Structure prediction by ZEFSAII (Michael W. Deem and Ramdas Pophale) SiO2 
 PCOD9227847
Probable space group: P 2/C
;
_chemical_formula_sum "Si O2"
_cell_formula_units_Z 24
_cell_length_a 5.196490
_cell_length_b 10.655561
_cell_length_c 18.773654
_cell_angle_alpha 90.000000
_cell_angle_beta 75.824698
_cell_angle_gamma 90.000000
_cell_volume 1007.873171
_symmetry_space_group_name_H-M "P 2/C"
_symmetry_group_IT_number 13
_symmetry_cell_setting 'monoclinic'
loop_
_space_group_symop_operation_xyz
x,y,z
-x,y,1/2-z
-x,-y,-z
x,-y,1/2+z
loop_
_atom_site_type_symbol
_atom_site_label
_atom_site_fract_x
_atom_site_fract_y
_atom_site_fract_z
Si Si1 0.879251 0.837864 0.361976
Si Si2 0.274369 0.357381 0.223239
Si Si3 0.378230 0.509189 0.085548
Si Si4 0.182046 0.589674 0.340584
Si Si5 0.735032 0.915366 0.515376
Si Si6 0.398151 0.998076 0.833183
O O1 0.797295 0.812502 0.450795
O O2 0.613282 0.894000 0.344005
O O3 0.051760 0.719338 0.323287
O O4 0.103700 0.944739 0.345272
O O5 0.500000 0.291090 0.250000
O O6 0.363958 0.387699 0.137786
O O7 0.231141 0.488474 0.273616
O O8 0.000000 0.287976 0.250000
O O9 0.561222 0.598543 0.124987
O O10 0.067364 0.537362 0.098623
O O11 0.500000 0.500000 0.000000
O O12 0.500000 0.000000 0.500000
O O13 0.636962 0.894036 0.602386
O O14 0.000000 0.000000 0.500000
O O15 0.500000 0.961527 0.750000
#
# Coordination Sequence:
#
# PCOD9227847 Si02
#       6
#     4   4   4   4   4   4
#     4  10  19  31  47  68  98 128 154 196 242 285
#     4   8  16  28  42  61  87 114 142 175 223 274
#     4  10  19  31  46  66  93 122 154 188 226 285
#     4  10  19  31  47  69  93 122 153 189 239 286
#     4   8  16  30  44  62  92 127 159 187 227 278
#     4  10  19  29  45  70  96 127 164 197 233 280
#
# _framework density 23.812518000000001
#
# number of rings (size 3 to 8) (size 9 to 14) (size 15 to 20)
#    0.000    2.667    0.000    2.000    0.000    6.000 
#    0.000    0.000    0.000    0.000    0.000   10.500 
#    0.000    8.000    0.000    0.000    0.000    0.000 
#
# Total GULP energy -133634.362752 kJ/mol
# GULP energy per Si atom -5568.098448 kJ/mol
# Density = 2.375832 g / cm^3
# Si number density = 23.812518 Si / 1000 Ang^3
#
#
#
# Elastic Constant Matrix: (Units=GPa)
#
#
# Indices 1 2 3 4 5 6 
#
# 1 151.4286 -9.3270 11.9720 0.0000 -13.1327 0.0000
# 2 -9.3270 49.0665 12.8631 0.0000 -0.5459 0.0000
# 3 11.9720 12.8631 207.5212 0.0000 -13.5910 0.0000
# 4 0.0000 0.0000 0.0000 8.0269 0.0000 -3.4082
# 5 -13.1327 -0.5459 -13.5910 0.0000 33.7840 0.0000
# 6 0.0000 0.0000 0.0000 -3.4082 0.0000 -2.6169
#
#
#
# Elastic Compliance Matrix: (Units=1/GPa)
#
#
# Indices 1 2 3 4 5 6 
#
# 1 0.006942 0.001432 -0.000319 0.000000 0.002593 0.000000
# 2 0.001432 0.021014 -0.001362 0.000000 0.000348 0.000000
# 3 -0.000319 -0.001362 0.005045 0.000000 0.001883 0.000000
# 4 0.000000 0.000000 0.000000 0.080220 0.000000 -0.104478
# 5 0.002593 0.000348 0.001883 0.000000 0.031371 0.000000
# 6 0.000000 0.000000 0.000000 -0.104478 0.000000 -0.246064
#
#
# Mechanical properties :
#
#
# Convention : Reuss Voigt Hill
#
# Bulk Modulus (GPa) = 30.76755 48.78141 39.77448
# Shear Modulus (GPa) = -55.47007 34.00602 -10.73203
#
# Velocity S-wave (km/s) = -4.83167 3.78309 -2.12525
# Velocity P-wave (km/s) = 4.26356 6.29384 3.27372
#
# Compressibility (1/GPa) = 0.03250178
#
# Stress axis : x y z
#
# Youngs Moduli (GPa) = 144.04774 47.58784 198.21595
#
# Poissons Ratio (x) = -0.06816 0.06332
# Poissons Ratio (y) = -0.20631 0.27004
# Poissons Ratio (z) = 0.04601 0.06483
#
# Static dielectric constant tensor:
#      x y z
#    x 1.956170 0.000000 -0.000660 
#    y 0.000000 1.981950 0.000000 
#    z -0.000660 0.000000 1.956380 
# 
# From -- ./inp_files/61233.got.cif
#   From: 2010.05.17/outbox.cif.g08.bks.cpg/sg13_31_cif.got.tgz:61233.got - 2010.06.03 16:44:36.
