data_PCOD9227919
_publ_section_title
;
Structure prediction by ZEFSAII (Michael W. Deem and Ramdas Pophale) SiO2 
 PCOD9227919
Probable space group: P 2/C
;
_chemical_formula_sum "Si O2"
_cell_formula_units_Z 28
_cell_length_a 14.646075
_cell_length_b 7.063566
_cell_length_c 23.476658
_cell_angle_alpha 90.000000
_cell_angle_beta 29.185375
_cell_angle_gamma 90.000000
_cell_volume 1184.344453
_symmetry_space_group_name_H-M "P 2/C"
_symmetry_group_IT_number 13
_symmetry_cell_setting 'monoclinic'
loop_
_space_group_symop_operation_xyz
x,y,z
-x,y,1/2-z
-x,-y,-z
x,-y,1/2+z
loop_
_atom_site_type_symbol
_atom_site_label
_atom_site_fract_x
_atom_site_fract_y
_atom_site_fract_z
Si Si1 0.164345 0.320646 0.519746
Si Si2 0.206413 0.120973 0.618876
Si Si3 0.636181 0.226263 0.513343
Si Si4 0.961093 0.307880 0.152083
Si Si5 0.515941 0.407755 0.803499
Si Si6 0.216784 0.484968 0.155558
Si Si7 0.139154 0.325157 0.411318
O O1 0.189071 0.208235 0.564378
O O2 0.334829 0.465884 0.416255
O O3 0.150734 0.219143 0.465650
O O4 0.995391 0.466650 0.622347
O O5 0.251015 0.290375 0.638837
O O6 0.000000 0.047333 0.750000
O O7 0.359053 0.959651 0.527276
O O8 0.483458 0.257637 0.645611
O O9 0.644628 0.406822 0.467768
O O10 0.846516 0.224999 0.427547
O O11 0.791779 0.332388 0.288724
O O12 0.922755 0.217068 0.111719
O O13 0.500000 0.312914 0.750000
O O14 0.674754 0.564358 0.709148
O O15 0.000000 0.475412 0.250000
O O16 0.000000 0.500000 0.500000
#
# Coordination Sequence:
#
# PCOD9227919 Si02
#       7
#     4   4   4   4   4   4   4
#     4   9  16  30  51  78 100 136 176 212 258 309
#     4  11  17  29  55  82 106 136 174 221 253 298
#     4  10  19  30  53  80 104 134 179 215 260 308
#     4   9  15  31  49  77 107 133 172 216 257 311
#     4   9  17  33  52  74 106 134 176 221 256 313
#     4   9  15  29  49  76 104 132 174 214 251 305
#     4   9  18  30  55  77  99 140 176 214 271 314
#
# _framework density 23.641770000000001
#
# number of rings (size 3 to 8) (size 9 to 14) (size 15 to 20)
#    0.000    2.571    5.714    2.143    0.000    0.000 
#    0.000    3.571    0.000    4.286    0.000    0.000 
#    0.000    0.000    0.000    0.000    0.000    0.000 
#
# Total GULP energy -155989.874006 kJ/mol
# GULP energy per Si atom -5571.066929 kJ/mol
# Density = 2.358796 g / cm^3
# Si number density = 23.641770 Si / 1000 Ang^3
#
#
#
# Elastic Constant Matrix: (Units=GPa)
#
#
# Indices 1 2 3 4 5 6 
#
# 1 67.9213 2.2825 19.0214 0.0000 25.2507 0.0000
# 2 2.2825 52.8888 12.5475 0.0000 8.1179 0.0000
# 3 19.0214 12.5475 118.6312 0.0000 30.0319 0.0000
# 4 0.0000 0.0000 0.0000 28.5319 0.0000 2.9132
# 5 25.2507 8.1179 30.0319 0.0000 30.5713 0.0000
# 6 0.0000 0.0000 0.0000 2.9132 0.0000 8.2989
#
#
#
# Elastic Compliance Matrix: (Units=1/GPa)
#
#
# Indices 1 2 3 4 5 6 
#
# 1 0.021574 0.001763 0.001310 0.000000 -0.019573 0.000000
# 2 0.001763 0.019947 -0.000909 0.000000 -0.005860 0.000000
# 3 0.001310 -0.000909 0.011351 0.000000 -0.011991 0.000000
# 4 0.000000 0.000000 0.000000 0.036351 0.000000 -0.012761
# 5 -0.019573 -0.005860 -0.011991 0.000000 0.062213 0.000000
# 6 0.000000 0.000000 0.000000 -0.012761 0.000000 0.124978
#
#
# Mechanical properties :
#
#
# Convention : Reuss Voigt Hill
#
# Bulk Modulus (GPa) = 17.48319 34.12713 25.80516
# Shear Modulus (GPa) = 17.17308 27.18641 22.17974
#
# Velocity S-wave (km/s) = 2.69808 3.39474 3.06626
# Velocity P-wave (km/s) = 4.13730 5.46188 4.84507
#
# Compressibility (1/GPa) = 0.05719779
#
# Stress axis : x y z
#
# Youngs Moduli (GPa) = 46.35285 50.13394 88.09572
#
# Poissons Ratio (x) = -0.08837 -0.11536
# Poissons Ratio (y) = -0.08170 0.08008
# Poissons Ratio (z) = -0.06070 0.04557
#
# Static dielectric constant tensor:
#      x y z
#    x 2.108090 0.000000 0.087580 
#    y 0.000000 1.907400 0.000000 
#    z 0.087580 0.000000 2.173630 
# 
# From -- ./inp_files/87822.got.cif
#   From: 2010.05.17/outbox.cif.g08.bks.cpg/sg13_44_cif.got.tgz:87822.got - 2010.06.03 16:44:36.
