data_PCOD9227947
_publ_section_title
;
Structure prediction by ZEFSAII (Michael W. Deem and Ramdas Pophale) SiO2 
 PCOD9227947
Probable space group: P 2/C
;
_chemical_formula_sum "Si O2"
_cell_formula_units_Z 32
_cell_length_a 6.991890
_cell_length_b 35.408212
_cell_length_c 5.426655
_cell_angle_alpha 90.000000
_cell_angle_beta 102.480328
_cell_angle_gamma 90.000000
_cell_volume 1311.732683
_symmetry_space_group_name_H-M "P 2/C"
_symmetry_group_IT_number 13
_symmetry_cell_setting 'monoclinic'
loop_
_space_group_symop_operation_xyz
x,y,z
-x,y,1/2-z
-x,-y,-z
x,-y,1/2+z
loop_
_atom_site_type_symbol
_atom_site_label
_atom_site_fract_x
_atom_site_fract_y
_atom_site_fract_z
Si Si1 0.739161 0.021085 0.317540
Si Si2 0.260894 0.150161 0.683412
Si Si3 0.263206 0.278853 0.185439
Si Si4 0.780443 0.634055 0.737111
Si Si5 0.263301 0.479587 0.686606
Si Si6 0.739144 0.892036 0.817080
Si Si7 0.780043 0.392268 0.736353
Si Si8 0.260822 0.762807 0.183675
O O1 0.500000 0.021112 0.250000
O O2 0.801868 0.064526 0.355575
O O3 0.798357 0.997293 0.574227
O O4 0.500000 0.150097 0.750000
O O5 0.201669 0.126583 0.425625
O O6 0.198749 0.193655 0.650078
O O7 0.201506 0.131592 0.925825
O O8 0.500000 0.277764 0.250000
O O9 0.208914 0.322713 0.175632
O O10 0.199560 0.259663 0.422864
O O11 0.200377 0.256880 0.922176
O O12 0.690388 0.630531 0.439760
O O13 0.000000 0.618855 0.750000
O O14 0.689551 0.611317 0.939244
O O15 0.500000 0.480883 0.750000
O O16 0.198050 0.499984 0.418913
O O17 0.210394 0.435667 0.681595
O O18 0.500000 0.892090 0.750000
O O19 0.000000 0.377239 0.750000
O O20 0.500000 0.762838 0.250000
#
# Coordination Sequence:
#
# PCOD9227947 Si02
#       8
#     4   4   4   4   4   4   4   4
#     4   9  15  21  27  36  53  78 113 160 208 252
#     4   9  15  23  34  48  68  92 120 160 211 263
#     4  10  19  31  48  69  91 118 151 184 227 278
#     4  10  21  36  52  73 100 127 158 196 234 271
#     4  10  21  36  54  78 106 133 162 198 238 277
#     4   9  15  21  30  43  59  86 122 158 209 268
#     4  10  21  36  54  75  99 129 163 196 231 273
#     4   9  17  28  42  62  86 109 138 180 226 272
#
# _framework density 24.395215
#
# number of rings (size 3 to 8) (size 9 to 14) (size 15 to 20)
#    0.000    2.500    0.000    3.000    0.000    7.500 
#    0.000    0.000    0.000    0.000    0.000    0.000 
#    0.000    0.000    0.000    0.000    0.000    0.000 
#
# Total GULP energy -179180.608825 kJ/mol
# GULP energy per Si atom -5599.394026 kJ/mol
# Density = 2.433969 g / cm^3
# Si number density = 24.395215 Si / 1000 Ang^3
#
#
#
# Elastic Constant Matrix: (Units=GPa)
#
#
# Indices 1 2 3 4 5 6 
#
# 1 84.5858 -18.4188 21.3501 0.0000 -9.3083 0.0000
# 2 -18.4188 190.5818 101.8118 0.0000 -16.0179 0.0000
# 3 21.3501 101.8118 221.6318 0.0000 -29.9145 0.0000
# 4 0.0000 0.0000 0.0000 54.7420 0.0000 -2.7231
# 5 -9.3083 -16.0179 -29.9145 0.0000 46.2395 0.0000
# 6 0.0000 0.0000 0.0000 -2.7231 0.0000 11.0415
#
#
#
# Elastic Compliance Matrix: (Units=1/GPa)
#
#
# Indices 1 2 3 4 5 6 
#
# 1 0.013181 0.002621 -0.002184 0.000000 0.002149 0.000000
# 2 0.002621 0.007481 -0.003581 0.000000 0.000803 0.000000
# 3 -0.002184 -0.003581 0.006728 0.000000 0.002673 0.000000
# 4 0.000000 0.000000 0.000000 0.018494 0.000000 0.004561
# 5 0.002149 0.000803 0.002673 0.000000 0.024066 0.000000
# 6 0.000000 0.000000 0.000000 0.004561 0.000000 0.091692
#
#
# Mechanical properties :
#
#
# Convention : Reuss Voigt Hill
#
# Bulk Modulus (GPa) = 47.38740 78.47616 62.93178
# Shear Modulus (GPa) = 28.57751 48.54168 38.55959
#
# Velocity S-wave (km/s) = 3.42634 4.46556 3.98002
# Velocity P-wave (km/s) = 5.92622 7.66986 6.85372
#
# Compressibility (1/GPa) = 0.02110266
#
# Stress axis : x y z
#
# Youngs Moduli (GPa) = 75.86860 133.67814 148.63462
#
# Poissons Ratio (x) = -0.35037 0.32458
# Poissons Ratio (y) = -0.19885 0.53220
# Poissons Ratio (z) = 0.16568 0.47864
#
# Static dielectric constant tensor:
#      x y z
#    x 1.989500 0.000000 0.007660 
#    y 0.000000 1.820610 0.000000 
#    z 0.007660 0.000000 1.934040 
# 
# From -- ./inp_files/2728.got.cif
#   From: 2010.05.17/outbox.cif.g08.bks.cpg/sg13_2_cif.got.tgz:2728.got - 2010.06.03 16:44:36.
