data_PCOD9227996
_publ_section_title
;
Structure prediction by ZEFSAII (Michael W. Deem and Ramdas Pophale) SiO2 
 PCOD9227996
Probable space group: P 2/C
;
_chemical_formula_sum "Si O2"
_cell_formula_units_Z 24
_cell_length_a 8.871928
_cell_length_b 8.873170
_cell_length_c 12.148983
_cell_angle_alpha 90.000000
_cell_angle_beta 87.692725
_cell_angle_gamma 90.000000
_cell_volume 955.618406
_symmetry_space_group_name_H-M "P 2/C"
_symmetry_group_IT_number 13
_symmetry_cell_setting 'monoclinic'
loop_
_space_group_symop_operation_xyz
x,y,z
-x,y,1/2-z
-x,-y,-z
x,-y,1/2+z
loop_
_atom_site_type_symbol
_atom_site_label
_atom_site_fract_x
_atom_site_fract_y
_atom_site_fract_z
Si Si1 0.636003 0.391680 0.805816
Si Si2 0.626939 0.117948 0.955995
Si Si3 0.179624 0.858027 0.851988
Si Si4 0.943255 0.452649 0.876755
Si Si5 0.178773 0.844052 0.614712
Si Si6 0.172443 0.215906 0.877386
O O1 0.500000 0.476909 0.750000
O O2 0.573658 0.247393 0.875669
O O3 0.763470 0.468936 0.876211
O O4 0.734417 0.319845 0.705432
O O5 0.757072 0.013313 0.898666
O O6 0.707616 0.194077 0.057786
O O7 0.500000 0.000000 0.000000
O O8 0.226749 0.792546 0.733347
O O9 0.003100 0.831649 0.880061
O O10 0.187375 0.040526 0.849296
O O11 0.000000 0.511236 0.750000
O O12 0.002434 0.279673 0.873806
O O13 0.000000 0.500000 0.000000
O O14 0.227989 0.767669 0.500931
#
# Coordination Sequence:
#
# PCOD9227996 Si02
#       6
#     4   4   4   4   4   4
#     4  11  21  37  62  89 122 171 206 250 327 397
#     4  11  21  32  50  83 129 161 199 238 295 384
#     4  10  19  32  51  80 117 161 206 248 290 366
#     4  10  23  44  69  92 119 160 226 291 337 378
#     4  10  19  31  52  81 114 159 208 247 294 360
#     4  10  19  36  57  84 122 161 208 261 313 381
#
# _framework density 25.114625
#
# number of rings (size 3 to 8) (size 9 to 14) (size 15 to 20)
#    0.000    1.667    1.667    6.000    4.667    0.000 
#    6.000    3.333    0.000    0.000    0.000    0.000 
#    0.000    0.000    0.000    0.000    0.000    0.000 
#
# Total GULP energy -133972.645922 kJ/mol
# GULP energy per Si atom -5582.193580 kJ/mol
# Density = 2.505746 g / cm^3
# Si number density = 25.114625 Si / 1000 Ang^3
#
#
#
# Elastic Constant Matrix: (Units=GPa)
#
#
# Indices 1 2 3 4 5 6 
#
# 1 113.9672 7.2707 54.5146 0.0000 33.2808 0.0000
# 2 7.2707 60.9715 23.4910 0.0000 2.6220 0.0000
# 3 54.5146 23.4910 206.4488 0.0000 16.2134 0.0000
# 4 0.0000 0.0000 0.0000 29.8920 0.0000 12.3325
# 5 33.2808 2.6220 16.2134 0.0000 43.8494 0.0000
# 6 0.0000 0.0000 0.0000 12.3325 0.0000 16.0675
#
#
#
# Elastic Compliance Matrix: (Units=1/GPa)
#
#
# Indices 1 2 3 4 5 6 
#
# 1 0.012529 -0.000116 -0.002625 0.000000 -0.008532 0.000000
# 2 -0.000116 0.017158 -0.001903 0.000000 -0.000234 0.000000
# 3 -0.002625 -0.001903 0.005755 0.000000 -0.000022 0.000000
# 4 0.000000 0.000000 0.000000 0.048957 0.000000 -0.037576
# 5 -0.008532 -0.000234 -0.000022 0.000000 0.029303 0.000000
# 6 0.000000 0.000000 0.000000 -0.037576 0.000000 0.091079
#
#
# Mechanical properties :
#
#
# Convention : Reuss Voigt Hill
#
# Bulk Modulus (GPa) = 38.23514 61.32669 49.78091
# Shear Modulus (GPa) = 22.44292 37.70253 30.07273
#
# Velocity S-wave (km/s) = 2.99259 3.87876 3.46413
# Velocity P-wave (km/s) = 5.21518 6.67319 5.98872
#
# Compressibility (1/GPa) = 0.02615395
#
# Stress axis : x y z
#
# Youngs Moduli (GPa) = 79.81501 58.28074 173.75262
#
# Poissons Ratio (x) = 0.00674 0.45613
# Poissons Ratio (y) = 0.00924 0.33072
# Poissons Ratio (z) = 0.20953 0.11093
#
# Static dielectric constant tensor:
#      x y z
#    x 2.037850 0.000000 -0.004390 
#    y 0.000000 2.011770 0.000000 
#    z -0.004390 0.000000 2.026250 
# 
# From -- ./inp_files/29429.got.cif
#   From: 2010.05.17/outbox.cif.g08.bks.cpg/sg13_15_cif.got.tgz:29429.got - 2010.06.03 16:44:36.
