data_PCOD9227525
_publ_section_title
;
Structure prediction by ZEFSAII (Michael W. Deem and Ramdas Pophale) SiO2 
 PCOD9227525
Probable space group: P 2/C
;
_chemical_formula_sum "Si O2"
_cell_formula_units_Z 22
_cell_length_a 9.055616
_cell_length_b 8.428365
_cell_length_c 18.937975
_cell_angle_alpha 90.000000
_cell_angle_beta 48.692512
_cell_angle_gamma 90.000000
_cell_volume 1085.769550
_symmetry_space_group_name_H-M "P 2/C"
_symmetry_group_IT_number 13
_symmetry_cell_setting 'monoclinic'
loop_
_space_group_symop_operation_xyz
x,y,z
-x,y,1/2-z
-x,-y,-z
x,-y,1/2+z
loop_
_atom_site_type_symbol
_atom_site_label
_atom_site_fract_x
_atom_site_fract_y
_atom_site_fract_z
Si Si1 0.646050 0.363165 0.428072
Si Si2 0.650401 0.152133 0.069441
Si Si3 0.744175 0.551974 0.270692
Si Si4 0.500000 0.686513 0.750000
Si Si5 0.623181 0.776382 0.080868
Si Si6 0.960779 0.354196 0.568439
O O1 0.500000 0.500000 0.500000
O O2 0.514590 0.234929 0.427500
O O3 0.784545 0.451458 0.328633
O O4 0.720271 0.290105 0.477658
O O5 0.621456 0.204156 0.159446
O O6 0.624076 0.964772 0.072948
O O7 0.860093 0.230430 0.985735
O O8 0.623859 0.428786 0.260225
O O9 0.591409 0.694902 0.339280
O O10 0.916966 0.600880 0.163415
O O11 0.762635 0.725118 0.100945
O O12 0.000000 0.500000 0.500000
#
# Coordination Sequence:
#
# PCOD9227525 Si02
#       6
#     4   4   4   2   4   4
#     4   9  20  41  63  83 117 169 206 237 304 378
#     4  11  23  36  62  92 127 154 206 260 308 347
#     4  10  19  38  63  85 118 169 207 240 298 376
#     4  10  18  36  58  86 116 166 210 234 296 376
#     4  11  22  39  62  90 126 159 202 259 310 355
#     4  12  21  38  62  91 122 157 210 253 295 362
#
# _framework density 20.262125999999999
#
# number of rings (size 3 to 8) (size 9 to 14) (size 15 to 20)
#    0.000    1.455    3.636    3.273    2.545    0.000 
#    0.000    8.182    0.000    4.364    0.000    0.000 
#    0.000    0.000    0.000    0.000    0.000    0.000 
#
# Total GULP energy -122744.840245 kJ/mol
# GULP energy per Si atom -5579.310920 kJ/mol
# Density = 2.021601 g / cm^3
# Si number density = 20.262126 Si / 1000 Ang^3
#
#
#
# Elastic Constant Matrix: (Units=GPa)
#
#
# Indices 1 2 3 4 5 6 
#
# 1 56.7092 34.3469 18.8651 0.0000 10.7361 0.0000
# 2 34.3469 147.5309 67.1695 0.0000 8.4529 0.0000
# 3 18.8651 67.1695 165.0260 0.0000 15.5321 0.0000
# 4 0.0000 0.0000 0.0000 20.0935 0.0000 6.8633
# 5 10.7361 8.4529 15.5321 0.0000 33.5134 0.0000
# 6 0.0000 0.0000 0.0000 6.8633 0.0000 -6.1673
#
#
#
# Elastic Compliance Matrix: (Units=1/GPa)
#
#
# Indices 1 2 3 4 5 6 
#
# 1 0.021559 -0.004682 -0.000021 0.000000 -0.005716 0.000000
# 2 -0.004682 0.009347 -0.003334 0.000000 0.000688 0.000000
# 3 -0.000021 -0.003334 0.007674 0.000000 -0.002709 0.000000
# 4 0.000000 0.000000 0.000000 0.036060 0.000000 0.040130
# 5 -0.005716 0.000688 -0.002709 0.000000 0.032752 0.000000
# 6 0.000000 0.000000 0.000000 0.040130 0.000000 -0.117486
#
#
# Mechanical properties :
#
#
# Convention : Reuss Voigt Hill
#
# Bulk Modulus (GPa) = 44.43286 67.78100 56.10693
# Shear Modulus (GPa) = 370.90326 26.08024 198.49175
#
# Velocity S-wave (km/s) = 13.54437 3.59157 9.90831
# Velocity P-wave (km/s) = 16.32717 7.12207 12.59564
#
# Compressibility (1/GPa) = 0.02250586
#
# Stress axis : x y z
#
# Youngs Moduli (GPa) = 46.38505 106.98895 130.31114
#
# Poissons Ratio (x) = 0.50094 0.00271
# Poissons Ratio (y) = 0.21718 0.43443
# Poissons Ratio (z) = 0.00096 0.35668
#
# Static dielectric constant tensor:
#      x y z
#    x 1.747160 0.000000 0.008040 
#    y 0.000000 1.711550 0.000000 
#    z 0.008040 0.000000 1.825710 
# 
# From -- ./inp_files/49222.got.cif
#   From: 2010.05.17/outbox.cif.g08.bks.cpg/sg13_25_cif.got.tgz:49222.got - 2010.06.03 16:44:36.
