data_PCOD9227971
_publ_section_title
;
Structure prediction by ZEFSAII (Michael W. Deem and Ramdas Pophale) SiO2 
 PCOD9227971
Probable space group: P 2/C
;
_chemical_formula_sum "Si O2"
_cell_formula_units_Z 24
_cell_length_a 20.780973
_cell_length_b 13.721693
_cell_length_c 23.727183
_cell_angle_alpha 90.000000
_cell_angle_beta 169.593873
_cell_angle_gamma 90.000000
_cell_volume 1222.069740
_symmetry_space_group_name_H-M "P 2/C"
_symmetry_group_IT_number 13
_symmetry_cell_setting 'monoclinic'
loop_
_space_group_symop_operation_xyz
x,y,z
-x,y,1/2-z
-x,-y,-z
x,-y,1/2+z
loop_
_atom_site_type_symbol
_atom_site_label
_atom_site_fract_x
_atom_site_fract_y
_atom_site_fract_z
Si Si1 0.775092 0.905385 0.287988
Si Si2 0.312009 0.804916 0.978798
Si Si3 0.793096 0.478037 0.453338
Si Si4 0.287452 0.351405 0.948490
Si Si5 0.559470 0.203756 0.097285
Si Si6 0.007542 0.308113 0.393042
O O1 0.075727 0.823953 0.557198
O O2 0.456435 0.882793 0.057500
O O3 0.620814 0.886232 0.092287
O O4 0.000000 0.000000 0.500000
O O5 0.000000 0.843993 0.750000
O O6 0.139021 0.714890 0.795357
O O7 0.658116 0.764195 0.309042
O O8 0.500000 0.493111 0.250000
O O9 0.869743 0.582008 0.492166
O O10 0.141547 0.438057 0.783920
O O11 0.642785 0.393739 0.283205
O O12 0.000000 0.333757 0.750000
O O13 0.325464 0.257284 0.942123
O O14 0.689559 0.278468 0.161115
#
# Coordination Sequence:
#
# PCOD9227971 Si02
#       6
#     4   4   4   4   4   4
#     4  10  21  38  59  81 105 136 173 220 276 330
#     4  10  19  33  54  79 109 138 170 217 271 326
#     4  10  19  31  49  75 108 145 184 223 259 303
#     4  10  21  35  52  75 108 148 186 221 257 305
#     4  10  21  37  56  78 106 141 178 221 275 322
#     4  10  20  32  52  80 108 142 179 218 267 318
#
# _framework density 19.638815000000001
#
# number of rings (size 3 to 8) (size 9 to 14) (size 15 to 20)
#    0.000    2.000    0.000    4.000    0.000    2.667 
#    0.000    0.833    0.000    4.000    0.000    0.000 
#    0.000    0.000    0.000    0.000    0.000    0.000 
#
# Total GULP energy -133853.568794 kJ/mol
# GULP energy per Si atom -5577.232033 kJ/mol
# Density = 1.959412 g / cm^3
# Si number density = 19.638815 Si / 1000 Ang^3
#
#
#
# Elastic Constant Matrix: (Units=GPa)
#
#
# Indices 1 2 3 4 5 6 
#
# 1 63.4165 30.4773 34.9953 0.0000 0.9050 0.0000
# 2 30.4773 58.2225 10.3934 0.0000 16.3656 0.0000
# 3 34.9953 10.3934 68.6158 0.0000 -9.2591 0.0000
# 4 0.0000 0.0000 0.0000 20.1937 0.0000 -5.3651
# 5 0.9050 16.3656 -9.2591 0.0000 30.0627 0.0000
# 6 0.0000 0.0000 0.0000 -5.3651 0.0000 14.2434
#
#
#
# Elastic Compliance Matrix: (Units=1/GPa)
#
#
# Indices 1 2 3 4 5 6 
#
# 1 0.029276 -0.013908 -0.012439 0.000000 0.002859 0.000000
# 2 -0.013908 0.028493 0.000773 0.000000 -0.014854 0.000000
# 3 -0.012439 0.000773 0.021696 0.000000 0.006636 0.000000
# 4 0.000000 0.000000 0.000000 0.055027 0.000000 0.020727
# 5 0.002859 -0.014854 0.006636 0.000000 0.043308 0.000000
# 6 0.000000 0.000000 0.000000 0.020727 0.000000 0.078015
#
#
# Mechanical properties :
#
#
# Convention : Reuss Voigt Hill
#
# Bulk Modulus (GPa) = 35.31356 37.99852 36.65604
# Shear Modulus (GPa) = 15.80258 20.52588 18.16423
#
# Velocity S-wave (km/s) = 2.83973 3.23641 3.04454
# Velocity P-wave (km/s) = 5.36401 5.77551 5.57356
#
# Compressibility (1/GPa) = 0.02831774
#
# Stress axis : x y z
#
# Youngs Moduli (GPa) = 34.15738 35.09599 46.09068
#
# Poissons Ratio (x) = 0.48812 0.57332
# Poissons Ratio (y) = 0.47506 -0.03563
# Poissons Ratio (z) = 0.42488 -0.02713
#
# Static dielectric constant tensor:
#      x y z
#    x 1.718950 0.000000 -0.007400 
#    y 0.000000 1.687190 0.000000 
#    z -0.007400 0.000000 1.679290 
# 
# From -- ./inp_files/88586.got.cif
#   From: 2010.05.17/outbox.cif.g08.bks.cpg/sg13_45_cif.got.tgz:88586.got - 2010.06.03 16:44:36.
