data_PCOD9227504
_publ_section_title
;
Structure prediction by ZEFSAII (Michael W. Deem and Ramdas Pophale) SiO2 
 PCOD9227504
Probable space group: P 2/C
;
_chemical_formula_sum "Si O2"
_cell_formula_units_Z 30
_cell_length_a 9.093895
_cell_length_b 11.884028
_cell_length_c 22.767836
_cell_angle_alpha 90.000000
_cell_angle_beta 42.626770
_cell_angle_gamma 90.000000
_cell_volume 1666.345355
_symmetry_space_group_name_H-M "P 2/C"
_symmetry_group_IT_number 13
_symmetry_cell_setting 'monoclinic'
loop_
_space_group_symop_operation_xyz
x,y,z
-x,y,1/2-z
-x,-y,-z
x,-y,1/2+z
loop_
_atom_site_type_symbol
_atom_site_label
_atom_site_fract_x
_atom_site_fract_y
_atom_site_fract_z
Si Si1 0.673836 0.583293 0.824487
Si Si2 0.820729 0.835109 0.530615
Si Si3 0.076858 0.438330 0.127916
Si Si4 0.243475 0.977581 0.067787
Si Si5 0.001258 0.191340 0.400861
Si Si6 0.183497 0.433541 0.482914
Si Si7 0.000000 0.990016 0.250000
Si Si8 0.659720 0.840259 0.791672
O O1 0.764018 0.561360 0.863037
O O2 0.683549 0.718514 0.814963
O O3 0.839925 0.540027 0.726078
O O4 0.428798 0.540303 0.889524
O O5 0.825358 0.904280 0.468745
O O6 0.994389 0.844969 0.532327
O O7 0.829294 0.701186 0.516923
O O8 0.589939 0.869619 0.626850
O O9 0.150859 0.528549 0.059107
O O10 0.067857 0.318017 0.096164
O O11 0.122710 0.927366 0.160799
O O12 0.148545 0.102756 0.088095
O O13 0.500000 0.000000 0.000000
O O14 0.241154 0.176667 0.302147
O O15 0.000000 0.500000 0.500000
O O16 0.188396 0.068885 0.221560
#
# Coordination Sequence:
#
# PCOD9227504 Si02
#       8
#     4   4   4   4   4   4   2   4
#     4   9  19  33  58  84 112 145 197 245 290 334
#     4  11  21  36  55  86 118 151 191 229 296 345
#     4  10  19  37  58  86 111 148 196 247 293 337
#     4  11  22  37  61  84 114 152 191 241 287 342
#     4  10  20  34  59  84 117 142 189 243 294 340
#     4  11  22  36  56  84 121 155 189 235 290 352
#     4  10  18  36  56  86 112 146 188 240 286 334
#     4   9  17  31  58  85 110 141 185 248 290 326
#
# _framework density 18.00347
#
# number of rings (size 3 to 8) (size 9 to 14) (size 15 to 20)
#    0.000    1.867    2.667    3.600    1.867    0.533 
#    0.000    1.333    0.000    0.000    0.000    0.000 
#    0.000    0.000    0.000    0.000    0.000    0.000 
#
# Total GULP energy -167114.527627 kJ/mol
# GULP energy per Si atom -5570.484254 kJ/mol
# Density = 1.796249 g / cm^3
# Si number density = 18.003470 Si / 1000 Ang^3
#
#
#
# Elastic Constant Matrix: (Units=GPa)
#
#
# Indices 1 2 3 4 5 6 
#
# 1 79.3116 22.6471 46.8064 0.0000 6.4015 0.0000
# 2 22.6471 31.9715 23.3474 0.0000 -2.8968 0.0000
# 3 46.8064 23.3474 93.9737 0.0000 -2.0105 0.0000
# 4 0.0000 0.0000 0.0000 28.8520 0.0000 6.2601
# 5 6.4015 -2.8968 -2.0105 0.0000 33.7893 0.0000
# 6 0.0000 0.0000 0.0000 6.2601 0.0000 23.4559
#
#
#
# Elastic Compliance Matrix: (Units=1/GPa)
#
#
# Indices 1 2 3 4 5 6 
#
# 1 0.020305 -0.009015 -0.007983 0.000000 -0.005095 0.000000
# 2 -0.009015 0.042463 -0.005953 0.000000 0.004994 0.000000
# 3 -0.007983 -0.005953 0.016138 0.000000 0.001962 0.000000
# 4 0.000000 0.000000 0.000000 0.036790 0.000000 -0.009819
# 5 -0.005095 0.004994 0.001962 0.000000 0.031105 0.000000
# 6 0.000000 0.000000 0.000000 -0.009819 0.000000 0.045254
#
#
# Mechanical properties :
#
#
# Convention : Reuss Voigt Hill
#
# Bulk Modulus (GPa) = 30.29824 43.42874 36.86349
# Shear Modulus (GPa) = 20.08364 24.71649 22.40006
#
# Velocity S-wave (km/s) = 3.34360 3.70925 3.53116
# Velocity P-wave (km/s) = 5.63665 6.52070 6.09473
#
# Compressibility (1/GPa) = 0.03300522
#
# Stress axis : x y z
#
# Youngs Moduli (GPa) = 49.24886 23.54969 61.96477
#
# Poissons Ratio (x) = 0.21231 0.49465
# Poissons Ratio (y) = 0.44399 0.36886
# Poissons Ratio (z) = 0.39314 0.14018
#
# Static dielectric constant tensor:
#      x y z
#    x 1.659820 0.000000 0.008780 
#    y 0.000000 1.590990 0.000000 
#    z 0.008780 0.000000 1.656940 
# 
# From -- ./inp_files/85210.got.cif
#   From: 2010.05.17/outbox.cif.g08.bks.cpg/sg13_43_cif.got.tgz:85210.got - 2010.06.03 16:44:36.
