data_PCOD9227663
_publ_section_title
;
Structure prediction by ZEFSAII (Michael W. Deem and Ramdas Pophale) SiO2 
 PCOD9227663
Probable space group: P 2/C
;
_chemical_formula_sum "Si O2"
_cell_formula_units_Z 24
_cell_length_a 11.411661
_cell_length_b 7.962481
_cell_length_c 24.428867
_cell_angle_alpha 90.000000
_cell_angle_beta 146.750863
_cell_angle_gamma 90.000000
_cell_volume 1217.036215
_symmetry_space_group_name_H-M "P 2/C"
_symmetry_group_IT_number 13
_symmetry_cell_setting 'monoclinic'
loop_
_space_group_symop_operation_xyz
x,y,z
-x,y,1/2-z
-x,-y,-z
x,-y,1/2+z
loop_
_atom_site_type_symbol
_atom_site_label
_atom_site_fract_x
_atom_site_fract_y
_atom_site_fract_z
Si Si1 0.500000 0.502491 0.250000
Si Si2 0.000000 0.734693 0.750000
Si Si3 0.864509 0.097944 0.304828
Si Si4 0.586720 0.501093 0.095520
Si Si5 0.391803 0.754128 0.300273
Si Si6 0.170690 0.948993 0.021293
Si Si7 0.583012 0.286350 0.378006
O O1 0.371087 0.617566 0.243337
O O2 0.642378 0.385305 0.345769
O O3 0.015396 0.853992 0.703686
O O4 0.202914 0.613073 0.826098
O O5 0.656491 0.217038 0.227694
O O6 0.771197 0.908726 0.269595
O O7 0.033377 0.123978 0.418513
O O8 0.631131 0.670560 0.148217
O O9 0.424035 0.409059 0.073267
O O10 0.500000 0.500000 0.000000
O O11 0.632724 0.827216 0.387054
O O12 0.281993 0.126305 0.052258
O O13 0.000000 0.000000 0.000000
#
# Coordination Sequence:
#
# PCOD9227663 Si02
#       7
#     2   2   4   4   4   4   4
#     4  10  18  38  56  76 114 146 176 224 282 330
#     4  10  22  38  60  82 110 154 184 224 288 330
#     4  10  21  39  57  82 113 145 190 231 270 335
#     4  10  21  39  58  83 115 144 185 234 278 330
#     4  10  22  37  58  84 112 148 186 232 278 322
#     4  11  21  36  59  84 110 149 190 225 274 336
#     4   9  21  37  57  81 113 148 179 230 286 321
#
# _framework density 19.720037999999999
#
# number of rings (size 3 to 8) (size 9 to 14) (size 15 to 20)
#    0.000    2.000    0.000    3.000    0.000    6.000 
#    0.000   23.333    0.000    0.000    0.000    0.000 
#    0.000    0.000    0.000    0.000    0.000    0.000 
#
# Total GULP energy -133827.426962 kJ/mol
# GULP energy per Si atom -5576.142790 kJ/mol
# Density = 1.967515 g / cm^3
# Si number density = 19.720038 Si / 1000 Ang^3
#
#
#
# Elastic Constant Matrix: (Units=GPa)
#
#
# Indices 1 2 3 4 5 6 
#
# 1 90.7397 3.4794 22.8517 0.0000 -23.0230 0.0000
# 2 3.4794 50.2786 -10.0382 0.0000 -7.6255 0.0000
# 3 22.8517 -10.0382 48.7774 0.0000 -13.3460 0.0000
# 4 0.0000 0.0000 0.0000 12.4531 0.0000 -7.1434
# 5 -23.0230 -7.6255 -13.3460 0.0000 37.2553 0.0000
# 6 0.0000 0.0000 0.0000 -7.1434 0.0000 34.7092
#
#
#
# Elastic Compliance Matrix: (Units=1/GPa)
#
#
# Indices 1 2 3 4 5 6 
#
# 1 0.013993 -0.000934 -0.004916 0.000000 0.006695 0.000000
# 2 -0.000934 0.022279 0.006777 0.000000 0.006410 0.000000
# 3 -0.004916 0.006777 0.026328 0.000000 0.007780 0.000000
# 4 0.000000 0.000000 0.000000 0.091050 0.000000 0.018739
# 5 0.006695 0.006410 0.007780 0.000000 0.035079 0.000000
# 6 0.000000 0.000000 0.000000 0.018739 0.000000 0.032667
#
#
# Mechanical properties :
#
#
# Convention : Reuss Voigt Hill
#
# Bulk Modulus (GPa) = 15.51537 24.70904 20.11220
# Shear Modulus (GPa) = 20.74448 28.45039 24.59744
#
# Velocity S-wave (km/s) = 3.24690 3.80243 3.53559
# Velocity P-wave (km/s) = 4.68416 5.64226 5.18538
#
# Compressibility (1/GPa) = 0.06445223
#
# Stress axis : x y z
#
# Youngs Moduli (GPa) = 71.46353 44.88528 37.98258
#
# Poissons Ratio (x) = 0.04194 0.18673
# Poissons Ratio (y) = 0.06678 -0.25739
# Poissons Ratio (z) = 0.35132 -0.30417
#
# Static dielectric constant tensor:
#      x y z
#    x 1.773970 0.000000 0.109070 
#    y 0.000000 1.789090 0.000000 
#    z 0.109070 0.000000 1.794680 
# 
# From -- ./inp_files/32542.got.cif
#   From: 2010.05.17/outbox.cif.g08.bks.cpg/sg13_17_cif.got.tgz:32542.got - 2010.06.03 16:44:36.
