data_PCOD9227850
_publ_section_title
;
Structure prediction by ZEFSAII (Michael W. Deem and Ramdas Pophale) SiO2 
 PCOD9227850
Probable space group: P 2/C
;
_chemical_formula_sum "Si O2"
_cell_formula_units_Z 28
_cell_length_a 21.287448
_cell_length_b 11.150152
_cell_length_c 8.449340
_cell_angle_alpha 90.000000
_cell_angle_beta 47.972467
_cell_angle_gamma 90.000000
_cell_volume 1489.747380
_symmetry_space_group_name_H-M "P 2/C"
_symmetry_group_IT_number 13
_symmetry_cell_setting 'monoclinic'
loop_
_space_group_symop_operation_xyz
x,y,z
-x,y,1/2-z
-x,-y,-z
x,-y,1/2+z
loop_
_atom_site_type_symbol
_atom_site_label
_atom_site_fract_x
_atom_site_fract_y
_atom_site_fract_z
Si Si1 0.778673 0.162381 0.856314
Si Si2 0.000000 0.976427 0.250000
Si Si3 0.081733 0.837593 0.820964
Si Si4 0.065476 0.662011 0.438489
Si Si5 0.233101 0.110497 0.248642
Si Si6 0.588331 0.829084 0.641879
Si Si7 0.000000 0.544997 0.250000
Si Si8 0.581323 0.910984 0.016628
O O1 0.855997 0.247963 0.673677
O O2 0.781360 0.030165 0.771580
O O3 0.785269 0.139361 0.035684
O O4 0.685410 0.217183 0.973781
O O5 0.929460 0.063052 0.294879
O O6 0.963471 0.896565 0.450172
O O7 0.175390 0.816449 0.723397
O O8 0.024206 0.726250 0.873942
O O9 0.062146 0.539877 0.543251
O O10 0.056194 0.624868 0.271239
O O11 0.331597 0.136668 0.058018
O O12 0.500000 0.761072 0.750000
O O13 0.586653 0.945279 0.529927
O O14 0.579337 0.876962 0.836837
O O15 0.500000 0.869150 0.250000
#
# Coordination Sequence:
#
# PCOD9227850 Si02
#       8
#     4   2   4   4   4   4   2   4
#     4  10  20  32  50  75 104 135 164 196 237 289
#     4  10  20  28  44  72 102 130 152 178 234 294
#     4  11  19  31  47  69 100 130 157 195 236 283
#     4  11  22  38  54  70  93 125 165 209 251 288
#     4  10  19  29  46  74 104 136 167 192 231 290
#     4   9  16  27  43  66  96 132 166 194 225 272
#     4  10  24  40  54  68  88 122 168 212 252 294
#     4   9  16  26  39  60  96 139 172 191 215 262
#
# _framework density 18.795131000000001
#
# number of rings (size 3 to 8) (size 9 to 14) (size 15 to 20)
#    0.000    2.000    0.000    6.857    0.000    2.286 
#    0.000    0.000    0.000    0.000    0.000    1.000 
#    0.000    4.571    0.000    0.286    0.000    0.000 
#
# Total GULP energy -156209.677157 kJ/mol
# GULP energy per Si atom -5578.917041 kJ/mol
# Density = 1.875235 g / cm^3
# Si number density = 18.795131 Si / 1000 Ang^3
#
#
#
# Elastic Constant Matrix: (Units=GPa)
#
#
# Indices 1 2 3 4 5 6 
#
# 1 140.7338 23.2866 31.0408 0.0000 -30.0243 0.0000
# 2 23.2866 34.9533 9.8501 0.0000 -7.2560 0.0000
# 3 31.0408 9.8501 55.9415 0.0000 -18.2225 0.0000
# 4 0.0000 0.0000 0.0000 17.0971 0.0000 4.3979
# 5 -30.0243 -7.2560 -18.2225 0.0000 41.7174 0.0000
# 6 0.0000 0.0000 0.0000 4.3979 0.0000 16.3224
#
#
#
# Elastic Compliance Matrix: (Units=1/GPa)
#
#
# Indices 1 2 3 4 5 6 
#
# 1 0.009521 -0.004525 -0.002927 0.000000 0.004787 0.000000
# 2 -0.004525 0.032674 -0.002859 0.000000 0.001178 0.000000
# 3 -0.002927 -0.002859 0.022333 0.000000 0.007151 0.000000
# 4 0.000000 0.000000 0.000000 0.062845 0.000000 -0.016933
# 5 0.004787 0.001178 0.007151 0.000000 0.030745 0.000000
# 6 0.000000 0.000000 0.000000 -0.016933 0.000000 0.065828
#
#
# Mechanical properties :
#
#
# Convention : Reuss Voigt Hill
#
# Bulk Modulus (GPa) = 22.77544 39.99818 31.38681
# Shear Modulus (GPa) = 19.28990 26.19077 22.74033
#
# Velocity S-wave (km/s) = 3.20710 3.73699 3.48214
# Velocity P-wave (km/s) = 5.08508 6.32040 5.73609
#
# Compressibility (1/GPa) = 0.04390695
#
# Stress axis : x y z
#
# Youngs Moduli (GPa) = 105.02962 30.60519 44.77701
#
# Poissons Ratio (x) = 0.13848 0.13107
# Poissons Ratio (y) = 0.47522 0.12801
# Poissons Ratio (z) = 0.30743 0.08750
#
# Static dielectric constant tensor:
#      x y z
#    x 1.733260 0.000000 -0.019220 
#    y 0.000000 1.623530 0.000000 
#    z -0.019220 0.000000 1.717230 
# 
# From -- ./inp_files/23221.got.cif
#   From: 2010.05.17/outbox.cif.g08.bks.cpg/sg13_12_cif.got.tgz:23221.got - 2010.06.03 16:44:36.
