data_PCOD9227244
_publ_section_title
;
Structure prediction by ZEFSAII (Michael W. Deem and Ramdas Pophale) SiO2 
 PCOD9227244
Probable space group: P 2/C
;
_chemical_formula_sum "Si O2"
_cell_formula_units_Z 26
_cell_length_a 19.165575
_cell_length_b 8.319840
_cell_length_c 13.182503
_cell_angle_alpha 90.000000
_cell_angle_beta 149.728971
_cell_angle_gamma 90.000000
_cell_volume 1059.604134
_symmetry_space_group_name_H-M "P 2/C"
_symmetry_group_IT_number 13
_symmetry_cell_setting 'monoclinic'
loop_
_space_group_symop_operation_xyz
x,y,z
-x,y,1/2-z
-x,-y,-z
x,-y,1/2+z
loop_
_atom_site_type_symbol
_atom_site_label
_atom_site_fract_x
_atom_site_fract_y
_atom_site_fract_z
Si Si1 0.630317 0.038999 0.852522
Si Si2 0.500000 0.468820 0.250000
Si Si3 0.549093 0.690982 0.114102
Si Si4 0.170371 0.197119 0.240053
Si Si5 0.739988 0.428620 0.300750
Si Si6 0.990100 0.055418 0.618025
Si Si7 0.779389 0.716183 0.055534
O O1 0.500000 0.976602 0.750000
O O2 0.585164 0.134317 0.697391
O O3 0.723766 0.888470 0.949012
O O4 0.705598 0.159420 0.027181
O O5 0.519664 0.582232 0.177091
O O6 0.354869 0.369417 0.062438
O O7 0.680903 0.608775 0.226726
O O8 0.405086 0.673408 0.874621
O O9 0.185401 0.372230 0.208830
O O10 0.044834 0.114354 0.143587
O O11 0.155740 0.091535 0.118623
O O12 0.817659 0.389046 0.503799
O O13 0.000000 0.044596 0.750000
O O14 0.087634 0.214391 0.715815
#
# Coordination Sequence:
#
# PCOD9227244 Si02
#       7
#     4   2   4   4   4   4   4
#     4  11  19  35  55  89 119 155 189 255 302 355
#     4  10  18  34  54  84 116 160 190 250 304 368
#     4  10  20  33  56  84 126 159 196 240 318 364
#     4  10  20  35  61  84 120 158 204 243 309 360
#     4  10  19  35  55  89 115 163 196 248 302 372
#     4  10  20  37  59  90 119 163 197 254 301 363
#     4  10  21  33  59  87 120 147 205 253 302 353
#
# _framework density 24.537465000000001
#
# number of rings (size 3 to 8) (size 9 to 14) (size 15 to 20)
#    0.000    1.846    4.615    0.000    0.000    0.615 
#    0.000    1.538    0.000   10.154   12.000    0.000 
#    0.000    0.000    0.000    0.000    0.000    0.000 
#
# Total GULP energy -144938.628990 kJ/mol
# GULP energy per Si atom -5574.562653 kJ/mol
# Density = 2.448162 g / cm^3
# Si number density = 24.537465 Si / 1000 Ang^3
#
#
#
# Elastic Constant Matrix: (Units=GPa)
#
#
# Indices 1 2 3 4 5 6 
#
# 1 72.6775 14.6602 8.2934 0.0000 -4.6245 0.0000
# 2 14.6602 49.5081 7.4695 0.0000 10.6236 0.0000
# 3 8.2934 7.4695 72.9733 0.0000 -10.6218 0.0000
# 4 0.0000 0.0000 0.0000 30.9612 0.0000 5.0755
# 5 -4.6245 10.6236 -10.6218 0.0000 35.2217 0.0000
# 6 0.0000 0.0000 0.0000 5.0755 0.0000 15.6758
#
#
#
# Elastic Compliance Matrix: (Units=1/GPa)
#
#
# Indices 1 2 3 4 5 6 
#
# 1 0.015071 -0.005061 -0.000716 0.000000 0.003289 0.000000
# 2 -0.005061 0.024085 -0.003184 0.000000 -0.008889 0.000000
# 3 -0.000716 -0.003184 0.014891 0.000000 0.005357 0.000000
# 4 0.000000 0.000000 0.000000 0.034109 0.000000 -0.011044
# 5 0.003289 -0.008889 0.005357 0.000000 0.033120 0.000000
# 6 0.000000 0.000000 0.000000 -0.011044 0.000000 0.067368
#
#
# Mechanical properties :
#
#
# Convention : Reuss Voigt Hill
#
# Bulk Modulus (GPa) = 27.68131 28.44502 28.06317
# Shear Modulus (GPa) = 22.87200 27.35413 25.11306
#
# Velocity S-wave (km/s) = 3.05639 3.34247 3.20262
# Velocity P-wave (km/s) = 4.87453 5.14915 5.01372
#
# Compressibility (1/GPa) = 0.03612546
#
# Stress axis : x y z
#
# Youngs Moduli (GPa) = 66.35157 41.51937 67.15605
#
# Poissons Ratio (x) = 0.21012 0.04809
# Poissons Ratio (y) = 0.33578 0.21383
# Poissons Ratio (z) = 0.04751 0.13220
#
# Static dielectric constant tensor:
#      x y z
#    x 2.020550 0.000000 0.013810 
#    y 0.000000 1.953620 0.000000 
#    z 0.013810 0.000000 2.045760 
# 
# From -- ./inp_files/57314.got.cif
#   From: 2010.05.17/outbox.cif.g08.bks.cpg/sg13_29_cif.got.tgz:57314.got - 2010.06.03 16:44:36.
