data_PCOD9227665
_publ_section_title
;
Structure prediction by ZEFSAII (Michael W. Deem and Ramdas Pophale) SiO2 
 PCOD9227665
Probable space group: P 2/C
;
_chemical_formula_sum "Si O2"
_cell_formula_units_Z 30
_cell_length_a 10.553005
_cell_length_b 12.624534
_cell_length_c 17.396197
_cell_angle_alpha 90.000000
_cell_angle_beta 39.113937
_cell_angle_gamma 90.000000
_cell_volume 1462.116397
_symmetry_space_group_name_H-M "P 2/C"
_symmetry_group_IT_number 13
_symmetry_cell_setting 'monoclinic'
loop_
_space_group_symop_operation_xyz
x,y,z
-x,y,1/2-z
-x,-y,-z
x,-y,1/2+z
loop_
_atom_site_type_symbol
_atom_site_label
_atom_site_fract_x
_atom_site_fract_y
_atom_site_fract_z
Si Si1 0.506132 0.470832 0.834424
Si Si2 0.923564 0.890250 0.371847
Si Si3 0.737577 0.732910 0.259159
Si Si4 0.500000 0.873340 0.250000
Si Si5 0.857554 0.658391 0.931105
Si Si6 0.772824 0.091570 0.485702
Si Si7 0.284818 0.356067 0.176886
Si Si8 0.495337 0.832589 0.986045
O O1 0.500000 0.509513 0.750000
O O2 0.689901 0.388597 0.763846
O O3 0.541822 0.565325 0.877284
O O4 0.300821 0.405023 0.943285
O O5 0.685851 0.874520 0.479692
O O6 0.000000 0.908938 0.250000
O O7 0.041503 0.784580 0.341435
O O8 0.947558 0.003848 0.401446
O O9 0.634091 0.798755 0.240323
O O10 0.620022 0.761665 0.393934
O O11 0.361406 0.932424 0.376425
O O12 0.838624 0.784623 0.956099
O O13 0.786046 0.630083 0.877914
O O14 0.091983 0.630353 0.822302
O O15 0.635667 0.092046 0.472176
O O16 0.365109 0.236867 0.134467
#
# Coordination Sequence:
#
# PCOD9227665 Si02
#       8
#     4   4   4   2   4   4   4   4
#     4  12  22  40  64  83 122 164 201 249 306 371
#     4  10  22  34  59  96 120 152 199 253 303 348
#     4  10  19  37  59  87 119 154 201 245 290 360
#     4  10  18  38  58  82 114 166 206 230 296 362
#     4  10  21  39  60  91 115 156 204 248 304 365
#     4  10  19  36  63  84 123 160 198 242 295 371
#     4  10  22  37  62  90 114 155 205 255 302 353
#     4   9  19  38  58  87 123 150 194 255 301 346
#
# _framework density 20.518201000000001
#
# number of rings (size 3 to 8) (size 9 to 14) (size 15 to 20)
#    0.000    1.867    4.667    0.800    3.733    2.133 
#    4.800    1.333    1.467    0.000    0.000    0.000 
#    0.000    0.000    0.000    0.000    0.000    0.000 
#
# Total GULP energy -167130.755494 kJ/mol
# GULP energy per Si atom -5571.025183 kJ/mol
# Density = 2.047150 g / cm^3
# Si number density = 20.518201 Si / 1000 Ang^3
#
#
#
# Elastic Constant Matrix: (Units=GPa)
#
#
# Indices 1 2 3 4 5 6 
#
# 1 26.3770 18.9654 16.0557 0.0000 -0.8062 0.0000
# 2 18.9654 42.6243 25.1588 0.0000 2.0601 0.0000
# 3 16.0557 25.1588 63.3447 0.0000 -5.2207 0.0000
# 4 0.0000 0.0000 0.0000 16.2541 0.0000 -2.2471
# 5 -0.8062 2.0601 -5.2207 0.0000 26.6016 0.0000
# 6 0.0000 0.0000 0.0000 -2.2471 0.0000 -2.2317
#
#
#
# Elastic Compliance Matrix: (Units=1/GPa)
#
#
# Indices 1 2 3 4 5 6 
#
# 1 0.057452 -0.022469 -0.005439 0.000000 0.002414 0.000000
# 2 -0.022469 0.040058 -0.010700 0.000000 -0.005883 0.000000
# 3 -0.005439 -0.010700 0.021823 0.000000 0.004947 0.000000
# 4 0.000000 0.000000 0.000000 0.054005 0.000000 -0.054377
# 5 0.002414 -0.005883 0.004947 0.000000 0.039091 0.000000
# 6 0.000000 0.000000 0.000000 -0.054377 0.000000 -0.393329
#
#
# Mechanical properties :
#
#
# Convention : Reuss Voigt Hill
#
# Bulk Modulus (GPa) = 23.74346 28.07843 25.91094
# Shear Modulus (GPa) = -55.77586 12.93586 -21.42000
#
# Velocity S-wave (km/s) = -5.21945 2.51362 -3.23453
# Velocity P-wave (km/s) = 4.97257 4.70518 1.13749
#
# Compressibility (1/GPa) = 0.04211686
#
# Stress axis : x y z
#
# Youngs Moduli (GPa) = 17.40582 24.96371 45.82420
#
# Poissons Ratio (x) = 0.56092 0.24924
# Poissons Ratio (y) = 0.39110 0.49031
# Poissons Ratio (z) = 0.09467 0.26710
#
# Static dielectric constant tensor:
#      x y z
#    x 1.750500 0.000000 -0.031700 
#    y 0.000000 1.762270 0.000000 
#    z -0.031700 0.000000 1.770260 
# 
# From -- ./inp_files/66647.got.cif
#   From: 2010.05.17/outbox.cif.g08.bks.cpg/sg13_34_cif.got.tgz:66647.got - 2010.06.03 16:44:36.
