data_PCOD9227626
_publ_section_title
;
Structure prediction by ZEFSAII (Michael W. Deem and Ramdas Pophale) SiO2 
 PCOD9227626
Probable space group: P 2/C
;
_chemical_formula_sum "Si O2"
_cell_formula_units_Z 30
_cell_length_a 22.805477
_cell_length_b 11.464060
_cell_length_c 13.595454
_cell_angle_alpha 90.000000
_cell_angle_beta 161.066224
_cell_angle_gamma 90.000000
_cell_volume 1153.327575
_symmetry_space_group_name_H-M "P 2/C"
_symmetry_group_IT_number 13
_symmetry_cell_setting 'monoclinic'
loop_
_space_group_symop_operation_xyz
x,y,z
-x,y,1/2-z
-x,-y,-z
x,-y,1/2+z
loop_
_atom_site_type_symbol
_atom_site_label
_atom_site_fract_x
_atom_site_fract_y
_atom_site_fract_z
Si Si1 0.740737 0.533336 0.898234
Si Si2 0.917696 0.256779 0.771951
Si Si3 0.983362 0.988447 0.357742
Si Si4 0.584160 0.604599 0.990075
Si Si5 0.590086 0.094608 0.746007
Si Si6 0.479544 0.847566 0.854657
Si Si7 0.189219 0.695806 0.876310
Si Si8 0.000000 0.174557 0.250000
O O1 0.555447 0.595205 0.639506
O O2 0.736453 0.478756 0.781005
O O3 0.882220 0.634557 0.145842
O O4 0.757268 0.433241 0.007980
O O5 0.020156 0.144625 0.890355
O O6 0.721945 0.201296 0.490364
O O7 0.031192 0.298645 0.045907
O O8 0.000000 0.000000 0.500000
O O9 0.095041 0.083351 0.475413
O O10 0.778596 0.031455 0.014144
O O11 0.500000 0.569478 0.750000
O O12 0.612166 0.743890 0.029084
O O13 0.493367 0.140444 0.494859
O O14 0.490609 0.981478 0.632270
O O15 0.654888 0.210765 0.906314
O O16 0.116199 0.745196 0.864032
#
# Coordination Sequence:
#
# PCOD9227626 Si02
#       8
#     4   4   4   4   4   4   4   2
#     4  10  22  39  61  89 128 167 210 264 317 367
#     4  10  20  36  61  84 122 166 202 247 324 376
#     4  10  18  37  57  86 123 160 199 256 322 367
#     4  10  21  40  62  89 124 170 214 263 316 381
#     4   9  17  32  57  86 120 155 195 255 313 369
#     4   9  18  33  57  88 116 157 198 254 312 368
#     4  11  20  37  60  92 125 166 211 259 316 378
#     4  10  22  34  62  92 120 162 208 260 310 376
#
# _framework density 26.011690000000002
#
# number of rings (size 3 to 8) (size 9 to 14) (size 15 to 20)
#    0.000    2.133    4.000    0.400    0.000    2.133 
#    0.000    2.000    0.000    0.800    0.000    0.000 
#    0.000    0.000    0.000    0.000    0.000    0.000 
#
# Total GULP energy -167389.539674 kJ/mol
# GULP energy per Si atom -5579.651322 kJ/mol
# Density = 2.595249 g / cm^3
# Si number density = 26.011690 Si / 1000 Ang^3
#
#
#
# Elastic Constant Matrix: (Units=GPa)
#
#
# Indices 1 2 3 4 5 6 
#
# 1 79.3046 22.8508 31.0441 0.0000 -29.7735 0.0000
# 2 22.8508 205.6907 48.1705 0.0000 -17.2971 0.0000
# 3 31.0441 48.1705 161.9052 0.0000 -39.8713 0.0000
# 4 0.0000 0.0000 0.0000 50.8412 0.0000 -0.6251
# 5 -29.7735 -17.2971 -39.8713 0.0000 39.1061 0.0000
# 6 0.0000 0.0000 0.0000 -0.6251 0.0000 8.7654
#
#
#
# Elastic Compliance Matrix: (Units=1/GPa)
#
#
# Indices 1 2 3 4 5 6 
#
# 1 0.017807 -0.000889 0.000123 0.000000 0.013289 0.000000
# 2 -0.000889 0.005298 -0.001329 0.000000 0.000311 0.000000
# 3 0.000123 -0.001329 0.008581 0.000000 0.008255 0.000000
# 4 0.000000 0.000000 0.000000 0.019686 0.000000 0.001404
# 5 0.013289 0.000311 0.008255 0.000000 0.044243 0.000000
# 6 0.000000 0.000000 0.000000 0.001404 0.000000 0.114185
#
#
# Mechanical properties :
#
#
# Convention : Reuss Voigt Hill
#
# Bulk Modulus (GPa) = 36.37053 72.33679 54.35366
# Shear Modulus (GPa) = 22.40575 42.73156 32.56865
#
# Velocity S-wave (km/s) = 2.93810 4.05752 3.54231
# Velocity P-wave (km/s) = 5.05199 7.05840 6.13774
#
# Compressibility (1/GPa) = 0.02749479
#
# Stress axis : x y z
#
# Youngs Moduli (GPa) = 56.15773 188.75410 116.53424
#
# Poissons Ratio (x) = 0.16789 -0.01433
# Poissons Ratio (y) = 0.04995 0.15489
# Poissons Ratio (z) = -0.00690 0.25087
#
# Static dielectric constant tensor:
#      x y z
#    x 1.547360 0.000000 -0.064240 
#    y 0.000000 2.526800 0.000000 
#    z -0.064240 0.000000 2.122470 
# 
# From -- ./inp_files/59995.got.cif
#   From: 2010.05.17/outbox.cif.g08.bks.cpg/sg13_30_cif.got.tgz:59995.got - 2010.06.03 16:44:36.
