data_PCOD9227427
_publ_section_title
;
Structure prediction by ZEFSAII (Michael W. Deem and Ramdas Pophale) SiO2 
 PCOD9227427
Probable space group: P 2/C
;
_chemical_formula_sum "Si O2"
_cell_formula_units_Z 22
_cell_length_a 7.463442
_cell_length_b 14.633295
_cell_length_c 11.644158
_cell_angle_alpha 90.000000
_cell_angle_beta 139.380320
_cell_angle_gamma 90.000000
_cell_volume 827.930153
_symmetry_space_group_name_H-M "P 2/C"
_symmetry_group_IT_number 13
_symmetry_cell_setting 'monoclinic'
loop_
_space_group_symop_operation_xyz
x,y,z
-x,y,1/2-z
-x,-y,-z
x,-y,1/2+z
loop_
_atom_site_type_symbol
_atom_site_label
_atom_site_fract_x
_atom_site_fract_y
_atom_site_fract_z
Si Si1 0.263638 0.452574 0.960316
Si Si2 0.962870 0.818917 0.964474
Si Si3 0.673623 0.270612 0.586028
Si Si4 0.174644 0.642136 0.957437
Si Si5 0.500000 0.936680 0.250000
Si Si6 0.514171 0.108457 0.101936
O O1 0.362463 0.349147 0.032860
O O2 0.188093 0.537311 0.005761
O O3 0.000000 0.439677 0.750000
O O4 0.500000 0.500000 0.000000
O O5 0.034656 0.714970 0.972899
O O6 0.719485 0.836992 0.937015
O O7 0.821791 0.863957 0.784560
O O8 0.226377 0.877796 0.123836
O O9 0.486976 0.322552 0.589972
O O10 0.544255 0.169002 0.536775
O O11 0.000000 0.257658 0.750000
O O12 0.000000 0.645054 0.750000
O O13 0.476778 0.005751 0.127390
#
# Coordination Sequence:
#
# PCOD9227427 Si02
#       6
#     4   4   4   4   2   4
#     4   8  16  30  52  79 112 146 173 211 271 325
#     4  10  21  37  60  80 106 148 185 224 278 332
#     4  10  20  34  56  87 115 141 181 226 267 321
#     4  10  18  35  58  84 111 144 184 225 269 321
#     4  10  22  40  62  74 104 150 188 220 288 338
#     4  10  20  39  58  79 110 148 180 224 282 329
#
# _framework density 26.572288
#
# number of rings (size 3 to 8) (size 9 to 14) (size 15 to 20)
#    0.000    2.545    1.818    2.182    2.545    0.000 
#    0.000    2.727    0.000    3.273    0.000    0.000 
#    0.000    0.000    0.000    0.000    0.000    0.000 
#
# Total GULP energy -122554.868845 kJ/mol
# GULP energy per Si atom -5570.675857 kJ/mol
# Density = 2.651181 g / cm^3
# Si number density = 26.572288 Si / 1000 Ang^3
#
#
#
# Elastic Constant Matrix: (Units=GPa)
#
#
# Indices 1 2 3 4 5 6 
#
# 1 62.9454 40.5111 23.4827 0.0000 20.0463 0.0000
# 2 40.5111 247.2264 36.6360 0.0000 -5.9503 0.0000
# 3 23.4827 36.6360 150.2100 0.0000 22.6469 0.0000
# 4 0.0000 0.0000 0.0000 68.1602 0.0000 55.6882
# 5 20.0463 -5.9503 22.6469 0.0000 23.8637 0.0000
# 6 0.0000 0.0000 0.0000 55.6882 0.0000 164.5225
#
#
#
# Elastic Compliance Matrix: (Units=1/GPa)
#
#
# Indices 1 2 3 4 5 6 
#
# 1 0.026607 -0.005054 0.000739 0.000000 -0.024312 0.000000
# 2 -0.005054 0.005273 -0.001557 0.000000 0.007039 0.000000
# 3 0.000739 -0.001557 0.008255 0.000000 -0.008843 0.000000
# 4 0.000000 0.000000 0.000000 0.020280 0.000000 -0.006864
# 5 -0.024312 0.007039 -0.008843 0.000000 0.072474 0.000000
# 6 0.000000 0.000000 0.000000 -0.006864 0.000000 0.008402
#
#
# Mechanical properties :
#
#
# Convention : Reuss Voigt Hill
#
# Bulk Modulus (GPa) = 35.22465 73.51572 54.37019
# Shear Modulus (GPa) = 30.76933 75.29276 53.03104
#
# Velocity S-wave (km/s) = 3.40655 5.32884 4.47220
# Velocity P-wave (km/s) = 5.36263 8.09867 6.86827
#
# Compressibility (1/GPa) = 0.02838921
#
# Stress axis : x y z
#
# Youngs Moduli (GPa) = 37.58426 189.63561 121.14084
#
# Poissons Ratio (x) = 0.95851 -0.08949
# Poissons Ratio (y) = 0.18997 0.18863
# Poissons Ratio (z) = -0.02776 0.29529
#
# Static dielectric constant tensor:
#      x y z
#    x 2.511570 0.000000 -0.375550 
#    y 0.000000 2.252540 0.000000 
#    z -0.375550 0.000000 2.193330 
# 
# From -- ./inp_files/64691.got.cif
#   From: 2010.05.17/outbox.cif.g08.bks.cpg/sg13_33_cif.got.tgz:64691.got - 2010.06.03 16:44:36.
