data_PCOD9227265
_publ_section_title
;
Structure prediction by ZEFSAII (Michael W. Deem and Ramdas Pophale) SiO2 
 PCOD9227265
Probable space group: P 2/C
;
_chemical_formula_sum "Si O2"
_cell_formula_units_Z 26
_cell_length_a 21.578059
_cell_length_b 8.311754
_cell_length_c 14.829512
_cell_angle_alpha 90.000000
_cell_angle_beta 23.303985
_cell_angle_gamma 90.000000
_cell_volume 1052.200487
_symmetry_space_group_name_H-M "P 2/C"
_symmetry_group_IT_number 13
_symmetry_cell_setting 'monoclinic'
loop_
_space_group_symop_operation_xyz
x,y,z
-x,y,1/2-z
-x,-y,-z
x,-y,1/2+z
loop_
_atom_site_type_symbol
_atom_site_label
_atom_site_fract_x
_atom_site_fract_y
_atom_site_fract_z
Si Si1 0.778059 0.125505 0.477974
Si Si2 0.325651 0.090202 0.525117
Si Si3 0.246621 0.449927 0.676592
Si Si4 0.107633 0.466079 0.186755
Si Si5 0.327378 0.431826 0.250269
Si Si6 0.323304 0.944877 0.718268
Si Si7 0.500000 0.687358 0.250000
O O1 0.895882 0.272296 0.305437
O O2 0.611316 0.203649 0.666277
O O3 0.792065 0.970223 0.395142
O O4 0.774570 0.059704 0.584025
O O5 0.500000 0.089891 0.250000
O O6 0.302905 0.268365 0.592111
O O7 0.296114 0.972949 0.649174
O O8 0.112781 0.468444 0.780222
O O9 0.219079 0.485928 0.818215
O O10 0.380079 0.578148 0.467650
O O11 0.000000 0.530514 0.250000
O O12 0.276113 0.515845 0.918032
O O13 0.312998 0.241123 0.258901
O O14 0.500000 0.500000 0.000000
O O15 0.500000 0.000000 0.500000
#
# Coordination Sequence:
#
# PCOD9227265 Si02
#       7
#     4   4   4   4   4   4   2
#     4  11  21  37  59  88 126 164 211 263 322 382
#     4  12  22  34  58  94 132 167 201 265 337 384
#     4  11  22  39  61  92 130 167 216 265 318 385
#     4  11  26  46  67  91 129 179 224 266 319 385
#     4  12  25  40  68 101 130 170 218 269 331 387
#     4  12  21  35  58  94 134 163 200 262 324 388
#     4  10  18  34  56  92 124 164 200 266 322 378
#
# _framework density 24.710118999999999
#
# number of rings (size 3 to 8) (size 9 to 14) (size 15 to 20)
#    0.000    0.615    3.077    8.308    0.000    0.615 
#    0.000    3.077    0.000    3.692    0.000    0.000 
#    0.000    0.000    0.000    0.000    0.000    0.000 
#
# Total GULP energy -145538.821151 kJ/mol
# GULP energy per Si atom -5597.646967 kJ/mol
# Density = 2.465388 g / cm^3
# Si number density = 24.710119 Si / 1000 Ang^3
#
#
#
# Elastic Constant Matrix: (Units=GPa)
#
#
# Indices 1 2 3 4 5 6 
#
# 1 134.3957 -0.1970 18.7138 0.0000 20.9509 0.0000
# 2 -0.1970 144.3705 -5.1526 0.0000 17.1348 0.0000
# 3 18.7138 -5.1526 21.6322 0.0000 22.0786 0.0000
# 4 0.0000 0.0000 0.0000 12.2315 0.0000 14.7648
# 5 20.9509 17.1348 22.0786 0.0000 55.6103 0.0000
# 6 0.0000 0.0000 0.0000 14.7648 0.0000 45.7893
#
#
#
# Elastic Compliance Matrix: (Units=1/GPa)
#
#
# Indices 1 2 3 4 5 6 
#
# 1 0.008472 -0.000199 -0.007030 0.000000 -0.000339 0.000000
# 2 -0.000199 0.007818 0.007426 0.000000 -0.005282 0.000000
# 3 -0.007030 0.007426 0.090301 0.000000 -0.035491 0.000000
# 4 0.000000 0.000000 0.000000 0.133858 0.000000 -0.043163
# 5 -0.000339 -0.005282 -0.035491 0.000000 0.033828 0.000000
# 6 0.000000 0.000000 0.000000 -0.043163 0.000000 0.035757
#
#
# Mechanical properties :
#
#
# Convention : Reuss Voigt Hill
#
# Bulk Modulus (GPa) = 9.34719 36.34743 22.84731
# Shear Modulus (GPa) = 14.47999 41.86182 28.17090
#
# Velocity S-wave (km/s) = 2.42336 4.12043 3.38013
# Velocity P-wave (km/s) = 3.40898 6.11381 4.94974
#
# Compressibility (1/GPa) = 0.10698401
#
# Stress axis : x y z
#
# Youngs Moduli (GPa) = 118.03238 127.90537 11.07405
#
# Poissons Ratio (x) = 0.02546 0.07785
# Poissons Ratio (y) = 0.02350 -0.08223
# Poissons Ratio (z) = 0.82980 -0.94977
#
# Static dielectric constant tensor:
#      x y z
#    x 2.128500 0.000000 -0.137180 
#    y 0.000000 1.934390 0.000000 
#    z -0.137180 0.000000 2.130940 
# 
# From -- ./inp_files/57186.got.cif
#   From: 2010.05.17/outbox.cif.g08.bks.cpg/sg13_29_cif.got.tgz:57186.got - 2010.06.03 16:44:36.
