data_PCOD9227854
_publ_section_title
;
Structure prediction by ZEFSAII (Michael W. Deem and Ramdas Pophale) SiO2 
 PCOD9227854
Probable space group: P 2/C
;
_chemical_formula_sum "Si O2"
_cell_formula_units_Z 24
_cell_length_a 8.667880
_cell_length_b 5.494640
_cell_length_c 21.405712
_cell_angle_alpha 90.000000
_cell_angle_beta 64.977107
_cell_angle_gamma 90.000000
_cell_volume 923.797036
_symmetry_space_group_name_H-M "P 2/C"
_symmetry_group_IT_number 13
_symmetry_cell_setting 'monoclinic'
loop_
_space_group_symop_operation_xyz
x,y,z
-x,y,1/2-z
-x,-y,-z
x,-y,1/2+z
loop_
_atom_site_type_symbol
_atom_site_label
_atom_site_fract_x
_atom_site_fract_y
_atom_site_fract_z
Si Si1 0.954125 0.365345 0.829390
Si Si2 0.560865 0.111173 0.809869
Si Si3 0.186651 0.599686 0.886016
Si Si4 0.866974 0.862166 0.901289
Si Si5 0.348132 0.319251 0.954018
Si Si6 0.424171 0.615390 0.654075
O O1 0.116469 0.410678 0.846846
O O2 0.000000 0.334710 0.750000
O O3 0.854986 0.621613 0.858697
O O4 0.863812 0.125517 0.871331
O O5 0.500000 0.099171 0.750000
O O6 0.413119 0.138822 0.888162
O O7 0.651635 0.370163 0.804372
O O8 0.658483 0.868561 0.812682
O O9 0.190365 0.473805 0.953372
O O10 0.387743 0.646576 0.842489
O O11 0.053356 0.819240 0.901175
O O12 0.716662 0.829035 0.976608
O O13 0.499629 0.522238 0.926174
#
# Coordination Sequence:
#
# PCOD9227854 Si02
#       6
#     4   4   4   4   4   4
#     4  10  21  31  43  61  91 127 154 179 217 250
#     4   9  17  28  42  62  97 120 137 177 220 274
#     4   7  19  28  46  63  94 115 151 181 211 262
#     4  10  19  29  48  61  94 119 151 184 212 259
#     4   8  19  28  45  71  88 117 153 173 226 264
#     4   8  18  26  43  63  90 114 149 170 216 268
#
# _framework density 25.979731000000001
#
# number of rings (size 3 to 8) (size 9 to 14) (size 15 to 20)
#    3.000    0.000    0.000    1.500    7.000    0.667 
#    0.000    0.000    0.000    0.000    0.000    0.000 
#    0.000   18.667    0.000    0.000    0.000    0.000 
#
# Total GULP energy -133749.459772 kJ/mol
# GULP energy per Si atom -5572.894157 kJ/mol
# Density = 2.592060 g / cm^3
# Si number density = 25.979731 Si / 1000 Ang^3
#
#
#
# Elastic Constant Matrix: (Units=GPa)
#
#
# Indices 1 2 3 4 5 6 
#
# 1 69.2930 15.9384 12.2438 0.0000 -9.6035 0.0000
# 2 15.9384 172.6301 26.8928 0.0000 0.4990 0.0000
# 3 12.2438 26.8928 91.2280 0.0000 -19.2587 0.0000
# 4 0.0000 0.0000 0.0000 14.3189 0.0000 3.3669
# 5 -9.6035 0.4990 -19.2587 0.0000 13.4179 0.0000
# 6 0.0000 0.0000 0.0000 3.3669 0.0000 22.8227
#
#
#
# Elastic Compliance Matrix: (Units=1/GPa)
#
#
# Indices 1 2 3 4 5 6 
#
# 1 0.016504 -0.001743 0.001157 0.000000 0.013537 0.000000
# 2 -0.001743 0.006410 -0.002825 0.000000 -0.005541 0.000000
# 3 0.001157 -0.002825 0.016982 0.000000 0.025306 0.000000
# 4 0.000000 0.000000 0.000000 0.072347 0.000000 -0.010673
# 5 0.013537 -0.005541 0.025306 0.000000 0.120745 0.000000
# 6 0.000000 0.000000 0.000000 -0.010673 0.000000 0.045391
#
#
# Mechanical properties :
#
#
# Convention : Reuss Voigt Hill
#
# Bulk Modulus (GPa) = 30.23716 49.25569 39.74642
# Shear Modulus (GPa) = 16.87898 28.65029 22.76464
#
# Velocity S-wave (km/s) = 2.55168 3.32444 2.96336
# Velocity P-wave (km/s) = 4.51059 5.80829 5.20008
#
# Compressibility (1/GPa) = 0.03307189
#
# Stress axis : x y z
#
# Youngs Moduli (GPa) = 60.59044 156.01044 58.88756
#
# Poissons Ratio (x) = 0.27194 -0.06811
# Poissons Ratio (y) = 0.10562 0.16638
# Poissons Ratio (z) = -0.07008 0.44079
#
# Static dielectric constant tensor:
#      x y z
#    x 2.275390 0.000000 0.053960 
#    y 0.000000 2.122110 0.000000 
#    z 0.053960 0.000000 2.027940 
# 
# From -- ./inp_files/80496.got.cif
#   From: 2010.05.17/outbox.cif.g08.bks.cpg/sg13_41_cif.got.tgz:80496.got - 2010.06.03 16:44:36.
