data_PCOD9227382
_publ_section_title
;
Structure prediction by ZEFSAII (Michael W. Deem and Ramdas Pophale) SiO2 
 PCOD9227382
Probable space group: P 2/C
;
_chemical_formula_sum "Si O2"
_cell_formula_units_Z 28
_cell_length_a 9.211599
_cell_length_b 11.464630
_cell_length_c 14.788236
_cell_angle_alpha 90.000000
_cell_angle_beta 48.610341
_cell_angle_gamma 90.000000
_cell_volume 1171.672147
_symmetry_space_group_name_H-M "P 2/C"
_symmetry_group_IT_number 13
_symmetry_cell_setting 'monoclinic'
loop_
_space_group_symop_operation_xyz
x,y,z
-x,y,1/2-z
-x,-y,-z
x,-y,1/2+z
loop_
_atom_site_type_symbol
_atom_site_label
_atom_site_fract_x
_atom_site_fract_y
_atom_site_fract_z
Si Si1 0.816818 0.273487 0.176189
Si Si2 0.770606 0.079718 0.324532
Si Si3 0.100674 0.465936 0.806712
Si Si4 0.445481 0.626140 0.065205
Si Si5 0.871902 0.079594 0.624268
Si Si6 0.178841 0.272588 0.523385
Si Si7 0.736718 0.189618 0.513478
O O1 0.720602 0.202358 0.296608
O O2 0.833310 0.409695 0.185829
O O3 0.036375 0.224444 0.085519
O O4 0.733036 0.250649 0.111543
O O5 0.685071 0.089370 0.460607
O O6 0.000000 0.074083 0.250000
O O7 0.755269 0.985459 0.251383
O O8 0.292054 0.392981 0.708115
O O9 0.000000 0.482950 0.750000
O O10 0.952014 0.390606 0.926730
O O11 0.333317 0.702926 0.036746
O O12 0.500000 0.500000 0.000000
O O13 0.623888 0.695300 0.032066
O O14 0.722680 0.145517 0.620741
O O15 0.028433 0.167939 0.603590
O O16 0.000000 0.000000 0.500000
#
# Coordination Sequence:
#
# PCOD9227382 Si02
#       7
#     4   4   4   4   4   4   4
#     4  10  18  36  64  90 119 160 224 258 309 396
#     4  10  18  34  67  94 118 167 212 267 316 374
#     4  10  20  36  60  93 121 168 212 258 324 398
#     4  11  23  42  62  93 138 169 206 274 336 390
#     4  11  20  41  68  92 126 165 225 264 308 384
#     4  10  22  38  63  89 126 167 214 262 321 393
#     4  10  21  38  66  99 130 166 219 271 328 377
#
# _framework density 23.897469000000001
#
# number of rings (size 3 to 8) (size 9 to 14) (size 15 to 20)
#    0.000    1.714    4.286    4.286    0.000    2.857 
#    0.000    9.286    3.143    0.000    0.000    0.000 
#    0.000    0.000    0.000    0.000    0.000    0.000 
#
# Total GULP energy -156505.417233 kJ/mol
# GULP energy per Si atom -5589.479187 kJ/mol
# Density = 2.384308 g / cm^3
# Si number density = 23.897469 Si / 1000 Ang^3
#
#
#
# Elastic Constant Matrix: (Units=GPa)
#
#
# Indices 1 2 3 4 5 6 
#
# 1 84.6041 51.5274 33.1585 0.0000 17.4716 0.0000
# 2 51.5274 97.2627 14.1200 0.0000 13.2823 0.0000
# 3 33.1585 14.1200 67.1871 0.0000 13.8237 0.0000
# 4 0.0000 0.0000 0.0000 21.6220 0.0000 13.1195
# 5 17.4716 13.2823 13.8237 0.0000 23.3554 0.0000
# 6 0.0000 0.0000 0.0000 13.1195 0.0000 35.2176
#
#
#
# Elastic Compliance Matrix: (Units=1/GPa)
#
#
# Indices 1 2 3 4 5 6 
#
# 1 0.021988 -0.009673 -0.007477 0.000000 -0.006522 0.000000
# 2 -0.009673 0.015485 0.002098 0.000000 -0.002812 0.000000
# 3 -0.007477 0.002098 0.019616 0.000000 -0.007210 0.000000
# 4 0.000000 0.000000 0.000000 0.059756 0.000000 -0.022261
# 5 -0.006522 -0.002812 -0.007210 0.000000 0.053563 0.000000
# 6 0.000000 0.000000 0.000000 -0.022261 0.000000 0.036688
#
#
# Mechanical properties :
#
#
# Convention : Reuss Voigt Hill
#
# Bulk Modulus (GPa) = 37.05521 49.62951 43.34236
# Shear Modulus (GPa) = 20.30905 26.05552 23.18229
#
# Velocity S-wave (km/s) = 2.91837 3.30556 3.11798
# Velocity P-wave (km/s) = 5.18608 5.94825 5.58019
#
# Compressibility (1/GPa) = 0.02698676
#
# Stress axis : x y z
#
# Youngs Moduli (GPa) = 45.47909 64.57767 50.97750
#
# Poissons Ratio (x) = 0.62463 0.38115
# Poissons Ratio (y) = 0.43990 -0.10695
# Poissons Ratio (z) = 0.34004 -0.13548
#
# Static dielectric constant tensor:
#      x y z
#    x 1.899710 0.000000 -0.012420 
#    y 0.000000 1.990630 0.000000 
#    z -0.012420 0.000000 2.038810 
# 
# From -- ./inp_files/47094.got.cif
#   From: 2010.05.17/outbox.cif.g08.bks.cpg/sg13_24_cif.got.tgz:47094.got - 2010.06.03 16:44:36.
