data_PCOD9227945
_publ_section_title
;
Structure prediction by ZEFSAII (Michael W. Deem and Ramdas Pophale) SiO2 
 PCOD9227945
Probable space group: P 2/C
;
_chemical_formula_sum "Si O2"
_cell_formula_units_Z 20
_cell_length_a 7.753444
_cell_length_b 25.120976
_cell_length_c 5.251888
_cell_angle_alpha 90.000000
_cell_angle_beta 59.962327
_cell_angle_gamma 90.000000
_cell_volume 885.548312
_symmetry_space_group_name_H-M "P 2/C"
_symmetry_group_IT_number 13
_symmetry_cell_setting 'monoclinic'
loop_
_space_group_symop_operation_xyz
x,y,z
-x,y,1/2-z
-x,-y,-z
x,-y,1/2+z
loop_
_atom_site_type_symbol
_atom_site_label
_atom_site_fract_x
_atom_site_fract_y
_atom_site_fract_z
Si Si1 0.640020 0.251139 0.895989
Si Si2 0.738974 0.525073 0.525792
Si Si3 0.223130 0.022370 0.806028
Si Si4 0.361030 0.135848 0.602326
Si Si5 0.359868 0.633667 0.102881
O O1 0.500000 0.251109 0.750000
O O2 0.745968 0.193694 0.821784
O O3 0.746075 0.308637 0.802370
O O4 0.500000 0.250883 0.250000
O O5 0.500000 0.519498 0.750000
O O6 0.809671 0.482952 0.261536
O O7 0.768391 0.581673 0.364884
O O8 0.227930 0.083479 0.720260
O O9 0.314016 0.986161 0.516954
O O10 0.000000 0.000000 0.000000
O O11 0.500000 0.135366 0.750000
O O12 0.500000 0.131791 0.250000
O O13 0.500000 0.625729 0.250000
O O14 0.500000 0.637318 0.750000
#
# Coordination Sequence:
#
# PCOD9227945 Si02
#       5
#     4   4   4   4   4
#     4   8  15  25  36  52  72  95 125 164 208 244
#     4   9  14  18  24  36  54  79 114 153 190 228
#     4  10  21  35  49  67  92 118 141 171 213 265
#     4  10  19  31  48  68  88 111 144 183 217 254
#     4   9  14  20  29  40  59  86 115 153 199 237
#
# _framework density 22.584878
#
# number of rings (size 3 to 8) (size 9 to 14) (size 15 to 20)
#    0.000    2.800    0.000    4.200    0.000    2.400 
#    0.000    0.000    0.000    0.000    0.000    0.000 
#    0.000    0.000    0.000    0.000    0.000    0.000 
#
# Total GULP energy -111408.832128 kJ/mol
# GULP energy per Si atom -5570.441606 kJ/mol
# Density = 2.253347 g / cm^3
# Si number density = 22.584878 Si / 1000 Ang^3
#
#
#
# Elastic Constant Matrix: (Units=GPa)
#
#
# Indices 1 2 3 4 5 6 
#
# 1 65.7136 18.3573 41.0833 0.0000 11.5820 0.0000
# 2 18.3573 234.6236 42.5811 0.0000 12.0092 0.0000
# 3 41.0833 42.5811 143.6256 0.0000 40.2378 0.0000
# 4 0.0000 0.0000 0.0000 28.4086 0.0000 26.0464
# 5 11.5820 12.0092 40.2378 0.0000 35.4084 0.0000
# 6 0.0000 0.0000 0.0000 26.0464 0.0000 -64.0408
#
#
#
# Elastic Compliance Matrix: (Units=1/GPa)
#
#
# Indices 1 2 3 4 5 6 
#
# 1 0.018591 -0.000517 -0.005149 0.000000 -0.000054 0.000000
# 2 -0.000517 0.004519 -0.001188 0.000000 -0.000013 0.000000
# 3 -0.005149 -0.001188 0.012034 0.000000 -0.011588 0.000000
# 4 0.000000 0.000000 0.000000 0.025640 0.000000 0.010428
# 5 -0.000054 -0.000013 -0.011588 0.000000 0.041433 0.000000
# 6 0.000000 0.000000 0.000000 0.010428 0.000000 -0.011374
#
#
# Mechanical properties :
#
#
# Convention : Reuss Voigt Hill
#
# Bulk Modulus (GPa) = 46.65323 72.00067 59.32695
# Shear Modulus (GPa) = 44.76395 22.75132 33.75763
#
# Velocity S-wave (km/s) = 4.45683 3.17735 3.87033
# Velocity P-wave (km/s) = 6.86922 6.73869 6.80427
#
# Compressibility (1/GPa) = 0.02143474
#
# Stress axis : x y z
#
# Youngs Moduli (GPa) = 53.78993 221.29212 83.09605
#
# Poissons Ratio (x) = 0.11447 0.42789
# Poissons Ratio (y) = 0.02782 0.09872
# Poissons Ratio (z) = 0.27698 0.26290
#
# Static dielectric constant tensor:
#      x y z
#    x 1.818610 0.000000 0.024510 
#    y 0.000000 1.943180 0.000000 
#    z 0.024510 0.000000 1.824120 
# 
# From -- ./inp_files/2343.got.cif
#   From: 2010.05.17/outbox.cif.g08.bks.cpg/sg13_2_cif.got.tgz:2343.got - 2010.06.03 16:44:36.
