data_PCOD9227675
_publ_section_title
;
Structure prediction by ZEFSAII (Michael W. Deem and Ramdas Pophale) SiO2 
 PCOD9227675
Probable space group: P 2/C
;
_chemical_formula_sum "Si O2"
_cell_formula_units_Z 28
_cell_length_a 27.390906
_cell_length_b 9.357117
_cell_length_c 8.459073
_cell_angle_alpha 90.000000
_cell_angle_beta 36.519759
_cell_angle_gamma 90.000000
_cell_volume 1290.212241
_symmetry_space_group_name_H-M "P 2/C"
_symmetry_group_IT_number 13
_symmetry_cell_setting 'monoclinic'
loop_
_space_group_symop_operation_xyz
x,y,z
-x,y,1/2-z
-x,-y,-z
x,-y,1/2+z
loop_
_atom_site_type_symbol
_atom_site_label
_atom_site_fract_x
_atom_site_fract_y
_atom_site_fract_z
Si Si1 0.741599 0.310082 0.341553
Si Si2 0.425177 0.814128 0.718571
Si Si3 0.083152 0.214010 0.692836
Si Si4 0.882225 0.282068 0.552259
Si Si5 0.000000 0.059398 0.250000
Si Si6 0.288509 0.381542 0.448460
Si Si7 0.396173 0.122504 0.659523
Si Si8 0.000000 0.542029 0.250000
O O1 0.725464 0.348158 0.199673
O O2 0.720019 0.450991 0.497143
O O3 0.683699 0.182971 0.549004
O O4 0.835838 0.264107 0.111743
O O5 0.374297 0.682224 0.783299
O O6 0.523476 0.801722 0.473582
O O7 0.406222 0.954041 0.663404
O O8 0.396892 0.845801 0.971543
O O9 0.111611 0.193569 0.799152
O O10 0.021229 0.347788 0.834606
O O11 0.049275 0.067368 0.716842
O O12 0.945634 0.184368 0.293878
O O13 0.922491 0.437445 0.471217
O O14 0.787391 0.304887 0.760746
#
# Coordination Sequence:
#
# PCOD9227675 Si02
#       8
#     4   4   4   4   2   4   4   2
#     4  11  23  40  61  91 125 163 208 255 308 364
#     4  10  22  42  67  95 125 161 202 246 301 365
#     4  10  21  37  57  84 117 157 203 250 302 360
#     4  10  21  37  57  84 117 157 203 250 302 360
#     4  10  22  38  56  84 118 154 206 250 310 362
#     4  11  23  40  61  91 125 163 208 255 308 364
#     4  10  22  42  67  95 125 161 202 246 301 365
#     4  10  18  38  60  80 114 154 206 246 302 354
#
# _framework density 21.701855999999999
#
# number of rings (size 3 to 8) (size 9 to 14) (size 15 to 20)
#    0.000    1.714    1.429    2.571    2.000    2.286 
#    0.000    2.857    0.000    0.000    0.000    0.000 
#    0.000    0.000    0.000    0.000    0.000    0.000 
#
# Total GULP energy -155976.139187 kJ/mol
# GULP energy per Si atom -5570.576400 kJ/mol
# Density = 2.165246 g / cm^3
# Si number density = 21.701856 Si / 1000 Ang^3
#
#
#
# Elastic Constant Matrix: (Units=GPa)
#
#
# Indices 1 2 3 4 5 6 
#
# 1 38.8135 18.3322 -4.3555 0.0000 6.2415 0.0000
# 2 18.3322 68.9244 12.3594 0.0000 -2.9509 0.0000
# 3 -4.3555 12.3594 47.3287 0.0000 -5.6394 0.0000
# 4 0.0000 0.0000 0.0000 62.5827 0.0000 -10.3764
# 5 6.2415 -2.9509 -5.6394 0.0000 14.5308 0.0000
# 6 0.0000 0.0000 0.0000 -10.3764 0.0000 33.5123
#
#
#
# Elastic Compliance Matrix: (Units=1/GPa)
#
#
# Indices 1 2 3 4 5 6 
#
# 1 0.033448 -0.010248 0.003978 0.000000 -0.014904 0.000000
# 2 -0.010248 0.018398 -0.005009 0.000000 0.006194 0.000000
# 3 0.003978 -0.005009 0.023568 0.000000 0.006421 0.000000
# 4 0.000000 0.000000 0.000000 0.016844 0.000000 0.005215
# 5 -0.014904 0.006194 0.006421 0.000000 0.078971 0.000000
# 6 0.000000 0.000000 0.000000 0.005215 0.000000 0.031455
#
#
# Mechanical properties :
#
#
# Convention : Reuss Voigt Hill
#
# Bulk Modulus (GPa) = 18.91945 23.08208 21.00076
# Shear Modulus (GPa) = 20.58812 30.70720 25.64766
#
# Velocity S-wave (km/s) = 3.08341 3.76567 3.44149
# Velocity P-wave (km/s) = 4.62746 5.43748 5.04874
#
# Compressibility (1/GPa) = 0.05285567
#
# Stress axis : x y z
#
# Youngs Moduli (GPa) = 29.89760 54.35447 42.43017
#
# Poissons Ratio (x) = 0.55701 -0.16880
# Poissons Ratio (y) = 0.30638 0.21255
# Poissons Ratio (z) = -0.11894 0.27228
#
# Static dielectric constant tensor:
#      x y z
#    x 1.525780 0.000000 1.972280 
#    y 0.000000 1.745990 0.000000 
#    z 1.972280 0.000000 -11.674710 
# 
# From -- ./inp_files/21224.got.cif
#   From: 2010.05.17/outbox.cif.g08.bks.cpg/sg13_11_cif.got.tgz:21224.got - 2010.06.03 16:44:36.
