data_PCOD9227810
_publ_section_title
;
Structure prediction by ZEFSAII (Michael W. Deem and Ramdas Pophale) SiO2 
 PCOD9227810
Probable space group: P 2/C
;
_chemical_formula_sum "Si O2"
_cell_formula_units_Z 24
_cell_length_a 18.142268
_cell_length_b 8.603378
_cell_length_c 10.163643
_cell_angle_alpha 90.000000
_cell_angle_beta 145.386873
_cell_angle_gamma 90.000000
_cell_volume 901.120833
_symmetry_space_group_name_H-M "P 2/C"
_symmetry_group_IT_number 13
_symmetry_cell_setting 'monoclinic'
loop_
_space_group_symop_operation_xyz
x,y,z
-x,y,1/2-z
-x,-y,-z
x,-y,1/2+z
loop_
_atom_site_type_symbol
_atom_site_label
_atom_site_fract_x
_atom_site_fract_y
_atom_site_fract_z
Si Si1 0.465613 0.242576 0.446053
Si Si2 0.203008 0.464378 0.275494
Si Si3 0.000000 0.057956 0.750000
Si Si4 0.823491 0.118334 0.141992
Si Si5 0.182728 0.656637 0.479121
Si Si6 0.500000 0.430095 0.750000
Si Si7 0.676111 0.939633 0.151608
O O1 0.337987 0.326339 0.206025
O O2 0.530832 0.334043 0.661799
O O3 0.567224 0.193205 0.485040
O O4 0.405633 0.091106 0.427445
O O5 0.183649 0.289414 0.305435
O O6 0.139351 0.591220 0.276098
O O7 0.153517 0.461833 0.054163
O O8 0.358355 0.493998 0.502851
O O9 0.032811 0.945026 0.677836
O O10 0.881549 0.180528 0.574814
O O11 0.750940 0.994353 0.131257
O O12 0.759498 0.111752 0.901882
#
# Coordination Sequence:
#
# PCOD9227810 Si02
#       7
#     4   4   2   4   4   2   4
#     4  10  19  39  71 109 144 179 226 298 365 436
#     4  11  25  46  73 106 147 189 240 289 377 425
#     4  12  28  50  74 104 146 184 266 302 348 426
#     4  12  24  46  73 108 140 193 236 309 358 427
#     4  11  26  50  70 106 146 198 242 299 351 439
#     4  10  18  42  68 102 154 178 224 294 362 456
#     4  11  21  40  73 106 146 178 233 299 377 419
#
# _framework density 26.633496999999998
#
# number of rings (size 3 to 8) (size 9 to 14) (size 15 to 20)
#    0.000    1.000    6.667    0.000    0.000   10.000 
#    3.000    0.000    0.000    0.000    0.000    0.000 
#    0.000    0.000    0.000    0.000    0.000    0.000 
#
# Total GULP energy -134304.970521 kJ/mol
# GULP energy per Si atom -5596.040438 kJ/mol
# Density = 2.657288 g / cm^3
# Si number density = 26.633497 Si / 1000 Ang^3
#
#
#
# Elastic Constant Matrix: (Units=GPa)
#
#
# Indices 1 2 3 4 5 6 
#
# 1 154.6889 54.5967 17.4221 0.0000 0.7865 0.0000
# 2 54.5967 85.7969 2.9568 0.0000 3.8328 0.0000
# 3 17.4221 2.9568 54.6477 0.0000 -5.4452 0.0000
# 4 0.0000 0.0000 0.0000 7.8103 0.0000 -6.7729
# 5 0.7865 3.8328 -5.4452 0.0000 30.7335 0.0000
# 6 0.0000 0.0000 0.0000 -6.7729 0.0000 30.9999
#
#
#
# Elastic Compliance Matrix: (Units=1/GPa)
#
#
# Indices 1 2 3 4 5 6 
#
# 1 0.008657 -0.005425 -0.002464 0.000000 0.000018 0.000000
# 2 -0.005425 0.015154 0.000748 0.000000 -0.001618 0.000000
# 3 -0.002464 0.000748 0.019383 0.000000 0.003404 0.000000
# 4 0.000000 0.000000 0.000000 0.157965 0.000000 0.034512
# 5 0.000018 -0.001618 0.003404 0.000000 0.033342 0.000000
# 6 0.000000 0.000000 0.000000 0.034512 0.000000 0.039798
#
#
# Mechanical properties :
#
#
# Convention : Reuss Voigt Hill
#
# Bulk Modulus (GPa) = 34.58739 49.45385 42.02062
# Shear Modulus (GPa) = 16.76625 28.58593 22.67609
#
# Velocity S-wave (km/s) = 2.51174 3.27969 2.92106
# Velocity P-wave (km/s) = 4.62887 5.74025 5.21425
#
# Compressibility (1/GPa) = 0.02891227
#
# Stress axis : x y z
#
# Youngs Moduli (GPa) = 115.51867 65.98996 51.59050
#
# Poissons Ratio (x) = 0.35796 0.12714
# Poissons Ratio (y) = 0.62663 -0.03860
# Poissons Ratio (z) = 0.28469 -0.04937
#
# Static dielectric constant tensor:
#      x y z
#    x 2.095350 0.000000 0.067150 
#    y 0.000000 2.110630 0.000000 
#    z 0.067150 0.000000 2.148430 
# 
# From -- ./inp_files/41695.got.cif
#   From: 2010.05.17/outbox.cif.g08.bks.cpg/sg13_21_cif.got.tgz:41695.got - 2010.06.03 16:44:36.
