data_PCOD9227211
_publ_section_title
;
Structure prediction by ZEFSAII (Michael W. Deem and Ramdas Pophale) SiO2 
 PCOD9227211
Probable space group: P 2/C
;
_chemical_formula_sum "Si O2"
_cell_formula_units_Z 26
_cell_length_a 19.908140
_cell_length_b 14.978280
_cell_length_c 8.693512
_cell_angle_alpha 90.000000
_cell_angle_beta 148.868591
_cell_angle_gamma 90.000000
_cell_volume 1340.234080
_symmetry_space_group_name_H-M "P 2/C"
_symmetry_group_IT_number 13
_symmetry_cell_setting 'monoclinic'
loop_
_space_group_symop_operation_xyz
x,y,z
-x,y,1/2-z
-x,-y,-z
x,-y,1/2+z
loop_
_atom_site_type_symbol
_atom_site_label
_atom_site_fract_x
_atom_site_fract_y
_atom_site_fract_z
Si Si1 0.500000 0.732208 0.250000
Si Si2 0.000000 0.009062 0.250000
Si Si3 0.869507 0.233993 0.290795
Si Si4 0.374791 0.121103 0.719970
Si Si5 0.500000 0.020445 0.250000
Si Si6 0.987419 0.598460 0.410617
Si Si7 0.874559 0.120038 0.746148
Si Si8 0.242006 0.278740 0.095224
O O1 0.553101 0.795685 0.218652
O O2 0.622331 0.685055 0.570927
O O3 0.094612 0.949462 0.329186
O O4 0.097447 0.066982 0.544226
O O5 0.831605 0.243920 0.395254
O O6 0.899059 0.336226 0.300354
O O7 0.006251 0.188256 0.533488
O O8 0.765321 0.164360 0.021043
O O9 0.394356 0.043285 0.629646
O O10 0.435095 0.080244 0.991472
O O11 0.000000 0.594569 0.250000
O O12 0.000000 0.500000 0.500000
O O13 0.847418 0.646868 0.160400
O O14 0.750753 0.185357 0.486799
#
# Coordination Sequence:
#
# PCOD9227211 Si02
#       8
#     2   2   4   4   2   4   4   4
#     4   9  18  34  54  73  96 146 178 209 252 312
#     4  10  20  30  46  70 106 132 176 210 270 294
#     4   9  17  33  55  71 101 136 169 212 270 316
#     4   9  18  33  48  72 101 143 186 220 256 295
#     4   9  18  34  46  71 106 146 192 225 244 298
#     4   9  18  35  59  82 103 129 163 214 274 333
#     4  10  18  34  44  74  97 141 167 220 258 307
#     4   9  17  35  56  73 105 135 176 205 264 320
#
# _framework density 19.399597
#
# number of rings (size 3 to 8) (size 9 to 14) (size 15 to 20)
#    0.000    2.769    1.538    0.923    0.000    1.231 
#   22.154    0.000    0.000    9.231    0.000    0.000 
#    0.000    0.000    0.000    0.000    0.000    0.000 
#
# Total GULP energy -144757.032995 kJ/mol
# GULP energy per Si atom -5567.578192 kJ/mol
# Density = 1.935544 g / cm^3
# Si number density = 19.399597 Si / 1000 Ang^3
#
#
#
# Elastic Constant Matrix: (Units=GPa)
#
#
# Indices 1 2 3 4 5 6 
#
# 1 27.9687 13.0818 22.6427 0.0000 -8.2542 0.0000
# 2 13.0818 108.0596 63.6242 0.0000 -5.8229 0.0000
# 3 22.6427 63.6242 109.3036 0.0000 6.0966 0.0000
# 4 0.0000 0.0000 0.0000 31.4551 0.0000 -8.3651
# 5 -8.2542 -5.8229 6.0966 0.0000 22.4121 0.0000
# 6 0.0000 0.0000 0.0000 -8.3651 0.0000 20.8435
#
#
#
# Elastic Compliance Matrix: (Units=1/GPa)
#
#
# Indices 1 2 3 4 5 6 
#
# 1 0.052857 0.003263 -0.014198 0.000000 0.024177 0.000000
# 2 0.003263 0.015117 -0.009912 0.000000 0.007826 0.000000
# 3 -0.014198 -0.009912 0.018577 0.000000 -0.012857 0.000000
# 4 0.000000 0.000000 0.000000 0.035590 0.000000 0.014283
# 5 0.024177 0.007826 -0.012857 0.000000 0.059053 0.000000
# 6 0.000000 0.000000 0.000000 0.014283 0.000000 0.053709
#
#
# Mechanical properties :
#
#
# Convention : Reuss Voigt Hill
#
# Bulk Modulus (GPa) = 22.29246 49.33658 35.81452
# Shear Modulus (GPa) = 17.14990 24.67436 20.91213
#
# Velocity S-wave (km/s) = 2.97650 3.57024 3.28680
# Velocity P-wave (km/s) = 4.82999 6.51786 5.73634
#
# Compressibility (1/GPa) = 0.04485822
#
# Stress axis : x y z
#
# Youngs Moduli (GPa) = 18.91896 66.15208 53.83139
#
# Poissons Ratio (x) = -0.21587 0.76427
# Poissons Ratio (y) = -0.06174 0.53356
# Poissons Ratio (z) = 0.26860 0.65568
#
# Static dielectric constant tensor:
#      x y z
#    x 1.723820 0.000000 0.036610 
#    y 0.000000 1.701760 0.000000 
#    z 0.036610 0.000000 1.840580 
# 
# From -- ./inp_files/23529.got.cif
#   From: 2010.05.17/outbox.cif.g08.bks.cpg/sg13_12_cif.got.tgz:23529.got - 2010.06.03 16:44:36.
