data_PCOD9227485
_publ_section_title
;
Structure prediction by ZEFSAII (Michael W. Deem and Ramdas Pophale) SiO2 
 PCOD9227485
Probable space group: P 2/C
;
_chemical_formula_sum "Si O2"
_cell_formula_units_Z 26
_cell_length_a 14.595377
_cell_length_b 7.868602
_cell_length_c 10.943740
_cell_angle_alpha 90.000000
_cell_angle_beta 66.052714
_cell_angle_gamma 90.000000
_cell_volume 1148.646790
_symmetry_space_group_name_H-M "P 2/C"
_symmetry_group_IT_number 13
_symmetry_cell_setting 'monoclinic'
loop_
_space_group_symop_operation_xyz
x,y,z
-x,y,1/2-z
-x,-y,-z
x,-y,1/2+z
loop_
_atom_site_type_symbol
_atom_site_label
_atom_site_fract_x
_atom_site_fract_y
_atom_site_fract_z
Si Si1 0.883455 0.432144 0.298447
Si Si2 0.227542 0.469449 0.393834
Si Si3 0.272419 0.927228 0.878512
Si Si4 0.434229 0.744351 0.546033
Si Si5 0.500000 0.933279 0.750000
Si Si6 0.781248 0.920242 0.850156
Si Si7 0.421785 0.414743 0.696502
O O1 0.843364 0.487640 0.186522
O O2 0.824233 0.506078 0.447678
O O3 0.861064 0.230382 0.314719
O O4 0.000000 0.470016 0.250000
O O5 0.274746 0.278852 0.362970
O O6 0.317972 0.602013 0.322772
O O7 0.385312 0.999836 0.820824
O O8 0.217822 0.997030 0.786530
O O9 0.213934 0.962044 0.034874
O O10 0.490028 0.827823 0.629630
O O11 0.330315 0.838119 0.581541
O O12 0.405550 0.549796 0.596138
O O13 0.515779 0.740411 0.393855
O O14 0.500000 0.491643 0.750000
#
# Coordination Sequence:
#
# PCOD9227485 Si02
#       7
#     4   4   4   4   2   4   4
#     4  11  24  45  67  93 124 160 212 280 330 370
#     4  11  23  40  66  97 127 162 210 265 320 381
#     4  10  22  39  61  88 132 166 210 249 310 366
#     4  10  19  32  56  85 125 165 202 237 301 367
#     4  10  18  36  52  80 128 170 194 248 290 360
#     4  10  22  44  59  92 124 172 209 263 307 378
#     4  11  19  32  57  90 127 162 202 241 303 375
#
# _framework density 22.635331999999998
#
# number of rings (size 3 to 8) (size 9 to 14) (size 15 to 20)
#    0.000    1.538    5.385    1.385    4.308    3.692 
#    6.923    3.846    0.000    0.000    0.000    0.000 
#    0.000    0.000    0.000    0.000    0.000    0.000 
#
# Total GULP energy -145238.362257 kJ/mol
# GULP energy per Si atom -5586.090856 kJ/mol
# Density = 2.258381 g / cm^3
# Si number density = 22.635332 Si / 1000 Ang^3
#
#
#
# Elastic Constant Matrix: (Units=GPa)
#
#
# Indices 1 2 3 4 5 6 
#
# 1 93.9377 14.5894 31.8092 0.0000 6.7031 0.0000
# 2 14.5894 27.1047 14.6596 0.0000 6.0027 0.0000
# 3 31.8092 14.6596 120.9168 0.0000 15.6080 0.0000
# 4 0.0000 0.0000 0.0000 31.7266 0.0000 2.9480
# 5 6.7031 6.0027 15.6080 0.0000 32.5336 0.0000
# 6 0.0000 0.0000 0.0000 2.9480 0.0000 8.2348
#
#
#
# Elastic Compliance Matrix: (Units=1/GPa)
#
#
# Indices 1 2 3 4 5 6 
#
# 1 0.012346 -0.005175 -0.002575 0.000000 -0.000354 0.000000
# 2 -0.005175 0.042534 -0.003113 0.000000 -0.005288 0.000000
# 3 -0.002575 -0.003113 0.009788 0.000000 -0.003591 0.000000
# 4 0.000000 0.000000 0.000000 0.032604 0.000000 -0.011672
# 5 -0.000354 -0.005288 -0.003591 0.000000 0.033509 0.000000
# 6 0.000000 0.000000 0.000000 -0.011672 0.000000 0.125614
#
#
# Mechanical properties :
#
#
# Convention : Reuss Voigt Hill
#
# Bulk Modulus (GPa) = 23.28604 40.45285 31.86944
# Shear Modulus (GPa) = 17.09784 26.55906 21.82845
#
# Velocity S-wave (km/s) = 2.75136 3.42913 3.10877
# Velocity P-wave (km/s) = 4.51698 5.79559 5.19577
#
# Compressibility (1/GPa) = 0.04294419
#
# Stress axis : x y z
#
# Youngs Moduli (GPa) = 80.99688 23.51061 102.16122
#
# Poissons Ratio (x) = 0.12166 0.26305
# Poissons Ratio (y) = 0.41912 0.31801
# Poissons Ratio (z) = 0.20856 0.07318
#
# Static dielectric constant tensor:
#      x y z
#    x 1.795660 0.000000 0.031780 
#    y 0.000000 1.914350 0.000000 
#    z 0.031780 0.000000 1.903290 
# 
# From -- ./inp_files/36086.got.cif
#   From: 2010.05.17/outbox.cif.g08.bks.cpg/sg13_19_cif.got.tgz:36086.got - 2010.06.03 16:44:36.
