data_PCOD9227902
_publ_section_title
;
Structure prediction by ZEFSAII (Michael W. Deem and Ramdas Pophale) SiO2 
 PCOD9227902
Probable space group: P 2/C
;
_chemical_formula_sum "Si O2"
_cell_formula_units_Z 24
_cell_length_a 21.462838
_cell_length_b 15.843270
_cell_length_c 5.196019
_cell_angle_alpha 90.000000
_cell_angle_beta 89.034469
_cell_angle_gamma 90.000000
_cell_volume 1766.611419
_symmetry_space_group_name_H-M "P 2/C"
_symmetry_group_IT_number 13
_symmetry_cell_setting 'monoclinic'
loop_
_space_group_symop_operation_xyz
x,y,z
-x,y,1/2-z
-x,-y,-z
x,-y,1/2+z
loop_
_atom_site_type_symbol
_atom_site_label
_atom_site_fract_x
_atom_site_fract_y
_atom_site_fract_z
Si Si1 0.384093 0.684675 0.257012
Si Si2 0.429425 0.034022 0.060874
Si Si3 0.132105 0.556290 0.160914
Si Si4 0.500000 0.441942 0.750000
Si Si5 0.427355 0.225708 0.254928
Si Si6 0.270708 0.559870 0.215250
Si Si7 0.000000 0.439855 0.750000
O O1 0.439395 0.616360 0.242046
O O2 0.389431 0.725537 0.537879
O O3 0.320643 0.634398 0.212496
O O4 0.399282 0.753184 0.034963
O O5 0.428735 0.127804 0.172514
O O6 0.400099 0.974706 0.281403
O O7 0.500000 0.000000 0.000000
O O8 0.130976 0.478983 0.369047
O O9 0.067435 0.604841 0.225620
O O10 0.199892 0.404817 0.705213
O O11 0.500000 0.500000 0.500000
O O12 0.500000 0.254187 0.250000
O O13 0.278519 0.502736 0.470704
O O14 0.000000 0.500000 0.500000
#
# Coordination Sequence:
#
# PCOD9227902 Si02
#       7
#     4   4   4   2   4   4   2
#     4  12  23  33  44  57  78 100 131 171 203 238
#     4  10  19  30  50  66  80  94 111 142 195 246
#     4   8  14  23  39  56  74  96 123 161 200 235
#     4  12  22  32  42  52  66  94 132 174 208 226
#     4  12  21  34  46  63  79  96 120 159 209 238
#     4  10  19  33  45  55  74 107 143 171 202 235
#     4   8  12  20  34  58  78  90 114 156 204 234
#
# _framework density 13.585331999999999
#
# number of rings (size 3 to 8) (size 9 to 14) (size 15 to 20)
#    0.000    1.667    3.333    4.000    2.333    0.000 
#    0.000    0.000    0.000    0.000    0.000    0.000 
#    0.000    0.000    0.000    0.000    0.000    0.000 
#
# Total GULP energy -133621.979409 kJ/mol
# GULP energy per Si atom -5567.582475 kJ/mol
# Density = 1.355441 g / cm^3
# Si number density = 13.585332 Si / 1000 Ang^3
#
#
#
# Elastic Constant Matrix: (Units=GPa)
#
#
# Indices 1 2 3 4 5 6 
#
# 1 87.3951 19.2014 2.7121 0.0000 -11.1390 0.0000
# 2 19.2014 46.2315 12.3949 0.0000 0.5939 0.0000
# 3 2.7121 12.3949 91.0173 0.0000 14.9318 0.0000
# 4 0.0000 0.0000 0.0000 23.5502 0.0000 3.0553
# 5 -11.1390 0.5939 14.9318 0.0000 19.3532 0.0000
# 6 0.0000 0.0000 0.0000 3.0553 0.0000 -0.7492
#
#
#
# Elastic Compliance Matrix: (Units=1/GPa)
#
#
# Indices 1 2 3 4 5 6 
#
# 1 0.013849 -0.005564 -0.001134 0.000000 0.009017 0.000000
# 2 -0.005564 0.024747 -0.002925 0.000000 -0.001705 0.000000
# 3 -0.001134 -0.002925 0.013180 0.000000 -0.010732 0.000000
# 4 0.000000 0.000000 0.000000 0.027771 0.000000 0.113245
# 5 0.009017 -0.001705 -0.010732 0.000000 0.065193 0.000000
# 6 0.000000 0.000000 0.000000 0.113245 0.000000 -0.872900
#
#
# Mechanical properties :
#
#
# Convention : Reuss Voigt Hill
#
# Bulk Modulus (GPa) = 30.74019 32.58452 31.66236
# Shear Modulus (GPa) = -7.16259 21.11987 6.97864
#
# Velocity S-wave (km/s) = -2.29864 3.94713 2.26893
# Velocity P-wave (km/s) = 3.95368 6.69405 5.49736
#
# Compressibility (1/GPa) = 0.03253070
#
# Stress axis : x y z
#
# Youngs Moduli (GPa) = 72.20668 40.40886 75.87503
#
# Poissons Ratio (x) = 0.22482 0.08606
# Poissons Ratio (y) = 0.40174 0.22190
# Poissons Ratio (z) = 0.08190 0.11818
#
# Static dielectric constant tensor:
#      x y z
#    x 1.507220 0.000000 0.031370 
#    y 0.000000 1.427240 0.000000 
#    z 0.031370 0.000000 1.502700 
# 
# From -- ./inp_files/6941.got.cif
#   From: 2010.05.17/outbox.cif.g08.bks.cpg/sg13_4_cif.got.tgz:6941.got - 2010.06.03 16:44:36.
