data_PCOD9227796
_publ_section_title
;
Structure prediction by ZEFSAII (Michael W. Deem and Ramdas Pophale) SiO2 
 PCOD9227796
Probable space group: P 2/C
;
_chemical_formula_sum "Si O2"
_cell_formula_units_Z 26
_cell_length_a 9.235980
_cell_length_b 15.728678
_cell_length_c 15.871943
_cell_angle_alpha 90.000000
_cell_angle_beta 143.318092
_cell_angle_gamma 90.000000
_cell_volume 1377.368424
_symmetry_space_group_name_H-M "P 2/C"
_symmetry_group_IT_number 13
_symmetry_cell_setting 'monoclinic'
loop_
_space_group_symop_operation_xyz
x,y,z
-x,y,1/2-z
-x,-y,-z
x,-y,1/2+z
loop_
_atom_site_type_symbol
_atom_site_label
_atom_site_fract_x
_atom_site_fract_y
_atom_site_fract_z
Si Si1 0.623991 0.782667 0.717499
Si Si2 0.000000 0.500573 0.250000
Si Si3 0.494407 0.899698 0.508849
Si Si4 0.167357 0.353121 0.730643
Si Si5 0.184077 0.212751 0.457867
Si Si6 0.000000 0.800440 0.250000
Si Si7 0.624129 0.353134 0.070605
Si Si8 0.500000 0.712669 0.250000
O O1 0.500000 0.773471 0.750000
O O2 0.531544 0.863526 0.620348
O O3 0.585445 0.700510 0.638219
O O4 0.911670 0.796567 0.860880
O O5 0.992998 0.564091 0.327000
O O6 0.763482 0.441418 0.145917
O O7 0.708580 0.860696 0.551168
O O8 0.239680 0.857395 0.362468
O O9 0.500000 0.000000 0.500000
O O10 0.024883 0.265666 0.683596
O O11 0.302119 0.344459 0.705507
O O12 0.378231 0.358258 0.901049
O O13 0.203161 0.295984 0.408219
O O14 0.365649 0.229561 0.619153
#
# Coordination Sequence:
#
# PCOD9227796 Si02
#       8
#     4   2   4   4   4   2   4   2
#     4  11  23  39  65  92 123 161 206 255 310 369
#     4  11  20  34  61  88 118 166 215 254 304 371
#     4  11  24  42  66  94 123 165 203 251 309 375
#     4  10  22  36  61  87 122 165 208 257 301 378
#     4  10  21  41  66  83 127 165 197 250 317 370
#     4  11  20  40  65  88 118 172 207 236 312 383
#     4  10  18  41  58  84 120 166 205 246 315 367
#     4  10  20  40  60  90 122 166 208 252 314 368
#
# _framework density 18.876576
#
# number of rings (size 3 to 8) (size 9 to 14) (size 15 to 20)
#    0.000    1.538    6.154    1.846    4.308    0.000 
#    2.769    3.846    0.000    0.000    0.000    0.000 
#    0.000    0.000    0.000    0.000    0.000    0.000 
#
# Total GULP energy -145079.723095 kJ/mol
# GULP energy per Si atom -5579.989350 kJ/mol
# Density = 1.883361 g / cm^3
# Si number density = 18.876576 Si / 1000 Ang^3
#
#
#
# Elastic Constant Matrix: (Units=GPa)
#
#
# Indices 1 2 3 4 5 6 
#
# 1 148.3550 39.9162 15.8449 0.0000 -4.4046 0.0000
# 2 39.9162 130.0617 13.7168 0.0000 0.6275 0.0000
# 3 15.8449 13.7168 60.7057 0.0000 -2.5993 0.0000
# 4 0.0000 0.0000 0.0000 16.8231 0.0000 5.3902
# 5 -4.4046 0.6275 -2.5993 0.0000 38.2784 0.0000
# 6 0.0000 0.0000 0.0000 5.3902 0.0000 9.0324
#
#
#
# Elastic Compliance Matrix: (Units=1/GPa)
#
#
# Indices 1 2 3 4 5 6 
#
# 1 0.007497 -0.002153 -0.001436 0.000000 0.000800 0.000000
# 2 -0.002153 0.008497 -0.001379 0.000000 -0.000481 0.000000
# 3 -0.001436 -0.001379 0.017203 0.000000 0.001026 0.000000
# 4 0.000000 0.000000 0.000000 0.073494 0.000000 -0.043858
# 5 0.000800 -0.000481 0.001026 0.000000 0.026294 0.000000
# 6 0.000000 0.000000 0.000000 -0.043858 0.000000 0.136885
#
#
# Mechanical properties :
#
#
# Convention : Reuss Voigt Hill
#
# Bulk Modulus (GPa) = 42.98902 53.11981 48.05441
# Shear Modulus (GPa) = 17.38765 30.80309 24.09537
#
# Velocity S-wave (km/s) = 3.03829 4.04396 3.57665
# Velocity P-wave (km/s) = 5.92718 7.07152 6.52449
#
# Compressibility (1/GPa) = 0.02326176
#
# Stress axis : x y z
#
# Youngs Moduli (GPa) = 133.38517 117.68569 58.12895
#
# Poissons Ratio (x) = 0.25341 0.08347
# Poissons Ratio (y) = 0.28722 0.08013
# Poissons Ratio (z) = 0.19154 0.16223
#
# Static dielectric constant tensor:
#      x y z
#    x 1.667560 0.000000 0.031870 
#    y 0.000000 1.657860 0.000000 
#    z 0.031870 0.000000 1.710350 
# 
# From -- ./inp_files/47967.got.cif
#   From: 2010.05.17/outbox.cif.g08.bks.cpg/sg13_24_cif.got.tgz:47967.got - 2010.06.03 16:44:36.
