data_PCOD9227878
_publ_section_title
;
Structure prediction by ZEFSAII (Michael W. Deem and Ramdas Pophale) SiO2 
 PCOD9227878
Probable space group: P 2/C
;
_chemical_formula_sum "Si O2"
_cell_formula_units_Z 20
_cell_length_a 17.311214
_cell_length_b 14.326896
_cell_length_c 10.570979
_cell_angle_alpha 90.000000
_cell_angle_beta 161.686866
_cell_angle_gamma 90.000000
_cell_volume 823.787059
_symmetry_space_group_name_H-M "P 2/C"
_symmetry_group_IT_number 13
_symmetry_cell_setting 'monoclinic'
loop_
_space_group_symop_operation_xyz
x,y,z
-x,y,1/2-z
-x,-y,-z
x,-y,1/2+z
loop_
_atom_site_type_symbol
_atom_site_label
_atom_site_fract_x
_atom_site_fract_y
_atom_site_fract_z
Si Si1 0.667882 0.600576 0.384248
Si Si2 0.668406 0.800263 0.384522
Si Si3 0.670597 0.401506 0.392693
Si Si4 0.779660 0.200691 0.504109
Si Si5 0.332759 0.000421 0.613847
O O1 0.500000 0.602020 0.250000
O O2 0.803275 0.700520 0.589379
O O3 0.809429 0.501608 0.600685
O O4 0.487756 0.600510 0.982810
O O5 0.500000 0.799742 0.250000
O O6 0.805645 0.899659 0.593928
O O7 0.479210 0.800259 0.972868
O O8 0.500000 0.407777 0.250000
O O9 0.795599 0.300519 0.597102
O O10 0.798749 0.099323 0.597655
O O11 0.000000 0.202797 0.750000
O O12 0.500000 0.004904 0.750000
O O13 0.500000 0.000000 0.000000
#
# Coordination Sequence:
#
# PCOD9227878 Si02
#       5
#     4   4   4   4   4
#     4   8  14  26  48  70  89 118 162 196 222 273
#     4   8  15  30  50  67  88 125 165 189 222 285
#     4   9  16  27  47  73  94 121 161 197 230 282
#     4  10  19  30  47  74 102 123 153 205 252 275
#     4   9  17  31  50  71  95 127 164 195 231 289
#
# _framework density 24.278117000000002
#
# number of rings (size 3 to 8) (size 9 to 14) (size 15 to 20)
#    0.000    3.200    0.000    0.600    0.000    0.000 
#    0.000    9.000    0.000   44.400    0.000   11.200 
#    0.000    0.000    0.000    0.000    0.000    0.000 
#
# Total GULP energy -111413.400898 kJ/mol
# GULP energy per Si atom -5570.670045 kJ/mol
# Density = 2.422286 g / cm^3
# Si number density = 24.278117 Si / 1000 Ang^3
#
#
#
# Elastic Constant Matrix: (Units=GPa)
#
#
# Indices 1 2 3 4 5 6 
#
# 1 111.9841 13.3778 21.1139 0.0000 -23.3282 0.0000
# 2 13.3778 394.4319 23.5455 0.0000 12.1530 0.0000
# 3 21.1139 23.5455 66.6327 0.0000 -40.1713 0.0000
# 4 0.0000 0.0000 0.0000 -47.8286 0.0000 5.7132
# 5 -23.3282 12.1530 -40.1713 0.0000 41.8139 0.0000
# 6 0.0000 0.0000 0.0000 5.7132 0.0000 37.6321
#
#
#
# Elastic Compliance Matrix: (Units=1/GPa)
#
#
# Indices 1 2 3 4 5 6 
#
# 1 0.010252 -0.000644 0.001284 0.000000 0.007141 0.000000
# 2 -0.000644 0.002925 -0.003704 0.000000 -0.004768 0.000000
# 3 0.001284 -0.003704 0.040377 0.000000 0.040583 0.000000
# 4 0.000000 0.000000 0.000000 -0.020536 0.000000 0.003118
# 5 0.007141 -0.004768 0.040583 0.000000 0.068274 0.000000
# 6 0.000000 0.000000 0.000000 0.003118 0.000000 0.026100
#
#
# Mechanical properties :
#
#
# Convention : Reuss Voigt Hill
#
# Bulk Modulus (GPa) = 21.08609 76.56923 48.82766
# Shear Modulus (GPa) = 33.48292 40.65758 37.07025
#
# Velocity S-wave (km/s) = 3.71771 4.09670 3.91180
# Velocity P-wave (km/s) = 5.20889 7.34739 6.36854
#
# Compressibility (1/GPa) = 0.04742463
#
# Stress axis : x y z
#
# Youngs Moduli (GPa) = 97.53974 341.85799 24.76686
#
# Poissons Ratio (x) = 0.22029 -0.03180
# Poissons Ratio (y) = 0.06285 0.09174
# Poissons Ratio (z) = -0.12524 1.26632
#
# Static dielectric constant tensor:
#      x y z
#    x 1.776890 0.000000 0.022900 
#    y 0.000000 2.175860 0.000000 
#    z 0.022900 0.000000 1.800380 
# 
# From -- ./inp_files/34460.got.cif
#   From: 2010.05.17/outbox.cif.g08.bks.cpg/sg13_18_cif.got.tgz:34460.got - 2010.06.03 16:44:36.
