data_PCOD9227269
_publ_section_title
;
Structure prediction by ZEFSAII (Michael W. Deem and Ramdas Pophale) SiO2 
 PCOD9227269
Probable space group: P 2/C
;
_chemical_formula_sum "Si O2"
_cell_formula_units_Z 32
_cell_length_a 18.961270
_cell_length_b 11.380496
_cell_length_c 16.364654
_cell_angle_alpha 90.000000
_cell_angle_beta 29.863402
_cell_angle_gamma 90.000000
_cell_volume 1758.357335
_symmetry_space_group_name_H-M "P 2/C"
_symmetry_group_IT_number 13
_symmetry_cell_setting 'monoclinic'
loop_
_space_group_symop_operation_xyz
x,y,z
-x,y,1/2-z
-x,-y,-z
x,-y,1/2+z
loop_
_atom_site_type_symbol
_atom_site_label
_atom_site_fract_x
_atom_site_fract_y
_atom_site_fract_z
Si Si1 0.660551 0.174146 0.924699
Si Si2 0.654073 0.960092 0.602341
Si Si3 0.664196 0.193837 0.252681
Si Si4 0.848000 0.836613 0.864924
Si Si5 0.329496 0.463380 0.261241
Si Si6 0.849622 0.040706 0.185315
Si Si7 0.327926 0.600414 0.428044
Si Si8 0.672793 0.445100 0.913751
O O1 0.712840 0.307951 0.875462
O O2 0.753525 0.077383 0.785280
O O3 0.661023 0.121927 0.015695
O O4 0.499570 0.184421 0.052502
O O5 0.500000 0.020479 0.750000
O O6 0.662383 0.877387 0.671124
O O7 0.774218 0.056752 0.487099
O O8 0.708448 0.327101 0.190980
O O9 0.770100 0.132126 0.207475
O O10 0.860684 0.892289 0.761306
O O11 0.000000 0.808930 0.750000
O O12 0.747455 0.723367 0.975504
O O13 0.286260 0.543703 0.381909
O O14 0.278963 0.505346 0.222650
O O15 0.501510 0.459716 0.086608
O O16 0.000000 0.000000 0.000000
O O17 0.500000 0.613246 0.250000
O O18 0.285889 0.513774 0.545280
#
# Coordination Sequence:
#
# PCOD9227269 Si02
#       8
#     4   4   4   4   4   4   4   4
#     4   9  19  34  56  82 109 140 176 222 275 331
#     4   9  18  33  55  80 104 135 175 221 272 325
#     4  10  18  34  57  82 109 137 178 225 272 331
#     4  11  23  38  53  75 110 146 183 228 277 330
#     4   9  18  30  53  83 109 140 174 217 276 327
#     4  11  23  37  54  79 109 147 188 230 280 328
#     4  10  20  36  59  84 111 144 183 229 281 338
#     4   9  17  32  52  81 113 137 173 223 269 327
#
# _framework density 18.198803000000002
#
# number of rings (size 3 to 8) (size 9 to 14) (size 15 to 20)
#    0.000    2.250    0.000    3.000    0.000    6.000 
#    0.000    1.250    0.000    4.500    0.000    0.000 
#    0.000    0.000    0.000    0.000    0.000    0.000 
#
# Total GULP energy -178338.297920 kJ/mol
# GULP energy per Si atom -5573.071810 kJ/mol
# Density = 1.815738 g / cm^3
# Si number density = 18.198803 Si / 1000 Ang^3
#
#
#
# Elastic Constant Matrix: (Units=GPa)
#
#
# Indices 1 2 3 4 5 6 
#
# 1 50.1935 39.9071 33.7137 0.0000 3.5418 0.0000
# 2 39.9071 136.2544 55.7762 0.0000 6.7053 0.0000
# 3 33.7137 55.7762 72.0274 0.0000 8.2860 0.0000
# 4 0.0000 0.0000 0.0000 7.0975 0.0000 8.4972
# 5 3.5418 6.7053 8.2860 0.0000 21.9017 0.0000
# 6 0.0000 0.0000 0.0000 8.4972 0.0000 -42.3202
#
#
#
# Elastic Compliance Matrix: (Units=1/GPa)
#
#
# Indices 1 2 3 4 5 6 
#
# 1 0.030902 -0.004584 -0.010979 0.000000 0.000560 0.000000
# 2 -0.004584 0.011426 -0.006676 0.000000 -0.000231 0.000000
# 3 -0.010979 -0.006676 0.024833 0.000000 -0.005576 0.000000
# 4 0.000000 0.000000 0.000000 0.113590 0.000000 0.022807
# 5 0.000560 -0.000231 -0.005576 0.000000 0.047748 0.000000
# 6 0.000000 0.000000 0.000000 0.022807 0.000000 -0.019050
#
#
# Mechanical properties :
#
#
# Convention : Reuss Voigt Hill
#
# Bulk Modulus (GPa) = 44.08353 57.47434 50.77893
# Shear Modulus (GPa) = 19.12128 5.94103 12.53115
#
# Velocity S-wave (km/s) = 3.24495 1.80876 2.62691
# Velocity P-wave (km/s) = 6.18995 6.00101 6.09621
#
# Compressibility (1/GPa) = 0.02268421
#
# Stress axis : x y z
#
# Youngs Moduli (GPa) = 32.35999 87.52018 40.26840
#
# Poissons Ratio (x) = 0.40121 0.44210
# Poissons Ratio (y) = 0.14834 0.26882
# Poissons Ratio (z) = 0.35528 0.58425
#
# Static dielectric constant tensor:
#      x y z
#    x 1.640240 0.000000 0.046730 
#    y 0.000000 1.617440 0.000000 
#    z 0.046730 0.000000 1.718400 
# 
# From -- ./inp_files/55776.got.cif
#   From: 2010.05.17/outbox.cif.g08.bks.cpg/sg13_28_cif.got.tgz:55776.got - 2010.06.03 16:44:36.
