data_PCOD9227724
_publ_section_title
;
Structure prediction by ZEFSAII (Michael W. Deem and Ramdas Pophale) SiO2 
 PCOD9227724
Probable space group: P 2/C
;
_chemical_formula_sum "Si O2"
_cell_formula_units_Z 16
_cell_length_a 8.776711
_cell_length_b 12.138538
_cell_length_c 8.298337
_cell_angle_alpha 90.000000
_cell_angle_beta 126.996448
_cell_angle_gamma 90.000000
_cell_volume 706.086896
_symmetry_space_group_name_H-M "P 2/C"
_symmetry_group_IT_number 13
_symmetry_cell_setting 'monoclinic'
loop_
_space_group_symop_operation_xyz
x,y,z
-x,y,1/2-z
-x,-y,-z
x,-y,1/2+z
loop_
_atom_site_type_symbol
_atom_site_label
_atom_site_fract_x
_atom_site_fract_y
_atom_site_fract_z
Si Si1 0.720633 0.090640 0.401769
Si Si2 0.500000 0.302347 0.750000
Si Si3 0.076138 0.382894 0.484432
Si Si4 0.361296 0.101808 0.470270
Si Si5 0.000000 0.765639 0.250000
O O1 0.500000 0.129694 0.250000
O O2 0.790502 0.117352 0.267402
O O3 0.823600 0.154005 0.607216
O O4 0.730032 0.959689 0.435828
O O5 0.307226 0.373173 0.633453
O O6 0.460352 0.214766 0.580641
O O7 0.000000 0.500000 0.500000
O O8 0.016909 0.302065 0.594609
O O9 0.000000 0.364025 0.250000
O O10 0.500000 0.000000 0.500000
#
# Coordination Sequence:
#
# PCOD9227724 Si02
#       5
#     4   2   4   4   2
#     4  10  21  38  63 101 143 190 229 279 350 439
#     4  12  24  46  80 102 152 204 230 312 378 420
#     4  12  28  53  75 109 141 188 262 313 371 442
#     4  10  18  38  66 103 147 188 233 273 358 448
#     4  12  26  46  74 104 150 190 242 310 364 430
#
# _framework density 22.660101000000001
#
# number of rings (size 3 to 8) (size 9 to 14) (size 15 to 20)
#    0.000    1.000    5.000    4.500    0.000    2.000 
#    4.500    0.000    0.000    0.000    0.000    0.000 
#    0.000    0.000    0.000    0.000    0.000    0.000 
#
# Total GULP energy -89114.799025 kJ/mol
# GULP energy per Si atom -5569.674939 kJ/mol
# Density = 2.260853 g / cm^3
# Si number density = 22.660101 Si / 1000 Ang^3
#
#
#
# Elastic Constant Matrix: (Units=GPa)
#
#
# Indices 1 2 3 4 5 6 
#
# 1 90.1198 48.3620 64.6174 0.0000 9.1329 0.0000
# 2 48.3620 114.0892 78.2698 0.0000 16.2084 0.0000
# 3 64.6174 78.2698 181.2907 0.0000 -17.1173 0.0000
# 4 0.0000 0.0000 0.0000 42.7759 0.0000 -1.6996
# 5 9.1329 16.2084 -17.1173 0.0000 51.5561 0.0000
# 6 0.0000 0.0000 0.0000 -1.6996 0.0000 30.4897
#
#
#
# Elastic Compliance Matrix: (Units=1/GPa)
#
#
# Indices 1 2 3 4 5 6 
#
# 1 0.016696 -0.003203 -0.004906 0.000000 -0.003579 0.000000
# 2 -0.003203 0.015077 -0.005948 0.000000 -0.006147 0.000000
# 3 -0.004906 -0.005948 0.010418 0.000000 0.006198 0.000000
# 4 0.000000 0.000000 0.000000 0.023430 0.000000 0.001306
# 5 -0.003579 -0.006147 0.006198 0.000000 0.024021 0.000000
# 6 0.000000 0.000000 0.000000 0.001306 0.000000 0.032871
#
#
# Mechanical properties :
#
#
# Convention : Reuss Voigt Hill
#
# Bulk Modulus (GPa) = 71.04143 85.33311 78.18727
# Shear Modulus (GPa) = 32.19229 37.91438 35.05333
#
# Velocity S-wave (km/s) = 3.77325 4.09489 3.93736
# Velocity P-wave (km/s) = 7.09945 7.75223 7.43301
#
# Compressibility (1/GPa) = 0.01407629
#
# Stress axis : x y z
#
# Youngs Moduli (GPa) = 59.89609 66.32774 95.99039
#
# Poissons Ratio (x) = 0.21245 0.47092
# Poissons Ratio (y) = 0.19185 0.57094
# Poissons Ratio (z) = 0.29384 0.39451
#
# Static dielectric constant tensor:
#      x y z
#    x 2.258260 0.000000 -0.199890 
#    y 0.000000 1.836520 0.000000 
#    z -0.199890 0.000000 2.051710 
# 
# From -- ./inp_files/12008.got.cif
#   From: 2010.05.17/outbox.cif.g08.bks.cpg/sg13_7_cif.got.tgz:12008.got - 2010.06.03 16:44:36.
