data_PCOD9227230
_publ_section_title
;
Structure prediction by ZEFSAII (Michael W. Deem and Ramdas Pophale) SiO2 
 PCOD9227230
Probable space group: P 2/C
;
_chemical_formula_sum "Si O2"
_cell_formula_units_Z 26
_cell_length_a 8.926716
_cell_length_b 14.349618
_cell_length_c 11.271921
_cell_angle_alpha 90.000000
_cell_angle_beta 96.474481
_cell_angle_gamma 90.000000
_cell_volume 1434.667533
_symmetry_space_group_name_H-M "P 2/C"
_symmetry_group_IT_number 13
_symmetry_cell_setting 'monoclinic'
loop_
_space_group_symop_operation_xyz
x,y,z
-x,y,1/2-z
-x,-y,-z
x,-y,1/2+z
loop_
_atom_site_type_symbol
_atom_site_label
_atom_site_fract_x
_atom_site_fract_y
_atom_site_fract_z
Si Si1 0.500000 0.785447 0.750000
Si Si2 0.153297 0.765792 0.420558
Si Si3 0.815336 0.269517 0.854145
Si Si4 0.582663 0.885643 0.386014
Si Si5 0.327260 0.909367 0.566525
Si Si6 0.620240 0.557811 0.364086
Si Si7 0.579631 0.641061 0.945775
O O1 0.368986 0.853867 0.691069
O O2 0.486902 0.713433 0.857117
O O3 0.176693 0.767071 0.280959
O O4 0.185508 0.863302 0.489132
O O5 0.280849 0.695891 0.482712
O O6 0.980842 0.737197 0.424347
O O7 0.690489 0.203698 0.903803
O O8 0.760954 0.376188 0.850325
O O9 0.500000 0.883205 0.250000
O O10 0.461595 0.890426 0.482178
O O11 0.675623 0.981719 0.405555
O O12 0.500000 0.571300 0.250000
O O13 0.536741 0.597976 0.471896
O O14 0.646267 0.447820 0.381285
#
# Coordination Sequence:
#
# PCOD9227230 Si02
#       7
#     2   4   4   4   4   4   4
#     4  10  18  34  52  86 104 138 170 236 260 328
#     4  10  21  36  54  82 108 155 170 228 273 332
#     4  11  21  35  56  78 119 138 187 217 277 330
#     4  11  20  36  57  85 105 146 182 237 262 324
#     4  10  21  35  59  80 112 139 189 222 283 305
#     4  11  20  36  57  85 105 146 182 237 262 324
#     4  10  21  35  59  80 112 139 189 222 283 305
#
# _framework density 18.122665000000001
#
# number of rings (size 3 to 8) (size 9 to 14) (size 15 to 20)
#    0.000    1.538    4.615    2.308    0.000    1.231 
#    0.000    0.000    0.000   14.769    0.000    0.000 
#    0.000    0.000    0.000    0.000    0.000    0.000 
#
# Total GULP energy -144927.350217 kJ/mol
# GULP energy per Si atom -5574.128855 kJ/mol
# Density = 1.808142 g / cm^3
# Si number density = 18.122665 Si / 1000 Ang^3
#
#
#
# Elastic Constant Matrix: (Units=GPa)
#
#
# Indices 1 2 3 4 5 6 
#
# 1 50.1755 9.4817 10.3833 0.0000 16.8471 0.0000
# 2 9.4817 92.2980 12.2671 0.0000 7.5532 0.0000
# 3 10.3833 12.2671 56.8587 0.0000 13.3956 0.0000
# 4 0.0000 0.0000 0.0000 29.8670 0.0000 -1.7907
# 5 16.8471 7.5532 13.3956 0.0000 18.1534 0.0000
# 6 0.0000 0.0000 0.0000 -1.7907 0.0000 13.7698
#
#
#
# Elastic Compliance Matrix: (Units=1/GPa)
#
#
# Indices 1 2 3 4 5 6 
#
# 1 0.029100 -0.000912 0.001399 0.000000 -0.027658 0.000000
# 2 -0.000912 0.011366 -0.001659 0.000000 -0.002658 0.000000
# 3 0.001399 -0.001659 0.021586 0.000000 -0.016536 0.000000
# 4 0.000000 0.000000 0.000000 0.033745 0.000000 0.004388
# 5 -0.027658 -0.002658 -0.016536 0.000000 0.094062 0.000000
# 6 0.000000 0.000000 0.000000 0.004388 0.000000 0.073193
#
#
# Mechanical properties :
#
#
# Convention : Reuss Voigt Hill
#
# Bulk Modulus (GPa) = 16.74850 29.28850 23.01850
# Shear Modulus (GPa) = 17.52545 23.50472 20.51508
#
# Velocity S-wave (km/s) = 3.11311 3.60527 3.36819
# Velocity P-wave (km/s) = 4.70996 5.79024 5.27782
#
# Compressibility (1/GPa) = 0.05970683
#
# Stress axis : x y z
#
# Youngs Moduli (GPa) = 34.36474 87.97982 46.32668
#
# Poissons Ratio (x) = 0.08023 -0.06480
# Poissons Ratio (y) = 0.03134 0.07687
# Poissons Ratio (z) = -0.04807 0.14599
#
# Static dielectric constant tensor:
#      x y z
#    x 1.603650 0.000000 -0.019510 
#    y 0.000000 1.652840 0.000000 
#    z -0.019510 0.000000 1.640980 
# 
# From -- ./inp_files/29931.got.cif
#   From: 2010.05.17/outbox.cif.g08.bks.cpg/sg13_15_cif.got.tgz:29931.got - 2010.06.03 16:44:36.
