data_PCOD9227501
_publ_section_title
;
Structure prediction by ZEFSAII (Michael W. Deem and Ramdas Pophale) SiO2 
 PCOD9227501
Probable space group: P 2/C
;
_chemical_formula_sum "Si O2"
_cell_formula_units_Z 18
_cell_length_a 5.170857
_cell_length_b 12.498342
_cell_length_c 11.418058
_cell_angle_alpha 90.000000
_cell_angle_beta 112.826485
_cell_angle_gamma 90.000000
_cell_volume 680.125705
_symmetry_space_group_name_H-M "P 2/C"
_symmetry_group_IT_number 13
_symmetry_cell_setting 'monoclinic'
loop_
_space_group_symop_operation_xyz
x,y,z
-x,y,1/2-z
-x,-y,-z
x,-y,1/2+z
loop_
_atom_site_type_symbol
_atom_site_label
_atom_site_fract_x
_atom_site_fract_y
_atom_site_fract_z
Si Si1 0.397195 0.422124 0.086051
Si Si2 0.203906 0.360249 0.610939
Si Si3 0.708357 0.771690 0.598661
Si Si4 0.854094 0.884662 0.974012
Si Si5 0.000000 0.217863 0.750000
O O1 0.635451 0.335018 0.162469
O O2 0.121694 0.360763 0.991495
O O3 0.500000 0.500000 0.000000
O O4 0.270245 0.515652 0.144588
O O5 0.344837 0.288014 0.535438
O O6 0.222506 0.300305 0.735944
O O7 0.479087 0.861630 0.590606
O O8 0.004018 0.826233 0.615806
O O9 0.922667 0.847011 0.120119
O O10 0.000000 0.000000 0.000000
#
# Coordination Sequence:
#
# PCOD9227501 Si02
#       5
#     4   4   4   4   2
#     4   9  16  31  54  86 117 150 182 228 301 356
#     4   9  18  31  55  90 116 147 185 239 293 358
#     4  10  18  36  56  82 116 155 195 239 298 353
#     4  11  23  37  58  89 115 159 207 255 298 334
#     4  10  20  38  60  90 118 150 204 252 284 358
#
# _framework density 26.465695
#
# number of rings (size 3 to 8) (size 9 to 14) (size 15 to 20)
#    0.000    2.222    4.444    0.667    0.000    3.556 
#    0.000    0.000    0.000    1.333   17.333    0.000 
#    0.000    0.000    0.000    0.000    0.000    0.000 
#
# Total GULP energy -100213.844083 kJ/mol
# GULP energy per Si atom -5567.435782 kJ/mol
# Density = 2.640546 g / cm^3
# Si number density = 26.465695 Si / 1000 Ang^3
#
#
#
# Elastic Constant Matrix: (Units=GPa)
#
#
# Indices 1 2 3 4 5 6 
#
# 1 183.2441 46.8037 23.1038 0.0000 -17.3431 0.0000
# 2 46.8037 139.2804 7.0848 0.0000 -23.3899 0.0000
# 3 23.1038 7.0848 66.1650 0.0000 -17.2368 0.0000
# 4 0.0000 0.0000 0.0000 200.3304 0.0000 -5.2155
# 5 -17.3431 -23.3899 -17.2368 0.0000 51.0577 0.0000
# 6 0.0000 0.0000 0.0000 -5.2155 0.0000 55.1336
#
#
#
# Elastic Compliance Matrix: (Units=1/GPa)
#
#
# Indices 1 2 3 4 5 6 
#
# 1 0.006229 -0.001894 -0.001806 0.000000 0.000638 0.000000
# 2 -0.001894 0.008355 0.000654 0.000000 0.003405 0.000000
# 3 -0.001806 0.000654 0.017096 0.000000 0.005458 0.000000
# 4 0.000000 0.000000 0.000000 0.005004 0.000000 0.000473
# 5 0.000638 0.003405 0.005458 0.000000 0.023205 0.000000
# 6 0.000000 0.000000 0.000000 0.000473 0.000000 0.018183
#
#
# Mechanical properties :
#
#
# Convention : Reuss Voigt Hill
#
# Bulk Modulus (GPa) = 39.08187 60.29712 49.68950
# Shear Modulus (GPa) = 53.94141 82.08415 68.01278
#
# Velocity S-wave (km/s) = 4.51950 5.57518 5.07487
# Velocity P-wave (km/s) = 6.48333 8.01724 7.29074
#
# Compressibility (1/GPa) = 0.02558731
#
# Stress axis : x y z
#
# Youngs Moduli (GPa) = 160.53607 119.69200 58.49286
#
# Poissons Ratio (x) = 0.22671 0.10564
# Poissons Ratio (y) = 0.30408 -0.03824
# Poissons Ratio (z) = 0.28992 -0.07825
#
# Static dielectric constant tensor:
#      x y z
#    x 2.395060 0.000000 -0.054320 
#    y 0.000000 2.164170 0.000000 
#    z -0.054320 0.000000 2.268830 
# 
# From -- ./inp_files/60850.got.cif
#   From: 2010.05.17/outbox.cif.g08.bks.cpg/sg13_31_cif.got.tgz:60850.got - 2010.06.03 16:44:36.
