data_PCOD9227309
_publ_section_title
;
Structure prediction by ZEFSAII (Michael W. Deem and Ramdas Pophale) SiO2 
 PCOD9227309
Probable space group: P 2/C
;
_chemical_formula_sum "Si O2"
_cell_formula_units_Z 32
_cell_length_a 17.041290
_cell_length_b 8.211705
_cell_length_c 22.798634
_cell_angle_alpha 90.000000
_cell_angle_beta 30.002783
_cell_angle_gamma 90.000000
_cell_volume 1595.332352
_symmetry_space_group_name_H-M "P 2/C"
_symmetry_group_IT_number 13
_symmetry_cell_setting 'monoclinic'
loop_
_space_group_symop_operation_xyz
x,y,z
-x,y,1/2-z
-x,-y,-z
x,-y,1/2+z
loop_
_atom_site_type_symbol
_atom_site_label
_atom_site_fract_x
_atom_site_fract_y
_atom_site_fract_z
Si Si1 0.422339 0.225679 0.436029
Si Si2 0.534577 0.853417 0.092530
Si Si3 0.332995 0.246333 0.880613
Si Si4 0.254522 0.608151 0.934990
Si Si5 0.776933 0.251300 0.169194
Si Si6 0.395663 0.656498 0.079911
Si Si7 0.816790 0.113160 0.626923
Si Si8 0.901446 0.580331 0.146040
O O1 0.345876 0.321433 0.431366
O O2 0.611114 0.250073 0.311158
O O3 0.355823 0.276753 0.541795
O O4 0.397779 0.033474 0.447747
O O5 0.649443 0.752107 0.060643
O O6 0.502270 0.779684 0.049625
O O7 0.360171 0.860960 0.233185
O O8 0.500000 0.180359 0.750000
O O9 0.317154 0.433602 0.872757
O O10 0.202713 0.143683 0.930268
O O11 0.267319 0.724299 0.870392
O O12 0.070719 0.579090 0.066802
O O13 0.868706 0.410253 0.133442
O O14 0.856680 0.071745 0.120147
O O15 0.241808 0.611710 0.216887
O O16 0.500000 0.500000 0.000000
O O17 0.905700 0.264070 0.599344
#
# Coordination Sequence:
#
# PCOD9227309 Si02
#       8
#     4   4   4   4   4   4   4   4
#     4  11  22  39  63  92 117 158 210 251 298 362
#     4   9  20  36  60  93 115 151 206 259 294 351
#     4  10  18  34  58  89 125 157 201 248 304 359
#     4  12  24  36  61  91 127 162 192 253 313 365
#     4  11  21  40  64  90 119 160 209 243 303 369
#     4  11  21  40  67  84 115 160 208 253 297 352
#     4   9  20  36  61  86 122 161 196 253 298 359
#     4  11  24  42  57  92 126 159 203 248 311 363
#
# _framework density 20.058516999999998
#
# number of rings (size 3 to 8) (size 9 to 14) (size 15 to 20)
#    0.000    1.500    2.500    3.375    1.750    3.000 
#    2.250    0.000    0.000    1.500    0.000    0.000 
#    0.000    0.000    0.000    0.000    0.000    0.000 
#
# Total GULP energy -178595.876620 kJ/mol
# GULP energy per Si atom -5581.121144 kJ/mol
# Density = 2.001286 g / cm^3
# Si number density = 20.058517 Si / 1000 Ang^3
#
#
#
# Elastic Constant Matrix: (Units=GPa)
#
#
# Indices 1 2 3 4 5 6 
#
# 1 76.6776 23.3298 17.2892 0.0000 1.5698 0.0000
# 2 23.3298 102.0612 11.2266 0.0000 -9.5053 0.0000
# 3 17.2892 11.2266 69.4358 0.0000 2.2372 0.0000
# 4 0.0000 0.0000 0.0000 29.2787 0.0000 -0.3862
# 5 1.5698 -9.5053 2.2372 0.0000 32.9839 0.0000
# 6 0.0000 0.0000 0.0000 -0.3862 0.0000 31.8764
#
#
#
# Elastic Compliance Matrix: (Units=1/GPa)
#
#
# Indices 1 2 3 4 5 6 
#
# 1 0.014732 -0.003155 -0.003113 0.000000 -0.001399 0.000000
# 2 -0.003155 0.010955 -0.001094 0.000000 0.003381 0.000000
# 3 -0.003113 -0.001094 0.015393 0.000000 -0.001211 0.000000
# 4 0.000000 0.000000 0.000000 0.034160 0.000000 0.000414
# 5 -0.001399 0.003381 -0.001211 0.000000 0.031441 0.000000
# 6 0.000000 0.000000 0.000000 0.000414 0.000000 0.031376
#
#
# Mechanical properties :
#
#
# Convention : Reuss Voigt Hill
#
# Bulk Modulus (GPa) = 37.94492 39.09619 38.52055
# Shear Modulus (GPa) = 30.94684 31.91642 31.43163
#
# Velocity S-wave (km/s) = 3.93215 3.99327 3.96283
# Velocity P-wave (km/s) = 6.29078 6.38709 6.33912
#
# Compressibility (1/GPa) = 0.02635399
#
# Stress axis : x y z
#
# Youngs Moduli (GPa) = 67.87825 91.28545 64.96507
#
# Poissons Ratio (x) = 0.28805 0.20223
# Poissons Ratio (y) = 0.21419 0.07110
# Poissons Ratio (z) = 0.21130 0.09991
#
# Static dielectric constant tensor:
#      x y z
#    x 1.912830 0.000000 0.021850 
#    y 0.000000 1.957810 0.000000 
#    z 0.021850 0.000000 1.738760 
# 
# From -- ./inp_files/79801.got.cif
#   From: 2010.05.17/outbox.cif.g08.bks.cpg/sg13_40_cif.got.tgz:79801.got - 2010.06.03 16:44:36.
