data_PCOD9227904
_publ_section_title
;
Structure prediction by ZEFSAII (Michael W. Deem and Ramdas Pophale) SiO2 
 PCOD9227904
Probable space group: P 2/C
;
_chemical_formula_sum "Si O2"
_cell_formula_units_Z 18
_cell_length_a 10.580420
_cell_length_b 15.861642
_cell_length_c 5.280581
_cell_angle_alpha 90.000000
_cell_angle_beta 93.095138
_cell_angle_gamma 90.000000
_cell_volume 884.909328
_symmetry_space_group_name_H-M "P 2/C"
_symmetry_group_IT_number 13
_symmetry_cell_setting 'monoclinic'
loop_
_space_group_symop_operation_xyz
x,y,z
-x,y,1/2-z
-x,-y,-z
x,-y,1/2+z
loop_
_atom_site_type_symbol
_atom_site_label
_atom_site_fract_x
_atom_site_fract_y
_atom_site_fract_z
Si Si1 0.730699 0.310936 0.280895
Si Si2 0.141611 0.535270 0.550101
Si Si3 0.643698 0.033216 0.961442
Si Si4 0.647418 0.224967 0.771283
Si Si5 0.500000 0.442757 0.250000
O O1 0.851136 0.368334 0.363136
O O2 0.703257 0.243899 0.500390
O O3 0.619136 0.380077 0.278672
O O4 0.723780 0.272121 0.001365
O O5 0.201792 0.479222 0.780998
O O6 0.000000 0.500000 0.500000
O O7 0.702637 0.024064 0.246286
O O8 0.644467 0.127326 0.854130
O O9 0.500000 0.000000 0.000000
O O10 0.500000 0.253638 0.750000
O O11 0.500000 0.500000 0.500000
#
# Coordination Sequence:
#
# PCOD9227904 Si02
#       5
#     4   4   4   4   2
#     4  12  23  35  51  76 110 141 186 239 280 323
#     4  10  21  40  62  78  98 140 190 239 294 339
#     4  10  19  30  50  69 100 151 206 212 246 324
#     4  12  21  34  49  76 111 152 189 224 273 319
#     4  12  22  32  46  66 100 140 176 214 264 332
#
# _framework density 20.341068
#
# number of rings (size 3 to 8) (size 9 to 14) (size 15 to 20)
#    0.000    0.889    4.444    5.333    3.111    0.000 
#    0.000    0.000    0.000    0.000    0.000    0.000 
#    0.000    0.000    0.000  280.000    0.000   15.556 
#
# Total GULP energy -100449.530860 kJ/mol
# GULP energy per Si atom -5580.529492 kJ/mol
# Density = 2.029477 g / cm^3
# Si number density = 20.341068 Si / 1000 Ang^3
#
#
#
# Elastic Constant Matrix: (Units=GPa)
#
#
# Indices 1 2 3 4 5 6 
#
# 1 42.3986 17.0633 1.8699 0.0000 5.7165 0.0000
# 2 17.0633 102.1795 35.0960 0.0000 7.2517 0.0000
# 3 1.8699 35.0960 182.1906 0.0000 10.6510 0.0000
# 4 0.0000 0.0000 0.0000 49.5169 0.0000 -2.6114
# 5 5.7165 7.2517 10.6510 0.0000 12.5181 0.0000
# 6 0.0000 0.0000 0.0000 -2.6114 0.0000 16.7908
#
#
#
# Elastic Compliance Matrix: (Units=1/GPa)
#
#
# Indices 1 2 3 4 5 6 
#
# 1 0.026627 -0.004074 0.001141 0.000000 -0.010770 0.000000
# 2 -0.004074 0.011359 -0.001968 0.000000 -0.003045 0.000000
# 3 0.001141 -0.001968 0.006125 0.000000 -0.004592 0.000000
# 4 0.000000 0.000000 0.000000 0.020362 0.000000 0.003167
# 5 -0.010770 -0.003045 -0.004592 0.000000 0.090474 0.000000
# 6 0.000000 0.000000 0.000000 0.003167 0.000000 0.060049
#
#
# Mechanical properties :
#
#
# Convention : Reuss Voigt Hill
#
# Bulk Modulus (GPa) = 29.14733 48.31412 38.73073
# Shear Modulus (GPa) = 21.16537 33.94779 27.55658
#
# Velocity S-wave (km/s) = 3.22921 4.08968 3.68465
# Velocity P-wave (km/s) = 5.31641 6.79001 6.09789
#
# Compressibility (1/GPa) = 0.03430845
#
# Stress axis : x y z
#
# Youngs Moduli (GPa) = 37.55566 88.03409 163.27422
#
# Poissons Ratio (x) = 0.35866 -0.18632
# Poissons Ratio (y) = 0.15301 0.32138
# Poissons Ratio (z) = -0.04286 0.17328
#
# Static dielectric constant tensor:
#      x y z
#    x 3.592720 0.000000 -0.835100 
#    y 0.000000 1.748770 0.000000 
#    z -0.835100 0.000000 2.304550 
# 
# From -- ./inp_files/3162.got.cif
#   From: 2010.05.17/outbox.cif.g08.bks.cpg/sg13_2_cif.got.tgz:3162.got - 2010.06.03 16:44:36.
