data_PCOD9227948
_publ_section_title
;
Structure prediction by ZEFSAII (Michael W. Deem and Ramdas Pophale) SiO2 
 PCOD9227948
Probable space group: P 2/C
;
_chemical_formula_sum "Si O2"
_cell_formula_units_Z 32
_cell_length_a 10.869352
_cell_length_b 5.666906
_cell_length_c 29.515315
_cell_angle_alpha 90.000000
_cell_angle_beta 143.127825
_cell_angle_gamma 90.000000
_cell_volume 1090.865860
_symmetry_space_group_name_H-M "P 2/C"
_symmetry_group_IT_number 13
_symmetry_cell_setting 'monoclinic'
loop_
_space_group_symop_operation_xyz
x,y,z
-x,y,1/2-z
-x,-y,-z
x,-y,1/2+z
loop_
_atom_site_type_symbol
_atom_site_label
_atom_site_fract_x
_atom_site_fract_y
_atom_site_fract_z
Si Si1 0.075263 0.393302 0.941628
Si Si2 0.436935 0.201597 0.680352
Si Si3 0.567164 0.932157 0.070454
Si Si4 0.109532 0.115301 0.462471
Si Si5 0.458286 0.422248 0.414032
Si Si6 0.888411 0.693445 0.287429
Si Si7 0.075097 0.800510 0.693206
Si Si8 0.552676 0.699593 0.839070
O O1 0.053063 0.629448 0.964801
O O2 0.949187 0.352435 0.858054
O O3 0.041185 0.144663 0.956435
O O4 0.315802 0.410445 0.995479
O O5 0.500000 0.148720 0.750000
O O6 0.645842 0.254900 0.714184
O O7 0.349441 0.469465 0.655974
O O8 0.341661 0.955450 0.634913
O O9 0.647859 0.666679 0.102143
O O10 0.664969 0.181496 0.113115
O O11 0.355075 0.906161 0.035920
O O12 0.500000 0.000000 0.000000
O O13 0.039703 0.163124 0.389081
O O14 0.527591 0.382967 0.383029
O O15 0.951024 0.441168 0.286662
O O16 0.967667 0.948030 0.296083
O O17 0.320118 0.763369 0.753519
#
# Coordination Sequence:
#
# PCOD9227948 Si02
#       8
#     4   4   4   4   4   4   4   4
#     4   8  14  25  42  63  86 113 150 190 221 258
#     4  10  19  31  48  69  94 122 154 194 237 281
#     4  10  19  31  48  71  96 123 154 191 233 277
#     4   8  14  25  42  64  86 112 150 190 220 256
#     4  10  19  31  48  70  96 123 153 192 235 278
#     4   8  14  25  42  63  85 112 151 191 221 259
#     4   8  14  25  42  64  85 111 151 191 220 257
#     4  10  19  31  48  70  94 122 155 193 236 280
#
# _framework density 29.334496999999999
#
# number of rings (size 3 to 8) (size 9 to 14) (size 15 to 20)
#    0.000    3.000    0.000    1.500    0.000    0.000 
#    0.000    0.000    0.000    2.250    0.000    1.750 
#    0.000    0.000    0.000    0.000    0.000    0.000 
#
# Total GULP energy -178646.596324 kJ/mol
# GULP energy per Si atom -5582.706135 kJ/mol
# Density = 2.926773 g / cm^3
# Si number density = 29.334497 Si / 1000 Ang^3
#
#
#
# Elastic Constant Matrix: (Units=GPa)
#
#
# Indices 1 2 3 4 5 6 
#
# 1 58.3730 64.5834 23.3352 0.0000 -1.4378 0.0000
# 2 64.5834 465.4601 33.3115 0.0000 -6.1765 0.0000
# 3 23.3352 33.3115 56.7386 0.0000 -7.5432 0.0000
# 4 0.0000 0.0000 0.0000 31.7066 0.0000 1.2005
# 5 -1.4378 -6.1765 -7.5432 0.0000 52.7439 0.0000
# 6 0.0000 0.0000 0.0000 1.2005 0.0000 44.8157
#
#
#
# Elastic Compliance Matrix: (Units=1/GPa)
#
#
# Indices 1 2 3 4 5 6 
#
# 1 0.023309 -0.002663 -0.008134 0.000000 -0.000840 0.000000
# 2 -0.002663 0.002547 -0.000377 0.000000 0.000172 0.000000
# 3 -0.008134 -0.000377 0.021566 0.000000 0.002818 0.000000
# 4 0.000000 0.000000 0.000000 0.031571 0.000000 -0.000846
# 5 -0.000840 0.000172 0.002818 0.000000 0.019360 0.000000
# 6 0.000000 0.000000 0.000000 -0.000846 0.000000 0.022336
#
#
# Mechanical properties :
#
#
# Convention : Reuss Voigt Hill
#
# Bulk Modulus (GPa) = 39.88423 91.44798 65.66611
# Shear Modulus (GPa) = 33.02571 56.47602 44.75086
#
# Velocity S-wave (km/s) = 3.35898 4.39252 3.91005
# Velocity P-wave (km/s) = 5.35440 7.54768 6.54359
#
# Compressibility (1/GPa) = 0.02507256
#
# Stress axis : x y z
#
# Youngs Moduli (GPa) = 42.90223 392.58623 46.36832
#
# Poissons Ratio (x) = 1.04551 0.37718
# Poissons Ratio (y) = 0.11425 0.01750
# Poissons Ratio (z) = 0.34899 0.14815
#
# Static dielectric constant tensor:
#      x y z
#    x 1.991470 0.000000 -0.348020 
#    y 0.000000 2.663580 0.000000 
#    z -0.348020 0.000000 1.547600 
# 
# From -- ./inp_files/79341.got.cif
#   From: 2010.05.17/outbox.cif.g08.bks.cpg/sg13_40_cif.got.tgz:79341.got - 2010.06.03 16:44:36.
