data_PCOD9227207
_publ_section_title
;
Structure prediction by ZEFSAII (Michael W. Deem and Ramdas Pophale) SiO2 
 PCOD9227207
Probable space group: P 2/C
;
_chemical_formula_sum "Si O2"
_cell_formula_units_Z 32
_cell_length_a 13.031532
_cell_length_b 20.582490
_cell_length_c 8.972118
_cell_angle_alpha 90.000000
_cell_angle_beta 136.758712
_cell_angle_gamma 90.000000
_cell_volume 1648.635810
_symmetry_space_group_name_H-M "P 2/C"
_symmetry_group_IT_number 13
_symmetry_cell_setting 'monoclinic'
loop_
_space_group_symop_operation_xyz
x,y,z
-x,y,1/2-z
-x,-y,-z
x,-y,1/2+z
loop_
_atom_site_type_symbol
_atom_site_label
_atom_site_fract_x
_atom_site_fract_y
_atom_site_fract_z
Si Si1 0.829021 0.327087 0.275730
Si Si2 0.461959 0.700406 0.883714
Si Si3 0.641207 0.610804 0.302542
Si Si4 0.839444 0.956004 0.663264
Si Si5 0.154623 0.188614 0.332309
Si Si6 0.058877 0.437180 0.479102
Si Si7 0.348253 0.041038 0.827369
Si Si8 0.576713 0.176478 0.675622
O O1 0.703709 0.329427 0.270917
O O2 0.861118 0.251030 0.287719
O O3 0.974926 0.372034 0.450558
O O4 0.741859 0.351028 0.032740
O O5 0.500000 0.704892 0.750000
O O6 0.570586 0.656029 0.100096
O O7 0.479270 0.769938 0.986736
O O8 0.500000 0.583578 0.250000
O O9 0.761603 0.566101 0.345233
O O10 0.820030 0.883102 0.711006
O O11 0.712970 0.960053 0.404018
O O12 0.000000 0.963789 0.750000
O O13 0.788810 0.011508 0.723105
O O14 0.271360 0.203542 0.589711
O O15 0.000000 0.179444 0.250000
O O16 0.000000 0.442999 0.250000
O O17 0.000000 0.500000 0.500000
O O18 0.387231 0.116499 0.893546
O O19 0.500000 0.000000 0.000000
O O20 0.500000 0.154701 0.750000
#
# Coordination Sequence:
#
# PCOD9227207 Si02
#       8
#     4   4   4   4   4   4   4   4
#     4  10  19  37  62  86 117 159 199 240 291 360
#     4  11  22  35  56  88 121 153 194 254 311 341
#     4   9  18  38  63  87 118 159 202 237 285 356
#     4  10  22  38  57  82 119 157 202 257 317 371
#     4  10  18  33  63  88 103 150 211 249 288 363
#     4  10  22  39  64  95 127 161 200 241 296 355
#     4  11  22  36  57  85 115 156 204 252 312 366
#     4  11  20  38  60  82 115 155 203 252 299 374
#
# _framework density 19.409986
#
# number of rings (size 3 to 8) (size 9 to 14) (size 15 to 20)
#    0.000    1.750    2.500    3.750    0.000    2.000 
#    0.000    6.250    0.000    0.000    0.000    0.000 
#    0.000    0.000    0.000    0.000    0.000    0.000 
#
# Total GULP energy -178194.118059 kJ/mol
# GULP energy per Si atom -5568.566189 kJ/mol
# Density = 1.936581 g / cm^3
# Si number density = 19.409986 Si / 1000 Ang^3
#
#
#
# Elastic Constant Matrix: (Units=GPa)
#
#
# Indices 1 2 3 4 5 6 
#
# 1 122.6954 70.3934 19.7570 0.0000 7.6756 0.0000
# 2 70.3934 108.0652 16.1775 0.0000 9.2259 0.0000
# 3 19.7570 16.1775 32.7418 0.0000 12.4436 0.0000
# 4 0.0000 0.0000 0.0000 12.8558 0.0000 1.0450
# 5 7.6756 9.2259 12.4436 0.0000 29.7311 0.0000
# 6 0.0000 0.0000 0.0000 1.0450 0.0000 22.5201
#
#
#
# Elastic Compliance Matrix: (Units=1/GPa)
#
#
# Indices 1 2 3 4 5 6 
#
# 1 0.013528 -0.008225 -0.004450 0.000000 0.000922 0.000000
# 2 -0.008225 0.015031 -0.001782 0.000000 -0.001795 0.000000
# 3 -0.004450 -0.001782 0.039790 0.000000 -0.014952 0.000000
# 4 0.000000 0.000000 0.000000 0.078080 0.000000 -0.003623
# 5 0.000922 -0.001795 -0.014952 0.000000 0.040212 0.000000
# 6 0.000000 0.000000 0.000000 -0.003623 0.000000 0.044573
#
#
# Mechanical properties :
#
#
# Convention : Reuss Voigt Hill
#
# Bulk Modulus (GPa) = 25.35686 52.90646 39.13166
# Shear Modulus (GPa) = 18.29690 23.49973 20.89832
#
# Velocity S-wave (km/s) = 3.07360 3.48329 3.28484
# Velocity P-wave (km/s) = 5.06835 6.59502 5.88143
#
# Compressibility (1/GPa) = 0.03943707
#
# Stress axis : x y z
#
# Youngs Moduli (GPa) = 73.92251 66.52882 25.13211
#
# Poissons Ratio (x) = 0.54717 0.11183
# Poissons Ratio (y) = 0.60798 0.04478
# Poissons Ratio (z) = 0.32893 0.11853
#
# Static dielectric constant tensor:
#      x y z
#    x 1.739400 0.000000 0.055960 
#    y 0.000000 1.747080 0.000000 
#    z 0.055960 0.000000 1.688310 
# 
# From -- ./inp_files/17299.got.cif
#   From: 2010.05.17/outbox.cif.g08.bks.cpg/sg13_9_cif.got.tgz:17299.got - 2010.06.03 16:44:36.
