data_PCOD9227420
_publ_section_title
;
Structure prediction by ZEFSAII (Michael W. Deem and Ramdas Pophale) SiO2 
 PCOD9227420
Probable space group: P 2/C
;
_chemical_formula_sum "Si O2"
_cell_formula_units_Z 20
_cell_length_a 20.025818
_cell_length_b 8.574217
_cell_length_c 5.500418
_cell_angle_alpha 90.000000
_cell_angle_beta 114.535596
_cell_angle_gamma 90.000000
_cell_volume 859.172319
_symmetry_space_group_name_H-M "P 2/C"
_symmetry_group_IT_number 13
_symmetry_cell_setting 'monoclinic'
loop_
_space_group_symop_operation_xyz
x,y,z
-x,y,1/2-z
-x,-y,-z
x,-y,1/2+z
loop_
_atom_site_type_symbol
_atom_site_label
_atom_site_fract_x
_atom_site_fract_y
_atom_site_fract_z
Si Si1 0.824026 0.814673 0.065430
Si Si2 0.083391 0.440323 0.650094
Si Si3 0.598130 0.084500 0.773984
Si Si4 0.582683 0.446265 0.835514
Si Si5 0.768413 0.845233 0.479633
O O1 0.901797 0.736991 0.246201
O O2 0.773735 0.769894 0.221789
O O3 0.820431 0.001517 0.040630
O O4 0.793081 0.757311 0.760063
O O5 0.115116 0.466420 0.429163
O O6 0.000000 0.500000 0.500000
O O7 0.576284 0.264637 0.762670
O O8 0.575479 0.005700 0.485341
O O9 0.686896 0.091573 0.901553
O O10 0.500000 0.512658 0.750000
O O11 0.618221 0.528403 0.654435
#
# Coordination Sequence:
#
# PCOD9227420 Si02
#       5
#     4   4   4   4   4
#     4  10  18  35  58  81 110 150 184 227 302 346
#     4  10  21  37  57  80 113 149 185 238 282 351
#     4  12  21  38  65  93 128 161 215 273 308 374
#     4  10  23  43  62  87 129 174 214 261 321 379
#     4  10  19  35  59  81 114 148 186 246 295 361
#
# _framework density 23.278217999999999
#
# number of rings (size 3 to 8) (size 9 to 14) (size 15 to 20)
#    0.000    1.600    4.000    2.400    0.000    0.800 
#    0.000    6.000    0.000   57.600    0.000    0.000 
#    0.000    0.000    0.000    0.000    0.000    0.000 
#
# Total GULP energy -111478.243893 kJ/mol
# GULP energy per Si atom -5573.912195 kJ/mol
# Density = 2.322524 g / cm^3
# Si number density = 23.278218 Si / 1000 Ang^3
#
#
#
# Elastic Constant Matrix: (Units=GPa)
#
#
# Indices 1 2 3 4 5 6 
#
# 1 64.1462 22.4468 48.8009 0.0000 -17.6120 0.0000
# 2 22.4468 72.6821 37.1688 0.0000 -4.2225 0.0000
# 3 48.8009 37.1688 218.2267 0.0000 -65.2116 0.0000
# 4 0.0000 0.0000 0.0000 41.4484 0.0000 -2.0181
# 5 -17.6120 -4.2225 -65.2116 0.0000 55.5925 0.0000
# 6 0.0000 0.0000 0.0000 -2.0181 0.0000 23.5159
#
#
#
# Elastic Compliance Matrix: (Units=1/GPa)
#
#
# Indices 1 2 3 4 5 6 
#
# 1 0.020141 -0.004556 -0.002963 0.000000 0.002558 0.000000
# 2 -0.004556 0.016406 -0.002824 0.000000 -0.003510 0.000000
# 3 -0.002963 -0.002824 0.008286 0.000000 0.008566 0.000000
# 4 0.000000 0.000000 0.000000 0.024228 0.000000 0.002079
# 5 0.002558 -0.003510 0.008566 0.000000 0.028580 0.000000
# 6 0.000000 0.000000 0.000000 0.002079 0.000000 0.042703
#
#
# Mechanical properties :
#
#
# Convention : Reuss Voigt Hill
#
# Bulk Modulus (GPa) = 41.41678 63.54311 52.47995
# Shear Modulus (GPa) = 29.57183 40.55394 35.06288
#
# Velocity S-wave (km/s) = 3.56808 4.17842 3.88526
# Velocity P-wave (km/s) = 5.89963 7.11586 6.53610
#
# Compressibility (1/GPa) = 0.02414480
#
# Stress axis : x y z
#
# Youngs Moduli (GPa) = 49.65082 60.95299 120.68547
#
# Poissons Ratio (x) = 0.27771 0.35764
# Poissons Ratio (y) = 0.22621 0.34087
# Poissons Ratio (z) = 0.14714 0.17216
#
# Static dielectric constant tensor:
#      x y z
#    x 1.778130 0.000000 -0.021110 
#    y 0.000000 1.879340 0.000000 
#    z -0.021110 0.000000 1.965950 
# 
# From -- ./inp_files/6750.got.cif
#   From: 2010.05.17/outbox.cif.g08.bks.cpg/sg13_4_cif.got.tgz:6750.got - 2010.06.03 16:44:36.
