data_PCOD9227982
_publ_section_title
;
Structure prediction by ZEFSAII (Michael W. Deem and Ramdas Pophale) SiO2 
 PCOD9227982
Probable space group: P 2/C
;
_chemical_formula_sum "Si O2"
_cell_formula_units_Z 24
_cell_length_a 19.345113
_cell_length_b 14.667487
_cell_length_c 22.017480
_cell_angle_alpha 90.000000
_cell_angle_beta 168.112032
_cell_angle_gamma 90.000000
_cell_volume 1286.942266
_symmetry_space_group_name_H-M "P 2/C"
_symmetry_group_IT_number 13
_symmetry_cell_setting 'monoclinic'
loop_
_space_group_symop_operation_xyz
x,y,z
-x,y,1/2-z
-x,-y,-z
x,-y,1/2+z
loop_
_atom_site_type_symbol
_atom_site_label
_atom_site_fract_x
_atom_site_fract_y
_atom_site_fract_z
Si Si1 0.113064 0.996173 0.416495
Si Si2 0.690700 0.292949 0.155405
Si Si3 0.593810 0.287826 0.260975
Si Si4 0.115631 0.796098 0.918765
Si Si5 0.033781 0.601831 0.053571
Si Si6 0.754645 0.821085 0.144756
O O1 0.000000 0.001817 0.250000
O O2 0.848330 0.926321 0.217729
O O3 0.113232 0.099277 0.441410
O O4 0.500000 0.961610 0.750000
O O5 0.867119 0.263371 0.245507
O O6 0.962464 0.333736 0.434812
O O7 0.391659 0.366743 0.888625
O O8 0.532545 0.206326 0.054742
O O9 0.500000 0.310039 0.250000
O O10 0.738602 0.373917 0.348106
O O11 0.910047 0.221922 0.539747
O O12 0.333596 0.232227 0.994315
O O13 0.000000 0.796706 0.750000
O O14 0.500000 0.763761 0.250000
O O15 0.000000 0.500000 0.000000
#
# Coordination Sequence:
#
# PCOD9227982 Si02
#       6
#     4   4   4   4   4   4
#     4  10  19  31  50  77 109 144 179 215 257 304
#     4  10  21  37  57  79 105 141 178 218 273 321
#     4  10  19  32  52  78 108 137 171 215 264 318
#     4  10  21  37  55  77 108 145 184 222 257 304
#     4  10  21  38  58  80 107 139 174 219 273 325
#     4  10  19  31  52  79 107 140 174 213 263 316
#
# _framework density 18.648855000000001
#
# number of rings (size 3 to 8) (size 9 to 14) (size 15 to 20)
#    0.000    2.000    0.000    4.500    0.000    0.667 
#    0.000    2.500    0.000   14.000    0.000    0.000 
#    0.000    0.000    0.000    0.000    0.000    0.000 
#
# Total GULP energy -133802.011708 kJ/mol
# GULP energy per Si atom -5575.083821 kJ/mol
# Density = 1.860641 g / cm^3
# Si number density = 18.648855 Si / 1000 Ang^3
#
#
#
# Elastic Constant Matrix: (Units=GPa)
#
#
# Indices 1 2 3 4 5 6 
#
# 1 92.3306 15.4310 8.7200 0.0000 14.7493 0.0000
# 2 15.4310 31.3914 -3.2357 0.0000 20.9674 0.0000
# 3 8.7200 -3.2357 69.3921 0.0000 -10.0940 0.0000
# 4 0.0000 0.0000 0.0000 19.4291 0.0000 -7.3049
# 5 14.7493 20.9674 -10.0940 0.0000 35.0821 0.0000
# 6 0.0000 0.0000 0.0000 -7.3049 0.0000 36.9724
#
#
#
# Elastic Compliance Matrix: (Units=1/GPa)
#
#
# Indices 1 2 3 4 5 6 
#
# 1 0.012250 -0.003968 -0.002221 0.000000 -0.003418 0.000000
# 2 -0.003968 0.054641 -0.001525 0.000000 -0.031428 0.000000
# 3 -0.002221 -0.001525 0.015538 0.000000 0.006316 0.000000
# 4 0.000000 0.000000 0.000000 0.055599 0.000000 0.010985
# 5 -0.003418 -0.031428 0.006316 0.000000 0.050542 0.000000
# 6 0.000000 0.000000 0.000000 0.010985 0.000000 0.029218
#
#
# Mechanical properties :
#
#
# Convention : Reuss Voigt Hill
#
# Bulk Modulus (GPa) = 14.92547 26.10495 20.51521
# Shear Modulus (GPa) = 19.56579 29.77665 24.67122
#
# Velocity S-wave (km/s) = 3.24260 4.00021 3.64116
# Velocity P-wave (km/s) = 4.69469 5.94677 5.35743
#
# Compressibility (1/GPa) = 0.06699954
#
# Stress axis : x y z
#
# Youngs Moduli (GPa) = 81.63585 18.30141 64.35980
#
# Poissons Ratio (x) = 0.07261 0.14297
# Poissons Ratio (y) = 0.32389 0.09816
# Poissons Ratio (z) = 0.18135 0.02791
#
# Static dielectric constant tensor:
#      x y z
#    x 1.646930 0.000000 0.005090 
#    y 0.000000 1.669660 0.000000 
#    z 0.005090 0.000000 1.667310 
# 
# From -- ./inp_files/43870.got.cif
#   From: 2010.05.17/outbox.cif.g08.bks.cpg/sg13_22_cif.got.tgz:43870.got - 2010.06.03 16:44:36.
