data_PCOD9227622
_publ_section_title
;
Structure prediction by ZEFSAII (Michael W. Deem and Ramdas Pophale) SiO2 
 PCOD9227622
Probable space group: P 2/C
;
_chemical_formula_sum "Si O2"
_cell_formula_units_Z 30
_cell_length_a 12.882527
_cell_length_b 7.854875
_cell_length_c 11.782507
_cell_angle_alpha 90.000000
_cell_angle_beta 100.315569
_cell_angle_gamma 90.000000
_cell_volume 1173.007907
_symmetry_space_group_name_H-M "P 2/C"
_symmetry_group_IT_number 13
_symmetry_cell_setting 'monoclinic'
loop_
_space_group_symop_operation_xyz
x,y,z
-x,y,1/2-z
-x,-y,-z
x,-y,1/2+z
loop_
_atom_site_type_symbol
_atom_site_label
_atom_site_fract_x
_atom_site_fract_y
_atom_site_fract_z
Si Si1 0.498868 0.784096 0.618057
Si Si2 0.126897 0.643072 0.843086
Si Si3 0.714257 0.204200 0.561434
Si Si4 0.705166 0.151672 0.034137
Si Si5 0.601045 0.558218 0.216348
Si Si6 0.000000 0.314206 0.750000
Si Si7 0.199362 0.610001 0.623245
Si Si8 0.880728 0.235422 0.932819
O O1 0.500000 0.848692 0.750000
O O2 0.386550 0.815834 0.541574
O O3 0.584302 0.849472 0.543794
O O4 0.534878 0.587027 0.637221
O O5 0.247266 0.669732 0.910783
O O6 0.081175 0.453621 0.821103
O O7 0.142233 0.701491 0.716967
O O8 0.072934 0.759826 0.929502
O O9 0.673430 0.320555 0.654786
O O10 0.795841 0.283596 0.489497
O O11 0.748184 0.016566 0.605311
O O12 0.765039 0.148217 0.924291
O O13 0.500000 0.657934 0.250000
O O14 0.683780 0.457264 0.314126
O O15 0.050372 0.196956 0.662395
O O16 0.137265 0.436926 0.589075
#
# Coordination Sequence:
#
# PCOD9227622 Si02
#       8
#     4   4   4   4   4   2   4   4
#     4  11  20  39  60  84 128 168 216 259 303 366
#     4   9  19  37  62  95 126 152 208 264 313 380
#     4  12  23  36  59  86 128 173 206 253 328 363
#     4  10  22  38  53  87 131 168 198 259 312 385
#     4  11  22  35  57  88 118 163 223 274 293 357
#     4  10  18  36  74 104 110 174 208 264 324 374
#     4  11  19  38  60  86 117 171 212 260 302 368
#     4   9  21  37  64  90 132 150 214 264 309 381
#
# _framework density 25.575274
#
# number of rings (size 3 to 8) (size 9 to 14) (size 15 to 20)
#    0.800    0.800    4.000    2.800    1.867    0.533 
#    4.800    0.000    0.000    6.400    0.000    0.000 
#    0.000    0.000    0.000    0.000    0.000    0.000 
#
# Total GULP energy -167051.076952 kJ/mol
# GULP energy per Si atom -5568.369232 kJ/mol
# Density = 2.551706 g / cm^3
# Si number density = 25.575274 Si / 1000 Ang^3
#
#
#
# Elastic Constant Matrix: (Units=GPa)
#
#
# Indices 1 2 3 4 5 6 
#
# 1 106.7225 4.8912 70.4033 0.0000 -27.1501 0.0000
# 2 4.8912 61.5027 25.5812 0.0000 -16.6037 0.0000
# 3 70.4033 25.5812 115.0760 0.0000 -43.3201 0.0000
# 4 0.0000 0.0000 0.0000 -5.0428 0.0000 8.2115
# 5 -27.1501 -16.6037 -43.3201 0.0000 70.9505 0.0000
# 6 0.0000 0.0000 0.0000 8.2115 0.0000 7.5822
#
#
#
# Elastic Compliance Matrix: (Units=1/GPa)
#
#
# Indices 1 2 3 4 5 6 
#
# 1 0.016260 0.003210 -0.010434 0.000000 0.000602 0.000000
# 2 0.003210 0.018840 -0.005232 0.000000 0.002442 0.000000
# 3 -0.010434 -0.005232 0.018532 0.000000 0.006098 0.000000
# 4 0.000000 0.000000 0.000000 -0.071758 0.000000 0.077713
# 5 0.000602 0.002442 0.006098 0.000000 0.018620 0.000000
# 6 0.000000 0.000000 0.000000 0.077713 0.000000 0.047725
#
#
# Mechanical properties :
#
#
# Convention : Reuss Voigt Hill
#
# Bulk Modulus (GPa) = 34.82187 53.89474 44.35831
# Shear Modulus (GPa) = 60.45538 26.85967 43.65753
#
# Velocity S-wave (km/s) = 4.86719 3.24423 4.13609
# Velocity P-wave (km/s) = 6.72540 5.92892 6.33968
#
# Compressibility (1/GPa) = 0.02871758
#
# Stress axis : x y z
#
# Youngs Moduli (GPa) = 61.50208 53.07896 53.95967
#
# Poissons Ratio (x) = -0.17036 0.56304
# Poissons Ratio (y) = -0.19739 0.28233
# Poissons Ratio (z) = 0.64174 0.27772
#
# Static dielectric constant tensor:
#      x y z
#    x 2.155230 0.000000 -0.066980 
#    y 0.000000 1.989790 0.000000 
#    z -0.066980 0.000000 2.182960 
# 
# From -- ./inp_files/36220.got.cif
#   From: 2010.05.17/outbox.cif.g08.bks.cpg/sg13_19_cif.got.tgz:36220.got - 2010.06.03 16:44:36.
