data_PCOD9227739
_publ_section_title
;
Structure prediction by ZEFSAII (Michael W. Deem and Ramdas Pophale) SiO2 
 PCOD9227739
Probable space group: P 2/C
;
_chemical_formula_sum "Si O2"
_cell_formula_units_Z 26
_cell_length_a 20.530173
_cell_length_b 8.122449
_cell_length_c 16.502307
_cell_angle_alpha 90.000000
_cell_angle_beta 158.936427
_cell_angle_gamma 90.000000
_cell_volume 989.023648
_symmetry_space_group_name_H-M "P 2/C"
_symmetry_group_IT_number 13
_symmetry_cell_setting 'monoclinic'
loop_
_space_group_symop_operation_xyz
x,y,z
-x,y,1/2-z
-x,-y,-z
x,-y,1/2+z
loop_
_atom_site_type_symbol
_atom_site_label
_atom_site_fract_x
_atom_site_fract_y
_atom_site_fract_z
Si Si1 0.889031 0.692294 0.777450
Si Si2 0.503517 0.297324 0.851589
Si Si3 0.171539 0.880438 0.194519
Si Si4 0.886771 0.334147 0.733857
Si Si5 0.710465 0.626906 0.853313
Si Si6 0.670985 0.021152 0.275563
Si Si7 0.000000 0.894222 0.750000
O O1 0.709488 0.756028 0.612448
O O2 0.833358 0.503801 0.712814
O O3 0.909059 0.772274 0.711034
O O4 0.080074 0.726019 0.041183
O O5 0.500000 0.325399 0.750000
O O6 0.405974 0.456979 0.780397
O O7 0.404123 0.129922 0.759987
O O8 0.198549 0.817685 0.316572
O O9 0.313314 0.962585 0.298932
O O10 0.000000 0.000000 0.000000
O O11 0.795836 0.348917 0.541163
O O12 0.106139 0.356740 0.987684
O O13 0.601303 0.793469 0.706604
O O14 0.876441 0.013871 0.551902
#
# Coordination Sequence:
#
# PCOD9227739 Si02
#       7
#     4   4   4   4   4   4   2
#     4  11  23  41  68  97 135 179 222 282 344 399
#     4  12  24  44  65 101 144 176 222 281 345 411
#     4  11  24  44  68 100 137 176 236 280 340 402
#     4  11  21  42  70  99 129 175 235 289 334 395
#     4  11  23  41  72 104 129 174 237 286 337 406
#     4  11  23  42  69  99 137 178 224 287 340 400
#     4  10  18  38  68  96 124 170 232 286 330 386
#
# _framework density 26.288554000000001
#
# number of rings (size 3 to 8) (size 9 to 14) (size 15 to 20)
#    0.000    0.923    4.615    4.154    2.154    0.615 
#    2.769    3.846    0.000    0.000    0.000    0.000 
#    0.000    0.000    0.000    0.000    0.000    0.000 
#
# Total GULP energy -145357.231216 kJ/mol
# GULP energy per Si atom -5590.662739 kJ/mol
# Density = 2.622872 g / cm^3
# Si number density = 26.288554 Si / 1000 Ang^3
#
#
#
# Elastic Constant Matrix: (Units=GPa)
#
#
# Indices 1 2 3 4 5 6 
#
# 1 70.6758 14.0683 23.2878 0.0000 15.4545 0.0000
# 2 14.0683 108.7681 11.3480 0.0000 13.4756 0.0000
# 3 23.2878 11.3480 65.6115 0.0000 16.3701 0.0000
# 4 0.0000 0.0000 0.0000 23.0701 0.0000 5.4840
# 5 15.4545 13.4756 16.3701 0.0000 43.3151 0.0000
# 6 0.0000 0.0000 0.0000 5.4840 0.0000 49.1129
#
#
#
# Elastic Compliance Matrix: (Units=1/GPa)
#
#
# Indices 1 2 3 4 5 6 
#
# 1 0.016804 -0.001200 -0.004807 0.000000 -0.003805 0.000000
# 2 -0.001200 0.009709 -0.000670 0.000000 -0.002339 0.000000
# 3 -0.004807 -0.000670 0.018310 0.000000 -0.004996 0.000000
# 4 0.000000 0.000000 0.000000 0.044528 0.000000 -0.004972
# 5 -0.003805 -0.002339 -0.004996 0.000000 0.027060 0.000000
# 6 0.000000 0.000000 0.000000 -0.004972 0.000000 0.020916
#
#
# Mechanical properties :
#
#
# Convention : Reuss Voigt Hill
#
# Bulk Modulus (GPa) = 31.77806 38.05151 34.91478
# Shear Modulus (GPa) = 31.02279 36.18969 33.60624
#
# Velocity S-wave (km/s) = 3.43897 3.71433 3.57930
# Velocity P-wave (km/s) = 5.28044 5.73593 5.51289
#
# Compressibility (1/GPa) = 0.03146825
#
# Stress axis : x y z
#
# Youngs Moduli (GPa) = 59.50902 102.99934 54.61528
#
# Poissons Ratio (x) = 0.12365 0.26255
# Poissons Ratio (y) = 0.07144 0.03656
# Poissons Ratio (z) = 0.28608 0.06896
#
# Static dielectric constant tensor:
#      x y z
#    x 2.104230 0.000000 -0.000100 
#    y 0.000000 2.122010 0.000000 
#    z -0.000100 0.000000 2.261910 
# 
# From -- ./inp_files/69704.got.cif
#   From: 2010.05.17/outbox.cif.g08.bks.cpg/sg13_35_cif.got.tgz:69704.got - 2010.06.03 16:44:36.
