data_PCOD9227682
_publ_section_title
;
Structure prediction by ZEFSAII (Michael W. Deem and Ramdas Pophale) SiO2 
 PCOD9227682
Probable space group: P 2/C
;
_chemical_formula_sum "Si O2"
_cell_formula_units_Z 28
_cell_length_a 26.803518
_cell_length_b 10.852525
_cell_length_c 33.038100
_cell_angle_alpha 90.000000
_cell_angle_beta 8.973168
_cell_angle_gamma 90.000000
_cell_volume 1498.939276
_symmetry_space_group_name_H-M "P 2/C"
_symmetry_group_IT_number 13
_symmetry_cell_setting 'monoclinic'
loop_
_space_group_symop_operation_xyz
x,y,z
-x,y,1/2-z
-x,-y,-z
x,-y,1/2+z
loop_
_atom_site_type_symbol
_atom_site_label
_atom_site_fract_x
_atom_site_fract_y
_atom_site_fract_z
Si Si1 0.089959 0.097929 0.322941
Si Si2 0.850652 0.625654 0.206622
Si Si3 0.070518 0.726605 0.952296
Si Si4 0.852838 0.157934 0.982287
Si Si5 0.367862 0.042657 0.675311
Si Si6 0.113376 0.355697 0.325612
Si Si7 0.728949 0.150230 0.932677
O O1 0.953959 0.235255 0.433293
O O2 0.220361 0.061383 0.263230
O O3 0.377808 0.102312 0.059632
O O4 0.883018 0.980454 0.475531
O O5 0.990894 0.491390 0.104749
O O6 0.492152 0.642406 0.510773
O O7 0.047411 0.741455 0.065162
O O8 0.880043 0.636469 0.134872
O O9 0.074731 0.670068 0.904230
O O10 0.438254 0.753661 0.670944
O O11 0.881965 0.856758 0.108936
O O12 0.092336 0.173702 0.752869
O O13 0.500000 0.179378 0.250000
O O14 0.550850 0.979649 0.566159
O O15 0.000000 0.147607 0.750000
#
# Coordination Sequence:
#
# PCOD9227682 Si02
#       7
#     4   4   4   4   4   4   4
#     4  10  18  38  60  88 115 156 203 247 297 353
#     4  11  22  39  57  88 121 158 195 249 294 360
#     4  12  20  36  60  90 118 161 198 252 292 363
#     4  11  22  40  63  85 120 162 200 251 306 361
#     4  10  19  34  61  84 124 156 196 253 298 348
#     4  11  22  36  60  89 121 151 200 247 301 349
#     4  11  23  34  54  94 124 153 201 250 306 363
#
# _framework density 18.679876
#
# number of rings (size 3 to 8) (size 9 to 14) (size 15 to 20)
#    0.000    1.143    5.714    2.571    0.000    0.000 
#    0.000    0.714    0.000    0.000    0.000    1.000 
#    0.000    0.000    0.000    0.000    0.000    0.000 
#
# Total GULP energy -156146.032045 kJ/mol
# GULP energy per Si atom -5576.644002 kJ/mol
# Density = 1.863736 g / cm^3
# Si number density = 18.679876 Si / 1000 Ang^3
#
#
#
# Elastic Constant Matrix: (Units=GPa)
#
#
# Indices 1 2 3 4 5 6 
#
# 1 65.6459 5.8914 9.8291 0.0000 19.4560 0.0000
# 2 5.8914 89.9953 -1.7179 0.0000 17.4114 0.0000
# 3 9.8291 -1.7179 55.7662 0.0000 13.9991 0.0000
# 4 0.0000 0.0000 0.0000 3.7999 0.0000 3.4546
# 5 19.4560 17.4114 13.9991 0.0000 28.2518 0.0000
# 6 0.0000 0.0000 0.0000 3.4546 0.0000 15.0123
#
#
#
# Elastic Compliance Matrix: (Units=1/GPa)
#
#
# Indices 1 2 3 4 5 6 
#
# 1 0.019316 0.001519 0.000247 0.000000 -0.014361 0.000000
# 2 0.001519 0.013094 0.002768 0.000000 -0.010487 0.000000
# 3 0.000247 0.002768 0.021065 0.000000 -0.012314 0.000000
# 4 0.000000 0.000000 0.000000 0.332783 0.000000 -0.076579
# 5 -0.014361 -0.010487 -0.012314 0.000000 0.057851 0.000000
# 6 0.000000 0.000000 0.000000 -0.076579 0.000000 0.084234
#
#
# Mechanical properties :
#
#
# Convention : Reuss Voigt Hill
#
# Bulk Modulus (GPa) = 15.98882 26.60139 21.29511
# Shear Modulus (GPa) = 9.25715 22.57312 15.91514
#
# Velocity S-wave (km/s) = 2.22855 3.48000 2.92206
# Velocity P-wave (km/s) = 3.89870 5.51533 4.77591
#
# Compressibility (1/GPa) = 0.06254370
#
# Stress axis : x y z
#
# Youngs Moduli (GPa) = 51.77015 76.37009 47.47203
#
# Poissons Ratio (x) = -0.11597 -0.01174
# Poissons Ratio (y) = -0.07862 -0.13142
# Poissons Ratio (z) = -0.01280 -0.21142
#
# Static dielectric constant tensor:
#      x y z
#    x 1.681000 0.000000 0.038150 
#    y 0.000000 1.703760 0.000000 
#    z 0.038150 0.000000 1.650330 
# 
# From -- ./inp_files/97700.got.cif
#   From: 2010.05.17/outbox.cif.g08.bks.cpg/sg13_49_cif.got.tgz:97700.got - 2010.06.03 16:44:36.
