data_PCOD9227434
_publ_section_title
;
Structure prediction by ZEFSAII (Michael W. Deem and Ramdas Pophale) SiO2 
 PCOD9227434
Probable space group: P 2/C
;
_chemical_formula_sum "Si O2"
_cell_formula_units_Z 26
_cell_length_a 11.261242
_cell_length_b 8.546414
_cell_length_c 27.767569
_cell_angle_alpha 90.000000
_cell_angle_beta 26.403962
_cell_angle_gamma 90.000000
_cell_volume 1188.426675
_symmetry_space_group_name_H-M "P 2/C"
_symmetry_group_IT_number 13
_symmetry_cell_setting 'monoclinic'
loop_
_space_group_symop_operation_xyz
x,y,z
-x,y,1/2-z
-x,-y,-z
x,-y,1/2+z
loop_
_atom_site_type_symbol
_atom_site_label
_atom_site_fract_x
_atom_site_fract_y
_atom_site_fract_z
Si Si1 0.021152 0.851888 0.946984
Si Si2 0.334046 0.309556 0.519104
Si Si3 0.691447 0.313938 0.226705
Si Si4 0.652770 0.128839 0.082500
Si Si5 0.319911 0.381523 0.628979
Si Si6 0.500000 0.099147 0.750000
Si Si7 0.300171 0.661548 0.242834
O O1 0.247410 0.984253 0.850945
O O2 0.030820 0.724088 0.901026
O O3 0.120899 0.792112 0.963500
O O4 0.755174 0.952492 0.045340
O O5 0.373912 0.185297 0.462232
O O6 0.381997 0.279425 0.558664
O O7 0.512143 0.459676 0.439962
O O8 0.017334 0.337730 0.633443
O O9 0.500000 0.307537 0.250000
O O10 0.615146 0.179225 0.292367
O O11 0.635175 0.480020 0.270577
O O12 0.375367 0.306575 0.660425
O O13 0.000000 0.418275 0.750000
O O14 0.570892 0.216713 0.767446
#
# Coordination Sequence:
#
# PCOD9227434 Si02
#       7
#     4   4   4   4   4   2   4
#     4  10  21  36  53  86 120 164 192 228 295 365
#     4  10  19  35  60  86 110 151 202 247 290 354
#     4  10  19  36  53  81 124 155 188 233 297 352
#     4  10  18  35  59  79 115 160 196 235 290 358
#     4   9  20  37  55  83 115 151 193 249 306 341
#     4  12  20  34  54  86 124 150 196 234 298 360
#     4  11  21  34  56  91 120 149 191 253 298 351
#
# _framework density 21.877666000000001
#
# number of rings (size 3 to 8) (size 9 to 14) (size 15 to 20)
#    0.000    1.846    6.154    0.000    0.000    0.000 
#    8.308    4.615    0.000    0.923   12.000    0.000 
#    0.000    0.000    0.000    0.000    0.000    0.000 
#
# Total GULP energy -144860.327054 kJ/mol
# GULP energy per Si atom -5571.551041 kJ/mol
# Density = 2.182787 g / cm^3
# Si number density = 21.877666 Si / 1000 Ang^3
#
#
#
# Elastic Constant Matrix: (Units=GPa)
#
#
# Indices 1 2 3 4 5 6 
#
# 1 126.9548 46.2864 49.5976 0.0000 44.6024 0.0000
# 2 46.2864 54.3487 24.7738 0.0000 3.3522 0.0000
# 3 49.5976 24.7738 92.1880 0.0000 27.6619 0.0000
# 4 0.0000 0.0000 0.0000 27.9886 0.0000 4.2558
# 5 44.6024 3.3522 27.6619 0.0000 34.8806 0.0000
# 6 0.0000 0.0000 0.0000 4.2558 0.0000 29.6493
#
#
#
# Elastic Compliance Matrix: (Units=1/GPa)
#
#
# Indices 1 2 3 4 5 6 
#
# 1 0.026935 -0.021473 0.001306 0.000000 -0.033413 0.000000
# 2 -0.021473 0.038367 -0.007730 0.000000 0.029901 0.000000
# 3 0.001306 -0.007730 0.016404 0.000000 -0.013936 0.000000
# 4 0.000000 0.000000 0.000000 0.036526 0.000000 -0.005243
# 5 -0.033413 0.029901 -0.013936 0.000000 0.079573 0.000000
# 6 0.000000 0.000000 0.000000 -0.005243 0.000000 0.034480
#
#
# Mechanical properties :
#
#
# Convention : Reuss Voigt Hill
#
# Bulk Modulus (GPa) = 38.59465 57.20080 47.89772
# Shear Modulus (GPa) = 16.85113 28.69261 22.77187
#
# Velocity S-wave (km/s) = 2.77834 3.62540 3.22976
# Velocity P-wave (km/s) = 5.28882 6.61265 5.98744
#
# Compressibility (1/GPa) = 0.02591033
#
# Stress axis : x y z
#
# Youngs Moduli (GPa) = 37.12691 26.06429 60.96188
#
# Poissons Ratio (x) = 0.55968 -0.07959
# Poissons Ratio (y) = 0.79724 0.47122
# Poissons Ratio (z) = -0.04847 0.20147
#
# Static dielectric constant tensor:
#      x y z
#    x 1.839420 0.000000 0.001990 
#    y 0.000000 1.844690 0.000000 
#    z 0.001990 0.000000 1.940110 
# 
# From -- ./inp_files/49698.got.cif
#   From: 2010.05.17/outbox.cif.g08.bks.cpg/sg13_25_cif.got.tgz:49698.got - 2010.06.03 16:44:36.
