data_PCOD9227936
_publ_section_title
;
Structure prediction by ZEFSAII (Michael W. Deem and Ramdas Pophale) SiO2 
 PCOD9227936
Probable space group: P 2/C
;
_chemical_formula_sum "Si O2"
_cell_formula_units_Z 18
_cell_length_a 25.782813
_cell_length_b 4.984103
_cell_length_c 5.101149
_cell_angle_alpha 90.000000
_cell_angle_beta 79.190939
_cell_angle_gamma 90.000000
_cell_volume 643.888571
_symmetry_space_group_name_H-M "P 2/C"
_symmetry_group_IT_number 13
_symmetry_cell_setting 'monoclinic'
loop_
_space_group_symop_operation_xyz
x,y,z
-x,y,1/2-z
-x,-y,-z
x,-y,1/2+z
loop_
_atom_site_type_symbol
_atom_site_label
_atom_site_fract_x
_atom_site_fract_y
_atom_site_fract_z
Si Si1 0.837637 0.662326 0.487377
Si Si2 0.610401 0.811132 0.553498
Si Si3 0.281645 0.162351 0.399567
Si Si4 0.500000 0.805386 0.750000
Si Si5 0.945537 0.687907 0.235242
O O1 0.841816 0.592664 0.787985
O O2 0.777994 0.749942 0.490892
O O3 0.889379 0.825857 0.347592
O O4 0.666622 0.673839 0.558850
O O5 0.556016 0.656421 0.669172
O O6 0.609680 0.944995 0.268411
O O7 0.285809 0.907395 0.591064
O O8 0.500000 0.000000 0.500000
O O9 0.946328 0.444386 0.448914
O O10 0.000000 0.838531 0.250000
#
# Coordination Sequence:
#
# PCOD9227936 Si02
#       5
#     4   4   4   2   4
#     4  10  19  31  48  69  90 116 151 185 217 259
#     4   8  14  23  37  57  81 108 138 174 214 252
#     4  10  19  31  46  66  93 121 146 178 224 268
#     4   8  12  20  34  54  78 102 134 176 212 242
#     4   8  14  25  42  63  84 107 141 183 217 247
#
# _framework density 27.955145999999999
#
# number of rings (size 3 to 8) (size 9 to 14) (size 15 to 20)
#    0.000    3.111    0.000    1.333    0.000    0.000 
#    0.000    0.000    0.000    1.333    0.000    1.556 
#    0.000    0.000    0.000    0.000    0.000    0.000 
#
# Total GULP energy -100549.726757 kJ/mol
# GULP energy per Si atom -5586.095931 kJ/mol
# Density = 2.789152 g / cm^3
# Si number density = 27.955146 Si / 1000 Ang^3
#
#
#
# Elastic Constant Matrix: (Units=GPa)
#
#
# Indices 1 2 3 4 5 6 
#
# 1 300.1475 23.3688 16.5896 0.0000 -56.4890 0.0000
# 2 23.3688 59.7086 41.9038 0.0000 1.7311 0.0000
# 3 16.5896 41.9038 165.9683 0.0000 3.1716 0.0000
# 4 0.0000 0.0000 0.0000 49.5794 0.0000 6.9250
# 5 -56.4890 1.7311 3.1716 0.0000 55.3697 0.0000
# 6 0.0000 0.0000 0.0000 6.9250 0.0000 6.4617
#
#
#
# Elastic Compliance Matrix: (Units=1/GPa)
#
#
# Indices 1 2 3 4 5 6 
#
# 1 0.004312 -0.001768 -0.000070 0.000000 0.004459 0.000000
# 2 -0.001768 0.021086 -0.005106 0.000000 -0.002171 0.000000
# 3 -0.000070 -0.005106 0.007328 0.000000 -0.000331 0.000000
# 4 0.000000 0.000000 0.000000 0.023720 0.000000 -0.025421
# 5 0.004459 -0.002171 -0.000331 0.000000 0.022696 0.000000
# 6 0.000000 0.000000 0.000000 -0.025421 0.000000 0.182002
#
#
# Mechanical properties :
#
#
# Convention : Reuss Voigt Hill
#
# Bulk Modulus (GPa) = 53.08123 76.61655 64.84889
# Shear Modulus (GPa) = 17.77392 51.87963 34.82678
#
# Velocity S-wave (km/s) = 2.52425 4.31259 3.53343
# Velocity P-wave (km/s) = 5.24642 7.22941 6.31622
#
# Compressibility (1/GPa) = 0.01883905
#
# Stress axis : x y z
#
# Youngs Moduli (GPa) = 231.89032 47.42469 136.46968
#
# Poissons Ratio (x) = 0.08385 0.00953
# Poissons Ratio (y) = 0.40999 0.69676
# Poissons Ratio (z) = 0.01620 0.24213
#
# Static dielectric constant tensor:
#      x y z
#    x 2.367930 0.000000 -0.044030 
#    y 0.000000 2.300020 0.000000 
#    z -0.044030 0.000000 2.055770 
# 
# From -- ./inp_files/6635.got.cif
#   From: 2010.05.17/outbox.cif.g08.bks.cpg/sg13_4_cif.got.tgz:6635.got - 2010.06.03 16:44:36.
