data_PCOD9227600
_publ_section_title
;
Structure prediction by ZEFSAII (Michael W. Deem and Ramdas Pophale) SiO2 
 PCOD9227600
Probable space group: P 2/C
;
_chemical_formula_sum "Si O2"
_cell_formula_units_Z 16
_cell_length_a 6.976817
_cell_length_b 8.911399
_cell_length_c 16.716854
_cell_angle_alpha 90.000000
_cell_angle_beta 144.480692
_cell_angle_gamma 90.000000
_cell_volume 603.833095
_symmetry_space_group_name_H-M "P 2/C"
_symmetry_group_IT_number 13
_symmetry_cell_setting 'monoclinic'
loop_
_space_group_symop_operation_xyz
x,y,z
-x,y,1/2-z
-x,-y,-z
x,-y,1/2+z
loop_
_atom_site_type_symbol
_atom_site_label
_atom_site_fract_x
_atom_site_fract_y
_atom_site_fract_z
Si Si1 0.183826 0.109346 0.396401
Si Si2 0.657198 0.400300 0.389162
Si Si3 0.456877 0.297294 0.864431
Si Si4 0.957417 0.161417 0.900795
O O1 0.340095 0.256421 0.487918
O O2 0.000000 0.123667 0.250000
O O3 0.500000 0.000000 0.500000
O O4 0.965291 0.015793 0.387316
O O5 0.500000 0.367400 0.250000
O O6 0.423285 0.524865 0.348279
O O7 0.000000 0.500000 0.500000
O O8 0.719808 0.247776 0.457651
O O9 0.697400 0.218901 0.878535
O O10 0.122210 0.229152 0.714055
#
# Coordination Sequence:
#
# PCOD9227600 Si02
#       4
#     4   4   4   4
#     4  12  25  42  61  87 131 169 202 250 306 363
#     4  10  18  36  64  95 122 150 198 264 311 351
#     4  10  20  41  65  92 124 158 205 258 303 363
#     4  10  21  40  65  93 123 157 207 258 303 361
#
# _framework density 26.497387
#
# number of rings (size 3 to 8) (size 9 to 14) (size 15 to 20)
#    0.000    1.500    7.500    0.750    0.000    4.000 
#    4.500    2.500    0.000    0.000    0.000    0.000 
#    0.000    0.000    0.000    0.000    0.000    0.000 
#
# Total GULP energy -89335.722765 kJ/mol
# GULP energy per Si atom -5583.482673 kJ/mol
# Density = 2.643708 g / cm^3
# Si number density = 26.497387 Si / 1000 Ang^3
#
#
#
# Elastic Constant Matrix: (Units=GPa)
#
#
# Indices 1 2 3 4 5 6 
#
# 1 54.5509 -7.2227 35.0622 0.0000 -24.3230 0.0000
# 2 -7.2227 109.6535 87.3018 0.0000 -34.5696 0.0000
# 3 35.0622 87.3018 277.1771 0.0000 -57.1019 0.0000
# 4 0.0000 0.0000 0.0000 43.3032 0.0000 -3.9115
# 5 -24.3230 -34.5696 -57.1019 0.0000 46.2107 0.0000
# 6 0.0000 0.0000 0.0000 -3.9115 0.0000 14.4501
#
#
#
# Elastic Compliance Matrix: (Units=1/GPa)
#
#
# Indices 1 2 3 4 5 6 
#
# 1 0.031094 0.011109 -0.003151 0.000000 0.020784 0.000000
# 2 0.011109 0.017451 -0.004035 0.000000 0.013916 0.000000
# 3 -0.003151 -0.004035 0.005787 0.000000 0.002474 0.000000
# 4 0.000000 0.000000 0.000000 0.023672 0.000000 0.006408
# 5 0.020784 0.013916 0.002474 0.000000 0.046047 0.000000
# 6 0.000000 0.000000 0.000000 0.006408 0.000000 0.070938
#
#
# Mechanical properties :
#
#
# Convention : Reuss Voigt Hill
#
# Bulk Modulus (GPa) = 16.08257 74.62935 45.35596
# Shear Modulus (GPa) = 24.05364 42.54216 33.29790
#
# Velocity S-wave (km/s) = 3.01620 4.01124 3.54877
# Velocity P-wave (km/s) = 4.26762 7.04836 5.82632
#
# Compressibility (1/GPa) = 0.06217910
#
# Stress axis : x y z
#
# Youngs Moduli (GPa) = 32.16016 57.30339 172.80517
#
# Poissons Ratio (x) = -0.63657 0.54443
# Poissons Ratio (y) = -0.35726 0.69724
# Poissons Ratio (z) = 0.10132 0.23121
#
# Static dielectric constant tensor:
#      x y z
#    x 2.444940 0.000000 0.178010 
#    y 0.000000 2.086570 0.000000 
#    z 0.178010 0.000000 2.209620 
# 
# From -- ./inp_files/11100.got.cif
#   From: 2010.05.17/outbox.cif.g08.bks.cpg/sg13_6_cif.got.tgz:11100.got - 2010.06.03 16:44:36.
