data_PCOD9227235
_publ_section_title
;
Structure prediction by ZEFSAII (Michael W. Deem and Ramdas Pophale) SiO2 
 PCOD9227235
Probable space group: P 2/C
;
_chemical_formula_sum "Si O2"
_cell_formula_units_Z 32
_cell_length_a 17.798661
_cell_length_b 13.441031
_cell_length_c 8.552078
_cell_angle_alpha 90.000000
_cell_angle_beta 139.219907
_cell_angle_gamma 90.000000
_cell_volume 1336.317082
_symmetry_space_group_name_H-M "P 2/C"
_symmetry_group_IT_number 13
_symmetry_cell_setting 'monoclinic'
loop_
_space_group_symop_operation_xyz
x,y,z
-x,y,1/2-z
-x,-y,-z
x,-y,1/2+z
loop_
_atom_site_type_symbol
_atom_site_label
_atom_site_fract_x
_atom_site_fract_y
_atom_site_fract_z
Si Si1 0.086556 0.824556 0.512088
Si Si2 0.713408 0.753999 0.285655
Si Si3 0.102038 0.360887 0.212565
Si Si4 0.801382 0.533057 0.936107
Si Si5 0.277130 0.260206 0.068730
Si Si6 0.600882 0.916386 0.638340
Si Si7 0.428145 0.420389 0.982389
Si Si8 0.272308 0.935967 0.982386
O O1 0.028948 0.733299 0.523446
O O2 0.187135 0.778824 0.559122
O O3 0.148390 0.905041 0.719790
O O4 0.000000 0.868765 0.250000
O O5 0.811915 0.705803 0.548515
O O6 0.604687 0.683442 0.147406
O O7 0.697729 0.862815 0.328272
O O8 0.740163 0.755455 0.143965
O O9 0.108758 0.461074 0.332085
O O10 0.137697 0.412561 0.109135
O O11 0.737570 0.620385 0.932754
O O12 0.698106 0.468701 0.699295
O O13 0.394203 0.199171 0.298832
O O14 0.638712 0.919694 0.518394
O O15 0.500000 0.000000 0.500000
O O16 0.706101 0.956907 0.912580
O O17 0.500000 0.400869 0.250000
O O18 0.500000 0.500000 0.000000
#
# Coordination Sequence:
#
# PCOD9227235 Si02
#       8
#     4   4   4   4   4   4   4   4
#     4   9  20  41  65  93 122 153 197 252 312 374
#     4  10  20  37  55  80 115 157 197 244 303 362
#     4   9  18  33  57  82 115 156 195 237 295 363
#     4  10  18  34  53  78 115 159 198 244 303 355
#     4  10  21  38  62  85 118 160 200 251 309 368
#     4  11  23  40  61  89 119 158 205 254 305 367
#     4  11  21  31  49  79 113 152 202 249 290 353
#     4  10  22  40  63  88 121 157 199 253 308 366
#
# _framework density 23.946411000000001
#
# number of rings (size 3 to 8) (size 9 to 14) (size 15 to 20)
#    0.000    2.000    0.000    5.625    0.000    2.000 
#    0.000   10.000    0.000    0.000    0.000    0.000 
#    0.000    0.000    0.000    0.000    0.000    0.000 
#
# Total GULP energy -178151.820462 kJ/mol
# GULP energy per Si atom -5567.244389 kJ/mol
# Density = 2.389191 g / cm^3
# Si number density = 23.946411 Si / 1000 Ang^3
#
#
#
# Elastic Constant Matrix: (Units=GPa)
#
#
# Indices 1 2 3 4 5 6 
#
# 1 41.3276 19.8660 16.8524 0.0000 -17.2541 0.0000
# 2 19.8660 84.9300 30.4110 0.0000 0.7766 0.0000
# 3 16.8524 30.4110 105.0734 0.0000 -17.5391 0.0000
# 4 0.0000 0.0000 0.0000 30.0306 0.0000 -25.3209
# 5 -17.2541 0.7766 -17.5391 0.0000 38.0346 0.0000
# 6 0.0000 0.0000 0.0000 -25.3209 0.0000 22.8501
#
#
#
# Elastic Compliance Matrix: (Units=1/GPa)
#
#
# Indices 1 2 3 4 5 6 
#
# 1 0.034895 -0.008077 -0.000638 0.000000 0.015700 0.000000
# 2 -0.008077 0.015176 -0.004074 0.000000 -0.005853 0.000000
# 3 -0.000638 -0.004074 0.011662 0.000000 0.005171 0.000000
# 4 0.000000 0.000000 0.000000 0.507172 0.000000 0.562013
# 5 0.015700 -0.005853 0.005171 0.000000 0.035918 0.000000
# 6 0.000000 0.000000 0.000000 0.562013 0.000000 0.666547
#
#
# Mechanical properties :
#
#
# Convention : Reuss Voigt Hill
#
# Bulk Modulus (GPa) = 27.65942 40.62108 34.14025
# Shear Modulus (GPa) = 3.81971 29.12985 16.47478
#
# Velocity S-wave (km/s) = 1.26435 3.49156 2.62579
# Velocity P-wave (km/s) = 3.70230 5.76670 4.84571
#
# Compressibility (1/GPa) = 0.03615405
#
# Stress axis : x y z
#
# Youngs Moduli (GPa) = 28.65769 65.89367 85.75019
#
# Poissons Ratio (x) = 0.53224 0.05472
# Poissons Ratio (y) = 0.23148 0.34933
# Poissons Ratio (z) = 0.01829 0.26844
#
# Static dielectric constant tensor:
#      x y z
#    x 1.915170 0.000000 0.038030 
#    y 0.000000 1.941830 0.000000 
#    z 0.038030 0.000000 1.901380 
# 
# From -- ./inp_files/23570.got.cif
#   From: 2010.05.17/outbox.cif.g08.bks.cpg/sg13_12_cif.got.tgz:23570.got - 2010.06.03 16:44:36.
