data_PCOD9227797
_publ_section_title
;
Structure prediction by ZEFSAII (Michael W. Deem and Ramdas Pophale) SiO2 
 PCOD9227797
Probable space group: P 2/C
;
_chemical_formula_sum "Si O2"
_cell_formula_units_Z 26
_cell_length_a 12.255631
_cell_length_b 12.812397
_cell_length_c 10.400388
_cell_angle_alpha 90.000000
_cell_angle_beta 126.311510
_cell_angle_gamma 90.000000
_cell_volume 1315.975794
_symmetry_space_group_name_H-M "P 2/C"
_symmetry_group_IT_number 13
_symmetry_cell_setting 'monoclinic'
loop_
_space_group_symop_operation_xyz
x,y,z
-x,y,1/2-z
-x,-y,-z
x,-y,1/2+z
loop_
_atom_site_type_symbol
_atom_site_label
_atom_site_fract_x
_atom_site_fract_y
_atom_site_fract_z
Si Si1 0.782410 0.383157 0.340783
Si Si2 0.055615 0.072293 0.926940
Si Si3 0.653347 0.697124 0.122663
Si Si4 0.958871 0.310387 0.866703
Si Si5 0.340413 0.174880 0.129281
Si Si6 0.324914 0.492439 0.487326
Si Si7 0.500000 0.319450 0.750000
O O1 0.700123 0.273063 0.305061
O O2 0.749381 0.440351 0.185620
O O3 0.749318 0.450621 0.445288
O O4 0.941579 0.361154 0.462068
O O5 0.000000 0.033250 0.750000
O O6 0.989933 0.187294 0.894446
O O7 0.218611 0.090627 0.053044
O O8 0.000000 0.000000 0.000000
O O9 0.802383 0.667438 0.275710
O O10 0.592738 0.590647 0.018130
O O11 0.570698 0.740899 0.184238
O O12 0.673411 0.777627 0.022875
O O13 0.000000 0.342775 0.750000
O O14 0.500000 0.145227 0.250000
O O15 0.399707 0.398461 0.609088
#
# Coordination Sequence:
#
# PCOD9227797 Si02
#       7
#     4   4   4   4   4   4   2
#     4  10  21  35  58  85 119 165 215 255 300 351
#     4  10  20  42  72  94 119 157 197 243 316 388
#     4  11  21  36  58  82 123 167 203 255 303 352
#     4  10  18  41  62  85 114 159 204 248 314 372
#     4  10  20  37  66  91 123 163 207 247 309 369
#     4  11  21  35  52  81 122 166 212 257 289 349
#     4  12  24  34  50  86 124 168 218 250 304 346
#
# _framework density 19.757204000000002
#
# number of rings (size 3 to 8) (size 9 to 14) (size 15 to 20)
#    0.000    1.538    7.692    1.385    4.308    0.615 
#    2.769    5.385    1.692    0.000    0.000    0.000 
#    0.000    0.000    0.000    0.000    0.000    0.000 
#
# Total GULP energy -144958.847924 kJ/mol
# GULP energy per Si atom -5575.340305 kJ/mol
# Density = 1.971224 g / cm^3
# Si number density = 19.757204 Si / 1000 Ang^3
#
#
#
# Elastic Constant Matrix: (Units=GPa)
#
#
# Indices 1 2 3 4 5 6 
#
# 1 79.4390 23.4608 34.3432 0.0000 9.2866 0.0000
# 2 23.4608 25.5218 38.6862 0.0000 0.3386 0.0000
# 3 34.3432 38.6862 129.4345 0.0000 -3.9892 0.0000
# 4 0.0000 0.0000 0.0000 9.8315 0.0000 -2.8813
# 5 9.2866 0.3386 -3.9892 0.0000 36.5992 0.0000
# 6 0.0000 0.0000 0.0000 -2.8813 0.0000 23.7675
#
#
#
# Elastic Compliance Matrix: (Units=1/GPa)
#
#
# Indices 1 2 3 4 5 6 
#
# 1 0.017963 -0.016498 0.000029 0.000000 -0.004402 0.000000
# 2 -0.016498 0.087123 -0.021631 0.000000 0.001022 0.000000
# 3 0.000029 -0.021631 0.014237 0.000000 0.001744 0.000000
# 4 0.000000 0.000000 0.000000 0.105461 0.000000 0.012785
# 5 -0.004402 0.001022 0.001744 0.000000 0.028621 0.000000
# 6 0.000000 0.000000 0.000000 0.012785 0.000000 0.043624
#
#
# Mechanical properties :
#
#
# Convention : Reuss Voigt Hill
#
# Bulk Modulus (GPa) = 23.18940 47.48620 35.33780
# Shear Modulus (GPa) = 12.89986 23.23331 18.06659
#
# Velocity S-wave (km/s) = 2.55800 3.43292 3.02724
# Velocity P-wave (km/s) = 4.52627 6.30875 5.49033
#
# Compressibility (1/GPa) = 0.04312316
#
# Stress axis : x y z
#
# Youngs Moduli (GPa) = 55.67114 11.47808 70.23942
#
# Poissons Ratio (x) = 0.18937 -0.00206
# Poissons Ratio (y) = 0.91847 1.51933
# Poissons Ratio (z) = -0.00163 0.24828
#
# Static dielectric constant tensor:
#      x y z
#    x 1.759300 0.000000 0.043950 
#    y 0.000000 1.697520 0.000000 
#    z 0.043950 0.000000 1.765810 
# 
# From -- ./inp_files/16597.got.cif
#   From: 2010.05.17/outbox.cif.g08.bks.cpg/sg13_9_cif.got.tgz:16597.got - 2010.06.03 16:44:36.
