data_PCOD9227231
_publ_section_title
;
Structure prediction by ZEFSAII (Michael W. Deem and Ramdas Pophale) SiO2 
 PCOD9227231
Probable space group: P 2/C
;
_chemical_formula_sum "Si O2"
_cell_formula_units_Z 30
_cell_length_a 7.294434
_cell_length_b 12.928649
_cell_length_c 20.633634
_cell_angle_alpha 90.000000
_cell_angle_beta 135.880105
_cell_angle_gamma 90.000000
_cell_volume 1354.661694
_symmetry_space_group_name_H-M "P 2/C"
_symmetry_group_IT_number 13
_symmetry_cell_setting 'monoclinic'
loop_
_space_group_symop_operation_xyz
x,y,z
-x,y,1/2-z
-x,-y,-z
x,-y,1/2+z
loop_
_atom_site_type_symbol
_atom_site_label
_atom_site_fract_x
_atom_site_fract_y
_atom_site_fract_z
Si Si1 0.780439 0.110713 0.557640
Si Si2 0.449567 0.997109 0.877328
Si Si3 0.364638 0.717148 0.924444
Si Si4 0.000000 0.156346 0.250000
Si Si5 0.322360 0.415281 0.082277
Si Si6 0.225935 0.177762 0.753548
Si Si7 0.938291 0.534094 0.593696
Si Si8 0.331127 0.417624 0.772764
O O1 0.701157 0.031214 0.594478
O O2 0.572450 0.206047 0.510386
O O3 0.072403 0.151391 0.647933
O O4 0.713341 0.056204 0.472006
O O5 0.451033 0.096755 0.831356
O O6 0.250669 0.914300 0.795821
O O7 0.101211 0.775840 0.835896
O O8 0.500437 0.680589 0.892002
O O9 0.286736 0.614710 0.943960
O O10 0.503822 0.516697 0.134608
O O11 0.153998 0.405087 0.104735
O O12 0.141435 0.441021 0.974616
O O13 0.301443 0.297127 0.778158
O O14 0.000000 0.162489 0.750000
O O15 0.065203 0.479617 0.688350
O O16 0.500000 0.424372 0.750000
#
# Coordination Sequence:
#
# PCOD9227231 Si02
#       8
#     4   4   4   2   4   4   4   4
#     4   9  18  31  54  83 105 140 180 234 277 328
#     4   9  17  33  51  81 111 133 179 236 280 322
#     4  11  21  32  60  84 108 149 195 220 272 345
#     4  10  18  34  52  86 108 144 184 234 278 328
#     4  10  22  38  54  81 119 149 183 232 276 324
#     4  10  19  31  56  82  99 141 186 223 269 332
#     4  10  22  38  54  81 119 150 180 233 279 321
#     4  10  22  37  54  77 113 150 181 224 279 330
#
# _framework density 22.14575
#
# number of rings (size 3 to 8) (size 9 to 14) (size 15 to 20)
#    0.000    2.133    2.000    2.000    5.600    0.000 
#    0.000    0.000    0.000    4.000    0.000    0.000 
#    0.000    0.000    0.000    0.000    0.000    0.000 
#
# Total GULP energy -167379.514621 kJ/mol
# GULP energy per Si atom -5579.317154 kJ/mol
# Density = 2.209535 g / cm^3
# Si number density = 22.145750 Si / 1000 Ang^3
#
#
#
# Elastic Constant Matrix: (Units=GPa)
#
#
# Indices 1 2 3 4 5 6 
#
# 1 48.9520 12.1095 2.5199 0.0000 0.9768 0.0000
# 2 12.1095 76.9735 17.3946 0.0000 -0.6654 0.0000
# 3 2.5199 17.3946 93.3516 0.0000 -4.7567 0.0000
# 4 0.0000 0.0000 0.0000 31.3169 0.0000 -3.3131
# 5 0.9768 -0.6654 -4.7567 0.0000 7.8703 0.0000
# 6 0.0000 0.0000 0.0000 -3.3131 0.0000 1.1627
#
#
#
# Elastic Compliance Matrix: (Units=1/GPa)
#
#
# Indices 1 2 3 4 5 6 
#
# 1 0.021324 -0.003357 -0.000102 0.000000 -0.002992 0.000000
# 2 -0.003357 0.014092 -0.002531 0.000000 0.000078 0.000000
# 3 -0.000102 -0.002531 0.011531 0.000000 0.006768 0.000000
# 4 0.000000 0.000000 0.000000 0.045712 0.000000 0.130252
# 5 -0.002992 0.000078 0.006768 0.000000 0.131529 0.000000
# 6 0.000000 0.000000 0.000000 0.130252 0.000000 1.231184
#
#
# Mechanical properties :
#
#
# Convention : Reuss Voigt Hill
#
# Bulk Modulus (GPa) = 28.59975 31.48055 30.04015
# Shear Modulus (GPa) = 3.38064 20.55352 11.96708
#
# Velocity S-wave (km/s) = 1.23687 3.04978 2.32713
# Velocity P-wave (km/s) = 3.87068 5.16213 4.56233
#
# Compressibility (1/GPa) = 0.03496534
#
# Stress axis : x y z
#
# Youngs Moduli (GPa) = 46.89617 70.96039 86.71902
#
# Poissons Ratio (x) = 0.23824 0.00889
# Poissons Ratio (y) = 0.15745 0.21951
# Poissons Ratio (z) = 0.00481 0.17962
#
# Static dielectric constant tensor:
#      x y z
#    x 1.838360 0.000000 0.029730 
#    y 0.000000 1.842440 0.000000 
#    z 0.029730 0.000000 1.884120 
# 
# From -- ./inp_files/85221.got.cif
#   From: 2010.05.17/outbox.cif.g08.bks.cpg/sg13_43_cif.got.tgz:85221.got - 2010.06.03 16:44:36.
