data_PCOD9227339
_publ_section_title
;
Structure prediction by ZEFSAII (Michael W. Deem and Ramdas Pophale) SiO2 
 PCOD9227339
Probable space group: P 2/C
;
_chemical_formula_sum "Si O2"
_cell_formula_units_Z 30
_cell_length_a 14.310179
_cell_length_b 9.236366
_cell_length_c 23.547969
_cell_angle_alpha 90.000000
_cell_angle_beta 31.366960
_cell_angle_gamma 90.000000
_cell_volume 1620.074017
_symmetry_space_group_name_H-M "P 2/C"
_symmetry_group_IT_number 13
_symmetry_cell_setting 'monoclinic'
loop_
_space_group_symop_operation_xyz
x,y,z
-x,y,1/2-z
-x,-y,-z
x,-y,1/2+z
loop_
_atom_site_type_symbol
_atom_site_label
_atom_site_fract_x
_atom_site_fract_y
_atom_site_fract_z
Si Si1 0.402794 0.321248 0.182280
Si Si2 0.786690 0.324299 0.463203
Si Si3 0.933623 0.152131 0.108689
Si Si4 0.082906 0.183169 0.905301
Si Si5 0.443867 0.361200 0.713774
Si Si6 0.687479 0.414467 0.393199
Si Si7 0.000000 0.362211 0.750000
Si Si8 0.819547 0.328680 0.956141
O O1 0.265632 0.219648 0.286772
O O2 0.395879 0.483245 0.211579
O O3 0.335006 0.327846 0.152773
O O4 0.613215 0.281837 0.071008
O O5 0.609633 0.296544 0.592337
O O6 0.738632 0.318365 0.421411
O O7 0.825840 0.495916 0.451715
O O8 0.946840 0.225976 0.403840
O O9 0.920742 0.979266 0.117116
O O10 0.030418 0.185268 0.998712
O O11 0.274915 0.256479 0.798177
O O12 0.936900 0.273265 0.946592
O O13 0.500000 0.382136 0.750000
O O14 0.500000 0.500000 0.500000
O O15 0.843935 0.533886 0.306316
O O16 0.093036 0.280418 0.649269
#
# Coordination Sequence:
#
# PCOD9227339 Si02
#       8
#     4   4   4   4   4   4   2   4
#     4  11  23  38  63  95 122 154 207 261 309 365
#     4  10  21  38  64  92 119 155 203 259 308 366
#     4  11  25  42  57  84 124 169 203 248 305 372
#     4  11  25  41  59  83 125 170 203 243 311 372
#     4  11  21  37  63  93 119 154 206 262 308 367
#     4  11  18  36  61  95 125 155 198 255 323 362
#     4  10  18  34  60  88 126 154 190 248 306 366
#     4  10  22  37  63  93 115 158 199 254 303 367
#
# _framework density 18.517672000000001
#
# number of rings (size 3 to 8) (size 9 to 14) (size 15 to 20)
#    0.000    1.333    5.333    3.200    3.733    2.133 
#    0.000    1.333    0.000    2.400    0.000    0.000 
#    0.000    0.000    0.000    0.000    0.000    0.000 
#
# Total GULP energy -167522.603744 kJ/mol
# GULP energy per Si atom -5584.086791 kJ/mol
# Density = 1.847552 g / cm^3
# Si number density = 18.517672 Si / 1000 Ang^3
#
#
#
# Elastic Constant Matrix: (Units=GPa)
#
#
# Indices 1 2 3 4 5 6 
#
# 1 125.4732 43.1116 36.6409 0.0000 -10.4899 0.0000
# 2 43.1116 39.5926 38.0141 0.0000 -7.8052 0.0000
# 3 36.6409 38.0141 122.9808 0.0000 -21.1020 0.0000
# 4 0.0000 0.0000 0.0000 -50.6313 0.0000 11.7229
# 5 -10.4899 -7.8052 -21.1020 0.0000 27.4603 0.0000
# 6 0.0000 0.0000 0.0000 11.7229 0.0000 9.3975
#
#
#
# Elastic Compliance Matrix: (Units=1/GPa)
#
#
# Indices 1 2 3 4 5 6 
#
# 1 0.012828 -0.014577 0.000937 0.000000 0.001477 0.000000
# 2 -0.014577 0.052570 -0.011862 0.000000 0.000258 0.000000
# 3 0.000937 -0.011862 0.012673 0.000000 0.006725 0.000000
# 4 0.000000 0.000000 0.000000 -0.015325 0.000000 0.019117
# 5 0.001477 0.000258 0.006725 0.000000 0.042222 0.000000
# 6 0.000000 0.000000 0.000000 0.019117 0.000000 0.082565
#
#
# Mechanical properties :
#
#
# Convention : Reuss Voigt Hill
#
# Bulk Modulus (GPa) = 36.94552 58.17554 47.56053
# Shear Modulus (GPa) = 20.19714 8.59730 14.39722
#
# Velocity S-wave (km/s) = 3.30615 2.15704 2.79137
# Velocity P-wave (km/s) = 5.87954 6.13907 6.01071
#
# Compressibility (1/GPa) = 0.02706688
#
# Stress axis : x y z
#
# Youngs Moduli (GPa) = 77.95325 19.02212 78.90971
#
# Poissons Ratio (x) = 0.27729 -0.07397
# Poissons Ratio (y) = 1.13633 0.93606
# Poissons Ratio (z) = -0.07307 0.22565
#
# Static dielectric constant tensor:
#      x y z
#    x 1.636480 0.000000 0.015440 
#    y 0.000000 1.607630 0.000000 
#    z 0.015440 0.000000 1.679330 
# 
# From -- ./inp_files/87282.got.cif
#   From: 2010.05.17/outbox.cif.g08.bks.cpg/sg13_44_cif.got.tgz:87282.got - 2010.06.03 16:44:36.
