data_PCOD9227653
_publ_section_title
;
Structure prediction by ZEFSAII (Michael W. Deem and Ramdas Pophale) SiO2 
 PCOD9227653
Probable space group: P 2/C
;
_chemical_formula_sum "Si O2"
_cell_formula_units_Z 32
_cell_length_a 23.847981
_cell_length_b 12.189919
_cell_length_c 18.411165
_cell_angle_alpha 90.000000
_cell_angle_beta 161.834665
_cell_angle_gamma 90.000000
_cell_volume 1668.607741
_symmetry_space_group_name_H-M "P 2/C"
_symmetry_group_IT_number 13
_symmetry_cell_setting 'monoclinic'
loop_
_space_group_symop_operation_xyz
x,y,z
-x,y,1/2-z
-x,-y,-z
x,-y,1/2+z
loop_
_atom_site_type_symbol
_atom_site_label
_atom_site_fract_x
_atom_site_fract_y
_atom_site_fract_z
Si Si1 0.648359 0.446842 0.733133
Si Si2 0.302528 0.003494 0.469892
Si Si3 0.799980 0.163873 0.535809
Si Si4 0.192826 0.416992 0.945235
Si Si5 0.277870 0.782753 0.128144
Si Si6 0.971886 0.452923 0.385293
Si Si7 0.907146 0.221306 0.252386
Si Si8 0.528933 0.010830 0.120483
O O1 0.500000 0.500000 0.500000
O O2 0.611104 0.319784 0.705210
O O3 0.675516 0.513599 0.841237
O O4 0.837942 0.450764 0.923480
O O5 0.500000 0.018466 0.750000
O O6 0.188317 0.114013 0.334274
O O7 0.346929 0.972320 0.442062
O O8 0.211843 0.908321 0.405725
O O9 0.751481 0.290099 0.490949
O O10 0.000000 0.158668 0.750000
O O11 0.664826 0.106298 0.312555
O O12 0.158964 0.473036 0.825767
O O13 0.000000 0.418818 0.750000
O O14 0.385746 0.894219 0.251412
O O15 0.194676 0.748863 0.948156
O O16 0.110482 0.803430 0.976453
O O17 0.904833 0.327135 0.300919
O O18 0.000000 0.500000 0.500000
O O19 0.500000 0.000000 0.000000
#
# Coordination Sequence:
#
# PCOD9227653 Si02
#       8
#     4   4   4   4   4   4   4   4
#     4  10  21  37  60  89 118 155 197 239 294 357
#     4  10  20  37  59  86 113 149 194 244 294 350
#     4  10  20  39  62  81 114 162 201 229 289 368
#     4   9  19  38  62  82 116 162 193 230 296 356
#     4  10  19  36  64  84 113 157 196 238 298 354
#     4  10  21  40  58  88 121 151 196 249 290 346
#     4  10  18  37  64  85 111 152 201 241 288 364
#     4  11  24  39  57  87 123 148 192 257 300 338
#
# _framework density 19.177665000000001
#
# number of rings (size 3 to 8) (size 9 to 14) (size 15 to 20)
#    0.000    2.000    3.750    0.750    1.750    1.000 
#    9.000    3.125    0.000    0.000    0.000    0.000 
#    0.000    0.000    0.000    0.000    0.000    0.000 
#
# Total GULP energy -178621.949039 kJ/mol
# GULP energy per Si atom -5581.935907 kJ/mol
# Density = 1.913402 g / cm^3
# Si number density = 19.177665 Si / 1000 Ang^3
#
#
#
# Elastic Constant Matrix: (Units=GPa)
#
#
# Indices 1 2 3 4 5 6 
#
# 1 98.8243 23.9431 8.7113 0.0000 -16.3276 0.0000
# 2 23.9431 112.2468 26.8480 0.0000 0.4474 0.0000
# 3 8.7113 26.8480 45.1072 0.0000 -10.7626 0.0000
# 4 0.0000 0.0000 0.0000 9.6523 0.0000 -4.4651
# 5 -16.3276 0.4474 -10.7626 0.0000 27.8747 0.0000
# 6 0.0000 0.0000 0.0000 -4.4651 0.0000 16.5796
#
#
#
# Elastic Compliance Matrix: (Units=1/GPa)
#
#
# Indices 1 2 3 4 5 6 
#
# 1 0.011947 -0.002862 0.001186 0.000000 0.007502 0.000000
# 2 -0.002862 0.011278 -0.007273 0.000000 -0.004666 0.000000
# 3 0.001186 -0.007273 0.029148 0.000000 0.012066 0.000000
# 4 0.000000 0.000000 0.000000 0.118346 0.000000 0.031872
# 5 0.007502 -0.004666 0.012066 0.000000 0.045003 0.000000
# 6 0.000000 0.000000 0.000000 0.031872 0.000000 0.068899
#
#
# Mechanical properties :
#
#
# Convention : Reuss Voigt Hill
#
# Bulk Modulus (GPa) = 29.00618 41.68700 35.34659
# Shear Modulus (GPa) = 15.92304 23.93306 19.92805
#
# Velocity S-wave (km/s) = 2.88460 3.53649 3.22705
# Velocity P-wave (km/s) = 5.12371 6.20162 5.68826
#
# Compressibility (1/GPa) = 0.03447542
#
# Stress axis : x y z
#
# Youngs Moduli (GPa) = 83.70077 88.67104 34.30752
#
# Poissons Ratio (x) = 0.25378 -0.04070
# Poissons Ratio (y) = 0.23956 0.24952
# Poissons Ratio (z) = -0.09929 0.64490
#
# Static dielectric constant tensor:
#      x y z
#    x 1.694700 0.000000 -0.006330 
#    y 0.000000 1.655050 0.000000 
#    z -0.006330 0.000000 1.671450 
# 
# From -- ./inp_files/71501.got.cif
#   From: 2010.05.17/outbox.cif.g08.bks.cpg/sg13_36_cif.got.tgz:71501.got - 2010.06.03 16:44:36.
