data_PCOD9227311
_publ_section_title
;
Structure prediction by ZEFSAII (Michael W. Deem and Ramdas Pophale) SiO2 
 PCOD9227311
Probable space group: P 2/C
;
_chemical_formula_sum "Si O2"
_cell_formula_units_Z 30
_cell_length_a 8.481071
_cell_length_b 9.129417
_cell_length_c 26.161743
_cell_angle_alpha 90.000000
_cell_angle_beta 129.995618
_cell_angle_gamma 90.000000
_cell_volume 1551.823248
_symmetry_space_group_name_H-M "P 2/C"
_symmetry_group_IT_number 13
_symmetry_cell_setting 'monoclinic'
loop_
_space_group_symop_operation_xyz
x,y,z
-x,y,1/2-z
-x,-y,-z
x,-y,1/2+z
loop_
_atom_site_type_symbol
_atom_site_label
_atom_site_fract_x
_atom_site_fract_y
_atom_site_fract_z
Si Si1 0.981521 0.844027 0.434152
Si Si2 0.048868 0.511285 0.449658
Si Si3 0.326666 0.738389 0.965597
Si Si4 0.659544 0.651625 0.826068
Si Si5 0.000000 0.160687 0.250000
Si Si6 0.656627 0.048570 0.944521
Si Si7 0.921293 0.917114 0.843207
Si Si8 0.429088 0.237469 0.375622
O O1 0.061914 0.682535 0.441485
O O2 0.785750 0.852310 0.431681
O O3 0.913055 0.929630 0.369622
O O4 0.166664 0.938545 0.497388
O O5 0.856654 0.449039 0.376980
O O6 0.000000 0.500000 0.500000
O O7 0.240002 0.408401 0.473608
O O8 0.448143 0.712740 0.938390
O O9 0.126929 0.833064 0.905665
O O10 0.428655 0.845983 0.028674
O O11 0.500000 0.596136 0.750000
O O12 0.739677 0.808771 0.822312
O O13 0.563377 0.679564 0.861819
O O14 0.069446 0.070347 0.215371
O O15 0.193959 0.254612 0.308846
O O16 0.489386 0.935748 0.887616
#
# Coordination Sequence:
#
# PCOD9227311 Si02
#       8
#     4   4   4   4   2   4   4   4
#     4  10  19  34  61  86 116 149 193 246 298 357
#     4  11  21  38  61  86 121 158 198 243 303 364
#     4   9  20  34  57  87 117 149 187 238 301 351
#     4  11  21  37  60  87 112 157 204 241 288 368
#     4  10  20  34  56  86 110 146 194 252 290 342
#     4  10  18  34  58  90 114 148 192 245 299 352
#     4   9  18  35  58  84 109 147 192 239 295 347
#     4  11  20  34  60  88 115 149 199 248 292 356
#
# _framework density 19.332098999999999
#
# number of rings (size 3 to 8) (size 9 to 14) (size 15 to 20)
#    0.000    1.867    4.000    1.200    0.000    0.000 
#    0.000    4.667    8.800    0.000    0.000    0.000 
#    0.000    0.000    0.000    0.000    0.000    0.000 
#
# Total GULP energy -167402.266986 kJ/mol
# GULP energy per Si atom -5580.075566 kJ/mol
# Density = 1.928810 g / cm^3
# Si number density = 19.332099 Si / 1000 Ang^3
#
#
#
# Elastic Constant Matrix: (Units=GPa)
#
#
# Indices 1 2 3 4 5 6 
#
# 1 83.4800 20.4763 20.5997 0.0000 -22.5970 0.0000
# 2 20.4763 98.0163 25.3081 0.0000 -11.4030 0.0000
# 3 20.5997 25.3081 49.1396 0.0000 -9.9976 0.0000
# 4 0.0000 0.0000 0.0000 19.3357 0.0000 -2.3783
# 5 -22.5970 -11.4030 -9.9976 0.0000 38.6034 0.0000
# 6 0.0000 0.0000 0.0000 -2.3783 0.0000 21.3959
#
#
#
# Elastic Compliance Matrix: (Units=1/GPa)
#
#
# Indices 1 2 3 4 5 6 
#
# 1 0.015375 -0.001231 -0.004280 0.000000 0.007528 0.000000
# 2 -0.001231 0.012016 -0.005380 0.000000 0.001435 0.000000
# 3 -0.004280 -0.005380 0.025422 0.000000 0.002489 0.000000
# 4 0.000000 0.000000 0.000000 0.052435 0.000000 0.005828
# 5 0.007528 0.001435 0.002489 0.000000 0.031380 0.000000
# 6 0.000000 0.000000 0.000000 0.005828 0.000000 0.047386
#
#
# Mechanical properties :
#
#
# Convention : Reuss Voigt Hill
#
# Bulk Modulus (GPa) = 32.22681 40.37825 36.30253
# Shear Modulus (GPa) = 23.13345 26.81713 24.97529
#
# Velocity S-wave (km/s) = 3.46299 3.72853 3.59821
# Velocity P-wave (km/s) = 5.71805 6.28235 6.00683
#
# Compressibility (1/GPa) = 0.03103007
#
# Stress axis : x y z
#
# Youngs Moduli (GPa) = 65.04236 83.22405 39.33649
#
# Poissons Ratio (x) = 0.10246 0.16834
# Poissons Ratio (y) = 0.08007 0.21164
# Poissons Ratio (z) = 0.27835 0.44777
#
# Static dielectric constant tensor:
#      x y z
#    x 1.728940 0.000000 0.004720 
#    y 0.000000 1.650880 0.000000 
#    z 0.004720 0.000000 1.706380 
# 
# From -- ./inp_files/75312.got.cif
#   From: 2010.05.17/outbox.cif.g08.bks.cpg/sg13_38_cif.got.tgz:75312.got - 2010.06.03 16:44:36.
