data_PCOD9227823
_publ_section_title
;
Structure prediction by ZEFSAII (Michael W. Deem and Ramdas Pophale) SiO2 
 PCOD9227823
Probable space group: P 2/C
;
_chemical_formula_sum "Si O2"
_cell_formula_units_Z 28
_cell_length_a 12.695645
_cell_length_b 21.025245
_cell_length_c 5.545944
_cell_angle_alpha 90.000000
_cell_angle_beta 113.707586
_cell_angle_gamma 90.000000
_cell_volume 1355.443884
_symmetry_space_group_name_H-M "P 2/C"
_symmetry_group_IT_number 13
_symmetry_cell_setting 'monoclinic'
loop_
_space_group_symop_operation_xyz
x,y,z
-x,y,1/2-z
-x,-y,-z
x,-y,1/2+z
loop_
_atom_site_type_symbol
_atom_site_label
_atom_site_fract_x
_atom_site_fract_y
_atom_site_fract_z
Si Si1 0.221157 0.778605 0.446908
Si Si2 0.180402 0.631095 0.345888
Si Si3 0.000000 0.872625 0.250000
Si Si4 0.745213 0.826287 0.520259
Si Si5 0.639038 0.034657 0.883156
Si Si6 0.118302 0.568580 0.786056
Si Si7 0.000000 0.125306 0.250000
Si Si8 0.657477 0.521267 0.010869
O O1 0.183791 0.705960 0.389260
O O2 0.284771 0.790743 0.759294
O O3 0.111968 0.826934 0.351585
O O4 0.289309 0.794711 0.264439
O O5 0.116470 0.602916 0.524732
O O6 0.304321 0.594747 0.466486
O O7 0.137151 0.615115 0.034683
O O8 0.000181 0.911010 0.498052
O O9 0.694998 0.896907 0.474557
O O10 0.884812 0.832115 0.644445
O O11 0.500000 0.039613 0.750000
O O12 0.671967 0.007086 0.649568
O O13 0.000000 0.535090 0.750000
O O14 0.222096 0.518999 0.873453
O O15 0.603471 0.498282 0.713431
#
# Coordination Sequence:
#
# PCOD9227823 Si02
#       8
#     4   4   2   4   4   4   2   4
#     4  10  19  30  44  66  91 129 170 201 248 290
#     4  10  19  28  37  55  77 110 160 210 251 292
#     4   8  16  26  38  57  84 121 162 200 228 268
#     4  10  19  35  53  71 105 137 161 201 245 283
#     4  10  21  38  61  88 110 129 161 200 239 289
#     4  10  19  27  36  51  76 111 159 217 267 297
#     4   8  16  30  46  65  96 131 162 190 224 274
#     4   8  16  27  36  46  70 104 148 204 267 289
#
# _framework density 20.657439
#
# number of rings (size 3 to 8) (size 9 to 14) (size 15 to 20)
#    0.000    2.571    0.000    2.143    2.000    5.143 
#    2.571    0.714    0.000    0.000    0.000    0.000 
#    0.000    0.000    0.000    0.000    0.000  128.571 
#
# Total GULP energy -155970.957220 kJ/mol
# GULP energy per Si atom -5570.391329 kJ/mol
# Density = 2.061042 g / cm^3
# Si number density = 20.657439 Si / 1000 Ang^3
#
#
#
# Elastic Constant Matrix: (Units=GPa)
#
#
# Indices 1 2 3 4 5 6 
#
# 1 39.7088 14.0321 44.8983 0.0000 -16.6584 0.0000
# 2 14.0321 71.3102 34.1255 0.0000 -11.1208 0.0000
# 3 44.8983 34.1255 191.1657 0.0000 -61.3889 0.0000
# 4 0.0000 0.0000 0.0000 29.0814 0.0000 -11.0422
# 5 -16.6584 -11.1208 -61.3889 0.0000 36.5369 0.0000
# 6 0.0000 0.0000 0.0000 -11.0422 0.0000 -0.3137
#
#
#
# Elastic Compliance Matrix: (Units=1/GPa)
#
#
# Indices 1 2 3 4 5 6 
#
# 1 0.035318 -0.003247 -0.006215 0.000000 0.004672 0.000000
# 2 -0.003247 0.015632 -0.002118 0.000000 -0.000282 0.000000
# 3 -0.006215 -0.002118 0.012927 0.000000 0.018241 0.000000
# 4 0.000000 0.000000 0.000000 0.002393 0.000000 -0.084258
# 5 0.004672 -0.000282 0.018241 0.000000 0.060061 0.000000
# 6 0.000000 0.000000 0.000000 -0.084258 0.000000 -0.221909
#
#
# Mechanical properties :
#
#
# Convention : Reuss Voigt Hill
#
# Bulk Modulus (GPa) = 24.56058 54.25516 39.40787
# Shear Modulus (GPa) = -84.96959 27.00284 -28.98338
#
# Velocity S-wave (km/s) = -6.42043 3.61941 -3.74979
# Velocity P-wave (km/s) = 6.56105 6.61725 0.60855
#
# Compressibility (1/GPa) = 0.04071566
#
# Stress axis : x y z
#
# Youngs Moduli (GPa) = 28.31417 63.97143 77.36045
#
# Poissons Ratio (x) = 0.20771 0.48080
# Poissons Ratio (y) = 0.09193 0.16388
# Poissons Ratio (z) = 0.17598 0.13552
#
# Static dielectric constant tensor:
#      x y z
#    x 2.118580 0.000000 0.040930 
#    y 0.000000 1.684190 0.000000 
#    z 0.040930 0.000000 1.881160 
# 
# From -- ./inp_files/5263.got.cif
#   From: 2010.05.17/outbox.cif.g08.bks.cpg/sg13_3_cif.got.tgz:5263.got - 2010.06.03 16:44:36.
