data_PCOD9227693
_publ_section_title
;
Structure prediction by ZEFSAII (Michael W. Deem and Ramdas Pophale) SiO2 
 PCOD9227693
Probable space group: P 2/C
;
_chemical_formula_sum "Si O2"
_cell_formula_units_Z 24
_cell_length_a 7.078153
_cell_length_b 9.947475
_cell_length_c 12.852259
_cell_angle_alpha 90.000000
_cell_angle_beta 69.520953
_cell_angle_gamma 90.000000
_cell_volume 847.733303
_symmetry_space_group_name_H-M "P 2/C"
_symmetry_group_IT_number 13
_symmetry_cell_setting 'monoclinic'
loop_
_space_group_symop_operation_xyz
x,y,z
-x,y,1/2-z
-x,-y,-z
x,-y,1/2+z
loop_
_atom_site_type_symbol
_atom_site_label
_atom_site_fract_x
_atom_site_fract_y
_atom_site_fract_z
Si Si1 0.284341 0.473526 0.231825
Si Si2 0.608999 0.355253 0.959119
Si Si3 0.314434 0.181594 0.206785
Si Si4 0.080571 0.303551 0.418668
Si Si5 0.919785 0.882110 0.093641
Si Si6 0.314295 0.105926 0.657697
O O1 0.500000 0.490917 0.250000
O O2 0.251109 0.597478 0.165205
O O3 0.106830 0.439480 0.347815
O O4 0.500000 0.500000 0.000000
O O5 0.535404 0.214799 0.921484
O O6 0.299767 0.331572 0.163581
O O7 0.731050 0.317666 0.038819
O O8 0.500000 0.185811 0.250000
O O9 0.123401 0.188670 0.322628
O O10 0.349083 0.052497 0.131766
O O11 0.905398 0.251772 0.525111
O O12 0.108112 0.867173 0.135115
O O13 0.731535 0.895104 0.208651
O O14 0.000000 0.000000 0.000000
#
# Coordination Sequence:
#
# PCOD9227693 Si02
#       6
#     4   4   4   4   4   4
#     4   9  17  33  57  78 119 159 195 242 305 369
#     4  11  19  35  55  84 118 159 201 239 307 375
#     4   9  17  36  55  85 125 150 189 263 306 359
#     4   9  18  34  62  80 115 163 189 252 320 345
#     4  10  18  38  62  84 123 159 205 259 312 367
#     4  10  22  33  62  95 114 161 210 249 311 376
#
# _framework density 28.310791999999999
#
# number of rings (size 3 to 8) (size 9 to 14) (size 15 to 20)
#    1.000    1.333    3.333    0.000    0.000    0.667 
#    0.000   10.000    0.000   14.000    0.000    0.000 
#    0.000    0.000    0.000    0.000    0.000    0.000 
#
# Total GULP energy -133825.023901 kJ/mol
# GULP energy per Si atom -5576.042663 kJ/mol
# Density = 2.824636 g / cm^3
# Si number density = 28.310792 Si / 1000 Ang^3
#
#
#
# Elastic Constant Matrix: (Units=GPa)
#
#
# Indices 1 2 3 4 5 6 
#
# 1 93.9293 27.3132 32.6808 0.0000 0.2770 0.0000
# 2 27.3132 178.9183 92.2512 0.0000 11.1470 0.0000
# 3 32.6808 92.2512 165.4955 0.0000 3.2661 0.0000
# 4 0.0000 0.0000 0.0000 79.9889 0.0000 -1.4919
# 5 0.2770 11.1470 3.2661 0.0000 32.1758 0.0000
# 6 0.0000 0.0000 0.0000 -1.4919 0.0000 11.3879
#
#
#
# Elastic Compliance Matrix: (Units=1/GPa)
#
#
# Indices 1 2 3 4 5 6 
#
# 1 0.011522 -0.000850 -0.001809 0.000000 0.000379 0.000000
# 2 -0.000850 0.008076 -0.004288 0.000000 -0.002355 0.000000
# 3 -0.001809 -0.004288 0.008778 0.000000 0.000610 0.000000
# 4 0.000000 0.000000 0.000000 0.012532 0.000000 0.001642
# 5 0.000379 -0.002355 0.000610 0.000000 0.031830 0.000000
# 6 0.000000 0.000000 0.000000 0.001642 0.000000 0.088027
#
#
# Mechanical properties :
#
#
# Convention : Reuss Voigt Hill
#
# Bulk Modulus (GPa) = 69.04700 82.53705 75.79203
# Shear Modulus (GPa) = 27.85733 43.78374 35.82053
#
# Velocity S-wave (km/s) = 3.14025 3.93687 3.56091
# Velocity P-wave (km/s) = 6.13108 7.06275 6.61334
#
# Compressibility (1/GPa) = 0.01448289
#
# Stress axis : x y z
#
# Youngs Moduli (GPa) = 86.79281 123.81828 113.92501
#
# Poissons Ratio (x) = 0.10521 0.20609
# Poissons Ratio (y) = 0.07375 0.48847
# Poissons Ratio (z) = 0.15701 0.53089
#
# Static dielectric constant tensor:
#      x y z
#    x 2.239610 0.000000 -0.088050 
#    y 0.000000 2.198820 0.000000 
#    z -0.088050 0.000000 2.282560 
# 
# From -- ./inp_files/33138.got.cif
#   From: 2010.05.17/outbox.cif.g08.bks.cpg/sg13_17_cif.got.tgz:33138.got - 2010.06.03 16:44:36.
