data_PCOD9227442
_publ_section_title
;
Structure prediction by ZEFSAII (Michael W. Deem and Ramdas Pophale) SiO2 
 PCOD9227442
Probable space group: P 2/C
;
_chemical_formula_sum "Si O2"
_cell_formula_units_Z 30
_cell_length_a 22.591472
_cell_length_b 9.798409
_cell_length_c 19.981650
_cell_angle_alpha 90.000000
_cell_angle_beta 18.758338
_cell_angle_gamma 90.000000
_cell_volume 1422.383733
_symmetry_space_group_name_H-M "P 2/C"
_symmetry_group_IT_number 13
_symmetry_cell_setting 'monoclinic'
loop_
_space_group_symop_operation_xyz
x,y,z
-x,y,1/2-z
-x,-y,-z
x,-y,1/2+z
loop_
_atom_site_type_symbol
_atom_site_label
_atom_site_fract_x
_atom_site_fract_y
_atom_site_fract_z
Si Si1 0.681206 0.645108 0.993964
Si Si2 0.000000 0.544102 0.750000
Si Si3 0.165959 0.097403 0.344813
Si Si4 0.449865 0.093590 0.917653
Si Si5 0.938161 0.358310 0.095772
Si Si6 0.315523 0.726320 0.241239
Si Si7 0.351560 0.474241 0.291562
Si Si8 0.543378 0.174350 0.366532
O O1 0.847543 0.617889 0.866862
O O2 0.769614 0.622110 0.825720
O O3 0.627478 0.804838 0.055421
O O4 0.499515 0.549036 0.182530
O O5 0.144236 0.473433 0.543966
O O6 0.294034 0.084726 0.272449
O O7 0.103426 0.253933 0.418805
O O8 0.302400 0.094385 0.135960
O O9 0.000000 0.000000 0.500000
O O10 0.619459 0.179961 0.767067
O O11 0.476752 0.932208 0.881046
O O12 0.098341 0.280490 0.964277
O O13 0.000000 0.500000 0.000000
O O14 0.360680 0.570810 0.215513
O O15 0.406800 0.784645 0.075074
O O16 0.405098 0.319607 0.218964
#
# Coordination Sequence:
#
# PCOD9227442 Si02
#       8
#     4   2   4   4   4   4   4   4
#     4  10  23  41  66  92 121 166 217 266 314 382
#     4  12  24  46  68  90 120 168 232 266 322 368
#     4  10  19  30  51  88 133 170 193 237 310 392
#     4   9  20  36  57  90 126 167 205 247 324 386
#     4  11  19  31  55  95 131 152 204 257 310 376
#     4  10  18  35  59  92 134 165 202 249 322 387
#     4  11  23  40  66  93 124 168 214 269 313 379
#     4  11  20  36  60  96 134 168 198 260 331 384
#
# _framework density 21.091355
#
# number of rings (size 3 to 8) (size 9 to 14) (size 15 to 20)
#    0.000    1.600    1.333    6.400    0.000    0.000 
#    0.000    0.000    0.000   10.400    0.000    0.000 
#    0.000    0.000    0.000    0.000    0.000    0.000 
#
# Total GULP energy -167031.509539 kJ/mol
# GULP energy per Si atom -5567.716985 kJ/mol
# Density = 2.104335 g / cm^3
# Si number density = 21.091355 Si / 1000 Ang^3
#
#
#
# Elastic Constant Matrix: (Units=GPa)
#
#
# Indices 1 2 3 4 5 6 
#
# 1 37.7760 9.6837 18.8625 0.0000 -7.8210 0.0000
# 2 9.6837 154.5004 27.0278 0.0000 4.0867 0.0000
# 3 18.8625 27.0278 108.5675 0.0000 -10.8740 0.0000
# 4 0.0000 0.0000 0.0000 20.1023 0.0000 -20.7178
# 5 -7.8210 4.0867 -10.8740 0.0000 29.9624 0.0000
# 6 0.0000 0.0000 0.0000 -20.7178 0.0000 -15.8878
#
#
#
# Elastic Compliance Matrix: (Units=1/GPa)
#
#
# Indices 1 2 3 4 5 6 
#
# 1 0.030302 -0.001323 -0.004280 0.000000 0.006537 0.000000
# 2 -0.001323 0.006899 -0.001677 0.000000 -0.001895 0.000000
# 3 -0.004280 -0.001677 0.010671 0.000000 0.002984 0.000000
# 4 0.000000 0.000000 0.000000 0.021223 0.000000 -0.027675
# 5 0.006537 -0.001895 0.002984 0.000000 0.036423 0.000000
# 6 0.000000 0.000000 0.000000 -0.027675 0.000000 -0.026853
#
#
# Mechanical properties :
#
#
# Convention : Reuss Voigt Hill
#
# Bulk Modulus (GPa) = 30.02159 45.77689 37.89924
# Shear Modulus (GPa) = 47.92468 23.18672 35.55570
#
# Velocity S-wave (km/s) = 4.77198 3.31924 4.11030
# Velocity P-wave (km/s) = 6.68037 6.03664 6.36664
#
# Compressibility (1/GPa) = 0.03330936
#
# Stress axis : x y z
#
# Youngs Moduli (GPa) = 33.00139 144.94878 93.71160
#
# Poissons Ratio (x) = 0.19182 0.40113
# Poissons Ratio (y) = 0.04367 0.15719
# Poissons Ratio (z) = 0.14126 0.24314
#
# Static dielectric constant tensor:
#      x y z
#    x 1.855880 0.000000 -0.039830 
#    y 0.000000 1.817700 0.000000 
#    z -0.039830 0.000000 1.795130 
# 
# From -- ./inp_files/82175.got.cif
#   From: 2010.05.17/outbox.cif.g08.bks.cpg/sg13_42_cif.got.tgz:82175.got - 2010.06.03 16:44:36.
