data_PCOD9227454
_publ_section_title
;
Structure prediction by ZEFSAII (Michael W. Deem and Ramdas Pophale) SiO2 
 PCOD9227454
Probable space group: P 2/C
;
_chemical_formula_sum "Si O2"
_cell_formula_units_Z 32
_cell_length_a 11.935531
_cell_length_b 12.268814
_cell_length_c 19.882907
_cell_angle_alpha 90.000000
_cell_angle_beta 37.936633
_cell_angle_gamma 90.000000
_cell_volume 1789.990445
_symmetry_space_group_name_H-M "P 2/C"
_symmetry_group_IT_number 13
_symmetry_cell_setting 'monoclinic'
loop_
_space_group_symop_operation_xyz
x,y,z
-x,y,1/2-z
-x,-y,-z
x,-y,1/2+z
loop_
_atom_site_type_symbol
_atom_site_label
_atom_site_fract_x
_atom_site_fract_y
_atom_site_fract_z
Si Si1 0.861323 0.726763 0.378929
Si Si2 0.831387 0.279780 0.378129
Si Si3 0.532530 0.377011 0.807564
Si Si4 0.489491 0.846538 0.531149
Si Si5 0.248664 0.174690 0.947999
Si Si6 0.353643 0.501256 0.009062
Si Si7 0.839457 0.202173 0.661125
Si Si8 0.546537 0.962533 0.361855
O O1 0.695364 0.807134 0.441205
O O2 0.759180 0.612756 0.441845
O O3 0.000000 0.716102 0.250000
O O4 0.976069 0.776476 0.386191
O O5 0.652178 0.247410 0.420292
O O6 0.853439 0.204120 0.434298
O O7 0.794752 0.404504 0.414949
O O8 0.000000 0.266172 0.250000
O O9 0.500000 0.425820 0.750000
O O10 0.394263 0.274125 0.876486
O O11 0.724434 0.315238 0.724520
O O12 0.477846 0.465840 0.887371
O O13 0.490314 0.911756 0.460440
O O14 0.428277 0.913332 0.626414
O O15 0.145613 0.178219 0.925755
O O16 0.373388 0.066679 0.896828
O O17 0.500000 0.500000 0.000000
O O18 0.719092 0.103984 0.750929
#
# Coordination Sequence:
#
# PCOD9227454 Si02
#       8
#     4   4   4   4   4   4   4   4
#     4  12  22  35  56  88 119 149 190 244 289 339
#     4  10  20  38  58  82 113 154 192 234 290 346
#     4   8  16  33  56  79 106 152 192 229 277 338
#     4  10  20  36  54  83 115 145 188 238 286 342
#     4   8  17  34  60  82 109 146 199 236 275 344
#     4  11  20  34  56  82 119 148 188 240 288 340
#     4  10  18  35  61  86 110 149 198 241 284 340
#     4   9  17  35  58  80 108 145 189 237 283 330
#
# _framework density 17.877192000000001
#
# number of rings (size 3 to 8) (size 9 to 14) (size 15 to 20)
#    0.000    2.250    2.500    3.000    0.000    0.000 
#    6.750    7.500    2.750    0.000    0.000    0.000 
#    0.000    0.000    0.000    0.000    0.000    0.000 
#
# Total GULP energy -178136.689568 kJ/mol
# GULP energy per Si atom -5566.771549 kJ/mol
# Density = 1.783650 g / cm^3
# Si number density = 17.877192 Si / 1000 Ang^3
#
#
#
# Elastic Constant Matrix: (Units=GPa)
#
#
# Indices 1 2 3 4 5 6 
#
# 1 95.0830 9.1412 31.0007 0.0000 13.1970 0.0000
# 2 9.1412 39.1437 0.9954 0.0000 12.0845 0.0000
# 3 31.0007 0.9954 72.8882 0.0000 14.0561 0.0000
# 4 0.0000 0.0000 0.0000 16.1367 0.0000 10.6382
# 5 13.1970 12.0845 14.0561 0.0000 28.6806 0.0000
# 6 0.0000 0.0000 0.0000 10.6382 0.0000 15.2617
#
#
#
# Elastic Compliance Matrix: (Units=1/GPa)
#
#
# Indices 1 2 3 4 5 6 
#
# 1 0.012655 -0.002033 -0.004856 0.000000 -0.002586 0.000000
# 2 -0.002033 0.030014 0.002996 0.000000 -0.013179 0.000000
# 3 -0.004856 0.002996 0.017180 0.000000 -0.007448 0.000000
# 4 0.000000 0.000000 0.000000 0.114661 0.000000 -0.079925
# 5 -0.002586 -0.013179 -0.007448 0.000000 0.045260 0.000000
# 6 0.000000 0.000000 0.000000 -0.079925 0.000000 0.121235
#
#
# Mechanical properties :
#
#
# Convention : Reuss Voigt Hill
#
# Bulk Modulus (GPa) = 19.20704 32.15439 25.68071
# Shear Modulus (GPa) = 13.65577 23.08098 18.36838
#
# Velocity S-wave (km/s) = 2.76681 3.59707 3.20890
# Velocity P-wave (km/s) = 4.57976 5.93946 5.30336
#
# Compressibility (1/GPa) = 0.05206426
#
# Stress axis : x y z
#
# Youngs Moduli (GPa) = 79.02171 33.31744 58.20620
#
# Poissons Ratio (x) = 0.06774 0.28264
# Poissons Ratio (y) = 0.16067 -0.17441
# Poissons Ratio (z) = 0.38371 -0.09984
#
# Static dielectric constant tensor:
#      x y z
#    x 1.652860 0.000000 0.032350 
#    y 0.000000 1.660210 0.000000 
#    z 0.032350 0.000000 1.637160 
# 
# From -- ./inp_files/78471.got.cif
#   From: 2010.05.17/outbox.cif.g08.bks.cpg/sg13_40_cif.got.tgz:78471.got - 2010.06.03 16:44:36.
