data_PCOD9227885
_publ_section_title
;
Structure prediction by ZEFSAII (Michael W. Deem and Ramdas Pophale) SiO2 
 PCOD9227885
Probable space group: P 2/C
;
_chemical_formula_sum "Si O2"
_cell_formula_units_Z 28
_cell_length_a 36.999058
_cell_length_b 7.013023
_cell_length_c 5.278938
_cell_angle_alpha 90.000000
_cell_angle_beta 111.152645
_cell_angle_gamma 90.000000
_cell_volume 1277.462964
_symmetry_space_group_name_H-M "P 2/C"
_symmetry_group_IT_number 13
_symmetry_cell_setting 'monoclinic'
loop_
_space_group_symop_operation_xyz
x,y,z
-x,y,1/2-z
-x,-y,-z
x,-y,1/2+z
loop_
_atom_site_type_symbol
_atom_site_label
_atom_site_fract_x
_atom_site_fract_y
_atom_site_fract_z
Si Si1 0.735844 0.286854 0.955926
Si Si2 0.459394 0.127264 0.591019
Si Si3 0.098753 0.870334 0.715713
Si Si4 0.295743 0.715139 0.623885
Si Si5 0.017418 0.712452 0.543883
Si Si6 0.185186 0.872182 0.987566
Si Si7 0.375664 0.129062 0.466129
O O1 0.719796 0.500468 0.952588
O O2 0.709491 0.197994 0.667828
O O3 0.730841 0.198919 0.221210
O O4 0.779681 0.272006 0.972032
O O5 0.500000 0.232315 0.750000
O O6 0.417977 0.224002 0.535525
O O7 0.459695 0.041629 0.306981
O O8 0.063596 0.723692 0.655346
O O9 0.142066 0.787066 0.849199
O O10 0.095330 0.977472 0.437266
O O11 0.339542 0.732736 0.828583
O O12 0.000000 0.802128 0.750000
O O13 0.000000 0.500000 0.500000
O O14 0.000000 0.802838 0.250000
O O15 0.188184 0.030527 0.771039
O O16 0.373549 0.030754 0.736890
#
# Coordination Sequence:
#
# PCOD9227885 Si02
#       7
#     4   4   4   4   4   4   4
#     4  10  21  37  53  73 103 139 175 210 258 316
#     4   8  14  25  41  64  96 129 162 205 255 303
#     4  10  21  37  58  84 111 139 173 216 263 307
#     4  10  21  35  50  74 104 138 174 210 262 312
#     4  10  21  37  55  82 115 146 178 211 253 305
#     4  10  21  37  58  82 106 134 172 219 265 310
#     4  10  19  30  48  75 103 133 172 216 257 301
#
# _framework density 21.918444000000001
#
# number of rings (size 3 to 8) (size 9 to 14) (size 15 to 20)
#    0.000    2.286    0.000    2.571    0.000    5.143 
#    0.000    5.714    0.000    0.000    0.000    4.000 
#    0.000    0.000    0.000    0.000    0.000    0.286 
#
# Total GULP energy -156145.238354 kJ/mol
# GULP energy per Si atom -5576.615656 kJ/mol
# Density = 2.186856 g / cm^3
# Si number density = 21.918444 Si / 1000 Ang^3
#
#
#
# Elastic Constant Matrix: (Units=GPa)
#
#
# Indices 1 2 3 4 5 6 
#
# 1 163.7709 15.4752 24.3088 0.0000 35.2258 0.0000
# 2 15.4752 61.1778 -8.4958 0.0000 13.2558 0.0000
# 3 24.3088 -8.4958 126.0457 0.0000 -23.8386 0.0000
# 4 0.0000 0.0000 0.0000 6.4287 0.0000 23.3151
# 5 35.2258 13.2558 -23.8386 0.0000 65.8386 0.0000
# 6 0.0000 0.0000 0.0000 23.3151 0.0000 28.8091
#
#
#
# Elastic Compliance Matrix: (Units=1/GPa)
#
#
# Indices 1 2 3 4 5 6 
#
# 1 0.007595 -0.001242 -0.002437 0.000000 -0.004696 0.000000
# 2 -0.001242 0.017329 0.000938 0.000000 -0.002485 0.000000
# 3 -0.002437 0.000938 0.009316 0.000000 0.004488 0.000000
# 4 0.000000 0.000000 0.000000 -0.080385 0.000000 0.065055
# 5 -0.004696 -0.002485 0.004488 0.000000 0.019826 0.000000
# 6 0.000000 0.000000 0.000000 0.065055 0.000000 -0.017938
#
#
# Mechanical properties :
#
#
# Convention : Reuss Voigt Hill
#
# Bulk Modulus (GPa) = 34.77414 45.95230 40.36322
# Shear Modulus (GPa) = -171.29469 41.52903 -64.88283
#
# Velocity S-wave (km/s) = -8.84989 4.35755 -5.44667
# Velocity P-wave (km/s) = 9.40892 6.80649 4.59345
#
# Compressibility (1/GPa) = 0.02875701
#
# Stress axis : x y z
#
# Youngs Moduli (GPa) = 131.66284 57.70804 107.34793
#
# Poissons Ratio (x) = 0.07168 0.26156
# Poissons Ratio (y) = 0.16354 -0.10065
# Poissons Ratio (z) = 0.32081 -0.05411
#
# Static dielectric constant tensor:
#      x y z
#    x 1.843120 0.000000 -0.011290 
#    y 0.000000 1.476430 0.000000 
#    z -0.011290 0.000000 1.865710 
# 
# From -- ./inp_files/8054.got.cif
#   From: 2010.05.17/outbox.cif.g08.bks.cpg/sg13_5_cif.got.tgz:8054.got - 2010.06.03 16:44:36.
