data_PCOD9227287
_publ_section_title
;
Structure prediction by ZEFSAII (Michael W. Deem and Ramdas Pophale) SiO2 
 PCOD9227287
Probable space group: P 2/C
;
_chemical_formula_sum "Si O2"
_cell_formula_units_Z 32
_cell_length_a 18.174558
_cell_length_b 9.255869
_cell_length_c 23.507355
_cell_angle_alpha 90.000000
_cell_angle_beta 152.621192
_cell_angle_gamma 90.000000
_cell_volume 1818.533066
_symmetry_space_group_name_H-M "P 2/C"
_symmetry_group_IT_number 13
_symmetry_cell_setting 'monoclinic'
loop_
_space_group_symop_operation_xyz
x,y,z
-x,y,1/2-z
-x,-y,-z
x,-y,1/2+z
loop_
_atom_site_type_symbol
_atom_site_label
_atom_site_fract_x
_atom_site_fract_y
_atom_site_fract_z
Si Si1 0.634447 0.876689 0.590335
Si Si2 0.459821 0.756917 0.656441
Si Si3 0.803637 0.017606 0.494314
Si Si4 0.314609 0.807843 0.003126
Si Si5 0.587729 0.501957 0.463548
Si Si6 0.356941 0.040919 0.732552
Si Si7 0.365739 0.658028 0.396341
Si Si8 0.155599 0.915589 0.200668
O O1 0.697408 0.862104 0.569736
O O2 0.530468 0.734997 0.531337
O O3 0.500000 0.000000 0.500000
O O4 0.770926 0.934892 0.724590
O O5 0.500000 0.719698 0.750000
O O6 0.296825 0.851266 0.546991
O O7 0.447002 0.621488 0.606226
O O8 0.589219 0.873796 0.722724
O O9 0.698602 0.953684 0.370439
O O10 0.968441 0.077547 0.583078
O O11 0.815647 0.888547 0.548036
O O12 0.321885 0.635447 0.004297
O O13 0.487455 0.864408 0.144947
O O14 0.428320 0.569177 0.384441
O O15 0.684640 0.437305 0.584313
O O16 0.214978 0.087988 0.676660
O O17 0.241176 0.781083 0.291771
#
# Coordination Sequence:
#
# PCOD9227287 Si02
#       8
#     4   4   4   4   4   4   4   4
#     4   9  16  30  54  81 102 130 181 229 263 320
#     4   9  20  35  56  80 107 147 189 221 264 332
#     4  10  23  34  54  83 116 144 180 226 286 323
#     4  10  19  35  55  85 109 137 186 231 272 325
#     4  10  18  34  58  79 107 139 187 228 270 320
#     4  10  18  37  57  81 107 143 189 233 258 326
#     4   9  19  32  56  87 102 139 189 232 268 326
#     4  11  19  34  58  84 108 143 183 230 281 324
#
# _framework density 17.596601
#
# number of rings (size 3 to 8) (size 9 to 14) (size 15 to 20)
#    0.000    2.250    3.750    2.250    5.250    1.500 
#    0.000    0.000   16.500    1.500    0.000    0.000 
#    0.000    0.000    0.000    0.000    0.000    0.000 
#
# Total GULP energy -178235.065997 kJ/mol
# GULP energy per Si atom -5569.845812 kJ/mol
# Density = 1.755655 g / cm^3
# Si number density = 17.596601 Si / 1000 Ang^3
#
#
#
# Elastic Constant Matrix: (Units=GPa)
#
#
# Indices 1 2 3 4 5 6 
#
# 1 75.3306 47.8311 13.6662 0.0000 3.5431 0.0000
# 2 47.8311 96.9333 5.1691 0.0000 -11.9430 0.0000
# 3 13.6662 5.1691 15.6702 0.0000 1.8866 0.0000
# 4 0.0000 0.0000 0.0000 16.8196 0.0000 -9.1135
# 5 3.5431 -11.9430 1.8866 0.0000 26.1351 0.0000
# 6 0.0000 0.0000 0.0000 -9.1135 0.0000 36.9932
#
#
#
# Elastic Compliance Matrix: (Units=1/GPa)
#
#
# Indices 1 2 3 4 5 6 
#
# 1 0.024206 -0.012015 -0.016232 0.000000 -0.007600 0.000000
# 2 -0.012015 0.017183 0.003701 0.000000 0.009214 0.000000
# 3 -0.016232 0.003701 0.076951 0.000000 -0.001663 0.000000
# 4 0.000000 0.000000 0.000000 0.068613 0.000000 0.016903
# 5 -0.007600 0.009214 -0.001663 0.000000 0.043624 0.000000
# 6 0.000000 0.000000 0.000000 0.016903 0.000000 0.031196
#
#
# Mechanical properties :
#
#
# Convention : Reuss Voigt Hill
#
# Bulk Modulus (GPa) = 14.44089 35.69632 25.06861
# Shear Modulus (GPa) = 14.97243 24.07408 19.52326
#
# Velocity S-wave (km/s) = 2.92013 3.70281 3.33451
# Velocity P-wave (km/s) = 4.42651 6.21378 5.39468
#
# Compressibility (1/GPa) = 0.06924779
#
# Stress axis : x y z
#
# Youngs Moduli (GPa) = 41.31198 58.19688 12.99536
#
# Poissons Ratio (x) = 0.69925 0.21094
# Poissons Ratio (y) = 0.49637 -0.04810
# Poissons Ratio (z) = 0.67057 -0.21539
#
# Static dielectric constant tensor:
#      x y z
#    x 1.625640 0.000000 -0.008070 
#    y 0.000000 1.622610 0.000000 
#    z -0.008070 0.000000 1.601360 
# 
# From -- ./inp_files/87915.got.cif
#   From: 2010.05.17/outbox.cif.g08.bks.cpg/sg13_44_cif.got.tgz:87915.got - 2010.06.03 16:44:36.
