data_PCOD9227613
_publ_section_title
;
Structure prediction by ZEFSAII (Michael W. Deem and Ramdas Pophale) SiO2 
 PCOD9227613
Probable space group: P 2/C
;
_chemical_formula_sum "Si O2"
_cell_formula_units_Z 14
_cell_length_a 9.469709
_cell_length_b 17.601874
_cell_length_c 4.919144
_cell_angle_alpha 90.000000
_cell_angle_beta 62.309679
_cell_angle_gamma 90.000000
_cell_volume 726.039047
_symmetry_space_group_name_H-M "P 2/C"
_symmetry_group_IT_number 13
_symmetry_cell_setting 'monoclinic'
loop_
_space_group_symop_operation_xyz
x,y,z
-x,y,1/2-z
-x,-y,-z
x,-y,1/2+z
loop_
_atom_site_type_symbol
_atom_site_label
_atom_site_fract_x
_atom_site_fract_y
_atom_site_fract_z
Si Si1 0.812800 0.049717 0.952238
Si Si2 0.608429 0.188647 0.908198
Si Si3 0.106740 0.298764 0.884541
Si Si4 0.000000 0.556793 0.250000
O O1 0.702082 0.117139 0.950063
O O2 0.000000 0.068913 0.750000
O O3 0.784304 0.976422 0.785315
O O4 0.500000 0.166856 0.750000
O O5 0.737000 0.250991 0.699831
O O6 0.500000 0.219948 0.250000
O O7 0.134796 0.380558 0.713012
O O8 0.000000 0.256784 0.750000
O O9 0.000000 0.309584 0.250000
O O10 0.000000 0.500000 0.500000
#
# Coordination Sequence:
#
# PCOD9227613 Si02
#       4
#     4   4   4   2
#     4  10  22  40  60  83 114 158 207 254 295 343
#     4  12  25  38  59  89 126 160 197 247 301 357
#     4  10  21  38  63  89 117 158 196 248 282 360
#     4  10  18  36  66  96 112 144 202 252 282 338
#
# _framework density 19.282709000000001
#
# number of rings (size 3 to 8) (size 9 to 14) (size 15 to 20)
#    0.857    0.571    1.429    4.286    0.000    6.857 
#    0.000    0.000    0.000    5.143    0.000    0.000 
#    0.000    0.000    0.000    0.000    0.000    0.000 
#
# Total GULP energy -78022.333147 kJ/mol
# GULP energy per Si atom -5573.023796 kJ/mol
# Density = 1.923882 g / cm^3
# Si number density = 19.282709 Si / 1000 Ang^3
#
#
#
# Elastic Constant Matrix: (Units=GPa)
#
#
# Indices 1 2 3 4 5 6 
#
# 1 117.8598 44.0193 28.5774 0.0000 9.3907 0.0000
# 2 44.0193 87.0379 9.2035 0.0000 -13.8330 0.0000
# 3 28.5774 9.2035 90.6232 0.0000 12.1184 0.0000
# 4 0.0000 0.0000 0.0000 11.7232 0.0000 5.0608
# 5 9.3907 -13.8330 12.1184 0.0000 31.1714 0.0000
# 6 0.0000 0.0000 0.0000 5.0608 0.0000 2.3659
#
#
#
# Elastic Compliance Matrix: (Units=1/GPa)
#
#
# Indices 1 2 3 4 5 6 
#
# 1 0.012025 -0.006740 -0.002345 0.000000 -0.005702 0.000000
# 2 -0.006740 0.016529 -0.000850 0.000000 0.009696 0.000000
# 3 -0.002345 -0.000850 0.012464 0.000000 -0.004516 0.000000
# 4 0.000000 0.000000 0.000000 1.114005 0.000000 -2.382959
# 5 -0.005702 0.009696 -0.004516 0.000000 0.039857 0.000000
# 6 0.000000 0.000000 0.000000 -2.382959 0.000000 5.520044
#
#
# Mechanical properties :
#
#
# Convention : Reuss Voigt Hill
#
# Bulk Modulus (GPa) = 47.28408 51.01347 49.14877
# Shear Modulus (GPa) = 0.74164 23.30013 12.02088
#
# Velocity S-wave (km/s) = 0.62084 3.47989 2.49951
# Velocity P-wave (km/s) = 5.00886 6.53140 5.82013
#
# Compressibility (1/GPa) = 0.02114877
#
# Stress axis : x y z
#
# Youngs Moduli (GPa) = 83.16165 60.50083 80.22825
#
# Poissons Ratio (x) = 0.40776 0.18813
# Poissons Ratio (y) = 0.56049 0.06818
# Poissons Ratio (z) = 0.19501 0.05141
#
# Static dielectric constant tensor:
#      x y z
#    x 1.687270 0.000000 0.002170 
#    y 0.000000 1.689380 0.000000 
#    z 0.002170 0.000000 1.685320 
# 
# From -- ./inp_files/1253.got.cif
#   From: 2010.05.17/outbox.cif.g08.bks.cpg/sg13_1_cif.got.tgz:1253.got - 2010.06.03 16:44:36.
