data_PCOD9227488
_publ_section_title
;
Structure prediction by ZEFSAII (Michael W. Deem and Ramdas Pophale) SiO2 
 PCOD9227488
Probable space group: P 2/C
;
_chemical_formula_sum "Si O2"
_cell_formula_units_Z 12
_cell_length_a 5.607507
_cell_length_b 11.532468
_cell_length_c 8.905413
_cell_angle_alpha 90.000000
_cell_angle_beta 57.247979
_cell_angle_gamma 90.000000
_cell_volume 484.342340
_symmetry_space_group_name_H-M "P 2/C"
_symmetry_group_IT_number 13
_symmetry_cell_setting 'monoclinic'
loop_
_space_group_symop_operation_xyz
x,y,z
-x,y,1/2-z
-x,-y,-z
x,-y,1/2+z
loop_
_atom_site_type_symbol
_atom_site_label
_atom_site_fract_x
_atom_site_fract_y
_atom_site_fract_z
Si Si1 0.201905 0.546170 0.297575
Si Si2 0.801511 0.156478 0.108102
Si Si3 0.000000 0.332632 0.250000
Si Si4 0.000000 0.046300 0.750000
O O1 0.500000 0.594716 0.250000
O O2 0.254175 0.424131 0.189895
O O3 0.000000 0.615125 0.250000
O O4 0.000000 0.500000 0.500000
O O5 0.500000 0.208896 0.250000
O O6 0.027468 0.247320 0.098358
O O7 0.828969 0.122804 0.926597
O O8 0.824341 0.039820 0.201474
#
# Coordination Sequence:
#
# PCOD9227488 Si02
#       4
#     4   4   2   2
#     4  10  21  40  63  87 117 157 197 246 299 357
#     4  10  18  36  54  79 114 150 192 242 292 345
#     4   9  22  34  57  78 122 148 191 246 296 347
#     4   9  20  32  55  82 106 154 197 234 290 353
#
# _framework density 24.775863999999999
#
# number of rings (size 3 to 8) (size 9 to 14) (size 15 to 20)
#    1.000    1.333    0.000    3.000    0.000    0.000 
#    3.000    0.000    0.000    0.000    0.000    0.000 
#    0.000    0.000    0.000    0.000    0.000    0.000 
#
# Total GULP energy -66890.685133 kJ/mol
# GULP energy per Si atom -5574.223761 kJ/mol
# Density = 2.471947 g / cm^3
# Si number density = 24.775864 Si / 1000 Ang^3
#
#
#
# Elastic Constant Matrix: (Units=GPa)
#
#
# Indices 1 2 3 4 5 6 
#
# 1 141.0146 5.4977 52.7789 0.0000 3.6796 0.0000
# 2 5.4977 89.6379 21.8303 0.0000 3.5485 0.0000
# 3 52.7789 21.8303 145.7361 0.0000 23.9712 0.0000
# 4 0.0000 0.0000 0.0000 3.0585 0.0000 7.4607
# 5 3.6796 3.5485 23.9712 0.0000 31.4851 0.0000
# 6 0.0000 0.0000 0.0000 7.4607 0.0000 11.4539
#
#
#
# Elastic Compliance Matrix: (Units=1/GPa)
#
#
# Indices 1 2 3 4 5 6 
#
# 1 0.008270 0.000231 -0.003277 0.000000 0.001502 0.000000
# 2 0.000231 0.011585 -0.001829 0.000000 0.000060 0.000000
# 3 -0.003277 -0.001829 0.009403 0.000000 -0.006570 0.000000
# 4 0.000000 0.000000 0.000000 -0.555193 0.000000 0.361635
# 5 0.001502 0.000060 -0.006570 0.000000 0.036581 0.000000
# 6 0.000000 0.000000 0.000000 0.361635 0.000000 -0.148251
#
#
# Mechanical properties :
#
#
# Convention : Reuss Voigt Hill
#
# Bulk Modulus (GPa) = 51.25842 59.62247 55.44044
# Shear Modulus (GPa) = -8.04693 28.95160 10.45234
#
# Velocity S-wave (km/s) = -1.80415 3.42210 2.05619
# Velocity P-wave (km/s) = 4.04893 6.30328 5.29741
#
# Compressibility (1/GPa) = 0.01950899
#
# Stress axis : x y z
#
# Youngs Moduli (GPa) = 120.92460 86.31952 106.34958
#
# Poissons Ratio (x) = -0.01997 0.34846
# Poissons Ratio (y) = -0.02797 0.19451
# Poissons Ratio (z) = 0.39622 0.15787
#
# Static dielectric constant tensor:
#      x y z
#    x 2.075480 0.000000 0.053990 
#    y 0.000000 1.976370 0.000000 
#    z 0.053990 0.000000 2.047190 
# 
# From -- ./inp_files/8618.got.cif
#   From: 2010.05.17/outbox.cif.g08.bks.cpg/sg13_5_cif.got.tgz:8618.got - 2010.06.03 16:44:36.
