data_PCOD9227666
_publ_section_title
;
Structure prediction by ZEFSAII (Michael W. Deem and Ramdas Pophale) SiO2 
 PCOD9227666
Probable space group: P 2/C
;
_chemical_formula_sum "Si O2"
_cell_formula_units_Z 26
_cell_length_a 10.153617
_cell_length_b 8.161652
_cell_length_c 28.638490
_cell_angle_alpha 90.000000
_cell_angle_beta 36.376485
_cell_angle_gamma 90.000000
_cell_volume 1407.565025
_symmetry_space_group_name_H-M "P 2/C"
_symmetry_group_IT_number 13
_symmetry_cell_setting 'monoclinic'
loop_
_space_group_symop_operation_xyz
x,y,z
-x,y,1/2-z
-x,-y,-z
x,-y,1/2+z
loop_
_atom_site_type_symbol
_atom_site_label
_atom_site_fract_x
_atom_site_fract_y
_atom_site_fract_z
Si Si1 0.748400 0.496637 0.514272
Si Si2 0.546114 0.183575 0.925788
Si Si3 0.500000 0.249283 0.750000
Si Si4 0.500000 0.768375 0.750000
Si Si5 0.841698 0.015771 0.693868
Si Si6 0.711764 0.862146 0.483030
Si Si7 0.241608 0.517285 0.878025
Si Si8 0.000000 0.917198 0.250000
O O1 0.580343 0.354195 0.546814
O O2 0.711765 0.685758 0.508832
O O3 0.756131 0.493560 0.567820
O O4 0.997129 0.446574 0.428367
O O5 0.590142 0.171692 0.968575
O O6 0.779529 0.178371 0.830914
O O7 0.407247 0.014239 0.956017
O O8 0.645138 0.149406 0.745929
O O9 0.328217 0.357260 0.827536
O O10 0.413146 0.657941 0.816559
O O11 0.713118 0.865574 0.707492
O O12 0.924505 0.991812 0.723505
O O13 0.045219 0.075567 0.603202
#
# Coordination Sequence:
#
# PCOD9227666 Si02
#       8
#     4   4   2   2   4   4   4   2
#     4  11  21  39  60  90 118 159 200 252 293 359
#     4  10  22  39  61  87 123 157 201 249 300 361
#     4  10  18  38  58  82 120 160 186 250 298 356
#     4  10  22  38  60  86 122 162 194 252 302 356
#     4  10  20  37  61  86 117 160 199 241 309 351
#     4  10  21  39  62  89 120 162 199 244 305 361
#     4  10  22  36  57  86 120 151 205 245 294 356
#     4  10  22  38  60  88 120 152 204 256 292 364
#
# _framework density 18.471616000000001
#
# number of rings (size 3 to 8) (size 9 to 14) (size 15 to 20)
#    0.000    1.846    1.538    2.308    2.154    0.000 
#    0.000    3.077    0.000    0.000    0.000    0.000 
#    0.000    0.000    0.000    0.000    0.000    0.000 
#
# Total GULP energy -144755.895133 kJ/mol
# GULP energy per Si atom -5567.534428 kJ/mol
# Density = 1.842957 g / cm^3
# Si number density = 18.471616 Si / 1000 Ang^3
#
#
#
# Elastic Constant Matrix: (Units=GPa)
#
#
# Indices 1 2 3 4 5 6 
#
# 1 70.7279 25.7535 16.1171 0.0000 -9.6966 0.0000
# 2 25.7535 94.5467 36.0484 0.0000 -11.9711 0.0000
# 3 16.1171 36.0484 94.5936 0.0000 -13.6186 0.0000
# 4 0.0000 0.0000 0.0000 21.5516 0.0000 -27.4497
# 5 -9.6966 -11.9711 -13.6186 0.0000 30.9176 0.0000
# 6 0.0000 0.0000 0.0000 -27.4497 0.0000 -124.5807
#
#
#
# Elastic Compliance Matrix: (Units=1/GPa)
#
#
# Indices 1 2 3 4 5 6 
#
# 1 0.016112 -0.003637 -0.000891 0.000000 0.003252 0.000000
# 2 -0.003637 0.013444 -0.004184 0.000000 0.002222 0.000000
# 3 -0.000891 -0.004184 0.012860 0.000000 0.003765 0.000000
# 4 0.000000 0.000000 0.000000 0.036232 0.000000 -0.007983
# 5 0.003252 0.002222 0.003765 0.000000 0.035883 0.000000
# 6 0.000000 0.000000 0.000000 -0.007983 0.000000 -0.006268
#
#
# Mechanical properties :
#
#
# Convention : Reuss Voigt Hill
#
# Bulk Modulus (GPa) = 40.01264 46.18959 43.10112
# Shear Modulus (GPa) = 37.30862 -2.29234 17.50814
#
# Velocity S-wave (km/s) = 4.49907 -1.11521 3.08204
# Velocity P-wave (km/s) = 6.97837 4.83753 6.00414
#
# Compressibility (1/GPa) = 0.02499210
#
# Stress axis : x y z
#
# Youngs Moduli (GPa) = 62.06553 74.38255 77.76198
#
# Poissons Ratio (x) = 0.27055 0.06927
# Poissons Ratio (y) = 0.22575 0.32534
# Poissons Ratio (z) = 0.05529 0.31120
#
# Static dielectric constant tensor:
#      x y z
#    x 1.622200 0.000000 -0.019590 
#    y 0.000000 1.649560 0.000000 
#    z -0.019590 0.000000 1.673700 
# 
# From -- ./inp_files/63782.got.cif
#   From: 2010.05.17/outbox.cif.g08.bks.cpg/sg13_32_cif.got.tgz:63782.got - 2010.06.03 16:44:36.
