data_PCOD9227457
_publ_section_title
;
Structure prediction by ZEFSAII (Michael W. Deem and Ramdas Pophale) SiO2 
 PCOD9227457
Probable space group: P 2/C
;
_chemical_formula_sum "Si O2"
_cell_formula_units_Z 28
_cell_length_a 12.007923
_cell_length_b 7.720668
_cell_length_c 16.699157
_cell_angle_alpha 90.000000
_cell_angle_beta 54.005030
_cell_angle_gamma 90.000000
_cell_volume 1252.571894
_symmetry_space_group_name_H-M "P 2/C"
_symmetry_group_IT_number 13
_symmetry_cell_setting 'monoclinic'
loop_
_space_group_symop_operation_xyz
x,y,z
-x,y,1/2-z
-x,-y,-z
x,-y,1/2+z
loop_
_atom_site_type_symbol
_atom_site_label
_atom_site_fract_x
_atom_site_fract_y
_atom_site_fract_z
Si Si1 0.452313 0.670241 0.570539
Si Si2 0.158452 0.375159 0.389576
Si Si3 0.686643 0.861315 0.566777
Si Si4 0.612331 0.766770 0.066708
Si Si5 0.144596 0.768167 0.159263
Si Si6 0.676016 0.603930 0.284315
Si Si7 0.894421 0.444634 0.428244
O O1 0.500000 0.500000 0.500000
O O2 0.565793 0.739442 0.583093
O O3 0.422929 0.803923 0.512368
O O4 0.329040 0.587465 0.672139
O O5 0.257222 0.219320 0.374445
O O6 0.237589 0.550853 0.329400
O O7 0.095904 0.418854 0.502988
O O8 0.034950 0.338012 0.379969
O O9 0.790999 0.861802 0.445676
O O10 0.636357 0.054943 0.601166
O O11 0.753370 0.658991 0.999319
O O12 0.481430 0.665291 0.158840
O O13 0.249592 0.741020 0.188847
O O14 0.115842 0.570133 0.142826
O O15 0.000000 0.843776 0.250000
#
# Coordination Sequence:
#
# PCOD9227457 Si02
#       7
#     4   4   4   4   4   4   4
#     4  10  18  35  61  89 113 156 214 259 298 366
#     4  10  22  39  61  91 124 167 212 260 310 386
#     4  11  23  39  61  93 136 165 201 261 340 374
#     4  11  22  38  65  92 125 167 204 263 332 379
#     4  11  19  36  64  94 120 167 224 266 301 378
#     4  11  20  37  66  95 119 159 226 271 300 373
#     4  10  21  39  62  88 122 167 215 253 319 381
#
# _framework density 22.354005999999998
#
# number of rings (size 3 to 8) (size 9 to 14) (size 15 to 20)
#    0.000    1.429    5.714    3.000    0.000    2.857 
#    0.000    5.000    0.000    0.000    0.000    0.000 
#    0.000    0.000    0.000    0.000    0.000    0.000 
#
# Total GULP energy -156088.807344 kJ/mol
# GULP energy per Si atom -5574.600262 kJ/mol
# Density = 2.230313 g / cm^3
# Si number density = 22.354006 Si / 1000 Ang^3
#
#
#
# Elastic Constant Matrix: (Units=GPa)
#
#
# Indices 1 2 3 4 5 6 
#
# 1 113.4764 24.3587 15.4352 0.0000 -22.0151 0.0000
# 2 24.3587 49.2938 -2.1581 0.0000 -6.0244 0.0000
# 3 15.4352 -2.1581 67.9520 0.0000 -15.1624 0.0000
# 4 0.0000 0.0000 0.0000 10.7833 0.0000 6.4045
# 5 -22.0151 -6.0244 -15.1624 0.0000 32.5817 0.0000
# 6 0.0000 0.0000 0.0000 6.4045 0.0000 22.9295
#
#
#
# Elastic Compliance Matrix: (Units=1/GPa)
#
#
# Indices 1 2 3 4 5 6 
#
# 1 0.011213 -0.004861 -0.001352 0.000000 0.006049 0.000000
# 2 -0.004861 0.023038 0.002291 0.000000 0.002042 0.000000
# 3 -0.001352 0.002291 0.016723 0.000000 0.007293 0.000000
# 4 0.000000 0.000000 0.000000 0.111179 0.000000 -0.031054
# 5 0.006049 0.002042 0.007293 0.000000 0.038551 0.000000
# 6 0.000000 0.000000 0.000000 -0.031054 0.000000 0.052286
#
#
# Mechanical properties :
#
#
# Convention : Reuss Voigt Hill
#
# Bulk Modulus (GPa) = 23.18443 33.99932 28.59187
# Shear Modulus (GPa) = 18.16793 26.13132 22.14963
#
# Velocity S-wave (km/s) = 2.85395 3.42274 3.15120
# Velocity P-wave (km/s) = 4.61021 5.55542 5.10474
#
# Compressibility (1/GPa) = 0.04313240
#
# Stress axis : x y z
#
# Youngs Moduli (GPa) = 89.18042 43.40573 59.79656
#
# Poissons Ratio (x) = 0.21099 0.08083
# Poissons Ratio (y) = 0.43350 -0.13702
# Poissons Ratio (z) = 0.12055 -0.09946
#
# Static dielectric constant tensor:
#      x y z
#    x 1.947180 0.000000 -0.005300 
#    y 0.000000 1.832670 0.000000 
#    z -0.005300 0.000000 1.954550 
# 
# From -- ./inp_files/77778.got.cif
#   From: 2010.05.17/outbox.cif.g08.bks.cpg/sg13_39_cif.got.tgz:77778.got - 2010.06.03 16:44:36.
