data_PCOD9227838
_publ_section_title
;
Structure prediction by ZEFSAII (Michael W. Deem and Ramdas Pophale) SiO2 
 PCOD9227838
Probable space group: P 2/C
;
_chemical_formula_sum "Si O2"
_cell_formula_units_Z 32
_cell_length_a 12.453938
_cell_length_b 26.166167
_cell_length_c 5.275304
_cell_angle_alpha 90.000000
_cell_angle_beta 91.716399
_cell_angle_gamma 90.000000
_cell_volume 1718.301624
_symmetry_space_group_name_H-M "P 2/C"
_symmetry_group_IT_number 13
_symmetry_cell_setting 'monoclinic'
loop_
_space_group_symop_operation_xyz
x,y,z
-x,y,1/2-z
-x,-y,-z
x,-y,1/2+z
loop_
_atom_site_type_symbol
_atom_site_label
_atom_site_fract_x
_atom_site_fract_y
_atom_site_fract_z
Si Si1 0.123771 0.966534 0.283295
Si Si2 0.117830 0.557772 0.301898
Si Si3 0.808120 0.610803 0.700813
Si Si4 0.879417 0.822812 0.817364
Si Si5 0.742850 0.727817 0.743016
Si Si6 0.672210 0.482991 0.179903
Si Si7 0.627264 0.229620 0.734141
Si Si8 0.224470 0.137717 0.691101
O O1 0.210229 0.922035 0.245005
O O2 0.000000 0.946394 0.250000
O O3 0.134211 0.991777 0.560274
O O4 0.121013 0.589869 0.561287
O O5 0.213693 0.515868 0.322628
O O6 0.000000 0.534611 0.250000
O O7 0.142759 0.595154 0.067135
O O8 0.778482 0.669362 0.733664
O O9 0.701139 0.575859 0.709440
O O10 0.846939 0.763995 0.776623
O O11 0.807419 0.852503 0.603532
O O12 0.000000 0.833516 0.750000
O O13 0.856006 0.837597 0.105338
O O14 0.682694 0.743271 0.479611
O O15 0.669802 0.743529 0.979818
O O16 0.615737 0.505157 0.417171
O O17 0.500000 0.232515 0.750000
O O18 0.668374 0.170543 0.745558
#
# Coordination Sequence:
#
# PCOD9227838 Si02
#       8
#     4   4   4   4   4   4   4   4
#     4  10  19  30  48  76 109 143 176 207 240 283
#     4  10  19  29  43  64  95 138 181 209 234 287
#     4  10  19  31  44  64  97 128 162 208 256 295
#     4  10  19  31  48  71 103 141 174 202 244 305
#     4  10  21  35  52  78 104 128 166 214 262 311
#     4   8  16  27  41  59  86 123 169 204 238 286
#     4  10  21  39  61  79  98 128 171 222 268 313
#     4  10  20  34  53  75 103 139 176 214 252 296
#
# _framework density 18.623038000000001
#
# number of rings (size 3 to 8) (size 9 to 14) (size 15 to 20)
#    0.000    2.250    0.000    3.375    0.000    6.500 
#    0.000    0.000    0.000    0.750    0.000    0.000 
#    0.000   90.000    0.000    0.000    0.000    0.000 
#
# Total GULP energy -178419.575643 kJ/mol
# GULP energy per Si atom -5575.611739 kJ/mol
# Density = 1.858065 g / cm^3
# Si number density = 18.623038 Si / 1000 Ang^3
#
#
#
# Elastic Constant Matrix: (Units=GPa)
#
#
# Indices 1 2 3 4 5 6 
#
# 1 31.2858 -0.7057 -9.8541 0.0000 -1.1621 0.0000
# 2 -0.7057 81.1161 3.9625 0.0000 3.5741 0.0000
# 3 -9.8541 3.9625 103.0423 0.0000 1.6276 0.0000
# 4 0.0000 0.0000 0.0000 17.6723 0.0000 6.6737
# 5 -1.1621 3.5741 1.6276 0.0000 13.1904 0.0000
# 6 0.0000 0.0000 0.0000 6.6737 0.0000 -22.2646
#
#
#
# Elastic Compliance Matrix: (Units=1/GPa)
#
#
# Indices 1 2 3 4 5 6 
#
# 1 0.033040 0.000024 0.003119 0.000000 0.002520 0.000000
# 2 0.000024 0.012496 -0.000426 0.000000 -0.003331 0.000000
# 3 0.003119 -0.000426 0.010033 0.000000 -0.000848 0.000000
# 4 0.000000 0.000000 0.000000 0.050832 0.000000 0.015237
# 5 0.002520 -0.003331 -0.000848 0.000000 0.077042 0.000000
# 6 0.000000 0.000000 0.000000 0.015237 0.000000 -0.040347
#
#
# Mechanical properties :
#
#
# Convention : Reuss Voigt Hill
#
# Bulk Modulus (GPa) = 16.39260 22.47220 19.43240
# Shear Modulus (GPa) = 31.64664 16.52239 24.08451
#
# Velocity S-wave (km/s) = 4.12676 2.98182 3.60010
# Velocity P-wave (km/s) = 5.61501 4.89368 5.26671
#
# Compressibility (1/GPa) = 0.06100314
#
# Stress axis : x y z
#
# Youngs Moduli (GPa) = 30.26650 80.02702 99.67331
#
# Poissons Ratio (x) = -0.00193 -0.31087
# Poissons Ratio (y) = -0.00073 0.04242
# Poissons Ratio (z) = -0.09440 0.03406
#
# Static dielectric constant tensor:
#      x y z
#    x 1.640980 0.000000 -0.009570 
#    y 0.000000 1.635520 0.000000 
#    z -0.009570 0.000000 1.692480 
# 
# From -- ./inp_files/4359.got.cif
#   From: 2010.05.17/outbox.cif.g08.bks.cpg/sg13_3_cif.got.tgz:4359.got - 2010.06.03 16:44:36.
