data_PCOD9227702
_publ_section_title
;
Structure prediction by ZEFSAII (Michael W. Deem and Ramdas Pophale) SiO2 
 PCOD9227702
Probable space group: P 2/C
;
_chemical_formula_sum "Si O2"
_cell_formula_units_Z 24
_cell_length_a 16.805500
_cell_length_b 8.740645
_cell_length_c 16.453481
_cell_angle_alpha 90.000000
_cell_angle_beta 154.520233
_cell_angle_gamma 90.000000
_cell_volume 1039.717574
_symmetry_space_group_name_H-M "P 2/C"
_symmetry_group_IT_number 13
_symmetry_cell_setting 'monoclinic'
loop_
_space_group_symop_operation_xyz
x,y,z
-x,y,1/2-z
-x,-y,-z
x,-y,1/2+z
loop_
_atom_site_type_symbol
_atom_site_label
_atom_site_fract_x
_atom_site_fract_y
_atom_site_fract_z
Si Si1 0.642657 0.181856 0.225669
Si Si2 0.010148 0.353021 0.598236
Si Si3 0.770614 0.607427 0.443183
Si Si4 0.000000 0.840701 0.250000
Si Si5 0.706593 0.063955 0.908336
Si Si6 0.500000 0.370261 0.250000
Si Si7 0.407866 0.342781 0.885600
O O1 0.835364 0.273101 0.393260
O O2 0.537287 0.267772 0.204328
O O3 0.689860 0.013362 0.303159
O O4 0.522253 0.207529 0.034265
O O5 0.942393 0.522261 0.559999
O O6 0.035257 0.260994 0.704402
O O7 0.198528 0.341574 0.724127
O O8 0.811186 0.775237 0.511863
O O9 0.677627 0.482965 0.417143
O O10 0.612349 0.644946 0.229663
O O11 0.178164 0.942668 0.433381
O O12 0.500000 0.083571 0.750000
O O13 0.500000 0.500000 0.000000
#
# Coordination Sequence:
#
# PCOD9227702 Si02
#       7
#     4   4   4   2   4   2   4
#     4  10  22  40  68  90 128 173 216 256 324 392
#     4  10  23  40  65  94 125 166 226 261 307 397
#     4  11  24  39  64  99 134 159 214 280 318 370
#     4  10  24  44  68  96 120 184 216 258 334 386
#     4  11  22  43  64  96 140 162 211 275 323 384
#     4  10  18  38  62  96 118 170 216 254 308 380
#     4  12  23  40  67  94 126 175 216 265 330 376
#
# _framework density 23.083192
#
# number of rings (size 3 to 8) (size 9 to 14) (size 15 to 20)
#    0.000    1.333    5.000    1.500    4.667    1.333 
#    3.000    3.333    0.000    0.000    0.000    0.000 
#    0.000    0.000    0.000    0.000    0.000    0.000 
#
# Total GULP energy -134268.076946 kJ/mol
# GULP energy per Si atom -5594.503206 kJ/mol
# Density = 2.303065 g / cm^3
# Si number density = 23.083192 Si / 1000 Ang^3
#
#
#
# Elastic Constant Matrix: (Units=GPa)
#
#
# Indices 1 2 3 4 5 6 
#
# 1 31.4814 -9.5513 26.8210 0.0000 5.0569 0.0000
# 2 -9.5513 91.6698 14.7801 0.0000 -3.5160 0.0000
# 3 26.8210 14.7801 115.3102 0.0000 1.6317 0.0000
# 4 0.0000 0.0000 0.0000 27.7114 0.0000 -9.0989
# 5 5.0569 -3.5160 1.6317 0.0000 40.3132 0.0000
# 6 0.0000 0.0000 0.0000 -9.0989 0.0000 7.4518
#
#
#
# Elastic Compliance Matrix: (Units=1/GPa)
#
#
# Indices 1 2 3 4 5 6 
#
# 1 0.043598 0.006121 -0.010862 0.000000 -0.004495 0.000000
# 2 0.006121 0.012041 -0.002973 0.000000 0.000403 0.000000
# 3 -0.010862 -0.002973 0.011571 0.000000 0.000635 0.000000
# 4 0.000000 0.000000 0.000000 0.060236 0.000000 0.073551
# 5 -0.004495 0.000403 0.000635 0.000000 0.025379 0.000000
# 6 0.000000 0.000000 0.000000 0.073551 0.000000 0.224005
#
#
# Mechanical properties :
#
#
# Convention : Reuss Voigt Hill
#
# Bulk Modulus (GPa) = 19.31124 33.61790 26.46457
# Shear Modulus (GPa) = 12.20947 28.85605 20.53276
#
# Velocity S-wave (km/s) = 2.30235 3.53950 2.98570
# Velocity P-wave (km/s) = 3.93088 5.59459 4.83484
#
# Compressibility (1/GPa) = 0.05178331
#
# Stress axis : x y z
#
# Youngs Moduli (GPa) = 22.93686 83.04753 86.42457
#
# Poissons Ratio (x) = -0.50837 0.93873
# Poissons Ratio (y) = -0.14041 0.25694
# Poissons Ratio (z) = 0.24914 0.24690
#
# Static dielectric constant tensor:
#      x y z
#    x 1.876310 0.000000 -0.037140 
#    y 0.000000 1.927900 0.000000 
#    z -0.037140 0.000000 1.861760 
# 
# From -- ./inp_files/81741.got.cif
#   From: 2010.05.17/outbox.cif.g08.bks.cpg/sg13_41_cif.got.tgz:81741.got - 2010.06.03 16:44:36.
