data_PCOD9227635
_publ_section_title
;
Structure prediction by ZEFSAII (Michael W. Deem and Ramdas Pophale) SiO2 
 PCOD9227635
Probable space group: P 2/C
;
_chemical_formula_sum "Si O2"
_cell_formula_units_Z 28
_cell_length_a 8.824408
_cell_length_b 7.248303
_cell_length_c 26.523207
_cell_angle_alpha 90.000000
_cell_angle_beta 73.696426
_cell_angle_gamma 90.000000
_cell_volume 1628.257816
_symmetry_space_group_name_H-M "P 2/C"
_symmetry_group_IT_number 13
_symmetry_cell_setting 'monoclinic'
loop_
_space_group_symop_operation_xyz
x,y,z
-x,y,1/2-z
-x,-y,-z
x,-y,1/2+z
loop_
_atom_site_type_symbol
_atom_site_label
_atom_site_fract_x
_atom_site_fract_y
_atom_site_fract_z
Si Si1 0.649657 0.381738 0.769098
Si Si2 0.082400 0.481470 0.831276
Si Si3 0.195127 0.805333 0.158453
Si Si4 0.579563 0.496326 0.383276
Si Si5 0.787725 0.489169 0.567011
Si Si6 0.840885 0.210613 0.381015
Si Si7 0.028674 0.202822 0.018288
O O1 0.500000 0.323393 0.750000
O O2 0.778229 0.480693 0.722282
O O3 0.737681 0.217486 0.791064
O O4 0.589334 0.508273 0.821076
O O5 0.155114 0.467585 0.880461
O O6 0.967315 0.308239 0.831435
O O7 0.970394 0.661118 0.840767
O O8 0.322689 0.684730 0.114334
O O9 0.178151 0.012365 0.142309
O O10 0.400460 0.502472 0.417127
O O11 0.679031 0.326165 0.394798
O O12 0.856360 0.319670 0.528544
O O13 0.869816 0.674384 0.538015
O O14 0.898535 0.190383 0.432834
O O15 0.000000 0.000000 0.000000
#
# Coordination Sequence:
#
# PCOD9227635 Si02
#       7
#     4   4   4   4   4   4   4
#     4  10  19  38  59  81 114 153 184 231 284 332
#     4  10  18  37  60  82 115 152 187 235 277 338
#     4   9  20  35  56  83 118 146 188 229 281 336
#     4   9  21  37  58  81 119 146 189 236 281 340
#     4  10  20  38  61  85 112 149 193 234 289 334
#     4  10  21  38  58  85 115 152 191 234 285 336
#     4  10  22  38  61  85 112 149 196 237 284 341
#
# _framework density 17.196294000000002
#
# number of rings (size 3 to 8) (size 9 to 14) (size 15 to 20)
#    0.857    1.429    1.429    1.286    0.000    2.857 
#    5.143    3.571    0.000    0.000    0.000    0.000 
#    0.000    0.000    0.000    0.000    0.000    0.000 
#
# Total GULP energy -156015.480599 kJ/mol
# GULP energy per Si atom -5571.981450 kJ/mol
# Density = 1.715715 g / cm^3
# Si number density = 17.196294 Si / 1000 Ang^3
#
#
#
# Elastic Constant Matrix: (Units=GPa)
#
#
# Indices 1 2 3 4 5 6 
#
# 1 103.5946 65.2325 41.3642 0.0000 -26.9926 0.0000
# 2 65.2325 149.4168 59.7590 0.0000 -4.4953 0.0000
# 3 41.3642 59.7590 90.9074 0.0000 -24.4948 0.0000
# 4 0.0000 0.0000 0.0000 17.5704 0.0000 10.8925
# 5 -26.9926 -4.4953 -24.4948 0.0000 33.4067 0.0000
# 6 0.0000 0.0000 0.0000 10.8925 0.0000 13.0075
#
#
#
# Elastic Compliance Matrix: (Units=1/GPa)
#
#
# Indices 1 2 3 4 5 6 
#
# 1 0.017786 -0.007598 0.000621 0.000000 0.013805 0.000000
# 2 -0.007598 0.012760 -0.007630 0.000000 -0.010017 0.000000
# 3 0.000621 -0.007630 0.019430 0.000000 0.013722 0.000000
# 4 0.000000 0.000000 0.000000 0.118357 0.000000 -0.099112
# 5 0.013805 -0.010017 0.013722 0.000000 0.049802 0.000000
# 6 0.000000 0.000000 0.000000 -0.099112 0.000000 0.159875
#
#
# Mechanical properties :
#
#
# Convention : Reuss Voigt Hill
#
# Bulk Modulus (GPa) = 48.16088 75.18111 61.67100
# Shear Modulus (GPa) = 12.07307 24.63446 18.35377
#
# Velocity S-wave (km/s) = 2.65254 3.78900 3.27051
# Velocity P-wave (km/s) = 6.11953 7.93450 7.08537
#
# Compressibility (1/GPa) = 0.02076374
#
# Stress axis : x y z
#
# Youngs Moduli (GPa) = 56.22243 78.36920 51.46604
#
# Poissons Ratio (x) = 0.59549 -0.03199
# Poissons Ratio (y) = 0.42720 0.39266
# Poissons Ratio (z) = -0.03494 0.59792
#
# Static dielectric constant tensor:
#      x y z
#    x 1.580230 0.000000 0.010950 
#    y 0.000000 1.547500 0.000000 
#    z 0.010950 0.000000 1.587570 
# 
# From -- ./inp_files/95449.got.cif
#   From: 2010.05.17/outbox.cif.g08.bks.cpg/sg13_48_cif.got.tgz:95449.got - 2010.06.03 16:44:36.
