data_PCOD9227837
_publ_section_title
;
Structure prediction by ZEFSAII (Michael W. Deem and Ramdas Pophale) SiO2 
 PCOD9227837
Probable space group: P 2/C
;
_chemical_formula_sum "Si O2"
_cell_formula_units_Z 24
_cell_length_a 7.079601
_cell_length_b 8.381751
_cell_length_c 18.051264
_cell_angle_alpha 90.000000
_cell_angle_beta 53.421791
_cell_angle_gamma 90.000000
_cell_volume 860.182478
_symmetry_space_group_name_H-M "P 2/C"
_symmetry_group_IT_number 13
_symmetry_cell_setting 'monoclinic'
loop_
_space_group_symop_operation_xyz
x,y,z
-x,y,1/2-z
-x,-y,-z
x,-y,1/2+z
loop_
_atom_site_type_symbol
_atom_site_label
_atom_site_fract_x
_atom_site_fract_y
_atom_site_fract_z
Si Si1 0.311659 0.605868 0.115378
Si Si2 0.342611 0.268547 0.093665
Si Si3 0.872551 0.525544 0.109876
Si Si4 0.875125 0.190491 0.116463
Si Si5 0.221421 0.940912 0.151608
Si Si6 0.121040 0.138649 0.899725
O O1 0.358387 0.430308 0.138805
O O2 0.079987 0.560526 0.121114
O O3 0.281872 0.765719 0.170231
O O4 0.511415 0.669248 0.011628
O O5 0.080229 0.227686 0.127543
O O6 0.405984 0.087779 0.104747
O O7 0.744197 0.357819 0.148798
O O8 0.745897 0.694770 0.141388
O O9 0.000000 0.500000 0.000000
O O10 0.018023 0.160839 0.006389
O O11 0.744359 0.022948 0.152711
O O12 0.000000 0.997083 0.250000
O O13 0.112165 0.889921 0.097229
#
# Coordination Sequence:
#
# PCOD9227837 Si02
#       6
#     4   4   4   4   4   4
#     4   9  17  29  45  66  90 115 150 191 230 271
#     4   9  17  29  46  67  89 116 150 192 237 274
#     4   8  13  22  38  61  85 104 132 178 222 254
#     4   8  13  23  40  60  81 105 141 186 222 253
#     4  10  19  29  43  64  93 123 149 182 231 288
#     4   8  14  24  38  58  82 109 142 180 218 258
#
# _framework density 27.901054999999999
#
# number of rings (size 3 to 8) (size 9 to 14) (size 15 to 20)
#    0.000    3.333    0.000    0.500    0.000    0.667 
#    0.000    0.000    0.000    1.000    0.000    0.000 
#    0.000   72.000    0.000    0.000    0.000    0.000 
#
# Total GULP energy -133603.040599 kJ/mol
# GULP energy per Si atom -5566.793358 kJ/mol
# Density = 2.783755 g / cm^3
# Si number density = 27.901055 Si / 1000 Ang^3
#
#
#
# Elastic Constant Matrix: (Units=GPa)
#
#
# Indices 1 2 3 4 5 6 
#
# 1 113.3008 28.6107 8.3834 0.0000 -7.2717 0.0000
# 2 28.6107 435.7016 46.6802 0.0000 -2.6786 0.0000
# 3 8.3834 46.6802 88.0882 0.0000 -4.5865 0.0000
# 4 0.0000 0.0000 0.0000 0.6519 0.0000 -1.8960
# 5 -7.2717 -2.6786 -4.5865 0.0000 13.8275 0.0000
# 6 0.0000 0.0000 0.0000 -1.8960 0.0000 0.1935
#
#
#
# Elastic Compliance Matrix: (Units=1/GPa)
#
#
# Indices 1 2 3 4 5 6 
#
# 1 0.009289 -0.000543 -0.000353 0.000000 0.004662 0.000000
# 2 -0.000543 0.002465 -0.001267 0.000000 -0.000228 0.000000
# 3 -0.000353 -0.001267 0.012246 0.000000 0.003631 0.000000
# 4 0.000000 0.000000 0.000000 -0.055770 0.000000 -0.546592
# 5 0.004662 -0.000228 0.003631 0.000000 0.075932 0.000000
# 6 0.000000 0.000000 0.000000 -0.546592 0.000000 -0.187937
#
#
# Mechanical properties :
#
#
# Convention : Reuss Voigt Hill
#
# Bulk Modulus (GPa) = 50.82994 89.38215 70.10604
# Shear Modulus (GPa) = -37.62461 39.82900 1.10219
#
# Velocity S-wave (km/s) = -3.67618 3.78234 0.62920
# Velocity P-wave (km/s) = 0.48829 7.15400 5.07041
#
# Compressibility (1/GPa) = 0.01967345
#
# Stress axis : x y z
#
# Youngs Moduli (GPa) = 107.65817 405.65964 81.65879
#
# Poissons Ratio (x) = 0.22045 0.02885
# Poissons Ratio (y) = 0.05851 0.10342
# Poissons Ratio (z) = 0.03803 0.51377
#
# Static dielectric constant tensor:
#      x y z
#    x 2.208580 0.000000 0.115420 
#    y 0.000000 2.592880 0.000000 
#    z 0.115420 0.000000 2.085270 
# 
# From -- ./inp_files/92075.got.cif
#   From: 2010.05.17/outbox.cif.g08.bks.cpg/sg13_47_cif.got.tgz:92075.got - 2010.06.03 16:44:36.
