data_PCOD9227946
_publ_section_title
;
Structure prediction by ZEFSAII (Michael W. Deem and Ramdas Pophale) SiO2 
 PCOD9227946
Probable space group: P 2/C
;
_chemical_formula_sum "Si O2"
_cell_formula_units_Z 24
_cell_length_a 7.775993
_cell_length_b 26.850310
_cell_length_c 5.407164
_cell_angle_alpha 90.000000
_cell_angle_beta 60.217342
_cell_angle_gamma 90.000000
_cell_volume 979.833580
_symmetry_space_group_name_H-M "P 2/C"
_symmetry_group_IT_number 13
_symmetry_cell_setting 'monoclinic'
loop_
_space_group_symop_operation_xyz
x,y,z
-x,y,1/2-z
-x,-y,-z
x,-y,1/2+z
loop_
_atom_site_type_symbol
_atom_site_label
_atom_site_fract_x
_atom_site_fract_y
_atom_site_fract_z
Si Si1 0.260865 0.368173 0.422574
Si Si2 0.258328 0.801594 0.422752
Si Si3 0.220739 0.517049 0.036937
Si Si4 0.258172 0.312891 0.923349
Si Si5 0.258284 0.857698 0.922371
Si Si6 0.741733 0.971967 0.578028
O O1 0.500000 0.366589 0.250000
O O2 0.208038 0.426145 0.458494
O O3 0.196995 0.343973 0.726810
O O4 0.197816 0.337927 0.224936
O O5 0.500000 0.801339 0.250000
O O6 0.194437 0.744384 0.446232
O O7 0.199371 0.825326 0.726737
O O8 0.199485 0.833900 0.226399
O O9 0.312092 0.513694 0.245481
O O10 0.000000 0.497031 0.250000
O O11 0.500000 0.312515 0.750000
O O12 0.500000 0.858110 0.750000
O O13 0.193832 0.914831 0.941962
O O14 0.500000 0.971597 0.750000
O O15 0.800523 0.995496 0.273487
#
# Coordination Sequence:
#
# PCOD9227946 Si02
#       6
#     4   4   4   4   4   4
#     4  10  19  31  48  69  91 115 144 177 217 260
#     4   9  15  23  34  48  68  92 120 156 202 255
#     4  10  21  36  52  70  93 120 148 178 213 252
#     4   9  17  28  42  62  86 109 134 171 218 261
#     4   9  15  21  30  43  59  86 122 158 204 257
#     4   9  15  21  27  36  53  78 113 160 208 247
#
# _framework density 24.493956000000001
#
# number of rings (size 3 to 8) (size 9 to 14) (size 15 to 20)
#    0.000    2.667    0.000    3.000    0.000    8.667 
#    0.000    0.000    0.000    0.000    0.000    0.000 
#    0.000    0.000    0.000    0.000    0.000    0.000 
#
# Total GULP energy -134425.824251 kJ/mol
# GULP energy per Si atom -5601.076010 kJ/mol
# Density = 2.443821 g / cm^3
# Si number density = 24.493956 Si / 1000 Ang^3
#
#
#
# Elastic Constant Matrix: (Units=GPa)
#
#
# Indices 1 2 3 4 5 6 
#
# 1 75.3810 -0.3078 17.5470 0.0000 4.8370 0.0000
# 2 -0.3078 200.5224 83.1780 0.0000 46.0088 0.0000
# 3 17.5470 83.1780 208.0969 0.0000 29.0407 0.0000
# 4 0.0000 0.0000 0.0000 46.0264 0.0000 15.0949
# 5 4.8370 46.0088 29.0407 0.0000 53.7398 0.0000
# 6 0.0000 0.0000 0.0000 15.0949 0.0000 24.2287
#
#
#
# Elastic Compliance Matrix: (Units=1/GPa)
#
#
# Indices 1 2 3 4 5 6 
#
# 1 0.013657 0.000854 -0.001319 0.000000 -0.001248 0.000000
# 2 0.000854 0.007024 -0.002195 0.000000 -0.004904 0.000000
# 3 -0.001319 -0.002195 0.005965 0.000000 -0.001225 0.000000
# 4 0.000000 0.000000 0.000000 0.027306 0.000000 -0.017012
# 5 -0.001248 -0.004904 -0.001225 0.000000 0.023581 0.000000
# 6 0.000000 0.000000 0.000000 -0.017012 0.000000 0.051872
#
#
# Mechanical properties :
#
#
# Convention : Reuss Voigt Hill
#
# Bulk Modulus (GPa) = 46.89048 76.09275 61.49162
# Shear Modulus (GPa) = 35.25251 50.37118 42.81185
#
# Velocity S-wave (km/s) = 3.79784 4.53976 4.18527
# Velocity P-wave (km/s) = 6.19812 7.65588 6.96524
#
# Compressibility (1/GPa) = 0.02132629
#
# Stress axis : x y z
#
# Youngs Moduli (GPa) = 73.22516 142.36613 167.64108
#
# Poissons Ratio (x) = -0.12164 0.22110
# Poissons Ratio (y) = -0.06256 0.36801
# Poissons Ratio (z) = 0.09658 0.31253
#
# Static dielectric constant tensor:
#      x y z
#    x 2.003710 0.000000 -0.059440 
#    y 0.000000 1.822980 0.000000 
#    z -0.059440 0.000000 1.925440 
# 
# From -- ./inp_files/2420.got.cif
#   From: 2010.05.17/outbox.cif.g08.bks.cpg/sg13_2_cif.got.tgz:2420.got - 2010.06.03 16:44:36.
