data_PCOD9227468
_publ_section_title
;
Structure prediction by ZEFSAII (Michael W. Deem and Ramdas Pophale) SiO2 
 PCOD9227468
Probable space group: P 2/C
;
_chemical_formula_sum "Si O2"
_cell_formula_units_Z 28
_cell_length_a 20.635712
_cell_length_b 11.885259
_cell_length_c 10.627947
_cell_angle_alpha 90.000000
_cell_angle_beta 149.845034
_cell_angle_gamma 90.000000
_cell_volume 1309.410030
_symmetry_space_group_name_H-M "P 2/C"
_symmetry_group_IT_number 13
_symmetry_cell_setting 'monoclinic'
loop_
_space_group_symop_operation_xyz
x,y,z
-x,y,1/2-z
-x,-y,-z
x,-y,1/2+z
loop_
_atom_site_type_symbol
_atom_site_label
_atom_site_fract_x
_atom_site_fract_y
_atom_site_fract_z
Si Si1 0.664460 0.227000 0.235942
Si Si2 0.759317 0.435334 0.121561
Si Si3 0.236429 0.982807 0.753067
Si Si4 0.145092 0.427764 0.950757
Si Si5 0.500000 0.360744 0.750000
Si Si6 0.000000 0.875113 0.750000
Si Si7 0.446698 0.110630 0.984851
Si Si8 0.209199 0.808578 0.920467
O O1 0.731708 0.115860 0.293091
O O2 0.774087 0.316929 0.448685
O O3 0.574109 0.281893 0.974807
O O4 0.569174 0.193046 0.189183
O O5 0.793910 0.478247 0.318521
O O6 0.787746 0.301771 0.159775
O O7 0.835886 0.492768 0.137282
O O8 0.604264 0.437092 0.852522
O O9 0.211845 0.921105 0.842123
O O10 0.364039 0.061158 0.962166
O O11 0.109803 0.049659 0.499888
O O12 0.000000 0.402717 0.750000
O O13 0.080274 0.803591 0.785392
O O14 0.335825 0.176776 0.719333
O O15 0.500000 0.000000 0.000000
#
# Coordination Sequence:
#
# PCOD9227468 Si02
#       8
#     4   4   4   4   2   2   4   4
#     4  10  18  35  62  93 126 163 214 268 329 391
#     4  11  24  42  73  93 131 176 226 287 335 409
#     4  10  19  35  61  89 124 170 211 261 323 403
#     4  11  25  44  67 100 130 181 226 280 340 400
#     4  10  18  38  66  92 116 174 216 266 342 398
#     4  10  24  34  58  94 130 166 222 270 318 402
#     4   9  19  34  61  90 123 159 213 261 314 399
#     4  11  20  40  61  90 126 177 213 269 339 396
#
# _framework density 21.383676999999999
#
# number of rings (size 3 to 8) (size 9 to 14) (size 15 to 20)
#    0.000    1.714    4.286    0.857    2.000    4.000 
#    0.000    0.000   12.571    0.000    0.000    0.000 
#    0.000    0.000    0.000    0.000    0.000    0.000 
#
# Total GULP energy -156274.870169 kJ/mol
# GULP energy per Si atom -5581.245363 kJ/mol
# Density = 2.133501 g / cm^3
# Si number density = 21.383677 Si / 1000 Ang^3
#
#
#
# Elastic Constant Matrix: (Units=GPa)
#
#
# Indices 1 2 3 4 5 6 
#
# 1 123.5495 21.3211 33.3844 0.0000 32.8575 0.0000
# 2 21.3211 37.3820 22.0013 0.0000 9.1124 0.0000
# 3 33.3844 22.0013 72.3367 0.0000 37.3962 0.0000
# 4 0.0000 0.0000 0.0000 15.4381 0.0000 4.6843
# 5 32.8575 9.1124 37.3962 0.0000 46.1069 0.0000
# 6 0.0000 0.0000 0.0000 4.6843 0.0000 25.4416
#
#
#
# Elastic Compliance Matrix: (Units=1/GPa)
#
#
# Indices 1 2 3 4 5 6 
#
# 1 0.010645 -0.004357 -0.000191 0.000000 -0.006570 0.000000
# 2 -0.004357 0.034571 -0.011326 0.000000 0.005459 0.000000
# 3 -0.000191 -0.011326 0.027776 0.000000 -0.020154 0.000000
# 4 0.000000 0.000000 0.000000 0.068607 0.000000 -0.012632
# 5 -0.006570 0.005459 -0.020154 0.000000 0.041638 0.000000
# 6 0.000000 0.000000 0.000000 -0.012632 0.000000 0.041632
#
#
# Mechanical properties :
#
#
# Convention : Reuss Voigt Hill
#
# Bulk Modulus (GPa) = 24.24617 42.96464 33.60541
# Shear Modulus (GPa) = 18.49341 27.83475 23.16408
#
# Velocity S-wave (km/s) = 2.94400 3.61180 3.29486
# Velocity P-wave (km/s) = 4.78743 6.12612 5.49767
#
# Compressibility (1/GPa) = 0.04124363
#
# Stress axis : x y z
#
# Youngs Moduli (GPa) = 93.94363 28.92567 36.00168
#
# Poissons Ratio (x) = 0.12604 0.00688
# Poissons Ratio (y) = 0.40935 0.40776
# Poissons Ratio (z) = 0.01794 0.32761
#
# Static dielectric constant tensor:
#      x y z
#    x 1.828660 0.000000 -0.025660 
#    y 0.000000 1.760710 0.000000 
#    z -0.025660 0.000000 1.808680 
# 
# From -- ./inp_files/40807.got.cif
#   From: 2010.05.17/outbox.cif.g08.bks.cpg/sg13_21_cif.got.tgz:40807.got - 2010.06.03 16:44:36.
