data_PCOD9227329
_publ_section_title
;
Structure prediction by ZEFSAII (Michael W. Deem and Ramdas Pophale) SiO2 
 PCOD9227329
Probable space group: P 2/C
;
_chemical_formula_sum "Si O2"
_cell_formula_units_Z 28
_cell_length_a 27.861958
_cell_length_b 9.164244
_cell_length_c 27.634815
_cell_angle_alpha 90.000000
_cell_angle_beta 10.465477
_cell_angle_gamma 90.000000
_cell_volume 1281.691798
_symmetry_space_group_name_H-M "P 2/C"
_symmetry_group_IT_number 13
_symmetry_cell_setting 'monoclinic'
loop_
_space_group_symop_operation_xyz
x,y,z
-x,y,1/2-z
-x,-y,-z
x,-y,1/2+z
loop_
_atom_site_type_symbol
_atom_site_label
_atom_site_fract_x
_atom_site_fract_y
_atom_site_fract_z
Si Si1 0.180287 0.266109 0.973255
Si Si2 0.333230 0.340079 0.064318
Si Si3 0.000000 0.797315 0.750000
Si Si4 0.305178 0.938059 0.839479
Si Si5 0.017575 0.200000 0.549005
Si Si6 0.362077 0.036540 0.085597
Si Si7 0.500000 0.993528 0.750000
Si Si8 0.493315 0.609710 0.962090
O O1 0.081535 0.301142 0.124178
O O2 0.978611 0.342473 0.136531
O O3 0.487055 0.291431 0.659090
O O4 0.148753 0.090931 0.999902
O O5 0.454197 0.495052 0.957626
O O6 0.372285 0.209144 0.064410
O O7 0.250824 0.903060 0.509541
O O8 0.501887 0.965436 0.598055
O O9 0.431649 0.912332 0.766972
O O10 0.108798 0.814026 0.014437
O O11 0.930966 0.034243 0.621767
O O12 0.253969 0.286924 0.289819
O O13 0.760874 0.289034 0.788974
O O14 0.500000 0.000000 0.000000
O O15 0.500000 0.500000 0.000000
#
# Coordination Sequence:
#
# PCOD9227329 Si02
#       8
#     4   4   2   4   4   4   2   4
#     4  10  20  37  63  94 130 158 216 264 329 382
#     4  11  23  40  61  93 130 168 214 268 319 392
#     4  10  18  34  60 100 130 168 200 274 334 392
#     4  10  22  40  64 103 130 174 219 279 338 392
#     4  12  24  44  67  93 134 174 227 275 328 406
#     4  11  23  41  67 100 135 170 216 281 334 391
#     4  10  22  34  66  96 140 166 220 274 338 396
#     4  12  27  45  64  91 132 183 226 258 333 409
#
# _framework density 21.846126000000002
#
# number of rings (size 3 to 8) (size 9 to 14) (size 15 to 20)
#    0.000    1.143    2.857    4.714    2.000    2.857 
#    0.000    0.000    0.000    3.429    0.000    0.000 
#    0.000    0.000    0.000    0.000    0.000    0.000 
#
# Total GULP energy -156226.519747 kJ/mol
# GULP energy per Si atom -5579.518562 kJ/mol
# Density = 2.179640 g / cm^3
# Si number density = 21.846126 Si / 1000 Ang^3
#
#
#
# Elastic Constant Matrix: (Units=GPa)
#
#
# Indices 1 2 3 4 5 6 
#
# 1 128.8663 5.8619 25.3975 0.0000 -5.4969 0.0000
# 2 5.8619 37.7590 29.4018 0.0000 10.5759 0.0000
# 3 25.3975 29.4018 131.9758 0.0000 -10.5106 0.0000
# 4 0.0000 0.0000 0.0000 24.6158 0.0000 -5.9665
# 5 -5.4969 10.5759 -10.5106 0.0000 30.1236 0.0000
# 6 0.0000 0.0000 0.0000 -5.9665 0.0000 23.0315
#
#
#
# Elastic Compliance Matrix: (Units=1/GPa)
#
#
# Indices 1 2 3 4 5 6 
#
# 1 0.008101 -0.000551 -0.001340 0.000000 0.001204 0.000000
# 2 -0.000551 0.039236 -0.010018 0.000000 -0.017371 0.000000
# 3 -0.001340 -0.010018 0.010623 0.000000 0.006979 0.000000
# 4 0.000000 0.000000 0.000000 0.043346 0.000000 0.011229
# 5 0.001204 -0.017371 0.006979 0.000000 0.041950 0.000000
# 6 0.000000 0.000000 0.000000 0.011229 0.000000 0.046328
#
#
# Mechanical properties :
#
#
# Convention : Reuss Voigt Hill
#
# Bulk Modulus (GPa) = 29.29162 46.65817 37.97489
# Shear Modulus (GPa) = 22.24371 31.41685 26.83028
#
# Velocity S-wave (km/s) = 3.19439 3.79634 3.50830
# Velocity P-wave (km/s) = 5.20026 6.37340 5.81648
#
# Compressibility (1/GPa) = 0.03413946
#
# Stress axis : x y z
#
# Youngs Moduli (GPa) = 123.44853 25.48694 94.13733
#
# Poissons Ratio (x) = 0.01405 0.12616
# Poissons Ratio (y) = 0.06806 0.94310
# Poissons Ratio (z) = 0.16544 0.25534
#
# Static dielectric constant tensor:
#      x y z
#    x 1.893720 0.000000 0.005050 
#    y 0.000000 1.827580 0.000000 
#    z 0.005050 0.000000 1.859390 
# 
# From -- ./inp_files/98065.got.cif
#   From: 2010.05.17/outbox.cif.g08.bks.cpg/sg13_50_cif.got.tgz:98065.got - 2010.06.03 16:44:36.
