data_PCOD9227859
_publ_section_title
;
Structure prediction by ZEFSAII (Michael W. Deem and Ramdas Pophale) SiO2 
 PCOD9227859
Probable space group: P 2/C
;
_chemical_formula_sum "Si O2"
_cell_formula_units_Z 22
_cell_length_a 9.075787
_cell_length_b 15.253744
_cell_length_c 13.075819
_cell_angle_alpha 90.000000
_cell_angle_beta 30.546721
_cell_angle_gamma 90.000000
_cell_volume 920.024032
_symmetry_space_group_name_H-M "P 2/C"
_symmetry_group_IT_number 13
_symmetry_cell_setting 'monoclinic'
loop_
_space_group_symop_operation_xyz
x,y,z
-x,y,1/2-z
-x,-y,-z
x,-y,1/2+z
loop_
_atom_site_type_symbol
_atom_site_label
_atom_site_fract_x
_atom_site_fract_y
_atom_site_fract_z
Si Si1 0.370853 0.698116 0.723379
Si Si2 0.813199 0.753132 0.970313
Si Si3 0.000000 0.515904 0.250000
Si Si4 0.534760 0.390009 0.915675
Si Si5 0.705272 0.063016 0.489991
Si Si6 0.327863 0.875370 0.026273
O O1 0.500000 0.663423 0.750000
O O2 0.465881 0.639498 0.572469
O O3 0.505362 0.794371 0.621860
O O4 0.026837 0.708780 0.922793
O O5 0.759142 0.854380 0.030561
O O6 0.000000 0.754351 0.750000
O O7 0.531452 0.695627 0.113009
O O8 0.729462 0.456723 0.451291
O O9 0.852412 0.569099 0.243492
O O10 0.470879 0.097032 0.548718
O O11 0.000000 0.051962 0.250000
O O12 0.646600 0.963624 0.557159
O O13 0.000000 0.850409 0.250000
#
# Coordination Sequence:
#
# PCOD9227859 Si02
#       6
#     4   4   2   4   4   4
#     4  11  21  35  54  83 118 150 176 222 292 337
#     4   9  15  33  55  74 102 152 187 211 264 332
#     4  10  20  34  64  88 104 126 202 234 264 316
#     4  10  19  36  59  87 105 144 181 230 271 333
#     4   9  15  30  55  78 102 141 195 225 259 308
#     4  10  19  29  54  86 104 138 195 234 253 307
#
# _framework density 23.912417999999999
#
# number of rings (size 3 to 8) (size 9 to 14) (size 15 to 20)
#    0.000    2.182    8.182    0.000    1.273    0.000 
#    0.000    1.818    0.000    2.182    0.000    0.000 
#    0.000    0.000    0.000    0.000    0.000    0.000 
#
# Total GULP energy -122827.313688 kJ/mol
# GULP energy per Si atom -5583.059713 kJ/mol
# Density = 2.385799 g / cm^3
# Si number density = 23.912418 Si / 1000 Ang^3
#
#
#
# Elastic Constant Matrix: (Units=GPa)
#
#
# Indices 1 2 3 4 5 6 
#
# 1 93.9479 14.1451 44.1283 0.0000 -27.4825 0.0000
# 2 14.1451 116.6634 15.2287 0.0000 -14.5085 0.0000
# 3 44.1283 15.2287 94.9608 0.0000 -22.4914 0.0000
# 4 0.0000 0.0000 0.0000 -14.1067 0.0000 -44.9242
# 5 -27.4825 -14.5085 -22.4914 0.0000 38.3070 0.0000
# 6 0.0000 0.0000 0.0000 -44.9242 0.0000 2.1967
#
#
#
# Elastic Compliance Matrix: (Units=1/GPa)
#
#
# Indices 1 2 3 4 5 6 
#
# 1 0.015473 -0.000201 -0.005281 0.000000 0.007924 0.000000
# 2 -0.000201 0.009043 -0.000673 0.000000 0.002885 0.000000
# 3 -0.005281 -0.000673 0.014095 0.000000 0.004232 0.000000
# 4 0.000000 0.000000 0.000000 -0.001072 0.000000 -0.021923
# 5 0.007924 0.002885 0.004232 0.000000 0.035367 0.000000
# 6 0.000000 0.000000 0.000000 -0.021923 0.000000 0.006884
#
#
# Mechanical properties :
#
#
# Convention : Reuss Voigt Hill
#
# Bulk Modulus (GPa) = 38.02391 50.28627 44.15509
# Shear Modulus (GPa) = 49.56954 20.75074 35.16014
#
# Velocity S-wave (km/s) = 4.55792 2.94901 3.83870
# Velocity P-wave (km/s) = 6.60571 5.71581 6.17681
#
# Compressibility (1/GPa) = 0.02629924
#
# Stress axis : x y z
#
# Youngs Moduli (GPa) = 64.62810 110.58563 70.94627
#
# Poissons Ratio (x) = 0.02226 0.37469
# Poissons Ratio (y) = 0.01301 0.04777
# Poissons Ratio (z) = 0.34132 0.07446
#
# Static dielectric constant tensor:
#      x y z
#    x 1.336830 0.000000 0.057750 
#    y 0.000000 2.018320 0.000000 
#    z 0.057750 0.000000 1.928180 
# 
# From -- ./inp_files/48020.got.cif
#   From: 2010.05.17/outbox.cif.g08.bks.cpg/sg13_25_cif.got.tgz:48020.got - 2010.06.03 16:44:36.
