data_PCOD9227054
_publ_section_title
;
Structure prediction by ZEFSAII (Michael W. Deem and Ramdas Pophale) SiO2 
 PCOD9227054
Probable space group: P 2/C
;
_chemical_formula_sum "Si O2"
_cell_formula_units_Z 24
_cell_length_a 6.717652
_cell_length_b 7.751166
_cell_length_c 16.995326
_cell_angle_alpha 90.000000
_cell_angle_beta 104.812987
_cell_angle_gamma 90.000000
_cell_volume 855.529849
_symmetry_space_group_name_H-M "P 2/C"
_symmetry_group_IT_number 13
_symmetry_cell_setting 'monoclinic'
loop_
_space_group_symop_operation_xyz
x,y,z
-x,y,1/2-z
-x,-y,-z
x,-y,1/2+z
loop_
_atom_site_type_symbol
_atom_site_label
_atom_site_fract_x
_atom_site_fract_y
_atom_site_fract_z
Si Si1 0.755162 0.944062 0.808363
Si Si2 0.925750 0.374478 0.925873
Si Si3 0.340254 0.544450 0.413021
Si Si4 0.767492 0.659597 0.258620
Si Si5 0.755719 0.963948 0.474519
Si Si6 0.236119 0.158247 0.360781
O O1 0.730380 0.146527 0.784446
O O2 0.683459 0.922826 0.892116
O O3 0.680301 0.856886 0.719892
O O4 0.998009 0.900242 0.834407
O O5 0.804747 0.456653 0.840044
O O6 0.771471 0.234173 0.946047
O O7 0.158378 0.321804 0.921383
O O8 0.000000 0.500000 0.000000
O O9 0.500000 0.500000 0.500000
O O10 0.382022 0.610077 0.327577
O O11 0.244738 0.357213 0.385249
O O12 0.000000 0.660719 0.250000
O O13 0.676488 0.953208 0.556274
O O14 0.000000 0.000000 0.500000
#
# Coordination Sequence:
#
# PCOD9227054 Si02
#       6
#     4   4   4   4   4   4
#     4   9  18  32  57  88 110 144 205 261 290 333
#     4  10  19  35  61  88 111 154 209 254 292 348
#     4  11  24  37  55  90 129 163 194 241 315 376
#     4   9  18  34  58  80 114 153 204 245 293 348
#     4   9  18  31  55  91 112 138 196 262 295 338
#     4  10  18  32  57  88 119 147 198 253 300 353
#
# _framework density 28.052788
#
# number of rings (size 3 to 8) (size 9 to 14) (size 15 to 20)
#    0.000    2.333    3.333    0.000    9.333    0.000 
#    0.000    1.667    0.000    0.000    4.333    0.000 
#    0.000    0.000    0.000    0.000    0.000    0.000 
#
# Total GULP energy -133862.920197 kJ/mol
# GULP energy per Si atom -5577.621675 kJ/mol
# Density = 2.798894 g / cm^3
# Si number density = 28.052788 Si / 1000 Ang^3
#
#
#
# Elastic Constant Matrix: (Units=GPa)
#
#
# Indices 1 2 3 4 5 6 
#
# 1 104.9307 -9.5203 72.6904 0.0000 -7.6938 0.0000
# 2 -9.5203 79.0916 39.1839 0.0000 1.6332 0.0000
# 3 72.6904 39.1839 268.4386 0.0000 -11.8961 0.0000
# 4 0.0000 0.0000 0.0000 48.3613 0.0000 -2.9375
# 5 -7.6938 1.6332 -11.8961 0.0000 72.9711 0.0000
# 6 0.0000 0.0000 0.0000 -2.9375 0.0000 -2.2904
#
#
#
# Elastic Compliance Matrix: (Units=1/GPa)
#
#
# Indices 1 2 3 4 5 6 
#
# 1 0.012571 0.003421 -0.003876 0.000000 0.000617 0.000000
# 2 0.003421 0.014589 -0.003077 0.000000 -0.000467 0.000000
# 3 -0.003876 -0.003077 0.005247 0.000000 0.000516 0.000000
# 4 0.000000 0.000000 0.000000 0.019183 0.000000 -0.024603
# 5 0.000617 -0.000467 0.000516 0.000000 0.013864 0.000000
# 6 0.000000 0.000000 0.000000 -0.024603 0.000000 -0.405048
#
#
# Mechanical properties :
#
#
# Convention : Reuss Voigt Hill
#
# Bulk Modulus (GPa) = 39.45876 73.01876 56.23876
# Shear Modulus (GPa) = -15.42816 47.14886 15.86035
#
# Velocity S-wave (km/s) = -2.34769 4.10411 2.38034
# Velocity P-wave (km/s) = 2.59761 6.96734 5.25792
#
# Compressibility (1/GPa) = 0.02534291
#
# Stress axis : x y z
#
# Youngs Moduli (GPa) = 79.54954 68.54394 190.59363
#
# Poissons Ratio (x) = -0.23447 0.73874
# Poissons Ratio (y) = -0.27211 0.58638
# Poissons Ratio (z) = 0.30834 0.21088
#
# Static dielectric constant tensor:
#      x y z
#    x 2.237020 0.000000 -0.002310 
#    y 0.000000 2.351780 0.000000 
#    z -0.002310 0.000000 2.220970 
# 
# From -- ./inp_files/75389.got.cif
#   From: 2010.05.17/outbox.cif.g08.bks.cpg/sg13_38_cif.got.tgz:75389.got - 2010.06.03 16:44:36.
