data_PCOD9227016
_publ_section_title
;
Structure prediction by ZEFSAII (Michael W. Deem and Ramdas Pophale) SiO2 
 PCOD9227016
Probable space group: P 2/C
;
_chemical_formula_sum "Si O2"
_cell_formula_units_Z 32
_cell_length_a 20.001775
_cell_length_b 8.350312
_cell_length_c 23.195506
_cell_angle_alpha 90.000000
_cell_angle_beta 18.025397
_cell_angle_gamma 90.000000
_cell_volume 1198.807583
_symmetry_space_group_name_H-M "P 2/C"
_symmetry_group_IT_number 13
_symmetry_cell_setting 'monoclinic'
loop_
_space_group_symop_operation_xyz
x,y,z
-x,y,1/2-z
-x,-y,-z
x,-y,1/2+z
loop_
_atom_site_type_symbol
_atom_site_label
_atom_site_fract_x
_atom_site_fract_y
_atom_site_fract_z
Si Si1 0.831089 0.227684 0.155049
Si Si2 0.018938 0.233870 0.593681
Si Si3 0.551922 0.565265 0.585064
Si Si4 0.727706 0.442559 0.594703
Si Si5 0.405872 0.915926 0.167457
Si Si6 0.782561 0.854618 0.395729
Si Si7 0.724858 0.095511 0.599032
Si Si8 0.651264 0.633563 0.905956
O O1 0.989508 0.240914 0.969783
O O2 0.612447 0.311205 0.310761
O O3 0.846425 0.319568 0.203231
O O4 0.751785 0.047315 0.232482
O O5 0.123260 0.401919 0.526994
O O6 0.819617 0.207067 0.799690
O O7 0.156898 0.075408 0.497179
O O8 0.377743 0.445905 0.755080
O O9 0.695346 0.696896 0.500537
O O10 0.705475 0.452388 0.421476
O O11 0.500000 0.478309 0.750000
O O12 0.801804 0.268404 0.511252
O O13 0.505689 0.786347 0.042649
O O14 0.612393 0.004530 0.027733
O O15 0.279402 0.868398 0.328979
O O16 0.000000 0.906702 0.250000
O O17 0.500000 0.070114 0.750000
O O18 0.500000 0.500000 0.000000
#
# Coordination Sequence:
#
# PCOD9227016 Si02
#       8
#     4   4   4   4   4   4   4   4
#     4   8  18  33  59  80 101 141 187 238 285 313
#     4  10  20  36  52  79 116 148 185 226 282 344
#     4   9  18  34  54  82 110 140 188 232 273 334
#     4  10  18  32  55  80 107 143 189 239 281 324
#     4  10  19  35  57  85 111 142 190 236 270 339
#     4  11  22  37  55  79 118 161 182 214 282 349
#     4  10  19  33  56  84 109 143 191 240 279 322
#     4  10  18  34  58  84 107 135 187 248 287 319
#
# _framework density 26.693193000000001
#
# number of rings (size 3 to 8) (size 9 to 14) (size 15 to 20)
#    0.000    2.250    1.250    3.000    0.000    0.000 
#    2.250    1.875    0.000    0.000    0.000    0.000 
#    0.000    0.000    0.000    0.000    0.000    0.000 
#
# Total GULP energy -178523.402867 kJ/mol
# GULP energy per Si atom -5578.856340 kJ/mol
# Density = 2.663244 g / cm^3
# Si number density = 26.693193 Si / 1000 Ang^3
#
#
#
# Elastic Constant Matrix: (Units=GPa)
#
#
# Indices 1 2 3 4 5 6 
#
# 1 49.7366 5.2548 -6.5491 0.0000 1.1186 0.0000
# 2 5.2548 173.5140 21.8001 0.0000 4.5901 0.0000
# 3 -6.5491 21.8001 77.9061 0.0000 23.7351 0.0000
# 4 0.0000 0.0000 0.0000 28.4425 0.0000 -3.9313
# 5 1.1186 4.5901 23.7351 0.0000 37.8744 0.0000
# 6 0.0000 0.0000 0.0000 -3.9313 0.0000 35.0905
#
#
#
# Elastic Compliance Matrix: (Units=1/GPa)
#
#
# Indices 1 2 3 4 5 6 
#
# 1 0.020597 -0.000898 0.002639 0.000000 -0.002153 0.000000
# 2 -0.000898 0.006017 -0.001910 0.000000 0.000494 0.000000
# 3 0.002639 -0.001910 0.016742 0.000000 -0.010338 0.000000
# 4 0.000000 0.000000 0.000000 0.035712 0.000000 0.004001
# 5 -0.002153 0.000494 -0.010338 0.000000 0.032886 0.000000
# 6 0.000000 0.000000 0.000000 0.004001 0.000000 0.028946
#
#
# Mechanical properties :
#
#
# Convention : Reuss Voigt Hill
#
# Bulk Modulus (GPa) = 23.24651 38.01871 30.63261
# Shear Modulus (GPa) = 32.13843 38.99155 35.56499
#
# Velocity S-wave (km/s) = 3.47363 3.82610 3.65411
# Velocity P-wave (km/s) = 4.98154 5.81313 5.41333
#
# Compressibility (1/GPa) = 0.04301721
#
# Stress axis : x y z
#
# Youngs Moduli (GPa) = 48.55135 166.18721 59.73030
#
# Poissons Ratio (x) = 0.14929 -0.15762
# Poissons Ratio (y) = 0.04362 0.11408
# Poissons Ratio (z) = -0.12812 0.31740
#
# Static dielectric constant tensor:
#      x y z
#    x 2.198730 0.000000 0.047250 
#    y 0.000000 2.103400 0.000000 
#    z 0.047250 0.000000 2.061640 
# 
# From -- ./inp_files/88933.got.cif
#   From: 2010.05.17/outbox.cif.g08.bks.cpg/sg13_45_cif.got.tgz:88933.got - 2010.06.03 16:44:36.
