data_PCOD9227746
_publ_section_title
;
Structure prediction by ZEFSAII (Michael W. Deem and Ramdas Pophale) SiO2 
 PCOD9227746
Probable space group: P 2/C
;
_chemical_formula_sum "Si O2"
_cell_formula_units_Z 28
_cell_length_a 12.332210
_cell_length_b 8.019254
_cell_length_c 17.910674
_cell_angle_alpha 90.000000
_cell_angle_beta 125.895202
_cell_angle_gamma 90.000000
_cell_volume 1434.896177
_symmetry_space_group_name_H-M "P 2/C"
_symmetry_group_IT_number 13
_symmetry_cell_setting 'monoclinic'
loop_
_space_group_symop_operation_xyz
x,y,z
-x,y,1/2-z
-x,-y,-z
x,-y,1/2+z
loop_
_atom_site_type_symbol
_atom_site_label
_atom_site_fract_x
_atom_site_fract_y
_atom_site_fract_z
Si Si1 0.469532 0.128725 0.325702
Si Si2 0.284330 0.171492 0.805210
Si Si3 0.724594 0.172102 0.522740
Si Si4 0.619000 0.496084 0.240775
Si Si5 0.030664 0.051454 0.624274
Si Si6 0.193392 0.452638 0.045280
Si Si7 0.043311 0.239796 0.485523
O O1 0.500000 0.118636 0.250000
O O2 0.604073 0.090585 0.427189
O O3 0.421017 0.322467 0.316849
O O4 0.361912 0.988677 0.303423
O O5 0.304614 0.175458 0.901892
O O6 0.335813 0.345398 0.789955
O O7 0.127852 0.135539 0.723043
O O8 0.731017 0.355194 0.488472
O O9 0.873615 0.095285 0.571490
O O10 0.500000 0.545158 0.250000
O O11 0.735008 0.452243 0.346349
O O12 0.090246 0.110930 0.567876
O O13 0.027842 0.852457 0.611538
O O14 0.058781 0.350085 0.007433
O O15 0.160278 0.639238 0.008059
#
# Coordination Sequence:
#
# PCOD9227746 Si02
#       7
#     4   4   4   4   4   4   4
#     4  11  24  44  67  93 130 174 226 269 315 390
#     4  12  25  42  66  97 133 173 211 274 335 385
#     4  11  24  43  63  92 138 167 208 276 334 381
#     4  11  22  41  65  91 126 168 224 263 316 386
#     4  10  21  38  64  95 127 166 216 263 322 386
#     4  10  18  39  61  94 122 166 213 268 315 382
#     4   9  19  33  66  91 118 164 216 261 310 379
#
# _framework density 19.513605999999999
#
# number of rings (size 3 to 8) (size 9 to 14) (size 15 to 20)
#    0.000    1.429    4.286    2.143    4.000    1.714 
#    2.571    0.000    0.000    0.000    0.000    0.000 
#    0.000    0.000    0.000    0.000    0.000    0.000 
#
# Total GULP energy -155994.480894 kJ/mol
# GULP energy per Si atom -5571.231461 kJ/mol
# Density = 1.946919 g / cm^3
# Si number density = 19.513606 Si / 1000 Ang^3
#
#
#
# Elastic Constant Matrix: (Units=GPa)
#
#
# Indices 1 2 3 4 5 6 
#
# 1 47.9926 39.8070 21.4799 0.0000 1.8287 0.0000
# 2 39.8070 99.7207 33.5688 0.0000 -2.9410 0.0000
# 3 21.4799 33.5688 102.0690 0.0000 -1.1483 0.0000
# 4 0.0000 0.0000 0.0000 20.0411 0.0000 17.7640
# 5 1.8287 -2.9410 -1.1483 0.0000 34.5737 0.0000
# 6 0.0000 0.0000 0.0000 17.7640 0.0000 5.6851
#
#
#
# Elastic Compliance Matrix: (Units=1/GPa)
#
#
# Indices 1 2 3 4 5 6 
#
# 1 0.032134 -0.011946 -0.002865 0.000000 -0.002811 0.000000
# 2 -0.011946 0.015742 -0.002642 0.000000 0.001883 0.000000
# 3 -0.002865 -0.002642 0.011273 0.000000 0.000301 0.000000
# 4 0.000000 0.000000 0.000000 -0.028196 0.000000 0.088104
# 5 -0.002811 0.001883 0.000301 0.000000 0.029243 0.000000
# 6 0.000000 0.000000 0.000000 0.088104 0.000000 -0.099398
#
#
# Mechanical properties :
#
#
# Convention : Reuss Voigt Hill
#
# Bulk Modulus (GPa) = 41.25056 48.83263 45.04160
# Shear Modulus (GPa) = 1321.09600 22.38840 671.74220
#
# Velocity S-wave (km/s) = 26.04770 3.39089 18.57391
# Velocity P-wave (km/s) = 30.42743 6.35689 21.97998
#
# Compressibility (1/GPa) = 0.02424209
#
# Stress axis : x y z
#
# Youngs Moduli (GPa) = 31.11920 63.52616 88.71078
#
# Poissons Ratio (x) = 0.75888 0.25419
# Poissons Ratio (y) = 0.37175 0.23437
# Poissons Ratio (z) = 0.08917 0.16784
#
# Static dielectric constant tensor:
#      x y z
#    x 1.669920 0.000000 0.013300 
#    y 0.000000 1.749340 0.000000 
#    z 0.013300 0.000000 1.651870 
# 
# From -- ./inp_files/50439.got.cif
#   From: 2010.05.17/outbox.cif.g08.bks.cpg/sg13_26_cif.got.tgz:50439.got - 2010.06.03 16:44:36.
