data_PCOD9227349
_publ_section_title
;
Structure prediction by ZEFSAII (Michael W. Deem and Ramdas Pophale) SiO2 
 PCOD9227349
Probable space group: P 2/C
;
_chemical_formula_sum "Si O2"
_cell_formula_units_Z 24
_cell_length_a 10.246446
_cell_length_b 5.604892
_cell_length_c 20.364149
_cell_angle_alpha 90.000000
_cell_angle_beta 53.054783
_cell_angle_gamma 90.000000
_cell_volume 934.690842
_symmetry_space_group_name_H-M "P 2/C"
_symmetry_group_IT_number 13
_symmetry_cell_setting 'monoclinic'
loop_
_space_group_symop_operation_xyz
x,y,z
-x,y,1/2-z
-x,-y,-z
x,-y,1/2+z
loop_
_atom_site_type_symbol
_atom_site_label
_atom_site_fract_x
_atom_site_fract_y
_atom_site_fract_z
Si Si1 0.670450 0.238609 0.900049
Si Si2 0.091425 0.443538 0.352238
Si Si3 0.356039 0.062367 0.450372
Si Si4 0.500000 0.826182 0.250000
Si Si5 0.572714 0.557955 0.825690
Si Si6 0.000000 0.686352 0.250000
Si Si7 0.846744 0.947429 0.108473
O O1 0.635460 0.499076 0.880112
O O2 0.832451 0.162448 0.809159
O O3 0.500969 0.105890 0.933909
O O4 0.700957 0.205410 0.967649
O O5 0.274386 0.423127 0.267988
O O6 0.081173 0.683041 0.399794
O O7 0.995552 0.519188 0.315457
O O8 0.062015 0.186598 0.393609
O O9 0.450502 0.228544 0.369972
O O10 0.207125 0.971326 0.451147
O O11 0.520597 0.661561 0.179490
O O12 0.675430 0.946806 0.201630
#
# Coordination Sequence:
#
# PCOD9227349 Si02
#       7
#     4   4   4   2   4   2   4
#     4  10  23  41  63  94 135 184 229 282 347 410
#     4  10  24  39  68  94 135 177 224 275 335 410
#     4  11  21  38  67 100 132 171 234 297 346 392
#     4  10  18  34  60  96 138 158 210 288 352 396
#     4  10  19  35  57  96 129 167 215 281 342 395
#     4  10  24  50  62  94 140 190 232 268 350 440
#     4  11  21  38  62 102 130 170 223 288 339 393
#
# _framework density 25.676936000000001
#
# number of rings (size 3 to 8) (size 9 to 14) (size 15 to 20)
#    0.000    1.667    1.667    3.500    4.667    1.333 
#    3.000    1.667    0.000    0.000    0.000    0.000 
#    0.000    0.000    0.000    0.000    0.000    0.000 
#
# Total GULP energy -133997.840404 kJ/mol
# GULP energy per Si atom -5583.243350 kJ/mol
# Density = 2.561849 g / cm^3
# Si number density = 25.676936 Si / 1000 Ang^3
#
#
#
# Elastic Constant Matrix: (Units=GPa)
#
#
# Indices 1 2 3 4 5 6 
#
# 1 86.4660 28.9523 39.9029 0.0000 38.7312 0.0000
# 2 28.9523 107.7665 32.5954 0.0000 12.0532 0.0000
# 3 39.9029 32.5954 102.9502 0.0000 2.2837 0.0000
# 4 0.0000 0.0000 0.0000 19.2760 0.0000 4.8394
# 5 38.7312 12.0532 2.2837 0.0000 45.1683 0.0000
# 6 0.0000 0.0000 0.0000 4.8394 0.0000 18.8451
#
#
#
# Elastic Compliance Matrix: (Units=1/GPa)
#
#
# Indices 1 2 3 4 5 6 
#
# 1 0.025798 -0.001858 -0.008941 0.000000 -0.021173 0.000000
# 2 -0.001858 0.010705 -0.002644 0.000000 -0.001129 0.000000
# 3 -0.008941 -0.002644 0.013846 0.000000 0.007672 0.000000
# 4 0.000000 0.000000 0.000000 0.055453 0.000000 -0.014240
# 5 -0.021173 -0.001129 0.007672 0.000000 0.040209 0.000000
# 6 0.000000 0.000000 0.000000 -0.014240 0.000000 0.056721
#
#
# Mechanical properties :
#
#
# Convention : Reuss Voigt Hill
#
# Bulk Modulus (GPa) = 42.62244 55.56486 49.09365
# Shear Modulus (GPa) = 21.05804 29.70669 25.38237
#
# Velocity S-wave (km/s) = 2.86687 3.40507 3.14750
# Velocity P-wave (km/s) = 5.25301 6.09478 5.68949
#
# Compressibility (1/GPa) = 0.02346182
#
# Stress axis : x y z
#
# Youngs Moduli (GPa) = 38.76263 93.41812 72.22383
#
# Poissons Ratio (x) = 0.17360 0.64576
# Poissons Ratio (y) = 0.07203 0.19095
# Poissons Ratio (z) = 0.34658 0.24699
#
# Static dielectric constant tensor:
#      x y z
#    x 2.138680 0.000000 -0.008530 
#    y 0.000000 2.074470 0.000000 
#    z -0.008530 0.000000 2.033750 
# 
# From -- ./inp_files/77175.got.cif
#   From: 2010.05.17/outbox.cif.g08.bks.cpg/sg13_39_cif.got.tgz:77175.got - 2010.06.03 16:44:36.
