data_PCOD9227105
_publ_section_title
;
Structure prediction by ZEFSAII (Michael W. Deem and Ramdas Pophale) SiO2 
 PCOD9227105
Probable space group: P 2/C
;
_chemical_formula_sum "Si O2"
_cell_formula_units_Z 22
_cell_length_a 11.311352
_cell_length_b 5.615290
_cell_length_c 23.976043
_cell_angle_alpha 90.000000
_cell_angle_beta 39.100273
_cell_angle_gamma 90.000000
_cell_volume 960.445961
_symmetry_space_group_name_H-M "P 2/C"
_symmetry_group_IT_number 13
_symmetry_cell_setting 'monoclinic'
loop_
_space_group_symop_operation_xyz
x,y,z
-x,y,1/2-z
-x,-y,-z
x,-y,1/2+z
loop_
_atom_site_type_symbol
_atom_site_label
_atom_site_fract_x
_atom_site_fract_y
_atom_site_fract_z
Si Si1 0.137743 0.957110 0.532236
Si Si2 0.175957 0.267036 0.413468
Si Si3 0.500000 0.074045 0.750000
Si Si4 0.434662 0.361748 0.870392
Si Si5 0.278853 0.976617 0.098729
Si Si6 0.357229 0.475746 0.105319
O O1 0.336162 0.835581 0.444736
O O2 0.154515 0.044609 0.588619
O O3 0.984108 0.756038 0.574198
O O4 0.103715 0.162956 0.499158
O O5 0.274392 0.513620 0.391871
O O6 0.337077 0.090602 0.333066
O O7 0.566640 0.236156 0.777189
O O8 0.529959 0.542928 0.877952
O O9 0.241091 0.234338 0.139802
O O10 0.257905 0.734379 0.141555
O O11 0.500000 0.000000 0.000000
O O12 0.500000 0.500000 0.000000
#
# Coordination Sequence:
#
# PCOD9227105 Si02
#       6
#     4   4   2   4   4   4
#     4  10  20  33  59  90 120 144 198 255 311 354
#     4  10  21  37  56  85 118 157 195 254 304 360
#     4  10  24  38  54  84 112 168 204 236 302 374
#     4  11  20  36  58  87 118 155 203 250 309 367
#     4  10  18  33  52  92 117 153 184 245 308 360
#     4  10  19  31  58  86 121 149 194 246 301 363
#
# _framework density 22.906025
#
# number of rings (size 3 to 8) (size 9 to 14) (size 15 to 20)
#    0.000    1.818    3.636    3.273    2.545    0.000 
#    0.000    0.000    0.000    1.091    0.000    0.000 
#    0.000    0.000    0.000    0.000    0.000    0.000 
#
# Total GULP energy -122816.038381 kJ/mol
# GULP energy per Si atom -5582.547199 kJ/mol
# Density = 2.285389 g / cm^3
# Si number density = 22.906025 Si / 1000 Ang^3
#
#
#
# Elastic Constant Matrix: (Units=GPa)
#
#
# Indices 1 2 3 4 5 6 
#
# 1 113.8862 8.1688 16.9063 0.0000 6.7164 0.0000
# 2 8.1688 114.9319 8.6861 0.0000 -0.8097 0.0000
# 3 16.9063 8.6861 34.3519 0.0000 8.3741 0.0000
# 4 0.0000 0.0000 0.0000 18.0586 0.0000 4.5489
# 5 6.7164 -0.8097 8.3741 0.0000 8.5085 0.0000
# 6 0.0000 0.0000 0.0000 4.5489 0.0000 30.9428
#
#
#
# Elastic Compliance Matrix: (Units=1/GPa)
#
#
# Indices 1 2 3 4 5 6 
#
# 1 0.009588 -0.000436 -0.003623 0.000000 -0.004045 0.000000
# 2 -0.000436 0.008996 -0.003095 0.000000 0.004247 0.000000
# 3 -0.003623 -0.003095 0.040852 0.000000 -0.037642 0.000000
# 4 0.000000 0.000000 0.000000 0.057505 0.000000 -0.008454
# 5 -0.004045 0.004247 -0.037642 0.000000 0.158175 0.000000
# 6 0.000000 0.000000 0.000000 -0.008454 0.000000 0.033561
#
#
# Mechanical properties :
#
#
# Convention : Reuss Voigt Hill
#
# Bulk Modulus (GPa) = 22.15910 36.74361 29.45136
# Shear Modulus (GPa) = 14.79175 26.79589 20.79382
#
# Velocity S-wave (km/s) = 2.54393 3.42397 3.01622
# Velocity P-wave (km/s) = 4.28062 5.63092 5.00155
#
# Compressibility (1/GPa) = 0.04512818
#
# Stress axis : x y z
#
# Youngs Moduli (GPa) = 104.29379 111.16487 24.47855
#
# Poissons Ratio (x) = 0.04849 0.08867
# Poissons Ratio (y) = 0.04549 0.07577
# Poissons Ratio (z) = 0.37781 0.34407
#
# Static dielectric constant tensor:
#      x y z
#    x 1.840990 0.000000 -0.016970 
#    y 0.000000 1.952000 0.000000 
#    z -0.016970 0.000000 1.856510 
# 
# From -- ./inp_files/65284.got.cif
#   From: 2010.05.17/outbox.cif.g08.bks.cpg/sg13_33_cif.got.tgz:65284.got - 2010.06.03 16:44:36.
