data_PCOD9227058
_publ_section_title
;
Structure prediction by ZEFSAII (Michael W. Deem and Ramdas Pophale) SiO2 
 PCOD9227058
Probable space group: P 2/C
;
_chemical_formula_sum "Si O2"
_cell_formula_units_Z 30
_cell_length_a 18.812909
_cell_length_b 8.448195
_cell_length_c 23.162762
_cell_angle_alpha 90.000000
_cell_angle_beta 154.204104
_cell_angle_gamma 90.000000
_cell_volume 1602.012107
_symmetry_space_group_name_H-M "P 2/C"
_symmetry_group_IT_number 13
_symmetry_cell_setting 'monoclinic'
loop_
_space_group_symop_operation_xyz
x,y,z
-x,y,1/2-z
-x,-y,-z
x,-y,1/2+z
loop_
_atom_site_type_symbol
_atom_site_label
_atom_site_fract_x
_atom_site_fract_y
_atom_site_fract_z
Si Si1 0.581887 0.641184 0.751838
Si Si2 0.669510 0.369295 0.959345
Si Si3 0.655344 0.384812 0.605307
Si Si4 0.213056 0.336599 0.577552
Si Si5 0.133903 0.685364 0.732009
Si Si6 0.392840 0.808048 0.317401
Si Si7 0.577909 0.826244 0.633933
Si Si8 0.000000 0.681007 0.750000
O O1 0.500000 0.711547 0.750000
O O2 0.441999 0.521729 0.627620
O O3 0.732079 0.520063 0.872735
O O4 0.618124 0.758679 0.726770
O O5 0.693310 0.293637 0.913585
O O6 0.571707 0.256444 0.930677
O O7 0.848232 0.411269 0.112091
O O8 0.500000 0.500000 0.500000
O O9 0.803617 0.508061 0.705039
O O10 0.678357 0.294145 0.682218
O O11 0.591062 0.255530 0.511887
O O12 0.280390 0.230471 0.679253
O O13 0.021689 0.323271 0.424290
O O14 0.282555 0.771468 0.808963
O O15 0.074433 0.767239 0.748161
O O16 0.416279 0.986138 0.355451
#
# Coordination Sequence:
#
# PCOD9227058 Si02
#       8
#     4   4   4   4   4   4   4   2
#     4   9  18  34  55  79 107 140 182 225 265 317
#     4   9  17  33  56  79 104 140 187 226 269 321
#     4  10  20  35  55  75  99 135 180 225 264 314
#     4   9  19  34  55  81 107 144 186 228 270 321
#     4  10  20  35  57  81 106 139 185 230 273 321
#     4  11  21  34  54  79 113 144 176 223 276 337
#     4  11  22  34  54  82 111 144 180 221 275 332
#     4  10  18  32  58  80 100 132 178 234 274 310
#
# _framework density 18.726451000000001
#
# number of rings (size 3 to 8) (size 9 to 14) (size 15 to 20)
#    0.000    2.133    0.000    7.200    0.000    3.733 
#    0.000    0.000    0.000   15.200    0.000    0.000 
#    0.000    0.000    0.000    0.000    0.000    0.000 
#
# Total GULP energy -167093.834682 kJ/mol
# GULP energy per Si atom -5569.794489 kJ/mol
# Density = 1.868383 g / cm^3
# Si number density = 18.726451 Si / 1000 Ang^3
#
#
#
# Elastic Constant Matrix: (Units=GPa)
#
#
# Indices 1 2 3 4 5 6 
#
# 1 115.5784 43.9907 13.7636 0.0000 -15.8396 0.0000
# 2 43.9907 68.1296 9.0215 0.0000 -7.0955 0.0000
# 3 13.7636 9.0215 100.0782 0.0000 1.5100 0.0000
# 4 0.0000 0.0000 0.0000 12.3607 0.0000 -5.9774
# 5 -15.8396 -7.0955 1.5100 0.0000 32.6611 0.0000
# 6 0.0000 0.0000 0.0000 -5.9774 0.0000 2.1680
#
#
#
# Elastic Compliance Matrix: (Units=1/GPa)
#
#
# Indices 1 2 3 4 5 6 
#
# 1 0.012133 -0.007237 -0.001082 0.000000 0.004362 0.000000
# 2 -0.007237 0.019534 -0.000777 0.000000 0.000770 0.000000
# 3 -0.001082 -0.000777 0.010229 0.000000 -0.001167 0.000000
# 4 0.000000 0.000000 0.000000 -0.242720 0.000000 -0.669216
# 5 0.004362 0.000770 -0.001167 0.000000 0.032954 0.000000
# 6 0.000000 0.000000 0.000000 -0.669216 0.000000 -1.383869
#
#
# Mechanical properties :
#
#
# Convention : Reuss Voigt Hill
#
# Bulk Modulus (GPa) = 42.18795 46.37088 44.27942
# Shear Modulus (GPa) = -3.27730 23.90531 10.31400
#
# Velocity S-wave (km/s) = -1.32435 3.57676 2.34940
# Velocity P-wave (km/s) = 4.49877 6.47099 5.57282
#
# Compressibility (1/GPa) = 0.02370345
#
# Stress axis : x y z
#
# Youngs Moduli (GPa) = 82.41850 51.19360 97.76440
#
# Poissons Ratio (x) = 0.37047 0.10579
# Poissons Ratio (y) = 0.59644 0.07598
# Poissons Ratio (z) = 0.08919 0.03979
#
# Static dielectric constant tensor:
#      x y z
#    x 1.699860 0.000000 -0.036160 
#    y 0.000000 1.631300 0.000000 
#    z -0.036160 0.000000 1.678560 
# 
# From -- ./inp_files/80962.got.cif
#   From: 2010.05.17/outbox.cif.g08.bks.cpg/sg13_41_cif.got.tgz:80962.got - 2010.06.03 16:44:36.
