data_PCOD9227970
_publ_section_title
;
Structure prediction by ZEFSAII (Michael W. Deem and Ramdas Pophale) SiO2 
 PCOD9227970
Probable space group: P 2/C
;
_chemical_formula_sum "Si O2"
_cell_formula_units_Z 32
_cell_length_a 21.900058
_cell_length_b 13.908003
_cell_length_c 18.908925
_cell_angle_alpha 90.000000
_cell_angle_beta 19.659517
_cell_angle_gamma 90.000000
_cell_volume 1937.633139
_symmetry_space_group_name_H-M "P 2/C"
_symmetry_group_IT_number 13
_symmetry_cell_setting 'monoclinic'
loop_
_space_group_symop_operation_xyz
x,y,z
-x,y,1/2-z
-x,-y,-z
x,-y,1/2+z
loop_
_atom_site_type_symbol
_atom_site_label
_atom_site_fract_x
_atom_site_fract_y
_atom_site_fract_z
Si Si1 0.740708 0.957101 0.171769
Si Si2 0.692943 0.129039 0.571864
Si Si3 0.739738 0.543196 0.167706
Si Si4 0.126405 0.370895 0.272066
Si Si5 0.621304 0.139934 0.377689
Si Si6 0.782298 0.655303 0.981223
Si Si7 0.608167 0.364386 0.384971
Si Si8 0.100602 0.146085 0.297655
O O1 0.739500 0.931653 0.090075
O O2 0.578058 0.897085 0.384918
O O3 0.703960 0.067929 0.229692
O O4 0.927585 0.919041 0.000396
O O5 0.500000 0.100835 0.750000
O O6 0.687723 0.242365 0.598198
O O7 0.832475 0.124361 0.354767
O O8 0.679701 0.433698 0.245222
O O9 0.595140 0.604824 0.371134
O O10 0.727754 0.580110 0.100406
O O11 0.947207 0.563439 0.965219
O O12 0.240417 0.378505 0.074671
O O13 0.258947 0.385962 0.193315
O O14 0.057912 0.259877 0.347802
O O15 0.618657 0.251222 0.359220
O O16 0.741113 0.129905 0.318292
O O17 0.000000 0.671340 0.750000
#
# Coordination Sequence:
#
# PCOD9227970 Si02
#       8
#     4   4   4   4   4   4   4   4
#     4  11  20  33  51  74 104 133 162 206 250 295
#     4  11  19  30  51  78 101 125 161 207 255 297
#     4  10  19  31  49  74 100 129 160 197 247 294
#     4   9  18  31  50  74  99 124 154 206 249 288
#     4  10  21  34  50  75 100 135 169 201 244 294
#     4   9  18  30  48  75  98 125 155 202 257 290
#     4  10  20  32  49  73  98 131 164 197 239 291
#     4  10  19  33  52  77 102 125 163 205 255 297
#
# _framework density 16.514994999999999
#
# number of rings (size 3 to 8) (size 9 to 14) (size 15 to 20)
#    0.000    2.000    1.250    4.875    3.500    0.000 
#    0.000    0.000    0.000    4.500    6.500    0.000 
#    0.000    0.000    0.000    0.000    0.000    0.000 
#
# Total GULP energy -178553.722212 kJ/mol
# GULP energy per Si atom -5579.803819 kJ/mol
# Density = 1.647741 g / cm^3
# Si number density = 16.514995 Si / 1000 Ang^3
#
#
#
# Elastic Constant Matrix: (Units=GPa)
#
#
# Indices 1 2 3 4 5 6 
#
# 1 44.8274 35.1102 3.6831 0.0000 14.8990 0.0000
# 2 35.1102 101.1724 28.6507 0.0000 13.3686 0.0000
# 3 3.6831 28.6507 41.9883 0.0000 3.3136 0.0000
# 4 0.0000 0.0000 0.0000 23.7476 0.0000 8.6468
# 5 14.8990 13.3686 3.3136 0.0000 17.4472 0.0000
# 6 0.0000 0.0000 0.0000 8.6468 0.0000 11.9653
#
#
#
# Elastic Compliance Matrix: (Units=1/GPa)
#
#
# Indices 1 2 3 4 5 6 
#
# 1 0.040186 -0.012500 0.007062 0.000000 -0.026080 0.000000
# 2 -0.012500 0.017321 -0.010678 0.000000 -0.000570 0.000000
# 3 0.007062 -0.010678 0.030774 0.000000 -0.003694 0.000000
# 4 0.000000 0.000000 0.000000 0.057146 0.000000 -0.041297
# 5 -0.026080 -0.000570 -0.003694 0.000000 0.080725 0.000000
# 6 0.000000 0.000000 0.000000 -0.041297 0.000000 0.113419
#
#
# Mechanical properties :
#
#
# Convention : Reuss Voigt Hill
#
# Bulk Modulus (GPa) = 17.84089 35.87513 26.85801
# Shear Modulus (GPa) = 12.80459 18.66828 15.73643
#
# Velocity S-wave (km/s) = 2.78750 3.36577 3.09019
# Velocity P-wave (km/s) = 4.60288 6.07243 5.38799
#
# Compressibility (1/GPa) = 0.05605102
#
# Stress axis : x y z
#
# Youngs Moduli (GPa) = 24.88446 57.73353 32.49493
#
# Poissons Ratio (x) = 0.72165 -0.22949
# Poissons Ratio (y) = 0.31105 0.34697
# Poissons Ratio (z) = -0.17574 0.61645
#
# Static dielectric constant tensor:
#      x y z
#    x 1.570680 0.000000 -0.010900 
#    y 0.000000 1.538470 0.000000 
#    z -0.010900 0.000000 1.564340 
# 
# From -- ./inp_files/70768.got.cif
#   From: 2010.05.17/outbox.cif.g08.bks.cpg/sg13_36_cif.got.tgz:70768.got - 2010.06.03 16:44:36.
