data_PCOD9227200
_publ_section_title
;
Structure prediction by ZEFSAII (Michael W. Deem and Ramdas Pophale) SiO2 
 PCOD9227200
Probable space group: P 2/C
;
_chemical_formula_sum "Si O2"
_cell_formula_units_Z 28
_cell_length_a 9.052095
_cell_length_b 11.003334
_cell_length_c 21.724601
_cell_angle_alpha 90.000000
_cell_angle_beta 138.131491
_cell_angle_gamma 90.000000
_cell_volume 1444.197584
_symmetry_space_group_name_H-M "P 2/C"
_symmetry_group_IT_number 13
_symmetry_cell_setting 'monoclinic'
loop_
_space_group_symop_operation_xyz
x,y,z
-x,y,1/2-z
-x,-y,-z
x,-y,1/2+z
loop_
_atom_site_type_symbol
_atom_site_label
_atom_site_fract_x
_atom_site_fract_y
_atom_site_fract_z
Si Si1 0.569255 0.886812 0.065387
Si Si2 0.589457 0.334620 0.487811
Si Si3 0.383933 0.210584 0.131341
Si Si4 0.004448 0.031844 0.317824
Si Si5 0.485547 0.940337 0.313701
Si Si6 0.856844 0.521358 0.646208
Si Si7 0.877761 0.262906 0.335629
O O1 0.479815 0.884575 0.107530
O O2 0.830070 0.920647 0.142795
O O3 0.520025 0.760557 0.018394
O O4 0.500000 0.000000 0.000000
O O5 0.654234 0.252883 0.449634
O O6 0.784838 0.415497 0.577022
O O7 0.377848 0.418474 0.406391
O O8 0.639677 0.243211 0.227394
O O9 0.206099 0.273214 0.120603
O O10 0.373937 0.065937 0.141184
O O11 0.000000 0.098134 0.250000
O O12 0.030511 0.142715 0.373443
O O13 0.769508 0.978364 0.261535
O O14 0.500000 0.881051 0.250000
O O15 0.000000 0.482144 0.750000
O O16 0.997794 0.623104 0.654132
#
# Coordination Sequence:
#
# PCOD9227200 Si02
#       7
#     4   4   4   4   4   4   4
#     4  11  21  34  57  85 123 156 193 252 297 357
#     4  11  24  40  59  92 121 152 213 255 297 357
#     4  10  18  34  60  91 120 151 204 257 294 363
#     4   9  18  30  54  84 113 149 194 234 296 361
#     4  10  18  35  57  88 121 160 193 242 305 367
#     4  11  23  40  65  84 115 161 205 259 303 362
#     4  10  18  33  61  90 114 157 202 245 302 359
#
# _framework density 19.387930000000001
#
# number of rings (size 3 to 8) (size 9 to 14) (size 15 to 20)
#    0.000    1.714    5.714    1.286    2.000    2.286 
#    0.000    4.286    0.000    3.429    0.000    0.000 
#    0.000    0.000    0.000    0.000    0.000    0.000 
#
# Total GULP energy -155886.443215 kJ/mol
# GULP energy per Si atom -5567.372972 kJ/mol
# Density = 1.934380 g / cm^3
# Si number density = 19.387930 Si / 1000 Ang^3
#
#
#
# Elastic Constant Matrix: (Units=GPa)
#
#
# Indices 1 2 3 4 5 6 
#
# 1 83.3897 -11.7730 24.2608 0.0000 -23.4622 0.0000
# 2 -11.7730 21.8561 15.5087 0.0000 -5.6684 0.0000
# 3 24.2608 15.5087 90.1397 0.0000 -21.9796 0.0000
# 4 0.0000 0.0000 0.0000 16.9635 0.0000 -1.0702
# 5 -23.4622 -5.6684 -21.9796 0.0000 38.8338 0.0000
# 6 0.0000 0.0000 0.0000 -1.0702 0.0000 8.4492
#
#
#
# Elastic Compliance Matrix: (Units=1/GPa)
#
#
# Indices 1 2 3 4 5 6 
#
# 1 0.019000 0.016864 -0.005355 0.000000 0.010910 0.000000
# 2 0.016864 0.067375 -0.013049 0.000000 0.012637 0.000000
# 3 -0.005355 -0.013049 0.015693 0.000000 0.003742 0.000000
# 4 0.000000 0.000000 0.000000 0.059425 0.000000 0.007527
# 5 0.010910 0.012637 0.003742 0.000000 0.036305 0.000000
# 6 0.000000 0.000000 0.000000 0.007527 0.000000 0.119308
#
#
# Mechanical properties :
#
#
# Convention : Reuss Voigt Hill
#
# Bulk Modulus (GPa) = 10.10232 27.93095 19.01664
# Shear Modulus (GPa) = 14.15701 24.00858 19.08279
#
# Velocity S-wave (km/s) = 2.70515 3.52280 3.14070
# Velocity P-wave (km/s) = 3.87028 5.56637 4.79393
#
# Compressibility (1/GPa) = 0.09898716
#
# Stress axis : x y z
#
# Youngs Moduli (GPa) = 52.63062 14.84233 63.72358
#
# Poissons Ratio (x) = -0.25030 0.34124
# Poissons Ratio (y) = -0.88757 0.83156
# Poissons Ratio (z) = 0.28184 0.19368
#
# Static dielectric constant tensor:
#      x y z
#    x 1.635430 0.000000 -0.037560 
#    y 0.000000 1.677580 0.000000 
#    z -0.037560 0.000000 1.829520 
# 
# From -- ./inp_files/76291.got.cif
#   From: 2010.05.17/outbox.cif.g08.bks.cpg/sg13_39_cif.got.tgz:76291.got - 2010.06.03 16:44:36.
