data_PCOD9227524
_publ_section_title
;
Structure prediction by ZEFSAII (Michael W. Deem and Ramdas Pophale) SiO2 
 PCOD9227524
Probable space group: P 2/C
;
_chemical_formula_sum "Si O2"
_cell_formula_units_Z 32
_cell_length_a 17.909803
_cell_length_b 10.683640
_cell_length_c 23.785125
_cell_angle_alpha 90.000000
_cell_angle_beta 21.335065
_cell_angle_gamma 90.000000
_cell_volume 1655.784001
_symmetry_space_group_name_H-M "P 2/C"
_symmetry_group_IT_number 13
_symmetry_cell_setting 'monoclinic'
loop_
_space_group_symop_operation_xyz
x,y,z
-x,y,1/2-z
-x,-y,-z
x,-y,1/2+z
loop_
_atom_site_type_symbol
_atom_site_label
_atom_site_fract_x
_atom_site_fract_y
_atom_site_fract_z
Si Si1 0.865191 0.486831 0.944282
Si Si2 0.285011 0.646620 0.168617
Si Si3 0.696162 0.698608 0.145815
Si Si4 0.526908 0.447610 0.599529
Si Si5 0.091462 0.855416 0.891081
Si Si6 0.977504 0.867147 0.094073
Si Si7 0.514739 0.277148 0.396685
Si Si8 0.674688 0.791733 0.581452
O O1 0.106645 0.455801 0.780477
O O2 0.793410 0.583730 0.042234
O O3 0.759437 0.540135 0.960855
O O4 0.759615 0.350921 0.026993
O O5 0.473222 0.595297 0.074163
O O6 0.179873 0.759376 0.277551
O O7 0.365734 0.698202 0.053037
O O8 0.500000 0.749085 0.250000
O O9 0.603791 0.640361 0.267500
O O10 0.868128 0.802790 0.032869
O O11 0.441735 0.588734 0.662245
O O12 0.271591 0.780927 0.734771
O O13 0.115332 0.000317 0.858716
O O14 0.104757 0.830102 0.948792
O O15 0.135446 0.878817 0.034751
O O16 0.408518 0.193911 0.423068
O O17 0.500000 0.810033 0.750000
#
# Coordination Sequence:
#
# PCOD9227524 Si02
#       8
#     4   4   4   4   4   4   4   4
#     4   9  20  33  57  89 122 154 202 244 302 370
#     4  11  22  39  59  92 126 165 197 254 309 369
#     4  10  20  36  60  90 122 157 203 253 300 365
#     4  10  20  35  59  90 125 159 194 248 317 365
#     4  11  22  40  58  87 113 158 210 254 292 359
#     4  10  23  38  60  82 117 159 209 253 300 346
#     4  11  23  36  63  91 124 155 203 245 311 372
#     4  10  18  36  58  86 116 152 194 253 304 354
#
# _framework density 19.326191999999999
#
# number of rings (size 3 to 8) (size 9 to 14) (size 15 to 20)
#    0.000    1.750    2.500    3.000    1.750    6.500 
#    0.000    1.250    0.000    3.000    0.000    0.000 
#    0.000    0.000    0.000    0.000    0.000    0.000 
#
# Total GULP energy -178464.415594 kJ/mol
# GULP energy per Si atom -5577.012987 kJ/mol
# Density = 1.928221 g / cm^3
# Si number density = 19.326192 Si / 1000 Ang^3
#
#
#
# Elastic Constant Matrix: (Units=GPa)
#
#
# Indices 1 2 3 4 5 6 
#
# 1 123.9610 16.4192 46.0425 0.0000 -7.2497 0.0000
# 2 16.4192 32.1419 13.1569 0.0000 -9.9023 0.0000
# 3 46.0425 13.1569 66.1456 0.0000 -8.6156 0.0000
# 4 0.0000 0.0000 0.0000 11.8845 0.0000 0.6312
# 5 -7.2497 -9.9023 -8.6156 0.0000 18.0063 0.0000
# 6 0.0000 0.0000 0.0000 0.6312 0.0000 18.1177
#
#
#
# Elastic Compliance Matrix: (Units=1/GPa)
#
#
# Indices 1 2 3 4 5 6 
#
# 1 0.011100 -0.002890 -0.007227 0.000000 -0.000578 0.000000
# 2 -0.002890 0.039886 -0.003430 0.000000 0.019130 0.000000
# 3 -0.007227 -0.003430 0.021549 0.000000 0.005515 0.000000
# 4 0.000000 0.000000 0.000000 0.084299 0.000000 -0.002937
# 5 -0.000578 0.019130 0.005515 0.000000 0.068462 0.000000
# 6 0.000000 0.000000 0.000000 -0.002937 0.000000 0.055297
#
#
# Mechanical properties :
#
#
# Convention : Reuss Voigt Hill
#
# Bulk Modulus (GPa) = 22.00668 41.49841 31.75255
# Shear Modulus (GPa) = 15.48772 19.37701 17.43237
#
# Velocity S-wave (km/s) = 2.83395 3.16987 3.00660
# Velocity P-wave (km/s) = 4.70319 5.90903 5.34026
#
# Compressibility (1/GPa) = 0.04544074
#
# Stress axis : x y z
#
# Youngs Moduli (GPa) = 90.08641 25.07141 46.40487
#
# Poissons Ratio (x) = 0.07246 0.33538
# Poissons Ratio (y) = 0.26037 0.15918
# Poissons Ratio (z) = 0.65107 0.08600
#
# Static dielectric constant tensor:
#      x y z
#    x 1.721610 0.000000 -0.027010 
#    y 0.000000 1.648820 0.000000 
#    z -0.027010 0.000000 1.660590 
# 
# From -- ./inp_files/88166.got.cif
#   From: 2010.05.17/outbox.cif.g08.bks.cpg/sg13_45_cif.got.tgz:88166.got - 2010.06.03 16:44:36.
