data_PCOD9227439
_publ_section_title
;
Structure prediction by ZEFSAII (Michael W. Deem and Ramdas Pophale) SiO2 
 PCOD9227439
Probable space group: P 2/C
;
_chemical_formula_sum "Si O2"
_cell_formula_units_Z 20
_cell_length_a 7.341774
_cell_length_b 7.132233
_cell_length_c 17.684126
_cell_angle_alpha 90.000000
_cell_angle_beta 67.331098
_cell_angle_gamma 90.000000
_cell_volume 854.462424
_symmetry_space_group_name_H-M "P 2/C"
_symmetry_group_IT_number 13
_symmetry_cell_setting 'monoclinic'
loop_
_space_group_symop_operation_xyz
x,y,z
-x,y,1/2-z
-x,-y,-z
x,-y,1/2+z
loop_
_atom_site_type_symbol
_atom_site_label
_atom_site_fract_x
_atom_site_fract_y
_atom_site_fract_z
Si Si1 0.550154 0.600143 0.394224
Si Si2 0.707186 0.723827 0.614906
Si Si3 0.179278 0.449277 0.779297
Si Si4 0.320667 0.060199 0.974874
Si Si5 0.090541 0.260394 0.561708
O O1 0.475171 0.390319 0.392942
O O2 0.650826 0.646691 0.297605
O O3 0.723805 0.639479 0.426175
O O4 0.365067 0.726688 0.448386
O O5 0.747469 0.636454 0.689712
O O6 0.667403 0.940802 0.604870
O O7 0.892425 0.683709 0.528925
O O8 0.000000 0.490835 0.750000
O O9 0.093352 0.316787 0.858700
O O10 0.136308 0.964086 0.048300
O O11 0.500000 0.000000 0.000000
#
# Coordination Sequence:
#
# PCOD9227439 Si02
#       5
#     4   4   4   4   4
#     4  10  18  35  59  87 114 152 194 245 297 344
#     4  10  19  34  62  83 113 155 202 234 293 358
#     4  10  20  35  57  85 122 161 193 244 304 344
#     4   8  18  33  59  86 112 145 197 243 286 352
#     4   8  18  34  60  82 117 149 195 243 290 353
#
# _framework density 23.40653
#
# number of rings (size 3 to 8) (size 9 to 14) (size 15 to 20)
#    1.200    1.600    0.000    1.800    0.000    0.000 
#    0.000    5.000    4.400    7.200    0.000    0.000 
#    0.000    0.000    0.000    0.000    0.000    0.000 
#
# Total GULP energy -111390.232822 kJ/mol
# GULP energy per Si atom -5569.511641 kJ/mol
# Density = 2.335326 g / cm^3
# Si number density = 23.406530 Si / 1000 Ang^3
#
#
#
# Elastic Constant Matrix: (Units=GPa)
#
#
# Indices 1 2 3 4 5 6 
#
# 1 82.8566 10.8289 12.5321 0.0000 25.0765 0.0000
# 2 10.8289 52.1813 5.0686 0.0000 3.8463 0.0000
# 3 12.5321 5.0686 119.4671 0.0000 2.0970 0.0000
# 4 0.0000 0.0000 0.0000 10.2506 0.0000 10.6343
# 5 25.0765 3.8463 2.0970 0.0000 43.0937 0.0000
# 6 0.0000 0.0000 0.0000 10.6343 0.0000 22.0967
#
#
#
# Elastic Compliance Matrix: (Units=1/GPa)
#
#
# Indices 1 2 3 4 5 6 
#
# 1 0.015172 -0.002388 -0.001340 0.000000 -0.008550 0.000000
# 2 -0.002388 0.019741 -0.000581 0.000000 -0.000344 0.000000
# 3 -0.001340 -0.000581 0.008528 0.000000 0.000417 0.000000
# 4 0.000000 0.000000 0.000000 0.194830 0.000000 -0.093764
# 5 -0.008550 -0.000344 0.000417 0.000000 0.028191 0.000000
# 6 0.000000 0.000000 0.000000 -0.093764 0.000000 0.090381
#
#
# Mechanical properties :
#
#
# Convention : Reuss Voigt Hill
#
# Bulk Modulus (GPa) = 28.71668 34.59600 31.65634
# Shear Modulus (GPa) = 13.26016 30.15988 21.71002
#
# Velocity S-wave (km/s) = 2.38274 3.59350 3.04883
# Velocity P-wave (km/s) = 4.45704 5.65952 5.09389
#
# Compressibility (1/GPa) = 0.03482297
#
# Stress axis : x y z
#
# Youngs Moduli (GPa) = 65.91298 50.65511 117.25501
#
# Poissons Ratio (x) = 0.12097 0.15713
# Poissons Ratio (y) = 0.15740 0.06813
# Poissons Ratio (z) = 0.08833 0.02943
#
# Static dielectric constant tensor:
#      x y z
#    x 1.940020 0.000000 -0.012930 
#    y 0.000000 1.898380 0.000000 
#    z -0.012930 0.000000 1.889880 
# 
# From -- ./inp_files/63214.got.cif
#   From: 2010.05.17/outbox.cif.g08.bks.cpg/sg13_32_cif.got.tgz:63214.got - 2010.06.03 16:44:36.
