data_PCOD9227396
_publ_section_title
;
Structure prediction by ZEFSAII (Michael W. Deem and Ramdas Pophale) SiO2 
 PCOD9227396
Probable space group: P 2/C
;
_chemical_formula_sum "Si O2"
_cell_formula_units_Z 30
_cell_length_a 7.909965
_cell_length_b 9.344194
_cell_length_c 20.227455
_cell_angle_alpha 90.000000
_cell_angle_beta 90.445713
_cell_angle_gamma 90.000000
_cell_volume 1495.011423
_symmetry_space_group_name_H-M "P 2/C"
_symmetry_group_IT_number 13
_symmetry_cell_setting 'monoclinic'
loop_
_space_group_symop_operation_xyz
x,y,z
-x,y,1/2-z
-x,-y,-z
x,-y,1/2+z
loop_
_atom_site_type_symbol
_atom_site_label
_atom_site_fract_x
_atom_site_fract_y
_atom_site_fract_z
Si Si1 0.745931 0.926613 0.703671
Si Si2 0.359219 0.192654 0.617575
Si Si3 0.887630 0.294390 0.466663
Si Si4 0.124258 0.079294 0.154444
Si Si5 0.500000 0.173742 0.750000
Si Si6 0.751486 0.408720 0.993188
Si Si7 0.410220 0.808593 0.924735
Si Si8 0.674663 0.095602 0.528629
O O1 0.786269 0.867999 0.777181
O O2 0.633864 0.832939 0.651973
O O3 0.929499 0.957690 0.672230
O O4 0.639163 0.069149 0.717584
O O5 0.411978 0.252627 0.689331
O O6 0.281828 0.313642 0.571369
O O7 0.532904 0.141726 0.581298
O O8 0.231165 0.059412 0.630089
O O9 0.884421 0.205383 0.399074
O O10 0.757343 0.425687 0.474858
O O11 0.844048 0.185591 0.526240
O O12 0.069104 0.364126 0.476077
O O13 0.623619 0.349054 0.048357
O O14 0.290679 0.928226 0.960991
O O15 0.584660 0.863500 0.958344
#
# Coordination Sequence:
#
# PCOD9227396 Si02
#       8
#     4   4   4   4   2   4   4   4
#     4  10  20  34  58  87 113 146 184 237 283 341
#     4  10  21  37  58  88 112 147 186 233 282 345
#     4  11  22  38  56  82 116 155 189 239 279 338
#     4  10  21  36  59  83 115 149 190 232 287 338
#     4  10  20  36  60  84 120 138 182 240 290 338
#     4  10  23  36  57  81 115 150 194 233 285 331
#     4  10  18  35  55  88 109 141 188 233 284 341
#     4  10  21  33  58  86 113 143 185 236 287 326
#
# _framework density 20.066735999999999
#
# number of rings (size 3 to 8) (size 9 to 14) (size 15 to 20)
#    0.000    1.867    2.667    2.400    3.733    3.200 
#    0.000    0.000    5.867    6.400    0.000    0.000 
#    0.000    0.000    0.000    0.000    0.000    0.000 
#
# Total GULP energy -167172.453412 kJ/mol
# GULP energy per Si atom -5572.415114 kJ/mol
# Density = 2.002106 g / cm^3
# Si number density = 20.066736 Si / 1000 Ang^3
#
#
#
# Elastic Constant Matrix: (Units=GPa)
#
#
# Indices 1 2 3 4 5 6 
#
# 1 51.2848 -7.1608 22.7217 0.0000 -7.8148 0.0000
# 2 -7.1608 49.7058 13.7894 0.0000 -6.8755 0.0000
# 3 22.7217 13.7894 110.7296 0.0000 17.4912 0.0000
# 4 0.0000 0.0000 0.0000 8.6844 0.0000 -2.1974
# 5 -7.8148 -6.8755 17.4912 0.0000 37.1519 0.0000
# 6 0.0000 0.0000 0.0000 -2.1974 0.0000 24.4447
#
#
#
# Elastic Compliance Matrix: (Units=1/GPa)
#
#
# Indices 1 2 3 4 5 6 
#
# 1 0.025550 0.007279 -0.007790 0.000000 0.010389 0.000000
# 2 0.007279 0.024001 -0.005862 0.000000 0.008733 0.000000
# 3 -0.007790 -0.005862 0.012737 0.000000 -0.008720 0.000000
# 4 0.000000 0.000000 0.000000 0.117830 0.000000 0.010592
# 5 0.010389 0.008733 -0.008720 0.000000 0.034824 0.000000
# 6 0.000000 0.000000 0.000000 0.010592 0.000000 0.041861
#
#
# Mechanical properties :
#
#
# Convention : Reuss Voigt Hill
#
# Bulk Modulus (GPa) = 20.18506 30.04677 25.11591
# Shear Modulus (GPa) = 17.47867 26.21420 21.84643
#
# Velocity S-wave (km/s) = 2.95452 3.61827 3.30311
# Velocity P-wave (km/s) = 4.66044 5.69752 5.20488
#
# Compressibility (1/GPa) = 0.04954159
#
# Stress axis : x y z
#
# Youngs Moduli (GPa) = 39.13888 41.66448 78.51070
#
# Poissons Ratio (x) = -0.30328 0.61164
# Poissons Ratio (y) = -0.28490 0.46024
# Poissons Ratio (z) = 0.30491 0.24424
#
# Static dielectric constant tensor:
#      x y z
#    x 1.801800 0.000000 0.017000 
#    y 0.000000 1.712020 0.000000 
#    z 0.017000 0.000000 1.764570 
# 
# From -- ./inp_files/75701.got.cif
#   From: 2010.05.17/outbox.cif.g08.bks.cpg/sg13_38_cif.got.tgz:75701.got - 2010.06.03 16:44:36.
