data_PCOD9227426
_publ_section_title
;
Structure prediction by ZEFSAII (Michael W. Deem and Ramdas Pophale) SiO2 
 PCOD9227426
Probable space group: P 2/C
;
_chemical_formula_sum "Si O2"
_cell_formula_units_Z 32
_cell_length_a 15.230818
_cell_length_b 18.708438
_cell_length_c 11.729181
_cell_angle_alpha 90.000000
_cell_angle_beta 152.388110
_cell_angle_gamma 90.000000
_cell_volume 1549.028393
_symmetry_space_group_name_H-M "P 2/C"
_symmetry_group_IT_number 13
_symmetry_cell_setting 'monoclinic'
loop_
_space_group_symop_operation_xyz
x,y,z
-x,y,1/2-z
-x,-y,-z
x,-y,1/2+z
loop_
_atom_site_type_symbol
_atom_site_label
_atom_site_fract_x
_atom_site_fract_y
_atom_site_fract_z
Si Si1 0.287325 0.228617 0.499275
Si Si2 0.800071 0.375480 0.058230
Si Si3 0.548889 0.386379 0.545399
Si Si4 0.446157 0.920610 0.819391
Si Si5 0.818961 0.021589 0.866744
Si Si6 0.106422 0.183707 0.527094
Si Si7 0.658918 0.486995 0.033346
Si Si8 0.449292 0.767277 0.558248
O O1 0.298440 0.312883 0.482407
O O2 0.206324 0.221133 0.534158
O O3 0.500000 0.198143 0.750000
O O4 0.118626 0.197210 0.228210
O O5 0.000000 0.347709 0.250000
O O6 0.683850 0.384044 0.809591
O O7 0.828201 0.447338 0.163496
O O8 0.383391 0.438301 0.403334
O O9 0.654673 0.431821 0.568638
O O10 0.503440 0.306992 0.450390
O O11 0.500000 0.913265 0.750000
O O12 0.444178 0.839084 0.863674
O O13 0.253401 0.962809 0.626013
O O14 0.627717 0.964150 0.074675
O O15 0.866044 0.099993 0.966953
O O16 0.000000 0.000000 0.000000
O O17 0.229316 0.211484 0.776340
O O18 0.500000 0.480082 0.750000
O O19 0.500000 0.758324 0.750000
#
# Coordination Sequence:
#
# PCOD9227426 Si02
#       8
#     4   4   4   4   4   4   4   4
#     4  11  21  37  62  91 123 162 207 267 326 373
#     4  11  20  36  55  86 124 157 206 264 320 374
#     4  10  18  35  58  83 118 157 208 254 304 377
#     4   9  21  39  61  87 119 161 208 249 317 380
#     4  10  22  40  59  88 125 158 201 261 314 380
#     4  10  22  38  57  95 121 156 213 260 314 388
#     4   9  20  33  54  88 116 156 204 252 314 373
#     4  10  19  36  62  86 119 168 208 259 313 373
#
# _framework density 20.658111000000002
#
# number of rings (size 3 to 8) (size 9 to 14) (size 15 to 20)
#    0.000    2.000    2.500    1.500    0.000    6.500 
#    0.000    0.000    0.000    2.250    6.500    0.000 
#    0.000    0.000    0.000    0.000    0.000    0.000 
#
# Total GULP energy -178138.051755 kJ/mol
# GULP energy per Si atom -5566.814117 kJ/mol
# Density = 2.061109 g / cm^3
# Si number density = 20.658111 Si / 1000 Ang^3
#
#
#
# Elastic Constant Matrix: (Units=GPa)
#
#
# Indices 1 2 3 4 5 6 
#
# 1 72.2242 53.0881 32.2903 0.0000 8.4531 0.0000
# 2 53.0881 134.4156 23.6214 0.0000 4.0050 0.0000
# 3 32.2903 23.6214 97.0995 0.0000 6.7725 0.0000
# 4 0.0000 0.0000 0.0000 12.7482 0.0000 -1.4641
# 5 8.4531 4.0050 6.7725 0.0000 33.8328 0.0000
# 6 0.0000 0.0000 0.0000 -1.4641 0.0000 137.0412
#
#
#
# Elastic Compliance Matrix: (Units=1/GPa)
#
#
# Indices 1 2 3 4 5 6 
#
# 1 0.022362 -0.007795 -0.005289 0.000000 -0.003606 0.000000
# 2 -0.007795 0.010499 -0.000011 0.000000 0.000707 0.000000
# 3 -0.005289 -0.000011 0.012137 0.000000 -0.001107 0.000000
# 4 0.000000 0.000000 0.000000 0.078539 0.000000 0.000839
# 5 -0.003606 0.000707 -0.001107 0.000000 0.030596 0.000000
# 6 0.000000 0.000000 0.000000 0.000839 0.000000 0.007306
#
#
# Mechanical properties :
#
#
# Convention : Reuss Voigt Hill
#
# Bulk Modulus (GPa) = 53.16701 57.97099 55.56900
# Shear Modulus (GPa) = 25.78660 49.70707 37.74683
#
# Velocity S-wave (km/s) = 3.53690 4.91060 4.27923
# Velocity P-wave (km/s) = 6.51706 7.76370 7.16753
#
# Compressibility (1/GPa) = 0.01880866
#
# Stress axis : x y z
#
# Youngs Moduli (GPa) = 44.71863 95.24493 82.39011
#
# Poissons Ratio (x) = 0.74245 0.43573
# Poissons Ratio (y) = 0.34859 0.00092
# Poissons Ratio (z) = 0.23650 0.00107
#
# Static dielectric constant tensor:
#      x y z
#    x 1.771000 0.000000 -0.000800 
#    y 0.000000 1.833710 0.000000 
#    z -0.000800 0.000000 1.774520 
# 
# From -- ./inp_files/37718.got.cif
#   From: 2010.05.17/outbox.cif.g08.bks.cpg/sg13_19_cif.got.tgz:37718.got - 2010.06.03 16:44:36.
