data_PCOD9227608
_publ_section_title
;
Structure prediction by ZEFSAII (Michael W. Deem and Ramdas Pophale) SiO2 
 PCOD9227608
Probable space group: P 2/C
;
_chemical_formula_sum "Si O2"
_cell_formula_units_Z 30
_cell_length_a 17.053922
_cell_length_b 11.364066
_cell_length_c 8.100810
_cell_angle_alpha 90.000000
_cell_angle_beta 118.931675
_cell_angle_gamma 90.000000
_cell_volume 1374.017913
_symmetry_space_group_name_H-M "P 2/C"
_symmetry_group_IT_number 13
_symmetry_cell_setting 'monoclinic'
loop_
_space_group_symop_operation_xyz
x,y,z
-x,y,1/2-z
-x,-y,-z
x,-y,1/2+z
loop_
_atom_site_type_symbol
_atom_site_label
_atom_site_fract_x
_atom_site_fract_y
_atom_site_fract_z
Si Si1 0.980136 0.866965 0.035945
Si Si2 0.704790 0.540439 0.818532
Si Si3 0.535740 0.635050 0.446346
Si Si4 0.000000 0.285069 0.250000
Si Si5 0.390650 0.893415 0.629996
Si Si6 0.828652 0.287010 0.250789
Si Si7 0.654555 0.669399 0.100946
Si Si8 0.654946 0.848325 0.538120
O O1 0.000000 0.853354 0.250000
O O2 0.028939 0.790832 0.941352
O O3 0.880770 0.813297 0.909775
O O4 0.000000 0.000000 0.000000
O O5 0.616177 0.578076 0.627234
O O6 0.785642 0.609379 0.814457
O O7 0.691547 0.594500 0.984556
O O8 0.704245 0.398871 0.801873
O O9 0.500000 0.566568 0.250000
O O10 0.451455 0.655262 0.476283
O O11 0.578568 0.754347 0.418888
O O12 0.092540 0.341900 0.282726
O O13 0.500000 0.881732 0.750000
O O14 0.343440 0.806070 0.449445
O O15 0.352752 0.860737 0.771159
O O16 0.365992 0.026850 0.562436
O O17 0.749236 0.210676 0.089368
#
# Coordination Sequence:
#
# PCOD9227608 Si02
#       8
#     4   4   4   2   4   4   4   4
#     4  10  18  36  66 101 136 176 220 272 351 430
#     4  11  23  43  66  95 132 174 227 306 322 397
#     4  11  22  39  63  93 127 183 230 274 340 394
#     4   8  20  38  68  94 140 172 220 280 348 438
#     4  12  23  41  60  95 137 188 225 272 336 417
#     4   9  21  43  63 102 135 172 226 283 350 413
#     4  12  23  42  64  88 129 178 233 277 335 386
#     4  11  24  39  63  92 147 172 221 282 338 411
#
# _framework density 21.833774999999999
#
# number of rings (size 3 to 8) (size 9 to 14) (size 15 to 20)
#    0.800    0.533    4.667    2.400    1.867    2.667 
#    0.000    4.000    0.000    0.800    0.000    0.933 
#    0.000    0.000    0.000    0.000    0.000    0.000 
#
# Total GULP energy -167257.728638 kJ/mol
# GULP energy per Si atom -5575.257621 kJ/mol
# Density = 2.178408 g / cm^3
# Si number density = 21.833775 Si / 1000 Ang^3
#
#
#
# Elastic Constant Matrix: (Units=GPa)
#
#
# Indices 1 2 3 4 5 6 
#
# 1 158.9376 38.0084 28.7858 0.0000 -2.6801 0.0000
# 2 38.0084 122.7181 38.9282 0.0000 12.7612 0.0000
# 3 28.7858 38.9282 60.1378 0.0000 -5.7985 0.0000
# 4 0.0000 0.0000 0.0000 33.3631 0.0000 -7.0808
# 5 -2.6801 12.7612 -5.7985 0.0000 29.3592 0.0000
# 6 0.0000 0.0000 0.0000 -7.0808 0.0000 33.5850
#
#
#
# Elastic Compliance Matrix: (Units=1/GPa)
#
#
# Indices 1 2 3 4 5 6 
#
# 1 0.007096 -0.001557 -0.002305 0.000000 0.000869 0.000000
# 2 -0.001557 0.011699 -0.007474 0.000000 -0.006703 0.000000
# 3 -0.002305 -0.007474 0.023307 0.000000 0.007641 0.000000
# 4 0.000000 0.000000 0.000000 0.031377 0.000000 0.006615
# 5 0.000869 -0.006703 0.007641 0.000000 0.038563 0.000000
# 6 0.000000 0.000000 0.000000 0.006615 0.000000 0.031170
#
#
# Mechanical properties :
#
#
# Convention : Reuss Voigt Hill
#
# Bulk Modulus (GPa) = 51.46737 61.47092 56.46915
# Shear Modulus (GPa) = 29.00898 34.99955 32.00427
#
# Velocity S-wave (km/s) = 3.64899 4.00809 3.83275
# Velocity P-wave (km/s) = 6.43250 7.04520 6.74581
#
# Compressibility (1/GPa) = 0.01942978
#
# Stress axis : x y z
#
# Youngs Moduli (GPa) = 140.91925 85.47785 42.90635
#
# Poissons Ratio (x) = 0.13310 0.09890
# Poissons Ratio (y) = 0.21942 0.32068
# Poissons Ratio (z) = 0.32481 0.63886
#
# Static dielectric constant tensor:
#      x y z
#    x 1.812790 0.000000 -0.037630 
#    y 0.000000 1.845840 0.000000 
#    z -0.037630 0.000000 1.871020 
# 
# From -- ./inp_files/21745.got.cif
#   From: 2010.05.17/outbox.cif.g08.bks.cpg/sg13_11_cif.got.tgz:21745.got - 2010.06.03 16:44:36.
