data_PCOD9227310
_publ_section_title
;
Structure prediction by ZEFSAII (Michael W. Deem and Ramdas Pophale) SiO2 
 PCOD9227310
Probable space group: P 2/C
;
_chemical_formula_sum "Si O2"
_cell_formula_units_Z 28
_cell_length_a 30.776341
_cell_length_b 9.646377
_cell_length_c 9.072705
_cell_angle_alpha 90.000000
_cell_angle_beta 143.435812
_cell_angle_gamma 90.000000
_cell_volume 1604.583606
_symmetry_space_group_name_H-M "P 2/C"
_symmetry_group_IT_number 13
_symmetry_cell_setting 'monoclinic'
loop_
_space_group_symop_operation_xyz
x,y,z
-x,y,1/2-z
-x,-y,-z
x,-y,1/2+z
loop_
_atom_site_type_symbol
_atom_site_label
_atom_site_fract_x
_atom_site_fract_y
_atom_site_fract_z
Si Si1 0.186455 0.120921 0.697930
Si Si2 0.798684 0.844236 0.919794
Si Si3 0.572996 0.834258 0.144630
Si Si4 0.699125 0.374264 0.984156
Si Si5 0.591298 0.880104 0.848017
Si Si6 0.719664 0.667886 0.191062
Si Si7 0.947546 0.943124 0.231936
O O1 0.206098 0.255251 0.655971
O O2 0.102119 0.070662 0.465600
O O3 0.224017 0.987751 0.722558
O O4 0.211607 0.142419 0.933687
O O5 0.756048 0.719767 0.729661
O O6 0.885581 0.839796 0.123163
O O7 0.620212 0.696540 0.297866
O O8 0.598486 0.962477 0.313755
O O9 0.586418 0.877095 0.011564
O O10 0.485842 0.822558 0.924140
O O11 0.715992 0.363097 0.855613
O O12 0.705372 0.529268 0.060524
O O13 0.656690 0.779472 0.982628
O O14 0.000000 0.883885 0.250000
O O15 0.000000 0.000000 0.500000
#
# Coordination Sequence:
#
# PCOD9227310 Si02
#       7
#     4   4   4   4   4   4   4
#     4  10  20  34  57  85 113 144 180 228 271 328
#     4  10  20  34  57  85 113 144 180 227 273 326
#     4   9  19  36  57  81 109 142 185 235 282 324
#     4  11  23  37  54  78 113 152 191 232 277 334
#     4   9  19  36  57  81 109 142 185 235 281 326
#     4  11  23  37  54  78 113 152 191 231 278 333
#     4  10  18  34  58  90 113 138 177 227 275 324
#
# _framework density 17.450009999999999
#
# number of rings (size 3 to 8) (size 9 to 14) (size 15 to 20)
#    0.857    1.143    1.429    2.571    2.000    5.143 
#    0.000    0.000    0.000    1.714    0.000    0.000 
#    0.000    0.000    0.000    0.000    0.000    0.000 
#
# Total GULP energy -156032.819009 kJ/mol
# GULP energy per Si atom -5572.600679 kJ/mol
# Density = 1.741029 g / cm^3
# Si number density = 17.450010 Si / 1000 Ang^3
#
#
#
# Elastic Constant Matrix: (Units=GPa)
#
#
# Indices 1 2 3 4 5 6 
#
# 1 60.2049 19.1092 17.3171 0.0000 -5.8114 0.0000
# 2 19.1092 74.1260 12.1667 0.0000 -0.7783 0.0000
# 3 17.3171 12.1667 57.1405 0.0000 -2.4737 0.0000
# 4 0.0000 0.0000 0.0000 19.6185 0.0000 -10.3239
# 5 -5.8114 -0.7783 -2.4737 0.0000 25.1768 0.0000
# 6 0.0000 0.0000 0.0000 -10.3239 0.0000 21.3888
#
#
#
# Elastic Compliance Matrix: (Units=1/GPa)
#
#
# Indices 1 2 3 4 5 6 
#
# 1 0.019750 -0.004244 -0.004911 0.000000 0.003945 0.000000
# 2 -0.004244 0.014892 -0.001915 0.000000 -0.000707 0.000000
# 3 -0.004911 -0.001915 0.019428 0.000000 0.000716 0.000000
# 4 0.000000 0.000000 0.000000 0.068328 0.000000 0.032980
# 5 0.003945 -0.000707 0.000716 0.000000 0.040678 0.000000
# 6 0.000000 0.000000 0.000000 0.032980 0.000000 0.062672
#
#
# Mechanical properties :
#
#
# Convention : Reuss Voigt Hill
#
# Bulk Modulus (GPa) = 31.31938 32.07304 31.69621
# Shear Modulus (GPa) = 19.33996 22.76205 21.05101
#
# Velocity S-wave (km/s) = 3.33274 3.61559 3.47704
# Velocity P-wave (km/s) = 5.72683 5.98747 5.85860
#
# Compressibility (1/GPa) = 0.03192911
#
# Stress axis : x y z
#
# Youngs Moduli (GPa) = 50.63181 67.15217 51.47240
#
# Poissons Ratio (x) = 0.28500 0.25279
# Poissons Ratio (y) = 0.21488 0.09858
# Poissons Ratio (z) = 0.24866 0.12861
#
# Static dielectric constant tensor:
#      x y z
#    x 1.630410 0.000000 0.016070 
#    y 0.000000 1.559120 0.000000 
#    z 0.016070 0.000000 1.611510 
# 
# From -- ./inp_files/24879.got.cif
#   From: 2010.05.17/outbox.cif.g08.bks.cpg/sg13_13_cif.got.tgz:24879.got - 2010.06.03 16:44:36.
