data_PCOD9227884
_publ_section_title
;
Structure prediction by ZEFSAII (Michael W. Deem and Ramdas Pophale) SiO2 
 PCOD9227884
Probable space group: P 2/C
;
_chemical_formula_sum "Si O2"
_cell_formula_units_Z 24
_cell_length_a 5.235295
_cell_length_b 13.763462
_cell_length_c 15.172187
_cell_angle_alpha 90.000000
_cell_angle_beta 121.325732
_cell_angle_gamma 90.000000
_cell_volume 933.876671
_symmetry_space_group_name_H-M "P 2/C"
_symmetry_group_IT_number 13
_symmetry_cell_setting 'monoclinic'
loop_
_space_group_symop_operation_xyz
x,y,z
-x,y,1/2-z
-x,-y,-z
x,-y,1/2+z
loop_
_atom_site_type_symbol
_atom_site_label
_atom_site_fract_x
_atom_site_fract_y
_atom_site_fract_z
Si Si1 0.939754 0.431345 0.109131
Si Si2 0.522270 0.474465 0.867555
Si Si3 0.142598 0.222676 0.178532
Si Si4 0.242488 0.189898 0.625900
Si Si5 0.858659 0.011276 0.322525
Si Si6 0.239035 0.729957 0.362010
O O1 0.716373 0.442371 0.151464
O O2 0.234753 0.499790 0.163685
O O3 0.038090 0.321179 0.114592
O O4 0.739447 0.465069 0.991576
O O5 0.343183 0.373216 0.841846
O O6 0.500000 0.226583 0.250000
O O7 0.055583 0.116897 0.124508
O O8 0.000000 0.223391 0.250000
O O9 0.500000 0.200856 0.750000
O O10 0.458218 0.208037 0.581480
O O11 0.972444 0.267307 0.590189
O O12 0.090391 0.085134 0.611102
O O13 0.500000 0.014049 0.250000
O O14 0.000000 0.000988 0.250000
O O15 0.000000 0.772832 0.250000
#
# Coordination Sequence:
#
# PCOD9227884 Si02
#       6
#     4   4   4   4   4   4
#     4  10  21  37  53  71  99 135 170 203 250 305
#     4  10  21  36  53  71  98 138 171 200 248 306
#     4  10  20  33  53  79 101 126 165 212 252 286
#     4   9  16  28  46  70 100 127 155 196 244 293
#     4   9  16  28  47  71  99 129 159 196 246 298
#     4  10  19  30  48  74  99 126 163 204 242 281
#
# _framework density 25.699324000000001
#
# number of rings (size 3 to 8) (size 9 to 14) (size 15 to 20)
#    0.000    2.333    0.000    4.500    0.000    2.000 
#    0.000    0.000    0.000    2.000    0.000    0.000 
#    0.000    8.000    0.000    0.000    0.000    0.000 
#
# Total GULP energy -134077.346215 kJ/mol
# GULP energy per Si atom -5586.556092 kJ/mol
# Density = 2.564083 g / cm^3
# Si number density = 25.699324 Si / 1000 Ang^3
#
#
#
# Elastic Constant Matrix: (Units=GPa)
#
#
# Indices 1 2 3 4 5 6 
#
# 1 231.4376 61.8650 38.4980 0.0000 33.1846 0.0000
# 2 61.8650 172.0841 16.7994 0.0000 27.5661 0.0000
# 3 38.4980 16.7994 53.5596 0.0000 17.5562 0.0000
# 4 0.0000 0.0000 0.0000 17.2725 0.0000 19.4441
# 5 33.1846 27.5661 17.5562 0.0000 24.3998 0.0000
# 6 0.0000 0.0000 0.0000 19.4441 0.0000 40.1420
#
#
#
# Elastic Compliance Matrix: (Units=1/GPa)
#
#
# Indices 1 2 3 4 5 6 
#
# 1 0.005666 -0.001025 -0.002100 0.000000 -0.005037 0.000000
# 2 -0.001025 0.007292 0.000907 0.000000 -0.007497 0.000000
# 3 -0.002100 0.000907 0.025251 0.000000 -0.016337 0.000000
# 4 0.000000 0.000000 0.000000 0.127323 0.000000 -0.061673
# 5 -0.005037 -0.007497 -0.016337 0.000000 0.068059 0.000000
# 6 0.000000 0.000000 0.000000 -0.061673 0.000000 0.054785
#
#
# Mechanical properties :
#
#
# Convention : Reuss Voigt Hill
#
# Bulk Modulus (GPa) = 29.60993 76.82292 53.21643
# Shear Modulus (GPa) = 16.44351 39.02411 27.73381
#
# Velocity S-wave (km/s) = 2.53225 3.90101 3.28863
# Velocity P-wave (km/s) = 4.48291 7.08861 5.93063
#
# Compressibility (1/GPa) = 0.03377245
#
# Stress axis : x y z
#
# Youngs Moduli (GPa) = 176.47634 137.13647 39.60240
#
# Poissons Ratio (x) = 0.14059 0.08318
# Poissons Ratio (y) = 0.18092 -0.03592
# Poissons Ratio (z) = 0.37066 -0.12438
#
# Static dielectric constant tensor:
#      x y z
#    x 2.068880 0.000000 -0.093450 
#    y 0.000000 2.067940 0.000000 
#    z -0.093450 0.000000 2.082160 
# 
# From -- ./inp_files/83604.got.cif
#   From: 2010.05.17/outbox.cif.g08.bks.cpg/sg13_42_cif.got.tgz:83604.got - 2010.06.03 16:44:36.
