data_PCOD9227392
_publ_section_title
;
Structure prediction by ZEFSAII (Michael W. Deem and Ramdas Pophale) SiO2 
 PCOD9227392
Probable space group: P 2/C
;
_chemical_formula_sum "Si O2"
_cell_formula_units_Z 28
_cell_length_a 13.954629
_cell_length_b 7.844305
_cell_length_c 12.821894
_cell_angle_alpha 90.000000
_cell_angle_beta 122.045907
_cell_angle_gamma 90.000000
_cell_volume 1189.673541
_symmetry_space_group_name_H-M "P 2/C"
_symmetry_group_IT_number 13
_symmetry_cell_setting 'monoclinic'
loop_
_space_group_symop_operation_xyz
x,y,z
-x,y,1/2-z
-x,-y,-z
x,-y,1/2+z
loop_
_atom_site_type_symbol
_atom_site_label
_atom_site_fract_x
_atom_site_fract_y
_atom_site_fract_z
Si Si1 0.528995 0.203292 0.521843
Si Si2 0.318655 0.262863 0.285535
Si Si3 0.091541 0.567438 0.681832
Si Si4 0.699167 0.352402 0.448562
Si Si5 0.876790 0.791545 0.181903
Si Si6 0.286975 0.120134 0.729292
Si Si7 0.153860 0.639501 0.007699
O O1 0.409642 0.289035 0.428488
O O2 0.607694 0.274234 0.473700
O O3 0.602680 0.227082 0.669296
O O4 0.500000 0.000000 0.500000
O O5 0.193873 0.302132 0.254576
O O6 0.342505 0.367008 0.193827
O O7 0.325005 0.072954 0.241149
O O8 0.102857 0.398034 0.758380
O O9 0.118983 0.486376 0.583496
O O10 0.968557 0.655479 0.616345
O O11 0.810598 0.232612 0.535025
O O12 0.751722 0.537485 0.501728
O O13 0.794409 0.878684 0.216570
O O14 0.000000 0.873305 0.250000
O O15 0.215091 0.198371 0.593869
#
# Coordination Sequence:
#
# PCOD9227392 Si02
#       7
#     4   4   4   4   4   4   4
#     4   9  19  38  59  80 114 157 194 238 292 349
#     4  10  20  36  56  84 115 152 196 237 296 345
#     4   9  18  32  54  78 113 149 180 234 287 348
#     4  10  19  34  60  83 106 150 200 239 285 346
#     4  10  18  35  55  77 111 154 189 230 294 349
#     4   9  20  35  57  83 114 151 191 241 294 346
#     4   9  17  33  53  83 110 143 190 231 288 343
#
# _framework density 23.535868000000001
#
# number of rings (size 3 to 8) (size 9 to 14) (size 15 to 20)
#    0.000    2.571    1.429    0.429    2.000    0.571 
#    0.000   17.857    0.000   13.714    0.000    0.000 
#    0.000    0.000    0.000    0.000    0.000    0.000 
#
# Total GULP energy -156084.687887 kJ/mol
# GULP energy per Si atom -5574.453139 kJ/mol
# Density = 2.348230 g / cm^3
# Si number density = 23.535868 Si / 1000 Ang^3
#
#
#
# Elastic Constant Matrix: (Units=GPa)
#
#
# Indices 1 2 3 4 5 6 
#
# 1 78.0165 30.8920 36.4035 0.0000 25.3944 0.0000
# 2 30.8920 34.9431 21.5933 0.0000 7.1789 0.0000
# 3 36.4035 21.5933 124.2205 0.0000 34.7084 0.0000
# 4 0.0000 0.0000 0.0000 20.9416 0.0000 4.5555
# 5 25.3944 7.1789 34.7084 0.0000 42.5295 0.0000
# 6 0.0000 0.0000 0.0000 4.5555 0.0000 22.8720
#
#
#
# Elastic Compliance Matrix: (Units=1/GPa)
#
#
# Indices 1 2 3 4 5 6 
#
# 1 0.023953 -0.018481 -0.000884 0.000000 -0.010462 0.000000
# 2 -0.018481 0.046362 -0.004585 0.000000 0.006951 0.000000
# 3 -0.000884 -0.004585 0.011325 0.000000 -0.007940 0.000000
# 4 0.000000 0.000000 0.000000 0.049914 0.000000 -0.009942
# 5 -0.010462 0.006951 -0.007940 0.000000 0.035067 0.000000
# 6 0.000000 0.000000 0.000000 -0.009942 0.000000 0.045702
#
#
# Mechanical properties :
#
#
# Convention : Reuss Voigt Hill
#
# Bulk Modulus (GPa) = 29.63890 46.10641 37.87266
# Shear Modulus (GPa) = 18.41824 27.15470 22.78647
#
# Velocity S-wave (km/s) = 2.80046 3.40039 3.11490
# Velocity P-wave (km/s) = 4.80387 5.92024 5.39103
#
# Compressibility (1/GPa) = 0.03373944
#
# Stress axis : x y z
#
# Youngs Moduli (GPa) = 41.74776 21.56953 88.30002
#
# Poissons Ratio (x) = 0.39862 0.07806
# Poissons Ratio (y) = 0.77153 0.40490
# Poissons Ratio (z) = 0.03691 0.09891
#
# Static dielectric constant tensor:
#      x y z
#    x 1.922790 0.000000 0.005760 
#    y 0.000000 1.901590 0.000000 
#    z 0.005760 0.000000 2.009240 
# 
# From -- ./inp_files/53109.got.cif
#   From: 2010.05.17/outbox.cif.g08.bks.cpg/sg13_27_cif.got.tgz:53109.got - 2010.06.03 16:44:36.
