data_PCOD9227120
_publ_section_title
;
Structure prediction by ZEFSAII (Michael W. Deem and Ramdas Pophale) SiO2 
 PCOD9227120
Probable space group: P 2/C
;
_chemical_formula_sum "Si O2"
_cell_formula_units_Z 28
_cell_length_a 16.920160
_cell_length_b 5.408256
_cell_length_c 20.265473
_cell_angle_alpha 90.000000
_cell_angle_beta 49.933749
_cell_angle_gamma 90.000000
_cell_volume 1419.222699
_symmetry_space_group_name_H-M "P 2/C"
_symmetry_group_IT_number 13
_symmetry_cell_setting 'monoclinic'
loop_
_space_group_symop_operation_xyz
x,y,z
-x,y,1/2-z
-x,-y,-z
x,-y,1/2+z
loop_
_atom_site_type_symbol
_atom_site_label
_atom_site_fract_x
_atom_site_fract_y
_atom_site_fract_z
Si Si1 0.593129 0.229121 0.450227
Si Si2 0.697677 0.106267 0.990130
Si Si3 0.879269 0.070846 0.799865
Si Si4 0.789641 0.565817 0.786709
Si Si5 0.666549 0.441639 0.215930
Si Si6 0.375588 0.932363 0.332816
Si Si7 0.476063 0.434377 0.405336
O O1 0.685872 0.419144 0.386535
O O2 0.534443 0.212010 0.412940
O O3 0.520628 0.342765 0.545115
O O4 0.646502 0.988392 0.449411
O O5 0.642042 0.360577 0.040570
O O6 0.656318 0.938585 0.072750
O O7 0.815921 0.094804 0.903852
O O8 0.848615 0.315104 0.774161
O O9 0.000000 0.068088 0.750000
O O10 0.848655 0.817793 0.777105
O O11 0.745054 0.567525 0.735988
O O12 0.678712 0.691684 0.168367
O O13 0.547670 0.470783 0.305137
O O14 0.668734 0.184372 0.175622
O O15 0.500000 0.934579 0.250000
#
# Coordination Sequence:
#
# PCOD9227120 Si02
#       7
#     4   4   4   4   4   4   4
#     4   9  19  31  54  83 114 150 190 233 303 353
#     4  11  22  35  56  83 123 154 197 243 299 350
#     4  11  23  41  67  93 115 147 198 263 320 350
#     4  10  21  40  63  87 119 153 196 253 303 363
#     4  11  24  38  57  86 123 168 201 229 289 356
#     4  12  24  37  56  84 128 169 199 235 276 356
#     4  10  18  33  53  81 117 154 188 237 284 364
#
# _framework density 19.729108
#
# number of rings (size 3 to 8) (size 9 to 14) (size 15 to 20)
#    0.000    1.429    2.857    3.000    2.000    0.000 
#    0.000    0.000    0.000    5.143    0.000    0.000 
#    0.000    0.000    0.000    0.000    0.000    0.000 
#
# Total GULP energy -156034.480676 kJ/mol
# GULP energy per Si atom -5572.660024 kJ/mol
# Density = 1.968420 g / cm^3
# Si number density = 19.729108 Si / 1000 Ang^3
#
#
#
# Elastic Constant Matrix: (Units=GPa)
#
#
# Indices 1 2 3 4 5 6 
#
# 1 109.8965 64.3086 44.4234 0.0000 -5.1980 0.0000
# 2 64.3086 152.8242 26.1939 0.0000 12.9063 0.0000
# 3 44.4234 26.1939 70.4301 0.0000 0.8912 0.0000
# 4 0.0000 0.0000 0.0000 15.3176 0.0000 3.1076
# 5 -5.1980 12.9063 0.8912 0.0000 36.5495 0.0000
# 6 0.0000 0.0000 0.0000 3.1076 0.0000 34.1926
#
#
#
# Elastic Compliance Matrix: (Units=1/GPa)
#
#
# Indices 1 2 3 4 5 6 
#
# 1 0.015844 -0.005683 -0.007936 0.000000 0.004453 0.000000
# 2 -0.005683 0.009245 0.000198 0.000000 -0.004078 0.000000
# 3 -0.007936 0.000198 0.019152 0.000000 -0.001665 0.000000
# 4 0.000000 0.000000 0.000000 0.066511 0.000000 -0.006045
# 5 0.004453 -0.004078 -0.001665 0.000000 0.029474 0.000000
# 6 0.000000 0.000000 0.000000 -0.006045 0.000000 0.029795
#
#
# Mechanical properties :
#
#
# Convention : Reuss Voigt Hill
#
# Bulk Modulus (GPa) = 57.47824 67.00029 62.23927
# Shear Modulus (GPa) = 24.67155 30.42694 27.54924
#
# Velocity S-wave (km/s) = 3.54010 3.93139 3.74086
# Velocity P-wave (km/s) = 6.77545 7.39200 7.09043
#
# Compressibility (1/GPa) = 0.01739789
#
# Stress axis : x y z
#
# Youngs Moduli (GPa) = 63.11711 108.16272 52.21467
#
# Poissons Ratio (x) = 0.61467 0.41438
# Poissons Ratio (y) = 0.35869 -0.01032
# Poissons Ratio (z) = 0.50090 -0.02137
#
# Static dielectric constant tensor:
#      x y z
#    x 1.733870 0.000000 0.018030 
#    y 0.000000 1.789050 0.000000 
#    z 0.018030 0.000000 1.726880 
# 
# From -- ./inp_files/67470.got.cif
#   From: 2010.05.17/outbox.cif.g08.bks.cpg/sg13_34_cif.got.tgz:67470.got - 2010.06.03 16:44:36.
