data_PCOD9227165
_publ_section_title
;
Structure prediction by ZEFSAII (Michael W. Deem and Ramdas Pophale) SiO2 
 PCOD9227165
Probable space group: P 2/C
;
_chemical_formula_sum "Si O2"
_cell_formula_units_Z 28
_cell_length_a 8.449573
_cell_length_b 5.042007
_cell_length_c 28.934622
_cell_angle_alpha 90.000000
_cell_angle_beta 100.344880
_cell_angle_gamma 90.000000
_cell_volume 1212.658224
_symmetry_space_group_name_H-M "P 2/C"
_symmetry_group_IT_number 13
_symmetry_cell_setting 'monoclinic'
loop_
_space_group_symop_operation_xyz
x,y,z
-x,y,1/2-z
-x,-y,-z
x,-y,1/2+z
loop_
_atom_site_type_symbol
_atom_site_label
_atom_site_fract_x
_atom_site_fract_y
_atom_site_fract_z
Si Si1 0.813336 0.720404 0.872530
Si Si2 0.228324 0.875660 0.044684
Si Si3 0.934242 0.337725 0.564934
Si Si4 0.049017 0.302255 0.305559
Si Si5 0.627542 0.696985 0.530556
Si Si6 0.521792 0.493119 0.391090
Si Si7 0.210932 0.826527 0.353553
O O1 0.900986 0.801151 0.830014
O O2 0.631464 0.619734 0.855960
O O3 0.936435 0.502314 0.898584
O O4 0.790566 0.917713 0.914699
O O5 0.346652 0.651637 0.071493
O O6 0.044659 0.774270 0.029993
O O7 0.318134 0.936787 0.000754
O O8 0.790774 0.527389 0.543094
O O9 0.859140 0.133046 0.597993
O O10 0.000000 0.295264 0.250000
O O11 0.105175 0.596880 0.323085
O O12 0.192423 0.098351 0.325239
O O13 0.500000 0.500000 0.500000
O O14 0.559514 0.725559 0.578983
O O15 0.385137 0.695415 0.368310
#
# Coordination Sequence:
#
# PCOD9227165 Si02
#       7
#     4   4   4   4   4   4   4
#     4  10  21  36  59  84 116 160 199 253 315 369
#     4  10  18  33  57  81 116 164 202 254 299 362
#     4   9  18  35  53  82 118 157 207 249 300 367
#     4  11  23  42  68  92 121 157 209 254 310 381
#     4   9  18  33  52  82 117 163 205 257 294 357
#     4   9  21  37  57  84 126 157 204 250 308 366
#     4  10  21  40  65  92 121 163 202 252 315 368
#
# _framework density 23.089772
#
# number of rings (size 3 to 8) (size 9 to 14) (size 15 to 20)
#    0.000    2.286    1.429    0.857    2.000    1.143 
#    0.000    0.714    0.000    0.000    0.000    0.000 
#    0.000    0.000    0.000    0.000    0.000    0.000 
#
# Total GULP energy -156367.885949 kJ/mol
# GULP energy per Si atom -5584.567355 kJ/mol
# Density = 2.303722 g / cm^3
# Si number density = 23.089772 Si / 1000 Ang^3
#
#
#
# Elastic Constant Matrix: (Units=GPa)
#
#
# Indices 1 2 3 4 5 6 
#
# 1 164.8913 8.5819 46.3704 0.0000 -5.8859 0.0000
# 2 8.5819 59.4107 18.8949 0.0000 -9.3464 0.0000
# 3 46.3704 18.8949 98.4901 0.0000 -11.2590 0.0000
# 4 0.0000 0.0000 0.0000 31.2626 0.0000 0.9679
# 5 -5.8859 -9.3464 -11.2590 0.0000 19.9064 0.0000
# 6 0.0000 0.0000 0.0000 0.9679 0.0000 23.5493
#
#
#
# Elastic Compliance Matrix: (Units=1/GPa)
#
#
# Indices 1 2 3 4 5 6 
#
# 1 0.006991 0.000071 -0.003277 0.000000 0.000247 0.000000
# 2 0.000071 0.018864 -0.002820 0.000000 0.007283 0.000000
# 3 -0.003277 -0.002820 0.012803 0.000000 0.004948 0.000000
# 4 0.000000 0.000000 0.000000 0.032028 0.000000 -0.001316
# 5 0.000247 0.007283 0.004948 0.000000 0.056526 0.000000
# 6 0.000000 0.000000 0.000000 -0.001316 0.000000 0.042518
#
#
# Mechanical properties :
#
#
# Convention : Reuss Voigt Hill
#
# Bulk Modulus (GPa) = 37.58424 52.27630 44.93027
# Shear Modulus (GPa) = 26.22588 31.54000 28.88294
#
# Velocity S-wave (km/s) = 3.37385 3.69992 3.54064
# Velocity P-wave (km/s) = 5.61159 6.39860 6.01798
#
# Compressibility (1/GPa) = 0.02660690
#
# Stress axis : x y z
#
# Youngs Moduli (GPa) = 143.03564 53.01003 78.10778
#
# Poissons Ratio (x) = -0.00377 0.25596
# Poissons Ratio (y) = -0.01018 0.22026
# Poissons Ratio (z) = 0.46873 0.14949
#
# Static dielectric constant tensor:
#      x y z
#    x 1.921280 0.000000 -0.022160 
#    y 0.000000 1.950740 0.000000 
#    z -0.022160 0.000000 1.876690 
# 
# From -- ./inp_files/95520.got.cif
#   From: 2010.05.17/outbox.cif.g08.bks.cpg/sg13_48_cif.got.tgz:95520.got - 2010.06.03 16:44:36.
