data_PCOD9227039
_publ_section_title
;
Structure prediction by ZEFSAII (Michael W. Deem and Ramdas Pophale) SiO2 
 PCOD9227039
Probable space group: P 2/C
;
_chemical_formula_sum "Si O2"
_cell_formula_units_Z 24
_cell_length_a 14.251981
_cell_length_b 9.295406
_cell_length_c 19.810095
_cell_angle_alpha 90.000000
_cell_angle_beta 21.633357
_cell_angle_gamma 90.000000
_cell_volume 967.526799
_symmetry_space_group_name_H-M "P 2/C"
_symmetry_group_IT_number 13
_symmetry_cell_setting 'monoclinic'
loop_
_space_group_symop_operation_xyz
x,y,z
-x,y,1/2-z
-x,-y,-z
x,-y,1/2+z
loop_
_atom_site_type_symbol
_atom_site_label
_atom_site_fract_x
_atom_site_fract_y
_atom_site_fract_z
Si Si1 0.731347 0.869073 0.228108
Si Si2 0.000000 0.948528 0.750000
Si Si3 0.380137 0.722901 0.562284
Si Si4 0.500000 0.230147 0.750000
Si Si5 0.202718 0.702902 0.899659
Si Si6 0.031290 0.422948 0.085026
Si Si7 0.437239 0.147134 0.427914
O O1 0.579406 0.739453 0.367784
O O2 0.639110 0.860959 0.213168
O O3 0.646061 0.025228 0.308200
O O4 0.025258 0.836593 0.036691
O O5 0.176052 0.847553 0.678421
O O6 0.184942 0.055390 0.586204
O O7 0.554445 0.755566 0.510939
O O8 0.190084 0.593051 0.710559
O O9 0.719530 0.326063 0.568042
O O10 0.475325 0.761115 0.694373
O O11 0.091715 0.639917 0.902049
O O12 0.144319 0.577771 0.991505
#
# Coordination Sequence:
#
# PCOD9227039 Si02
#       7
#     4   2   4   2   4   4   4
#     4  10  19  34  57  84 112 149 197 241 297 351
#     4  10  18  32  56  88 120 152 196 246 300 354
#     4  10  20  35  59  84 113 151 196 247 289 352
#     4  10  20  34  54  80 110 146 194 246 284 350
#     4   9  19  34  54  76 109 149 183 234 290 349
#     4   9  18  35  53  75 107 146 189 230 286 341
#     4  10  20  36  57  84 117 151 194 244 298 355
#
# _framework density 24.805515
#
# number of rings (size 3 to 8) (size 9 to 14) (size 15 to 20)
#    0.000    2.333    0.000    4.500    0.000    0.667 
#    0.000    7.500    0.000    0.000    0.000    5.833 
#    0.000    0.000    0.000    0.000    0.000    0.000 
#
# Total GULP energy -134094.007247 kJ/mol
# GULP energy per Si atom -5587.250302 kJ/mol
# Density = 2.474906 g / cm^3
# Si number density = 24.805515 Si / 1000 Ang^3
#
#
#
# Elastic Constant Matrix: (Units=GPa)
#
#
# Indices 1 2 3 4 5 6 
#
# 1 73.8935 4.8747 4.9187 0.0000 11.2156 0.0000
# 2 4.8747 64.4283 26.1413 0.0000 5.4592 0.0000
# 3 4.9187 26.1413 106.8461 0.0000 8.4836 0.0000
# 4 0.0000 0.0000 0.0000 42.9048 0.0000 11.2963
# 5 11.2156 5.4592 8.4836 0.0000 29.0257 0.0000
# 6 0.0000 0.0000 0.0000 11.2963 0.0000 20.0699
#
#
#
# Elastic Compliance Matrix: (Units=1/GPa)
#
#
# Indices 1 2 3 4 5 6 
#
# 1 0.014402 -0.000595 -0.000087 0.000000 -0.005428 0.000000
# 2 -0.000595 0.017377 -0.004078 0.000000 -0.001847 0.000000
# 3 -0.000087 -0.004078 0.010542 0.000000 -0.002281 0.000000
# 4 0.000000 0.000000 0.000000 0.027362 0.000000 -0.015401
# 5 -0.005428 -0.001847 -0.002281 0.000000 0.037564 0.000000
# 6 0.000000 0.000000 0.000000 -0.015401 0.000000 0.058494
#
#
# Mechanical properties :
#
#
# Convention : Reuss Voigt Hill
#
# Bulk Modulus (GPa) = 30.48460 35.22637 32.85548
# Shear Modulus (GPa) = 26.85391 32.34896 29.60143
#
# Velocity S-wave (km/s) = 3.29382 3.61515 3.45822
# Velocity P-wave (km/s) = 5.17512 5.62651 5.40553
#
# Compressibility (1/GPa) = 0.03280345
#
# Stress axis : x y z
#
# Youngs Moduli (GPa) = 69.43574 57.54721 94.85900
#
# Poissons Ratio (x) = 0.03422 0.00821
# Poissons Ratio (y) = 0.04129 0.38679
# Poissons Ratio (z) = 0.00601 0.23465
#
# Static dielectric constant tensor:
#      x y z
#    x 1.941010 0.000000 0.015900 
#    y 0.000000 1.991110 0.000000 
#    z 0.015900 0.000000 1.999420 
# 
# From -- ./inp_files/88010.got.cif
#   From: 2010.05.17/outbox.cif.g08.bks.cpg/sg13_45_cif.got.tgz:88010.got - 2010.06.03 16:44:36.
