data_PCOD9227499
_publ_section_title
;
Structure prediction by ZEFSAII (Michael W. Deem and Ramdas Pophale) SiO2 
 PCOD9227499
Probable space group: P 2/C
;
_chemical_formula_sum "Si O2"
_cell_formula_units_Z 20
_cell_length_a 20.192205
_cell_length_b 8.488125
_cell_length_c 14.750074
_cell_angle_alpha 90.000000
_cell_angle_beta 156.696452
_cell_angle_gamma 90.000000
_cell_volume 1000.111920
_symmetry_space_group_name_H-M "P 2/C"
_symmetry_group_IT_number 13
_symmetry_cell_setting 'monoclinic'
loop_
_space_group_symop_operation_xyz
x,y,z
-x,y,1/2-z
-x,-y,-z
x,-y,1/2+z
loop_
_atom_site_type_symbol
_atom_site_label
_atom_site_fract_x
_atom_site_fract_y
_atom_site_fract_z
Si Si1 0.915405 0.434163 0.545083
Si Si2 0.500000 0.716852 0.750000
Si Si3 0.211798 0.212283 0.649622
Si Si4 0.000000 0.975617 0.750000
Si Si5 0.862115 0.825921 0.245811
Si Si6 0.445720 0.655517 0.880502
O O1 0.854995 0.606693 0.437868
O O2 0.749867 0.322876 0.344451
O O3 0.000000 0.449580 0.750000
O O4 0.050011 0.345545 0.652394
O O5 0.333762 0.815164 0.523469
O O6 0.465746 0.623353 0.798813
O O7 0.134507 0.132673 0.643233
O O8 0.148149 0.130108 0.478511
O O9 0.413620 0.217506 0.914581
O O10 0.060462 0.075394 0.739439
O O11 0.500000 0.500000 0.000000
#
# Coordination Sequence:
#
# PCOD9227499 Si02
#       6
#     4   2   4   2   4   4
#     4  11  18  38  64  88 116 153 192 243 295 345
#     4  10  18  36  56  80 112 152 194 234 286 344
#     4  10  23  38  60  89 120 152 197 243 292 345
#     4  12  22  40  58  84 122 160 196 240 286 354
#     4  11  22  38  62  84 115 161 196 238 294 349
#     4   9  19  34  56  87 116 147 185 239 291 340
#
# _framework density 19.997762000000002
#
# number of rings (size 3 to 8) (size 9 to 14) (size 15 to 20)
#    0.000    1.600    4.000    1.200    0.000    0.000 
#    0.000   11.000    0.000    2.400    0.000    0.000 
#    0.000    0.000    0.000    0.000    0.000    0.000 
#
# Total GULP energy -111452.872097 kJ/mol
# GULP energy per Si atom -5572.643605 kJ/mol
# Density = 1.995225 g / cm^3
# Si number density = 19.997762 Si / 1000 Ang^3
#
#
#
# Elastic Constant Matrix: (Units=GPa)
#
#
# Indices 1 2 3 4 5 6 
#
# 1 77.5322 20.3232 37.9443 0.0000 -20.4459 0.0000
# 2 20.3232 45.1842 23.0519 0.0000 -1.0132 0.0000
# 3 37.9443 23.0519 131.7756 0.0000 -0.3239 0.0000
# 4 0.0000 0.0000 0.0000 10.8109 0.0000 0.2982
# 5 -20.4459 -1.0132 -0.3239 0.0000 43.3514 0.0000
# 6 0.0000 0.0000 0.0000 0.2982 0.0000 14.2089
#
#
#
# Elastic Compliance Matrix: (Units=1/GPa)
#
#
# Indices 1 2 3 4 5 6 
#
# 1 0.018942 -0.006096 -0.004367 0.000000 0.008759 0.000000
# 2 -0.006096 0.026275 -0.002847 0.000000 -0.002282 0.000000
# 3 -0.004367 -0.002847 0.009339 0.000000 -0.002056 0.000000
# 4 0.000000 0.000000 0.000000 0.092553 0.000000 -0.001943
# 5 0.008759 -0.002282 -0.002056 0.000000 0.027130 0.000000
# 6 0.000000 0.000000 0.000000 -0.001943 0.000000 0.070419
#
#
# Mechanical properties :
#
#
# Convention : Reuss Voigt Hill
#
# Bulk Modulus (GPa) = 35.79374 46.34785 41.07080
# Shear Modulus (GPa) = 17.81971 25.21909 21.51940
#
# Velocity S-wave (km/s) = 2.98834 3.55504 3.28394
# Velocity P-wave (km/s) = 5.46303 6.33071 5.91281
#
# Compressibility (1/GPa) = 0.02793784
#
# Stress axis : x y z
#
# Youngs Moduli (GPa) = 52.79138 38.05959 107.07914
#
# Poissons Ratio (x) = 0.23201 0.46756
# Poissons Ratio (y) = 0.32181 0.30481
# Poissons Ratio (z) = 0.23051 0.10834
#
# Static dielectric constant tensor:
#      x y z
#    x 1.712090 0.000000 0.010840 
#    y 0.000000 1.719100 0.000000 
#    z 0.010840 0.000000 1.740360 
# 
# From -- ./inp_files/57152.got.cif
#   From: 2010.05.17/outbox.cif.g08.bks.cpg/sg13_29_cif.got.tgz:57152.got - 2010.06.03 16:44:36.
