data_PCOD9227390
_publ_section_title
;
Structure prediction by ZEFSAII (Michael W. Deem and Ramdas Pophale) SiO2 
 PCOD9227390
Probable space group: P 2/C
;
_chemical_formula_sum "Si O2"
_cell_formula_units_Z 16
_cell_length_a 14.124938
_cell_length_b 8.777674
_cell_length_c 5.536547
_cell_angle_alpha 90.000000
_cell_angle_beta 64.988393
_cell_angle_gamma 90.000000
_cell_volume 622.070582
_symmetry_space_group_name_H-M "P 2/C"
_symmetry_group_IT_number 13
_symmetry_cell_setting 'monoclinic'
loop_
_space_group_symop_operation_xyz
x,y,z
-x,y,1/2-z
-x,-y,-z
x,-y,1/2+z
loop_
_atom_site_type_symbol
_atom_site_label
_atom_site_fract_x
_atom_site_fract_y
_atom_site_fract_z
Si Si1 0.923925 0.638274 0.649248
Si Si2 0.301148 0.652753 0.420287
Si Si3 0.117649 0.945822 0.939137
Si Si4 0.619878 0.688402 0.664043
O O1 0.817242 0.596806 0.900341
O O2 0.890782 0.764962 0.492366
O O3 0.000000 0.725537 0.750000
O O4 0.000000 0.500000 0.500000
O O5 0.339708 0.741001 0.617349
O O6 0.367310 0.496036 0.331547
O O7 0.316046 0.731533 0.146071
O O8 0.166955 0.971246 0.618176
O O9 0.000000 0.000000 0.000000
O O10 0.500000 0.728316 0.750000
#
# Coordination Sequence:
#
# PCOD9227390 Si02
#       4
#     4   4   4   4
#     4  12  25  37  61  92 132 173 202 266 309 356
#     4  10  20  33  49  86 112 152 203 236 297 380
#     4  10  22  44  59  80 113 174 220 246 292 370
#     4  10  18  35  54  75 121 155 184 248 322 374
#
# _framework density 25.720556999999999
#
# number of rings (size 3 to 8) (size 9 to 14) (size 15 to 20)
#    0.000    1.500    2.500    6.750    3.500    2.000 
#    0.000    0.000    0.000    0.000    0.000    0.000 
#    0.000   34.000    0.000    0.000    0.000    0.000 
#
# Total GULP energy -89328.065206 kJ/mol
# GULP energy per Si atom -5583.004075 kJ/mol
# Density = 2.566202 g / cm^3
# Si number density = 25.720557 Si / 1000 Ang^3
#
#
#
# Elastic Constant Matrix: (Units=GPa)
#
#
# Indices 1 2 3 4 5 6 
#
# 1 142.3136 13.7527 55.5814 0.0000 10.4600 0.0000
# 2 13.7527 95.2459 34.4835 0.0000 0.2300 0.0000
# 3 55.5814 34.4835 201.3801 0.0000 39.5768 0.0000
# 4 0.0000 0.0000 0.0000 23.9485 0.0000 9.1970
# 5 10.4600 0.2300 39.5768 0.0000 56.0967 0.0000
# 6 0.0000 0.0000 0.0000 9.1970 0.0000 17.1620
#
#
#
# Elastic Compliance Matrix: (Units=1/GPa)
#
#
# Indices 1 2 3 4 5 6 
#
# 1 0.007888 -0.000372 -0.002118 0.000000 0.000025 0.000000
# 2 -0.000372 0.011323 -0.002137 0.000000 0.001531 0.000000
# 3 -0.002118 -0.002137 0.006777 0.000000 -0.004377 0.000000
# 4 0.000000 0.000000 0.000000 0.052576 0.000000 -0.028175
# 5 0.000025 0.001531 -0.004377 0.000000 0.020904 0.000000
# 6 0.000000 0.000000 0.000000 -0.028175 0.000000 0.073367
#
#
# Mechanical properties :
#
#
# Convention : Reuss Voigt Hill
#
# Bulk Modulus (GPa) = 59.76331 71.84164 65.80248
# Shear Modulus (GPa) = 26.64287 41.78292 34.21290
#
# Velocity S-wave (km/s) = 3.22197 4.03488 3.65112
# Velocity P-wave (km/s) = 6.09323 7.04977 6.58888
#
# Compressibility (1/GPa) = 0.01673267
#
# Stress axis : x y z
#
# Youngs Moduli (GPa) = 126.77182 88.31689 147.56692
#
# Poissons Ratio (x) = 0.03286 0.31261
# Poissons Ratio (y) = 0.04717 0.31535
# Poissons Ratio (z) = 0.26855 0.18873
#
# Static dielectric constant tensor:
#      x y z
#    x 2.034880 0.000000 0.112400 
#    y 0.000000 2.033930 0.000000 
#    z 0.112400 0.000000 2.448890 
# 
# From -- ./inp_files/4617.got.cif
#   From: 2010.05.17/outbox.cif.g08.bks.cpg/sg13_3_cif.got.tgz:4617.got - 2010.06.03 16:44:36.
