data_PCOD9227367
_publ_section_title
;
Structure prediction by ZEFSAII (Michael W. Deem and Ramdas Pophale) SiO2 
 PCOD9227367
Probable space group: P 2/C
;
_chemical_formula_sum "Si O2"
_cell_formula_units_Z 16
_cell_length_a 7.135115
_cell_length_b 19.989941
_cell_length_c 4.868182
_cell_angle_alpha 90.000000
_cell_angle_beta 103.408972
_cell_angle_gamma 90.000000
_cell_volume 675.423056
_symmetry_space_group_name_H-M "P 2/C"
_symmetry_group_IT_number 13
_symmetry_cell_setting 'monoclinic'
loop_
_space_group_symop_operation_xyz
x,y,z
-x,y,1/2-z
-x,-y,-z
x,-y,1/2+z
loop_
_atom_site_type_symbol
_atom_site_label
_atom_site_fract_x
_atom_site_fract_y
_atom_site_fract_z
Si Si1 0.127474 0.175368 0.062669
Si Si2 0.500000 0.500000 0.500000
Si Si3 0.130625 0.580662 0.528712
Si Si4 0.000000 0.050305 0.250000
Si Si5 0.632746 0.297287 0.535255
O O1 0.291968 0.224200 0.023389
O O2 0.000000 0.159682 0.750000
O O3 0.833175 0.105210 0.266920
O O4 0.000000 0.213513 0.250000
O O5 0.500000 0.443181 0.750000
O O6 0.326217 0.537071 0.664586
O O7 0.196623 0.649352 0.407825
O O8 0.000000 0.593805 0.750000
O O9 0.000000 0.545344 0.250000
O O10 0.000000 0.000000 0.500000
O O11 0.500000 0.290313 0.750000
O O12 0.500000 0.323819 0.250000
#
# Coordination Sequence:
#
# PCOD9227367 Si02
#       5
#     4   2   4   2   4
#     4  10  20  36  62  92 123 166 224 270 322 404
#     4  12  26  46  68 100 138 174 230 276 348 410
#     4  12  26  46  72  99 135 180 230 287 345 416
#     4  10  18  34  62  94 126 166 218 274 320 394
#     4  12  24  41  65  95 135 171 220 285 344 399
#
# _framework density 23.688856999999999
#
# number of rings (size 3 to 8) (size 9 to 14) (size 15 to 20)
#    0.750    0.000    1.250    7.500    0.000    3.000 
#    0.000    0.000    0.000    4.500    0.000    0.000 
#    0.000    0.000    0.000    0.000    0.000    0.000 
#
# Total GULP energy -89123.813831 kJ/mol
# GULP energy per Si atom -5570.238364 kJ/mol
# Density = 2.363494 g / cm^3
# Si number density = 23.688857 Si / 1000 Ang^3
#
#
#
# Elastic Constant Matrix: (Units=GPa)
#
#
# Indices 1 2 3 4 5 6 
#
# 1 165.1465 75.8472 75.0919 0.0000 -32.5207 0.0000
# 2 75.8472 168.0860 27.2765 0.0000 -32.7709 0.0000
# 3 75.0919 27.2765 203.8465 0.0000 -60.4452 0.0000
# 4 0.0000 0.0000 0.0000 30.7350 0.0000 -13.8306
# 5 -32.5207 -32.7709 -60.4452 0.0000 67.3176 0.0000
# 6 0.0000 0.0000 0.0000 -13.8306 0.0000 34.9822
#
#
#
# Elastic Compliance Matrix: (Units=1/GPa)
#
#
# Indices 1 2 3 4 5 6 
#
# 1 0.008997 -0.003589 -0.002812 0.000000 0.000074 0.000000
# 2 -0.003589 0.008006 0.001216 0.000000 0.003256 0.000000
# 3 -0.002812 0.001216 0.007566 0.000000 0.006027 0.000000
# 4 0.000000 0.000000 0.000000 0.039578 0.000000 0.015647
# 5 0.000074 0.003256 0.006027 0.000000 0.021888 0.000000
# 6 0.000000 0.000000 0.000000 0.015647 0.000000 0.034772
#
#
# Mechanical properties :
#
#
# Convention : Reuss Voigt Hill
#
# Bulk Modulus (GPa) = 70.42466 99.27892 84.85179
# Shear Modulus (GPa) = 36.78937 50.53118 43.66027
#
# Velocity S-wave (km/s) = 3.94512 4.62358 4.29776
# Velocity P-wave (km/s) = 7.10954 8.39666 7.77976
#
# Compressibility (1/GPa) = 0.01419957
#
# Stress axis : x y z
#
# Youngs Moduli (GPa) = 111.15187 124.90345 132.17117
#
# Poissons Ratio (x) = 0.44826 0.37165
# Poissons Ratio (y) = 0.39891 -0.16074
# Poissons Ratio (z) = 0.31255 -0.15190
#
# Static dielectric constant tensor:
#      x y z
#    x 1.579810 0.000000 -1.041970 
#    y 0.000000 1.653590 0.000000 
#    z -1.041970 0.000000 -0.542400 
# 
# From -- ./inp_files/430.got.cif
#   From: 2010.05.17/outbox.cif.g08.bks.cpg/sg13_1_cif.got.tgz:430.got - 2010.06.03 16:44:36.
