data_PCOD9227852
_publ_section_title
;
Structure prediction by ZEFSAII (Michael W. Deem and Ramdas Pophale) SiO2 
 PCOD9227852
Probable space group: P 2/C
;
_chemical_formula_sum "Si O2"
_cell_formula_units_Z 28
_cell_length_a 10.506069
_cell_length_b 15.883168
_cell_length_c 9.241973
_cell_angle_alpha 90.000000
_cell_angle_beta 94.135882
_cell_angle_gamma 90.000000
_cell_volume 1538.188690
_symmetry_space_group_name_H-M "P 2/C"
_symmetry_group_IT_number 13
_symmetry_cell_setting 'monoclinic'
loop_
_space_group_symop_operation_xyz
x,y,z
-x,y,1/2-z
-x,-y,-z
x,-y,1/2+z
loop_
_atom_site_type_symbol
_atom_site_label
_atom_site_fract_x
_atom_site_fract_y
_atom_site_fract_z
Si Si1 0.843217 0.586751 0.904475
Si Si2 0.500000 0.002374 0.250000
Si Si3 0.000000 0.990990 0.750000
Si Si4 0.153505 0.923815 0.020241
Si Si5 0.153953 0.580275 0.927206
Si Si6 0.853313 0.749419 0.409207
Si Si7 0.337399 0.078401 0.984003
Si Si8 0.840934 0.241497 0.566631
O O1 0.802653 0.582566 0.734721
O O2 0.801858 0.504589 0.990255
O O3 0.805327 0.674473 0.975461
O O4 0.998511 0.581883 0.916268
O O5 0.572980 0.063739 0.368742
O O6 0.585646 0.940225 0.157430
O O7 0.947861 0.932330 0.617876
O O8 0.904239 0.052664 0.827560
O O9 0.213473 0.832327 0.034132
O O10 0.247108 0.997863 0.989025
O O11 0.187801 0.664878 0.015162
O O12 0.831061 0.741668 0.237031
O O13 0.005593 0.769158 0.446061
O O14 0.248614 0.161601 0.977625
#
# Coordination Sequence:
#
# PCOD9227852 Si02
#       8
#     4   2   2   4   4   4   4   4
#     4   9  17  29  45  67 100 143 176 199 233 280
#     4  10  24  40  54  70  94 130 182 236 282 308
#     4  10  20  30  46  74 108 142 170 202 252 312
#     4  11  20  32  49  72 105 138 170 207 253 313
#     4   9  17  28  43  67 105 144 173 198 226 279
#     4  10  19  29  46  76 108 139 168 197 243 307
#     4  11  22  38  55  72  98 134 175 224 269 311
#     4  10  19  32  50  72 103 137 170 207 251 307
#
# _framework density 18.203227999999999
#
# number of rings (size 3 to 8) (size 9 to 14) (size 15 to 20)
#    0.000    2.000    0.000    6.000    0.000    8.000 
#    0.000    0.000    0.000    0.000    0.000    0.000 
#    0.000   38.857    0.000    0.000    0.000    0.000 
#
# Total GULP energy -156135.540097 kJ/mol
# GULP energy per Si atom -5576.269289 kJ/mol
# Density = 1.816180 g / cm^3
# Si number density = 18.203228 Si / 1000 Ang^3
#
#
#
# Elastic Constant Matrix: (Units=GPa)
#
#
# Indices 1 2 3 4 5 6 
#
# 1 36.1648 34.8680 33.6118 0.0000 -5.3856 0.0000
# 2 34.8680 188.7083 92.9155 0.0000 -11.0112 0.0000
# 3 33.6118 92.9155 134.2318 0.0000 -5.5031 0.0000
# 4 0.0000 0.0000 0.0000 28.7168 0.0000 -3.9393
# 5 -5.3856 -11.0112 -5.5031 0.0000 13.0975 0.0000
# 6 0.0000 0.0000 0.0000 -3.9393 0.0000 12.9017
#
#
#
# Elastic Compliance Matrix: (Units=1/GPa)
#
#
# Indices 1 2 3 4 5 6 
#
# 1 0.038801 -0.003017 -0.007201 0.000000 0.010392 0.000000
# 2 -0.003017 0.008543 -0.005000 0.000000 0.003840 0.000000
# 3 -0.007201 -0.005000 0.012638 0.000000 -0.001855 0.000000
# 4 0.000000 0.000000 0.000000 0.036345 0.000000 0.011097
# 5 0.010392 0.003840 -0.001855 0.000000 0.083073 0.000000
# 6 0.000000 0.000000 0.000000 0.011097 0.000000 0.080898
#
#
# Mechanical properties :
#
#
# Convention : Reuss Voigt Hill
#
# Bulk Modulus (GPa) = 33.84759 75.76617 54.80688
# Shear Modulus (GPa) = 16.63431 24.12382 20.37907
#
# Velocity S-wave (km/s) = 3.02621 3.64435 3.34957
# Velocity P-wave (km/s) = 5.55385 7.70851 6.71812
#
# Compressibility (1/GPa) = 0.02954420
#
# Stress axis : x y z
#
# Youngs Moduli (GPa) = 25.77272 117.05689 79.12492
#
# Poissons Ratio (x) = 0.35318 0.56979
# Poissons Ratio (y) = 0.07776 0.39566
# Poissons Ratio (z) = 0.18559 0.58533
#
# Static dielectric constant tensor:
#      x y z
#    x 1.694260 0.000000 0.117380 
#    y 0.000000 1.630110 0.000000 
#    z 0.117380 0.000000 1.960130 
# 
# From -- ./inp_files/16332.got.cif
#   From: 2010.05.17/outbox.cif.g08.bks.cpg/sg13_9_cif.got.tgz:16332.got - 2010.06.03 16:44:36.
