data_PCOD9227257
_publ_section_title
;
Structure prediction by ZEFSAII (Michael W. Deem and Ramdas Pophale) SiO2 
 PCOD9227257
Probable space group: P 2/C
;
_chemical_formula_sum "Si O2"
_cell_formula_units_Z 26
_cell_length_a 15.405467
_cell_length_b 9.108188
_cell_length_c 16.657875
_cell_angle_alpha 90.000000
_cell_angle_beta 141.843563
_cell_angle_gamma 90.000000
_cell_volume 1444.048866
_symmetry_space_group_name_H-M "P 2/C"
_symmetry_group_IT_number 13
_symmetry_cell_setting 'monoclinic'
loop_
_space_group_symop_operation_xyz
x,y,z
-x,y,1/2-z
-x,-y,-z
x,-y,1/2+z
loop_
_atom_site_type_symbol
_atom_site_label
_atom_site_fract_x
_atom_site_fract_y
_atom_site_fract_z
Si Si1 0.000000 0.208880 0.750000
Si Si2 0.568835 0.107668 0.486836
Si Si3 0.934596 0.850037 0.488585
Si Si4 0.379266 0.736435 0.720439
Si Si5 0.201190 0.312503 0.763148
Si Si6 0.865476 0.590829 0.869791
Si Si7 0.765498 0.017873 0.492087
O O1 0.917680 0.302615 0.755293
O O2 0.895026 0.106326 0.624163
O O3 0.455355 0.201585 0.354654
O O4 0.669480 0.223886 0.605000
O O5 0.657578 0.007805 0.487930
O O6 0.500000 0.000000 0.500000
O O7 0.850341 0.773170 0.354339
O O8 0.062975 0.742677 0.606828
O O9 0.831827 0.886583 0.488269
O O10 0.000000 0.000000 0.500000
O O11 0.500000 0.672170 0.750000
O O12 0.249781 0.631666 0.647267
O O13 0.314295 0.876177 0.627858
O O14 0.213684 0.483058 0.749174
O O15 0.000000 0.500000 0.000000
#
# Coordination Sequence:
#
# PCOD9227257 Si02
#       7
#     2   4   4   4   4   4   4
#     4  10  18  34  56  80 116 152 186 236 314 358
#     4  10  22  36  56  82 119 158 203 245 297 359
#     4  11  18  34  64  88 112 146 198 255 298 348
#     4  10  20  37  59  81 113 162 204 233 296 374
#     4  10  21  36  55  83 121 152 192 245 305 364
#     4  10  21  36  57  86 116 149 194 244 306 356
#     4  10  19  33  57  88 109 148 200 248 295 352
#
# _framework density 18.004930999999999
#
# number of rings (size 3 to 8) (size 9 to 14) (size 15 to 20)
#    0.000    1.846    3.077    1.846    0.000    0.615 
#    0.000    5.385    0.000    0.000    0.000    0.000 
#    0.000    0.000    0.000    0.000    0.000    0.000 
#
# Total GULP energy -144899.156611 kJ/mol
# GULP energy per Si atom -5573.044485 kJ/mol
# Density = 1.796395 g / cm^3
# Si number density = 18.004931 Si / 1000 Ang^3
#
#
#
# Elastic Constant Matrix: (Units=GPa)
#
#
# Indices 1 2 3 4 5 6 
#
# 1 154.4836 66.7276 39.5579 0.0000 6.4055 0.0000
# 2 66.7276 86.8039 27.0812 0.0000 -3.3197 0.0000
# 3 39.5579 27.0812 91.0534 0.0000 -2.4575 0.0000
# 4 0.0000 0.0000 0.0000 18.2173 0.0000 -3.4394
# 5 6.4055 -3.3197 -2.4575 0.0000 28.1748 0.0000
# 6 0.0000 0.0000 0.0000 -3.4394 0.0000 -15.6773
#
#
#
# Elastic Compliance Matrix: (Units=1/GPa)
#
#
# Indices 1 2 3 4 5 6 
#
# 1 0.010431 -0.007394 -0.002426 0.000000 -0.003454 0.000000
# 2 -0.007394 0.017978 -0.002037 0.000000 0.003622 0.000000
# 3 -0.002426 -0.002037 0.012681 0.000000 0.001418 0.000000
# 4 0.000000 0.000000 0.000000 0.052710 0.000000 -0.011564
# 5 -0.003454 0.003622 0.001418 0.000000 0.036828 0.000000
# 6 0.000000 0.000000 0.000000 -0.011564 0.000000 -0.061249
#
#
# Mechanical properties :
#
#
# Convention : Reuss Voigt Hill
#
# Bulk Modulus (GPa) = 57.55025 66.56383 62.05704
# Shear Modulus (GPa) = 50.56382 19.40790 34.98586
#
# Velocity S-wave (km/s) = 5.30512 3.28673 4.41287
# Velocity P-wave (km/s) = 8.34019 7.17311 7.77857
#
# Compressibility (1/GPa) = 0.01737612
#
# Stress axis : x y z
#
# Youngs Moduli (GPa) = 95.86433 55.62302 78.86037
#
# Poissons Ratio (x) = 0.41128 0.19131
# Poissons Ratio (y) = 0.70883 0.16064
# Poissons Ratio (z) = 0.23257 0.11330
#
# Static dielectric constant tensor:
#      x y z
#    x 1.662030 0.000000 0.013620 
#    y 0.000000 1.609970 0.000000 
#    z 0.013620 0.000000 1.637830 
# 
# From -- ./inp_files/53295.got.cif
#   From: 2010.05.17/outbox.cif.g08.bks.cpg/sg13_27_cif.got.tgz:53295.got - 2010.06.03 16:44:36.
