data_PCOD9227541
_publ_section_title
;
Structure prediction by ZEFSAII (Michael W. Deem and Ramdas Pophale) SiO2 
 PCOD9227541
Probable space group: P 2/C
;
_chemical_formula_sum "Si O2"
_cell_formula_units_Z 28
_cell_length_a 21.759798
_cell_length_b 9.646313
_cell_length_c 17.477038
_cell_angle_alpha 90.000000
_cell_angle_beta 155.213149
_cell_angle_gamma 90.000000
_cell_volume 1537.979791
_symmetry_space_group_name_H-M "P 2/C"
_symmetry_group_IT_number 13
_symmetry_cell_setting 'monoclinic'
loop_
_space_group_symop_operation_xyz
x,y,z
-x,y,1/2-z
-x,-y,-z
x,-y,1/2+z
loop_
_atom_site_type_symbol
_atom_site_label
_atom_site_fract_x
_atom_site_fract_y
_atom_site_fract_z
Si Si1 0.285333 0.910234 0.771373
Si Si2 0.000000 0.765517 0.250000
Si Si3 0.911327 0.655735 0.983327
Si Si4 0.433167 0.838318 0.511034
Si Si5 0.180082 0.633329 0.174418
Si Si6 0.089651 0.868277 0.961630
Si Si7 0.500000 0.919725 0.750000
Si Si8 0.186213 0.027299 0.413480
O O1 0.173179 0.783623 0.652530
O O2 0.347228 0.013316 0.906521
O O3 0.193741 0.017924 0.617088
O O4 0.426907 0.852798 0.886058
O O5 0.057549 0.685620 0.391041
O O6 0.127486 0.872946 0.368063
O O7 0.814989 0.520323 0.854750
O O8 0.068092 0.635319 0.119283
O O9 0.327826 0.713075 0.366450
O O10 0.484177 0.828682 0.655883
O O11 0.109897 0.726948 0.028398
O O12 0.146755 0.871582 0.939250
O O13 0.922395 0.920970 0.775366
O O14 0.356589 0.014547 0.594271
#
# Coordination Sequence:
#
# PCOD9227541 Si02
#       8
#     4   2   4   4   4   4   2   4
#     4  10  19  37  58  79 114 148 188 234 284 338
#     4  10  18  36  60  80 110 154 182 236 286 346
#     4  11  21  38  58  85 114 151 196 229 284 341
#     4  10  22  35  57  86 115 148 189 240 286 332
#     4  10  24  36  56  86 116 150 195 234 278 340
#     4   9  18  37  53  82 114 146 185 236 280 337
#     4  12  20  32  56  92 110 144 188 250 278 340
#     4  10  19  32  57  87 114 143 192 233 292 329
#
# _framework density 18.205701999999999
#
# number of rings (size 3 to 8) (size 9 to 14) (size 15 to 20)
#    0.000    2.000    4.286    0.857    2.000    2.857 
#    0.000    0.000    0.000    0.857    0.000    0.000 
#    0.000    0.000    0.000    0.000    0.000    0.000 
#
# Total GULP energy -155994.194656 kJ/mol
# GULP energy per Si atom -5571.221238 kJ/mol
# Density = 1.816426 g / cm^3
# Si number density = 18.205702 Si / 1000 Ang^3
#
#
#
# Elastic Constant Matrix: (Units=GPa)
#
#
# Indices 1 2 3 4 5 6 
#
# 1 36.3372 3.6643 19.4282 0.0000 -14.4490 0.0000
# 2 3.6643 51.1195 -0.6265 0.0000 -13.4273 0.0000
# 3 19.4282 -0.6265 89.3481 0.0000 0.1381 0.0000
# 4 0.0000 0.0000 0.0000 1.9869 0.0000 -5.0645
# 5 -14.4490 -13.4273 0.1381 0.0000 35.6473 0.0000
# 6 0.0000 0.0000 0.0000 -5.0645 0.0000 12.4622
#
#
#
# Elastic Compliance Matrix: (Units=1/GPa)
#
#
# Indices 1 2 3 4 5 6 
#
# 1 0.038208 0.001371 -0.008323 0.000000 0.016036 0.000000
# 2 0.001371 0.021761 -0.000159 0.000000 0.008753 0.000000
# 3 -0.008323 -0.000159 0.013006 0.000000 -0.003484 0.000000
# 4 0.000000 0.000000 0.000000-14.035269 0.000000 -5.703785
# 5 0.016036 0.008753 -0.003484 0.000000 0.037863 0.000000
# 6 0.000000 0.000000 0.000000 -5.703785 0.000000 -2.237715
#
#
# Mechanical properties :
#
#
# Convention : Reuss Voigt Hill
#
# Bulk Modulus (GPa) = 17.02037 24.63742 20.82889
# Shear Modulus (GPa) = -0.31001 20.30853 9.99926
#
# Velocity S-wave (km/s) = -0.41310 3.34354 2.34612
# Velocity P-wave (km/s) = 3.02352 5.33553 4.33645
#
# Compressibility (1/GPa) = 0.05875313
#
# Stress axis : x y z
#
# Youngs Moduli (GPa) = 26.17228 45.95396 76.88571
#
# Poissons Ratio (x) = -0.06301 0.63995
# Poissons Ratio (y) = -0.03589 0.01223
# Poissons Ratio (z) = 0.21784 0.00731
#
# Static dielectric constant tensor:
#      x y z
#    x 1.682610 0.000000 -0.025400 
#    y 0.000000 1.613350 0.000000 
#    z -0.025400 0.000000 1.674450 
# 
# From -- ./inp_files/82473.got.cif
#   From: 2010.05.17/outbox.cif.g08.bks.cpg/sg13_42_cif.got.tgz:82473.got - 2010.06.03 16:44:36.
