data_PCOD9227033
_publ_section_title
;
Structure prediction by ZEFSAII (Michael W. Deem and Ramdas Pophale) SiO2 
 PCOD9227033
Probable space group: P 2/C
;
_chemical_formula_sum "Si O2"
_cell_formula_units_Z 28
_cell_length_a 9.001004
_cell_length_b 9.296416
_cell_length_c 28.126585
_cell_angle_alpha 90.000000
_cell_angle_beta 39.910012
_cell_angle_gamma 90.000000
_cell_volume 1509.999545
_symmetry_space_group_name_H-M "P 2/C"
_symmetry_group_IT_number 13
_symmetry_cell_setting 'monoclinic'
loop_
_space_group_symop_operation_xyz
x,y,z
-x,y,1/2-z
-x,-y,-z
x,-y,1/2+z
loop_
_atom_site_type_symbol
_atom_site_label
_atom_site_fract_x
_atom_site_fract_y
_atom_site_fract_z
Si Si1 0.006402 0.782180 0.350968
Si Si2 0.320450 0.034896 0.502429
Si Si3 0.766267 0.518271 0.450483
Si Si4 0.853699 0.267166 0.492952
Si Si5 0.679311 0.290978 0.063004
Si Si6 0.000000 0.730908 0.250000
Si Si7 0.500000 0.675450 0.250000
Si Si8 0.479121 0.434296 0.651315
O O1 0.883427 0.883418 0.419113
O O2 0.903329 0.618688 0.380246
O O3 0.966775 0.823134 0.306002
O O4 0.274687 0.771001 0.296898
O O5 0.409433 0.146472 0.440497
O O6 0.500000 0.000000 0.500000
O O7 0.237136 0.889648 0.498101
O O8 0.500000 0.500000 0.500000
O O9 0.861922 0.364480 0.443106
O O10 0.775051 0.612599 0.496097
O O11 0.670585 0.345429 0.573540
O O12 0.104080 0.260782 0.455919
O O13 0.499076 0.398717 0.132001
O O14 0.229055 0.634463 0.202064
O O15 0.466797 0.584828 0.306256
#
# Coordination Sequence:
#
# PCOD9227033 Si02
#       8
#     4   4   4   4   4   2   2   4
#     4  10  20  36  55  82 107 142 185 220 276 324
#     4  11  22  36  57  83 111 141 180 235 283 323
#     4  10  18  32  56  84 111 134 174 230 274 316
#     4  11  20  34  59  84 110 141 178 232 280 321
#     4  10  20  34  54  81 109 135 176 228 272 315
#     4  10  20  32  56  78 108 144 180 220 256 336
#     4  10  20  34  58  78 110 146 182 222 254 340
#     4  10  19  35  56  82 106 140 181 218 273 321
#
# _framework density 18.543053
#
# number of rings (size 3 to 8) (size 9 to 14) (size 15 to 20)
#    0.000    1.714    0.000    9.000    0.000    0.000 
#    0.000    0.000    0.000   29.143    0.000    0.000 
#    0.000    0.000    0.000    0.000    0.000    0.000 
#
# Total GULP energy -156197.823551 kJ/mol
# GULP energy per Si atom -5578.493698 kJ/mol
# Density = 1.850085 g / cm^3
# Si number density = 18.543053 Si / 1000 Ang^3
#
#
#
# Elastic Constant Matrix: (Units=GPa)
#
#
# Indices 1 2 3 4 5 6 
#
# 1 112.6104 28.5408 15.8264 0.0000 1.7488 0.0000
# 2 28.5408 107.5594 13.8824 0.0000 9.4032 0.0000
# 3 15.8264 13.8824 54.7689 0.0000 6.8821 0.0000
# 4 0.0000 0.0000 0.0000 0.5525 0.0000 3.1502
# 5 1.7488 9.4032 6.8821 0.0000 37.1224 0.0000
# 6 0.0000 0.0000 0.0000 3.1502 0.0000 25.1011
#
#
#
# Elastic Compliance Matrix: (Units=1/GPa)
#
#
# Indices 1 2 3 4 5 6 
#
# 1 0.009791 -0.002350 -0.002304 0.000000 0.000561 0.000000
# 2 -0.002350 0.010327 -0.001663 0.000000 -0.002197 0.000000
# 3 -0.002304 -0.001663 0.019739 0.000000 -0.003130 0.000000
# 4 0.000000 0.000000 0.000000 6.364715 0.000000 -0.798771
# 5 0.000561 -0.002197 -0.003130 0.000000 0.028048 0.000000
# 6 0.000000 0.000000 0.000000 -0.798771 0.000000 0.140085
#
#
# Mechanical properties :
#
#
# Convention : Reuss Voigt Hill
#
# Bulk Modulus (GPa) = 36.73188 43.49310 40.11249
# Shear Modulus (GPa) = 0.75822 27.00111 13.87966
#
# Velocity S-wave (km/s) = 0.64014 3.82007 2.73886
# Velocity P-wave (km/s) = 4.51645 6.55464 5.62857
#
# Compressibility (1/GPa) = 0.02722431
#
# Stress axis : x y z
#
# Youngs Moduli (GPa) = 102.13666 96.83039 50.66092
#
# Poissons Ratio (x) = 0.22752 0.11673
# Poissons Ratio (y) = 0.23999 0.08423
# Poissons Ratio (z) = 0.23534 0.16100
#
# Static dielectric constant tensor:
#      x y z
#    x 1.556380 0.000000 0.052550 
#    y 0.000000 1.695880 0.000000 
#    z 0.052550 0.000000 1.659610 
# 
# From -- ./inp_files/63766.got.cif
#   From: 2010.05.17/outbox.cif.g08.bks.cpg/sg13_32_cif.got.tgz:63766.got - 2010.06.03 16:44:36.
