data_PCOD9227532
_publ_section_title
;
Structure prediction by ZEFSAII (Michael W. Deem and Ramdas Pophale) SiO2 
 PCOD9227532
Probable space group: P 2/C
;
_chemical_formula_sum "Si O2"
_cell_formula_units_Z 32
_cell_length_a 22.317617
_cell_length_b 9.233926
_cell_length_c 14.727442
_cell_angle_alpha 90.000000
_cell_angle_beta 153.141597
_cell_angle_gamma 90.000000
_cell_volume 1371.182926
_symmetry_space_group_name_H-M "P 2/C"
_symmetry_group_IT_number 13
_symmetry_cell_setting 'monoclinic'
loop_
_space_group_symop_operation_xyz
x,y,z
-x,y,1/2-z
-x,-y,-z
x,-y,1/2+z
loop_
_atom_site_type_symbol
_atom_site_label
_atom_site_fract_x
_atom_site_fract_y
_atom_site_fract_z
Si Si1 0.794402 0.801964 0.370656
Si Si2 0.956466 0.065997 0.587125
Si Si3 0.351517 0.142080 0.090948
Si Si4 0.797729 0.142287 0.086363
Si Si5 0.085374 0.282776 0.639156
Si Si6 0.626335 0.546622 0.071645
Si Si7 0.327783 0.609506 0.696829
Si Si8 0.786118 0.541732 0.619686
O O1 0.809819 0.801258 0.499163
O O2 0.904793 0.726665 0.455922
O O3 0.669216 0.703809 0.171439
O O4 0.820852 0.974942 0.390596
O O5 0.000000 0.106016 0.750000
O O6 0.973447 0.197979 0.542229
O O7 0.073076 0.953346 0.719168
O O8 0.500000 0.165767 0.250000
O O9 0.333693 0.230274 0.161795
O O10 0.322307 0.972114 0.065751
O O11 0.226533 0.203790 0.862332
O O12 0.786347 0.287535 0.127762
O O13 0.093456 0.445880 0.682761
O O14 0.691788 0.423274 0.224123
O O15 0.669954 0.518719 0.028158
O O16 0.470052 0.539832 0.867107
O O17 0.229586 0.515012 0.503733
#
# Coordination Sequence:
#
# PCOD9227532 Si02
#       8
#     4   4   4   4   4   4   4   4
#     4  10  18  36  59  82 113 149 193 245 296 344
#     4   9  19  36  59  81 115 153 187 236 295 353
#     4  10  20  37  55  80 117 158 194 241 297 354
#     4  10  21  37  55  82 115 153 193 241 305 347
#     4   9  19  35  60  83 107 150 200 232 293 355
#     4  10  20  33  58  89 111 159 201 241 292 357
#     4  10  19  36  57  80 119 155 203 237 293 346
#     4  10  19  36  59  79 118 148 194 245 293 345
#
# _framework density 23.337512
#
# number of rings (size 3 to 8) (size 9 to 14) (size 15 to 20)
#    0.000    2.250    1.250    3.000    0.000    1.000 
#    4.500    5.625    5.500    0.000    0.000    0.000 
#    0.000    0.000    0.000    0.000    0.000    0.000 
#
# Total GULP energy -178374.203662 kJ/mol
# GULP energy per Si atom -5574.193864 kJ/mol
# Density = 2.328440 g / cm^3
# Si number density = 23.337512 Si / 1000 Ang^3
#
#
#
# Elastic Constant Matrix: (Units=GPa)
#
#
# Indices 1 2 3 4 5 6 
#
# 1 42.2937 30.0911 -2.1775 0.0000 -2.4578 0.0000
# 2 30.0911 130.6843 15.9417 0.0000 3.4904 0.0000
# 3 -2.1775 15.9417 59.2944 0.0000 4.1063 0.0000
# 4 0.0000 0.0000 0.0000 22.9344 0.0000 4.0998
# 5 -2.4578 3.4904 4.1063 0.0000 17.7562 0.0000
# 6 0.0000 0.0000 0.0000 4.0998 0.0000 14.8772
#
#
#
# Elastic Compliance Matrix: (Units=1/GPa)
#
#
# Indices 1 2 3 4 5 6 
#
# 1 0.029163 -0.007169 0.002664 0.000000 0.004830 0.000000
# 2 -0.007169 0.009694 -0.002712 0.000000 -0.002271 0.000000
# 3 0.002664 -0.002712 0.017917 0.000000 -0.003242 0.000000
# 4 0.000000 0.000000 0.000000 0.045862 0.000000 -0.012638
# 5 0.004830 -0.002271 -0.003242 0.000000 0.058183 0.000000
# 6 0.000000 0.000000 0.000000 -0.012638 0.000000 0.070700
#
#
# Mechanical properties :
#
#
# Convention : Reuss Voigt Hill
#
# Bulk Modulus (GPa) = 23.61912 35.55366 29.58639
# Shear Modulus (GPa) = 19.22592 23.67470 21.45031
#
# Velocity S-wave (km/s) = 2.87334 3.18850 3.03501
# Velocity P-wave (km/s) = 4.59900 5.36870 4.99869
#
# Compressibility (1/GPa) = 0.04233858
#
# Stress axis : x y z
#
# Youngs Moduli (GPa) = 34.29058 103.15407 55.81433
#
# Poissons Ratio (x) = 0.73950 -0.14868
# Poissons Ratio (y) = 0.24582 0.15139
# Poissons Ratio (z) = -0.09135 0.27979
#
# Static dielectric constant tensor:
#      x y z
#    x 1.905500 0.000000 -0.015610 
#    y 0.000000 1.913550 0.000000 
#    z -0.015610 0.000000 1.973840 
# 
# From -- ./inp_files/58849.got.cif
#   From: 2010.05.17/outbox.cif.g08.bks.cpg/sg13_30_cif.got.tgz:58849.got - 2010.06.03 16:44:36.
