data_PCOD9227960
_publ_section_title
;
Structure prediction by ZEFSAII (Michael W. Deem and Ramdas Pophale) SiO2 
 PCOD9227960
Probable space group: P 2/C
;
_chemical_formula_sum "Si O2"
_cell_formula_units_Z 24
_cell_length_a 7.773385
_cell_length_b 26.310841
_cell_length_c 10.763431
_cell_angle_alpha 90.000000
_cell_angle_beta 27.262726
_cell_angle_gamma 90.000000
_cell_volume 1008.390585
_symmetry_space_group_name_H-M "P 2/C"
_symmetry_group_IT_number 13
_symmetry_cell_setting 'monoclinic'
loop_
_space_group_symop_operation_xyz
x,y,z
-x,y,1/2-z
-x,-y,-z
x,-y,1/2+z
loop_
_atom_site_type_symbol
_atom_site_label
_atom_site_fract_x
_atom_site_fract_y
_atom_site_fract_z
Si Si1 0.352761 0.888986 0.121063
Si Si2 0.644353 0.443292 0.387589
Si Si3 0.652811 0.773815 0.373734
Si Si4 0.147506 0.394770 0.887740
Si Si5 0.846434 0.943635 0.621739
Si Si6 0.843063 0.717603 0.627377
O O1 0.493090 0.831312 0.034777
O O2 0.000000 0.890021 0.250000
O O3 0.170916 0.906121 0.366865
O O4 0.665816 0.927848 0.868772
O O5 0.500000 0.500000 0.500000
O O6 0.317341 0.405103 0.643035
O O7 0.000000 0.435836 0.250000
O O8 0.811610 0.431653 0.145158
O O9 0.341102 0.735075 0.625436
O O10 0.000000 0.773212 0.250000
O O11 0.841533 0.756145 0.124908
O O12 0.500000 0.406003 0.750000
O O13 0.011358 0.338425 0.007708
O O14 0.500000 0.937402 0.750000
O O15 0.000000 0.000000 0.500000
O O16 0.500000 0.719619 0.750000
#
# Coordination Sequence:
#
# PCOD9227960 Si02
#       6
#     4   4   4   4   4   4
#     4   9  17  30  49  71  95 126 161 197 241 289
#     4  10  21  36  54  75  99 130 165 201 240 282
#     4   9  17  30  49  74  99 122 159 206 241 277
#     4  10  21  36  52  73 103 134 161 193 240 294
#     4  10  19  31  49  71  95 126 161 197 241 289
#     4  10  19  31  51  76  98 124 160 202 241 277
#
# _framework density 23.800301999999999
#
# number of rings (size 3 to 8) (size 9 to 14) (size 15 to 20)
#    0.000    2.333    0.000    3.000    0.000    5.333 
#    0.000    0.000    0.000    6.000    0.000    0.000 
#    0.000    0.000    0.000    0.000    0.000    0.000 
#
# Total GULP energy -134159.686538 kJ/mol
# GULP energy per Si atom -5589.986939 kJ/mol
# Density = 2.374613 g / cm^3
# Si number density = 23.800302 Si / 1000 Ang^3
#
#
#
# Elastic Constant Matrix: (Units=GPa)
#
#
# Indices 1 2 3 4 5 6 
#
# 1 55.1341 -24.9158 15.4363 0.0000 -32.1597 0.0000
# 2 -24.9158 119.0013 73.0055 0.0000 -12.6295 0.0000
# 3 15.4363 73.0055 196.5422 0.0000 4.3095 0.0000
# 4 0.0000 0.0000 0.0000 45.6844 0.0000 10.3692
# 5 -32.1597 -12.6295 4.3095 0.0000 -1.5160 0.0000
# 6 0.0000 0.0000 0.0000 10.3692 0.0000 5.5745
#
#
#
# Elastic Compliance Matrix: (Units=1/GPa)
#
#
# Indices 1 2 3 4 5 6 
#
# 1 0.002455 -0.002893 0.001407 0.000000 -0.023969 0.000000
# 2 -0.002893 0.008005 -0.002476 0.000000 -0.012351 0.000000
# 3 0.001407 -0.002476 0.005742 0.000000 0.007087 0.000000
# 4 0.000000 0.000000 0.000000 0.037884 0.000000 -0.070467
# 5 -0.023969 -0.012351 0.007087 0.000000 -0.028122 0.000000
# 6 0.000000 0.000000 0.000000 -0.070467 0.000000 0.310465
#
#
# Mechanical properties :
#
#
# Convention : Reuss Voigt Hill
#
# Bulk Modulus (GPa) = 120.78776 55.30329 88.04552
# Shear Modulus (GPa) = 14.40462 30.42535 22.41499
#
# Velocity S-wave (km/s) = 2.46281 3.57929 3.07220
# Velocity P-wave (km/s) = 7.67776 6.35363 7.04686
#
# Compressibility (1/GPa) = 0.00827898
#
# Stress axis : x y z
#
# Youngs Moduli (GPa) = 407.36683 124.91530 174.16819
#
# Poissons Ratio (x) = 0.36142 -0.24514
# Poissons Ratio (y) = 1.17865 0.43116
# Poissons Ratio (z) = -0.57337 0.30924
#
# Static dielectric constant tensor:
#      x y z
#    x 1.920590 0.000000 0.002620 
#    y 0.000000 1.884670 0.000000 
#    z 0.002620 0.000000 1.947900 
# 
# From -- ./inp_files/10229.got.cif
#   From: 2010.05.17/outbox.cif.g08.bks.cpg/sg13_6_cif.got.tgz:10229.got - 2010.06.03 16:44:36.
