data_PCOD9227463
_publ_section_title
;
Structure prediction by ZEFSAII (Michael W. Deem and Ramdas Pophale) SiO2 
 PCOD9227463
Probable space group: P 2/C
;
_chemical_formula_sum "Si O2"
_cell_formula_units_Z 30
_cell_length_a 11.770329
_cell_length_b 8.442385
_cell_length_c 16.352909
_cell_angle_alpha 90.000000
_cell_angle_beta 80.383777
_cell_angle_gamma 90.000000
_cell_volume 1602.149833
_symmetry_space_group_name_H-M "P 2/C"
_symmetry_group_IT_number 13
_symmetry_cell_setting 'monoclinic'
loop_
_space_group_symop_operation_xyz
x,y,z
-x,y,1/2-z
-x,-y,-z
x,-y,1/2+z
loop_
_atom_site_type_symbol
_atom_site_label
_atom_site_fract_x
_atom_site_fract_y
_atom_site_fract_z
Si Si1 0.925076 0.023336 0.427696
Si Si2 0.901325 0.299288 0.329406
Si Si3 0.000000 0.851004 0.250000
Si Si4 0.376548 0.419072 0.295852
Si Si5 0.533027 0.348286 0.048989
Si Si6 0.201483 0.614454 0.207365
Si Si7 0.681072 0.133022 0.919016
Si Si8 0.346288 0.830642 0.676854
O O1 0.794822 0.949197 0.446825
O O2 0.975577 0.948093 0.336562
O O3 0.929170 0.211847 0.409918
O O4 0.000000 0.000000 0.500000
O O5 0.865895 0.481551 0.336246
O O6 0.789020 0.202195 0.314639
O O7 0.000000 0.285209 0.250000
O O8 0.109549 0.738398 0.253292
O O9 0.500000 0.485004 0.250000
O O10 0.378625 0.409445 0.392429
O O11 0.275913 0.520119 0.265866
O O12 0.372872 0.237126 0.263295
O O13 0.419552 0.285344 0.109473
O O14 0.500000 0.500000 0.000000
O O15 0.588906 0.202084 0.993441
O O16 0.280076 0.714802 0.137376
O O17 0.632747 0.005507 0.859416
#
# Coordination Sequence:
#
# PCOD9227463 Si02
#       8
#     4   4   2   4   4   4   4   4
#     4  10  22  39  59  88 121 159 206 253 310 371
#     4  10  18  35  62  82 113 161 198 242 312 352
#     4  10  20  40  58  88 122 156 202 262 298 360
#     4   9  19  37  59  86 113 155 203 236 293 373
#     4  11  21  39  60  86 125 155 196 255 306 359
#     4  10  20  38  60  88 118 157 203 246 305 360
#     4  10  21  39  59  86 121 154 197 255 305 363
#     4   9  20  37  59  82 115 157 197 242 299 359
#
# _framework density 18.724841000000001
#
# number of rings (size 3 to 8) (size 9 to 14) (size 15 to 20)
#    0.000    2.133    1.333    2.800    0.000    2.133 
#    7.200    7.333    0.000    0.000    0.000    0.000 
#    0.000    0.000    0.000    0.000    0.000    0.000 
#
# Total GULP energy -167078.726984 kJ/mol
# GULP energy per Si atom -5569.290899 kJ/mol
# Density = 1.868222 g / cm^3
# Si number density = 18.724841 Si / 1000 Ang^3
#
#
#
# Elastic Constant Matrix: (Units=GPa)
#
#
# Indices 1 2 3 4 5 6 
#
# 1 64.7987 22.0341 31.5133 0.0000 2.3901 0.0000
# 2 22.0341 103.4084 47.2837 0.0000 8.0440 0.0000
# 3 31.5133 47.2837 91.6609 0.0000 17.1888 0.0000
# 4 0.0000 0.0000 0.0000 21.0989 0.0000 -3.0825
# 5 2.3901 8.0440 17.1888 0.0000 32.9377 0.0000
# 6 0.0000 0.0000 0.0000 -3.0825 0.0000 28.8137
#
#
#
# Elastic Compliance Matrix: (Units=1/GPa)
#
#
# Indices 1 2 3 4 5 6 
#
# 1 0.018819 -0.001353 -0.006183 0.000000 0.002191 0.000000
# 2 -0.001353 0.012756 -0.006151 0.000000 0.000193 0.000000
# 3 -0.006183 -0.006151 0.017561 0.000000 -0.007214 0.000000
# 4 0.000000 0.000000 0.000000 0.048148 0.000000 0.005151
# 5 0.002191 0.000193 -0.007214 0.000000 0.033919 0.000000
# 6 0.000000 0.000000 0.000000 0.005151 0.000000 0.035257
#
#
# Mechanical properties :
#
#
# Convention : Reuss Voigt Hill
#
# Bulk Modulus (GPa) = 45.95248 51.28113 48.61680
# Shear Modulus (GPa) = 24.86462 27.17253 26.01857
#
# Velocity S-wave (km/s) = 3.64798 3.81353 3.73167
# Velocity P-wave (km/s) = 6.50676 6.84374 6.67738
#
# Compressibility (1/GPa) = 0.02176161
#
# Stress axis : x y z
#
# Youngs Moduli (GPa) = 53.13898 78.39150 56.94298
#
# Poissons Ratio (x) = 0.10608 0.35207
# Poissons Ratio (y) = 0.07191 0.35028
# Poissons Ratio (z) = 0.32855 0.48222
#
# Static dielectric constant tensor:
#      x y z
#    x 1.694390 0.000000 0.001030 
#    y 0.000000 1.678610 0.000000 
#    z 0.001030 0.000000 1.657220 
# 
# From -- ./inp_files/50054.got.cif
#   From: 2010.05.17/outbox.cif.g08.bks.cpg/sg13_26_cif.got.tgz:50054.got - 2010.06.03 16:44:36.
