data_PCOD9227879
_publ_section_title
;
Structure prediction by ZEFSAII (Michael W. Deem and Ramdas Pophale) SiO2 
 PCOD9227879
Probable space group: P 2/C
;
_chemical_formula_sum "Si O2"
_cell_formula_units_Z 24
_cell_length_a 17.273363
_cell_length_b 11.084610
_cell_length_c 22.666151
_cell_angle_alpha 90.000000
_cell_angle_beta 164.188945
_cell_angle_gamma 90.000000
_cell_volume 1182.462152
_symmetry_space_group_name_H-M "P 2/C"
_symmetry_group_IT_number 13
_symmetry_cell_setting 'monoclinic'
loop_
_space_group_symop_operation_xyz
x,y,z
-x,y,1/2-z
-x,-y,-z
x,-y,1/2+z
loop_
_atom_site_type_symbol
_atom_site_label
_atom_site_fract_x
_atom_site_fract_y
_atom_site_fract_z
Si Si1 0.143360 0.677876 0.644676
Si Si2 0.494622 0.794115 0.496808
Si Si3 0.323002 0.502564 0.676562
Si Si4 0.666650 0.301306 0.998485
Si Si5 0.881494 0.013576 0.813759
Si Si6 0.299150 0.102515 0.692394
O O1 0.417761 0.714658 0.883285
O O2 0.219736 0.613009 0.640113
O O3 0.948069 0.582171 0.537136
O O4 0.947146 0.794213 0.488949
O O5 0.528580 0.720756 0.461421
O O6 0.196363 0.864996 0.278226
O O7 0.732198 0.901554 0.671739
O O8 0.500000 0.539842 0.750000
O O9 0.521745 0.415098 0.861558
O O10 0.000000 0.314429 0.250000
O O11 0.584715 0.181021 0.900709
O O12 0.725202 0.033359 0.763095
O O13 0.201473 0.983430 0.067639
#
# Coordination Sequence:
#
# PCOD9227879 Si02
#       6
#     4   4   4   4   4   4
#     4   9  18  32  52  75  98 133 176 214 259 313
#     4   9  16  28  49  76 101 125 163 210 255 306
#     4  10  20  34  50  70 101 138 178 219 260 307
#     4  10  19  30  47  74 103 130 167 217 263 298
#     4   8  14  27  49  74  97 125 163 203 252 309
#     4   8  15  29  50  74  99 130 167 203 250 315
#
# _framework density 20.296631999999999
#
# number of rings (size 3 to 8) (size 9 to 14) (size 15 to 20)
#    0.000    3.000    0.000    1.000    0.000    0.667 
#    0.000    3.333    0.000   12.000    0.000   11.667 
#    0.000    0.000    0.000    0.000    0.000    1.167 
#
# Total GULP energy -133807.066279 kJ/mol
# GULP energy per Si atom -5575.294428 kJ/mol
# Density = 2.025044 g / cm^3
# Si number density = 20.296632 Si / 1000 Ang^3
#
#
#
# Elastic Constant Matrix: (Units=GPa)
#
#
# Indices 1 2 3 4 5 6 
#
# 1 39.2452 13.2357 11.2467 0.0000 -2.7227 0.0000
# 2 13.2357 48.6526 26.1938 0.0000 -2.3116 0.0000
# 3 11.2467 26.1938 79.3545 0.0000 -20.5584 0.0000
# 4 0.0000 0.0000 0.0000 15.1103 0.0000 -7.2400
# 5 -2.7227 -2.3116 -20.5584 0.0000 32.6461 0.0000
# 6 0.0000 0.0000 0.0000 -7.2400 0.0000 11.2928
#
#
#
# Elastic Compliance Matrix: (Units=1/GPa)
#
#
# Indices 1 2 3 4 5 6 
#
# 1 0.028284 -0.006836 -0.001513 0.000000 0.000922 0.000000
# 2 -0.006836 0.027115 -0.009119 0.000000 -0.004393 0.000000
# 3 -0.001513 -0.009119 0.018673 0.000000 0.010987 0.000000
# 4 0.000000 0.000000 0.000000 0.095524 0.000000 0.061242
# 5 0.000922 -0.004393 0.010987 0.000000 0.037316 0.000000
# 6 0.000000 0.000000 0.000000 0.061242 0.000000 0.127816
#
#
# Mechanical properties :
#
#
# Convention : Reuss Voigt Hill
#
# Bulk Modulus (GPa) = 25.55327 29.84495 27.69911
# Shear Modulus (GPa) = 13.06474 19.58158 16.32316
#
# Velocity S-wave (km/s) = 2.53986 3.10944 2.83897
# Velocity P-wave (km/s) = 4.60634 5.25622 4.94198
#
# Compressibility (1/GPa) = 0.03913393
#
# Stress axis : x y z
#
# Youngs Moduli (GPa) = 35.35579 36.88051 53.55403
#
# Poissons Ratio (x) = 0.25211 0.08104
# Poissons Ratio (y) = 0.24169 0.48838
# Poissons Ratio (z) = 0.05350 0.33633
#
# Static dielectric constant tensor:
#      x y z
#    x 1.719590 0.000000 -0.026830 
#    y 0.000000 1.749490 0.000000 
#    z -0.026830 0.000000 1.758240 
# 
# From -- ./inp_files/76315.got.cif
#   From: 2010.05.17/outbox.cif.g08.bks.cpg/sg13_39_cif.got.tgz:76315.got - 2010.06.03 16:44:36.
