data_PCOD9227084
_publ_section_title
;
Structure prediction by ZEFSAII (Michael W. Deem and Ramdas Pophale) SiO2 
 PCOD9227084
Probable space group: P 2/C
;
_chemical_formula_sum "Si O2"
_cell_formula_units_Z 26
_cell_length_a 7.245453
_cell_length_b 12.125580
_cell_length_c 21.137753
_cell_angle_alpha 90.000000
_cell_angle_beta 139.890748
_cell_angle_gamma 90.000000
_cell_volume 1196.408204
_symmetry_space_group_name_H-M "P 2/C"
_symmetry_group_IT_number 13
_symmetry_cell_setting 'monoclinic'
loop_
_space_group_symop_operation_xyz
x,y,z
-x,y,1/2-z
-x,-y,-z
x,-y,1/2+z
loop_
_atom_site_type_symbol
_atom_site_label
_atom_site_fract_x
_atom_site_fract_y
_atom_site_fract_z
Si Si1 0.646859 0.032246 0.971844
Si Si2 0.268476 0.261013 0.458553
Si Si3 0.682579 0.202966 0.460383
Si Si4 0.500000 0.720925 0.250000
Si Si5 0.245431 0.827262 0.734886
Si Si6 0.143920 0.618464 0.044345
Si Si7 0.711151 0.065298 0.748780
O O1 0.801765 0.147241 0.022567
O O2 0.429387 0.060837 0.857429
O O3 0.500000 0.000000 0.000000
O O4 0.817362 0.920197 0.000248
O O5 0.554769 0.241815 0.493784
O O6 0.294424 0.354404 0.517229
O O7 0.993160 0.264761 0.341092
O O8 0.409225 0.187712 0.343614
O O9 0.891450 0.292743 0.487516
O O10 0.351650 0.646625 0.157630
O O11 0.267962 0.805407 0.224049
O O12 0.500000 0.814516 0.750000
O O13 0.104352 0.951841 0.701300
O O14 0.000000 0.500000 0.000000
O O15 0.500000 0.032065 0.750000
#
# Coordination Sequence:
#
# PCOD9227084 Si02
#       7
#     4   4   4   2   4   4   4
#     4   9  18  33  59  96 131 165 203 261 336 405
#     4  11  21  39  64  93 138 168 207 276 325 396
#     4  10  23  39  61  99 129 170 216 261 336 396
#     4  10  22  42  64  92 124 170 228 280 326 378
#     4  10  18  32  61 101 130 170 210 249 331 409
#     4  12  27  44  68  91 123 180 234 278 323 381
#     4   8  16  31  56  91 127 171 209 252 325 402
#
# _framework density 21.731714
#
# number of rings (size 3 to 8) (size 9 to 14) (size 15 to 20)
#    0.462    1.538    3.077    0.462    2.154    2.462 
#    0.000    0.769    0.000    0.000    0.000    0.000 
#    0.000    0.000    0.000    0.000    0.000    0.000 
#
# Total GULP energy -144768.100083 kJ/mol
# GULP energy per Si atom -5568.003849 kJ/mol
# Density = 2.168225 g / cm^3
# Si number density = 21.731714 Si / 1000 Ang^3
#
#
#
# Elastic Constant Matrix: (Units=GPa)
#
#
# Indices 1 2 3 4 5 6 
#
# 1 87.3961 27.4692 11.2323 0.0000 -23.1908 0.0000
# 2 27.4692 94.2312 25.9454 0.0000 -15.7546 0.0000
# 3 11.2323 25.9454 105.5362 0.0000 -17.2376 0.0000
# 4 0.0000 0.0000 0.0000 20.0384 0.0000 -0.2381
# 5 -23.1908 -15.7546 -17.2376 0.0000 33.6319 0.0000
# 6 0.0000 0.0000 0.0000 -0.2381 0.0000 23.9598
#
#
#
# Elastic Compliance Matrix: (Units=1/GPa)
#
#
# Indices 1 2 3 4 5 6 
#
# 1 0.014695 -0.002942 0.000643 0.000000 0.009084 0.000000
# 2 -0.002942 0.012558 -0.002341 0.000000 0.002654 0.000000
# 3 0.000643 -0.002341 0.010778 0.000000 0.004871 0.000000
# 4 0.000000 0.000000 0.000000 0.049910 0.000000 0.000496
# 5 0.009084 0.002654 0.004871 0.000000 0.039738 0.000000
# 6 0.000000 0.000000 0.000000 0.000496 0.000000 0.041741
#
#
# Mechanical properties :
#
#
# Convention : Reuss Voigt Hill
#
# Bulk Modulus (GPa) = 34.78049 46.27301 40.52675
# Shear Modulus (GPa) = 26.55576 30.36046 28.45811
#
# Velocity S-wave (km/s) = 3.49948 3.74178 3.62265
# Velocity P-wave (km/s) = 5.68926 6.32510 6.01559
#
# Compressibility (1/GPa) = 0.02875175
#
# Stress axis : x y z
#
# Youngs Moduli (GPa) = 68.05183 79.63018 92.78142
#
# Poissons Ratio (x) = 0.23426 -0.05966
# Poissons Ratio (y) = 0.20020 0.21717
# Poissons Ratio (z) = -0.04376 0.18639
#
# Static dielectric constant tensor:
#      x y z
#    x 1.820950 0.000000 -0.005840 
#    y 0.000000 1.798720 0.000000 
#    z -0.005840 0.000000 1.877350 
# 
# From -- ./inp_files/76510.got.cif
#   From: 2010.05.17/outbox.cif.g08.bks.cpg/sg13_39_cif.got.tgz:76510.got - 2010.06.03 16:44:36.
