data_PCOD9227566
_publ_section_title
;
Structure prediction by ZEFSAII (Michael W. Deem and Ramdas Pophale) SiO2 
 PCOD9227566
Probable space group: P 2/C
;
_chemical_formula_sum "Si O2"
_cell_formula_units_Z 28
_cell_length_a 10.859329
_cell_length_b 16.578243
_cell_length_c 18.024777
_cell_angle_alpha 90.000000
_cell_angle_beta 157.074023
_cell_angle_gamma 90.000000
_cell_volume 1264.052735
_symmetry_space_group_name_H-M "P 2/C"
_symmetry_group_IT_number 13
_symmetry_cell_setting 'monoclinic'
loop_
_space_group_symop_operation_xyz
x,y,z
-x,y,1/2-z
-x,-y,-z
x,-y,1/2+z
loop_
_atom_site_type_symbol
_atom_site_label
_atom_site_fract_x
_atom_site_fract_y
_atom_site_fract_z
Si Si1 0.543043 0.336731 0.685075
Si Si2 0.812790 0.885076 0.073009
Si Si3 0.421484 0.524559 0.619378
Si Si4 0.878956 0.953336 0.767590
Si Si5 0.207841 0.812268 0.034499
Si Si6 0.180371 0.747250 0.545937
Si Si7 0.185040 0.533506 0.785390
O O1 0.500000 0.335431 0.750000
O O2 0.476069 0.429026 0.630809
O O3 0.311850 0.261720 0.537730
O O4 0.897954 0.310426 0.863365
O O5 0.000000 0.854841 0.250000
O O6 0.482484 0.926192 0.917010
O O7 0.764477 0.814836 0.986131
O O8 0.035297 0.955298 0.161684
O O9 0.500000 0.531771 0.750000
O O10 0.670403 0.574959 0.707771
O O11 0.067789 0.530330 0.389725
O O12 0.000000 0.950105 0.750000
O O13 0.093906 0.889490 0.928664
O O14 0.500000 0.832806 0.250000
O O15 0.944290 0.785934 0.946924
O O16 0.500000 0.705114 0.750000
O O17 0.000000 0.576872 0.750000
O O18 0.500000 0.500000 0.000000
#
# Coordination Sequence:
#
# PCOD9227566 Si02
#       7
#     4   4   4   4   4   4   4
#     4   8  19  35  59  80 117 147 186 232 281 330
#     4  11  24  36  56  77 110 146 183 244 293 348
#     4  10  18  36  61  90 113 159 202 233 273 342
#     4  11  23  37  54  79 108 145 189 232 300 344
#     4   9  20  36  58  78 108 147 181 232 281 342
#     4  10  19  38  56  81 107 140 191 236 285 331
#     4   9  19  35  58  86 129 155 182 235 290 330
#
# _framework density 22.150974000000001
#
# number of rings (size 3 to 8) (size 9 to 14) (size 15 to 20)
#    0.000    2.571    1.429    2.143    8.000    1.143 
#    0.000   12.143    0.000    0.000    0.000    0.000 
#    0.000    0.000    0.000    0.000    0.000    0.000 
#
# Total GULP energy -155928.645006 kJ/mol
# GULP energy per Si atom -5568.880179 kJ/mol
# Density = 2.210056 g / cm^3
# Si number density = 22.150974 Si / 1000 Ang^3
#
#
#
# Elastic Constant Matrix: (Units=GPa)
#
#
# Indices 1 2 3 4 5 6 
#
# 1 103.9276 32.1161 56.6451 0.0000 6.9006 0.0000
# 2 32.1161 100.0926 38.4700 0.0000 -11.2094 0.0000
# 3 56.6451 38.4700 125.4825 0.0000 12.2401 0.0000
# 4 0.0000 0.0000 0.0000 3.8945 0.0000 4.5034
# 5 6.9006 -11.2094 12.2401 0.0000 31.0231 0.0000
# 6 0.0000 0.0000 0.0000 4.5034 0.0000 16.2286
#
#
#
# Elastic Compliance Matrix: (Units=1/GPa)
#
#
# Indices 1 2 3 4 5 6 
#
# 1 0.013273 -0.002536 -0.005030 0.000000 -0.001884 0.000000
# 2 -0.002536 0.012862 -0.003439 0.000000 0.006568 0.000000
# 3 -0.005030 -0.003439 0.011759 0.000000 -0.004763 0.000000
# 4 0.000000 0.000000 0.000000 0.378096 0.000000 -0.104920
# 5 -0.001884 0.006568 -0.004763 0.000000 0.036906 0.000000
# 6 0.000000 0.000000 0.000000 -0.104920 0.000000 0.090734
#
#
# Mechanical properties :
#
#
# Convention : Reuss Voigt Hill
#
# Bulk Modulus (GPa) = 62.96224 64.88499 63.92362
# Shear Modulus (GPa) = 8.75757 23.71402 16.23580
#
# Velocity S-wave (km/s) = 1.99052 3.27550 2.71026
# Velocity P-wave (km/s) = 5.81109 6.60764 6.22212
#
# Compressibility (1/GPa) = 0.01588253
#
# Stress axis : x y z
#
# Youngs Moduli (GPa) = 75.34299 77.74916 85.04265
#
# Poissons Ratio (x) = 0.19720 0.42777
# Poissons Ratio (y) = 0.19110 0.29245
# Poissons Ratio (z) = 0.37898 0.26737
#
# Static dielectric constant tensor:
#      x y z
#    x 1.708250 0.000000 -0.016790 
#    y 0.000000 1.866790 0.000000 
#    z -0.016790 0.000000 1.868410 
# 
# From -- ./inp_files/78776.got.cif
#   From: 2010.05.17/outbox.cif.g08.bks.cpg/sg13_40_cif.got.tgz:78776.got - 2010.06.03 16:44:36.
