data_PCOD9227894
_publ_section_title
;
Structure prediction by ZEFSAII (Michael W. Deem and Ramdas Pophale) SiO2 
 PCOD9227894
Probable space group: P 2/C
;
_chemical_formula_sum "Si O2"
_cell_formula_units_Z 24
_cell_length_a 22.904916
_cell_length_b 4.952634
_cell_length_c 31.495134
_cell_angle_alpha 90.000000
_cell_angle_beta 159.330353
_cell_angle_gamma 90.000000
_cell_volume 1261.123314
_symmetry_space_group_name_H-M "P 2/C"
_symmetry_group_IT_number 13
_symmetry_cell_setting 'monoclinic'
loop_
_space_group_symop_operation_xyz
x,y,z
-x,y,1/2-z
-x,-y,-z
x,-y,1/2+z
loop_
_atom_site_type_symbol
_atom_site_label
_atom_site_fract_x
_atom_site_fract_y
_atom_site_fract_z
Si Si1 0.449456 0.993220 0.112925
Si Si2 0.072975 0.009382 0.344645
Si Si3 0.962551 0.477502 0.627922
Si Si4 0.420061 0.477473 0.149757
Si Si5 0.295825 0.762847 0.839646
Si Si6 0.475316 0.263343 0.926372
O O1 0.447718 0.771776 0.148880
O O2 0.514164 0.846687 0.114418
O O3 0.503879 0.267992 0.173334
O O4 0.263108 0.070072 0.973753
O O5 0.000000 0.954203 0.250000
O O6 0.989007 0.818411 0.322661
O O7 0.066669 0.323355 0.352030
O O8 0.114319 0.634873 0.709219
O O9 0.781309 0.449135 0.483310
O O10 0.500000 0.445062 0.250000
O O11 0.414904 0.568432 0.892571
O O12 0.341517 0.064221 0.856945
O O13 0.356588 0.749876 0.930520
#
# Coordination Sequence:
#
# PCOD9227894 Si02
#       6
#     4   4   4   4   4   4
#     4  10  20  34  54  78 103 134 174 215 261 313
#     4  10  19  30  49  76 105 132 163 211 262 312
#     4  10  20  33  51  75 102 136 173 211 259 311
#     4  10  21  37  57  77  99 133 176 228 275 304
#     4  10  20  33  51  76 109 144 172 200 246 311
#     4  10  20  33  52  77 108 144 172 202 247 310
#
# _framework density 19.030652
#
# number of rings (size 3 to 8) (size 9 to 14) (size 15 to 20)
#    0.000    2.000    0.000    4.000    0.000    5.333 
#    0.000    0.000    0.000    6.000    0.000    0.000 
#    0.000    0.000    0.000    0.000    0.000    0.000 
#
# Total GULP energy -133628.136839 kJ/mol
# GULP energy per Si atom -5567.839035 kJ/mol
# Density = 1.898734 g / cm^3
# Si number density = 19.030652 Si / 1000 Ang^3
#
#
#
# Elastic Constant Matrix: (Units=GPa)
#
#
# Indices 1 2 3 4 5 6 
#
# 1 61.9916 1.5295 42.5696 0.0000 -14.2972 0.0000
# 2 1.5295 87.7146 19.1821 0.0000 -15.7838 0.0000
# 3 42.5696 19.1821 64.3540 0.0000 -6.9810 0.0000
# 4 0.0000 0.0000 0.0000 8.0244 0.0000 4.3133
# 5 -14.2972 -15.7838 -6.9810 0.0000 21.1097 0.0000
# 6 0.0000 0.0000 0.0000 4.3133 0.0000 13.7411
#
#
#
# Elastic Compliance Matrix: (Units=1/GPa)
#
#
# Indices 1 2 3 4 5 6 
#
# 1 0.040104 0.009741 -0.026651 0.000000 0.025631 0.000000
# 2 0.009741 0.016108 -0.009566 0.000000 0.015478 0.000000
# 3 -0.026651 -0.009566 0.034525 0.000000 -0.013786 0.000000
# 4 0.000000 0.000000 0.000000 0.149915 0.000000 -0.047059
# 5 0.025631 0.015478 -0.013786 0.000000 0.071745 0.000000
# 6 0.000000 0.000000 0.000000 -0.047059 0.000000 0.087546
#
#
# Mechanical properties :
#
#
# Convention : Reuss Voigt Hill
#
# Bulk Modulus (GPa) = 26.46634 37.84694 32.15664
# Shear Modulus (GPa) = 10.74139 18.62698 14.68419
#
# Velocity S-wave (km/s) = 2.37834 3.13195 2.78080
# Velocity P-wave (km/s) = 4.63459 5.74538 5.21962
#
# Compressibility (1/GPa) = 0.03778385
#
# Stress axis : x y z
#
# Youngs Moduli (GPa) = 24.93540 62.08142 28.96486
#
# Poissons Ratio (x) = -0.60475 0.77195
# Poissons Ratio (y) = -0.24290 0.27708
# Poissons Ratio (z) = 0.66456 0.59387
#
# Static dielectric constant tensor:
#      x y z
#    x 1.699290 0.000000 0.029660 
#    y 0.000000 1.666550 0.000000 
#    z 0.029660 0.000000 1.686420 
# 
# From -- ./inp_files/97453.got.cif
#   From: 2010.05.17/outbox.cif.g08.bks.cpg/sg13_49_cif.got.tgz:97453.got - 2010.06.03 16:44:36.
