data_PCOD9227469
_publ_section_title
;
Structure prediction by ZEFSAII (Michael W. Deem and Ramdas Pophale) SiO2 
 PCOD9227469
Probable space group: P 2/C
;
_chemical_formula_sum "Si O2"
_cell_formula_units_Z 28
_cell_length_a 7.710699
_cell_length_b 8.789832
_cell_length_c 20.530721
_cell_angle_alpha 90.000000
_cell_angle_beta 50.770063
_cell_angle_gamma 90.000000
_cell_volume 1077.863960
_symmetry_space_group_name_H-M "P 2/C"
_symmetry_group_IT_number 13
_symmetry_cell_setting 'monoclinic'
loop_
_space_group_symop_operation_xyz
x,y,z
-x,y,1/2-z
-x,-y,-z
x,-y,1/2+z
loop_
_atom_site_type_symbol
_atom_site_label
_atom_site_fract_x
_atom_site_fract_y
_atom_site_fract_z
Si Si1 0.355208 0.659338 0.224216
Si Si2 0.738512 0.629144 0.830374
Si Si3 0.693901 0.888868 0.085122
Si Si4 0.056799 0.334967 0.456784
Si Si5 0.734212 0.167861 0.214881
Si Si6 0.992981 0.112144 0.640314
Si Si7 0.404759 0.815438 0.971721
O O1 0.500000 0.590931 0.250000
O O2 0.332544 0.541382 0.170662
O O3 0.497735 0.801350 0.167080
O O4 0.126301 0.734834 0.305189
O O5 0.646203 0.735084 0.795553
O O6 0.629713 0.712945 0.918760
O O7 0.000000 0.633482 0.750000
O O8 0.878619 0.931653 0.096933
O O9 0.595925 0.025197 0.066589
O O10 0.832821 0.765670 0.011628
O O11 0.164367 0.288652 0.361455
O O12 0.232148 0.281052 0.469412
O O13 0.000000 0.500000 0.500000
O O14 0.500000 0.088831 0.250000
O O15 0.915893 0.042035 0.194061
O O16 0.255250 0.145367 0.570781
#
# Coordination Sequence:
#
# PCOD9227469 Si02
#       7
#     4   4   4   4   4   4   4
#     4  10  22  38  65  92 120 160 209 261 315 375
#     4  12  27  43  58  86 128 172 214 261 320 378
#     4  10  18  35  62  97 129 153 195 258 315 371
#     4  11  21  32  61 103 134 155 196 255 318 373
#     4  12  21  39  68  96 126 165 207 258 314 380
#     4  10  19  36  63  99 123 152 205 264 316 373
#     4  11  20  39  62  91 132 161 200 260 318 374
#
# _framework density 25.977304
#
# number of rings (size 3 to 8) (size 9 to 14) (size 15 to 20)
#    0.000    1.143    4.286    4.286    6.000    0.000 
#    0.000    4.286    0.000    0.000    0.000    0.000 
#    0.000    0.000    0.000    0.000    0.000    0.000 
#
# Total GULP energy -156453.774751 kJ/mol
# GULP energy per Si atom -5587.634813 kJ/mol
# Density = 2.591818 g / cm^3
# Si number density = 25.977304 Si / 1000 Ang^3
#
#
#
# Elastic Constant Matrix: (Units=GPa)
#
#
# Indices 1 2 3 4 5 6 
#
# 1 58.9904 31.3690 22.5418 0.0000 -12.2886 0.0000
# 2 31.3690 157.9628 53.9540 0.0000 -17.0572 0.0000
# 3 22.5418 53.9540 129.3797 0.0000 -23.4037 0.0000
# 4 0.0000 0.0000 0.0000 40.6310 0.0000 -14.9408
# 5 -12.2886 -17.0572 -23.4037 0.0000 31.5537 0.0000
# 6 0.0000 0.0000 0.0000 -14.9408 0.0000 6.2174
#
#
#
# Elastic Compliance Matrix: (Units=1/GPa)
#
#
# Indices 1 2 3 4 5 6 
#
# 1 0.020134 -0.002982 -0.001314 0.000000 0.005255 0.000000
# 2 -0.002982 0.007932 -0.002567 0.000000 0.001222 0.000000
# 3 -0.001314 -0.002567 0.010031 0.000000 0.005541 0.000000
# 4 0.000000 0.000000 0.000000 0.211533 0.000000 0.508325
# 5 0.005255 0.001222 0.005541 0.000000 0.038509 0.000000
# 6 0.000000 0.000000 0.000000 0.508325 0.000000 1.382369
#
#
# Mechanical properties :
#
#
# Convention : Reuss Voigt Hill
#
# Bulk Modulus (GPa) = 41.03261 62.45139 51.74200
# Shear Modulus (GPa) = 2.95446 31.57829 17.26638
#
# Velocity S-wave (km/s) = 1.06761 3.49034 2.58092
# Velocity P-wave (km/s) = 4.16528 6.35108 5.37056
#
# Compressibility (1/GPa) = 0.02437086
#
# Stress axis : x y z
#
# Youngs Moduli (GPa) = 49.66615 126.07832 99.69275
#
# Poissons Ratio (x) = 0.37599 0.13098
# Poissons Ratio (y) = 0.14812 0.25591
# Poissons Ratio (z) = 0.06525 0.32364
#
# Static dielectric constant tensor:
#      x y z
#    x 2.127750 0.000000 0.003510 
#    y 0.000000 2.046810 0.000000 
#    z 0.003510 0.000000 2.195350 
# 
# From -- ./inp_files/91394.got.cif
#   From: 2010.05.17/outbox.cif.g08.bks.cpg/sg13_46_cif.got.tgz:91394.got - 2010.06.03 16:44:36.
