data_PCOD9227923
_publ_section_title
;
Structure prediction by ZEFSAII (Michael W. Deem and Ramdas Pophale) SiO2 
 PCOD9227923
Probable space group: P 2/C
;
_chemical_formula_sum "Si O2"
_cell_formula_units_Z 24
_cell_length_a 22.285969
_cell_length_b 7.715518
_cell_length_c 10.804797
_cell_angle_alpha 90.000000
_cell_angle_beta 144.569563
_cell_angle_gamma 90.000000
_cell_volume 1077.028243
_symmetry_space_group_name_H-M "P 2/C"
_symmetry_group_IT_number 13
_symmetry_cell_setting 'monoclinic'
loop_
_space_group_symop_operation_xyz
x,y,z
-x,y,1/2-z
-x,-y,-z
x,-y,1/2+z
loop_
_atom_site_type_symbol
_atom_site_label
_atom_site_fract_x
_atom_site_fract_y
_atom_site_fract_z
Si Si1 0.296337 0.004881 0.653779
Si Si2 0.077258 0.120838 0.789589
Si Si3 0.619448 0.847939 0.962580
Si Si4 0.779370 0.444615 0.816943
Si Si5 0.027070 0.750172 0.952785
Si Si6 0.799603 0.633654 0.605889
O O1 0.368207 0.025544 0.895862
O O2 0.253918 0.188353 0.528007
O O3 0.190321 0.920345 0.527697
O O4 0.343392 0.915814 0.610031
O O5 0.090312 0.218388 0.683733
O O6 0.000000 0.221204 0.750000
O O7 0.014339 0.941552 0.654758
O O8 0.693167 0.691497 0.128211
O O9 0.500000 0.798349 0.750000
O O10 0.774378 0.588818 0.703731
O O11 0.891042 0.344741 0.997350
O O12 0.766219 0.495192 0.938295
O O13 0.923541 0.648609 0.810971
#
# Coordination Sequence:
#
# PCOD9227923 Si02
#       6
#     4   4   4   4   4   4
#     4  10  22  40  62  91 121 153 200 253 302 354
#     4  10  19  30  55  89 121 159 190 238 298 365
#     4  11  23  42  66  89 117 156 205 257 306 349
#     4  11  22  41  56  88 121 165 196 250 292 357
#     4  10  19  33  54  83 123 156 196 232 295 355
#     4  10  23  36  60  84 125 159 200 235 301 360
#
# _framework density 22.283539000000001
#
# number of rings (size 3 to 8) (size 9 to 14) (size 15 to 20)
#    0.000    1.667    1.667    4.500    4.667    2.667 
#    0.000    4.167    0.000    0.000    0.000    0.000 
#    0.000    0.000    0.000    0.000    0.000    0.000 
#
# Total GULP energy -134013.157101 kJ/mol
# GULP energy per Si atom -5583.881546 kJ/mol
# Density = 2.223282 g / cm^3
# Si number density = 22.283539 Si / 1000 Ang^3
#
#
#
# Elastic Constant Matrix: (Units=GPa)
#
#
# Indices 1 2 3 4 5 6 
#
# 1 74.1333 15.5872 16.3080 0.0000 -5.6317 0.0000
# 2 15.5872 31.7051 13.3368 0.0000 -2.3075 0.0000
# 3 16.3080 13.3368 87.2820 0.0000 9.7895 0.0000
# 4 0.0000 0.0000 0.0000 22.4021 0.0000 -10.3044
# 5 -5.6317 -2.3075 9.7895 0.0000 41.4703 0.0000
# 6 0.0000 0.0000 0.0000 -10.3044 0.0000 24.6413
#
#
#
# Elastic Compliance Matrix: (Units=1/GPa)
#
#
# Indices 1 2 3 4 5 6 
#
# 1 0.015512 -0.006559 -0.002148 0.000000 0.002249 0.000000
# 2 -0.006559 0.036892 -0.004666 0.000000 0.002264 0.000000
# 3 -0.002148 -0.004666 0.012977 0.000000 -0.003615 0.000000
# 4 0.000000 0.000000 0.000000 0.055270 0.000000 0.023113
# 5 0.002249 0.002264 -0.003615 0.000000 0.025398 0.000000
# 6 0.000000 0.000000 0.000000 0.023113 0.000000 0.050247
#
#
# Mechanical properties :
#
#
# Convention : Reuss Voigt Hill
#
# Bulk Modulus (GPa) = 25.88274 31.50938 28.69606
# Shear Modulus (GPa) = 21.19358 27.56196 24.37777
#
# Velocity S-wave (km/s) = 3.08732 3.52074 3.31113
# Velocity P-wave (km/s) = 4.93448 5.54061 5.24631
#
# Compressibility (1/GPa) = 0.03863579
#
# Stress axis : x y z
#
# Youngs Moduli (GPa) = 64.46776 27.10579 77.06030
#
# Poissons Ratio (x) = 0.17778 0.16555
# Poissons Ratio (y) = 0.42282 0.35954
# Poissons Ratio (z) = 0.13849 0.12647
#
# Static dielectric constant tensor:
#      x y z
#    x 1.903580 0.000000 -0.057330 
#    y 0.000000 1.927770 0.000000 
#    z -0.057330 0.000000 1.777040 
# 
# From -- ./inp_files/41664.got.cif
#   From: 2010.05.17/outbox.cif.g08.bks.cpg/sg13_21_cif.got.tgz:41664.got - 2010.06.03 16:44:36.
