data_PCOD9227121
_publ_section_title
;
Structure prediction by ZEFSAII (Michael W. Deem and Ramdas Pophale) SiO2 
 PCOD9227121
Probable space group: P 2/C
;
_chemical_formula_sum "Si O2"
_cell_formula_units_Z 24
_cell_length_a 9.827948
_cell_length_b 13.913043
_cell_length_c 16.955110
_cell_angle_alpha 90.000000
_cell_angle_beta 30.196946
_cell_angle_gamma 90.000000
_cell_volume 1166.087177
_symmetry_space_group_name_H-M "P 2/C"
_symmetry_group_IT_number 13
_symmetry_cell_setting 'monoclinic'
loop_
_space_group_symop_operation_xyz
x,y,z
-x,y,1/2-z
-x,-y,-z
x,-y,1/2+z
loop_
_atom_site_type_symbol
_atom_site_label
_atom_site_fract_x
_atom_site_fract_y
_atom_site_fract_z
Si Si1 0.500000 0.167609 0.250000
Si Si2 0.500000 0.504567 0.250000
Si Si3 0.118599 0.026203 0.354068
Si Si4 0.170502 0.343618 0.473182
Si Si5 0.442531 0.888767 0.371724
Si Si6 0.691372 0.412124 0.925015
Si Si7 0.440011 0.672140 0.166645
O O1 0.351356 0.104425 0.257879
O O2 0.277960 0.239977 0.395229
O O3 0.253434 0.427370 0.369790
O O4 0.562772 0.576337 0.145461
O O5 0.840780 0.066814 0.455596
O O6 0.284442 0.938838 0.230474
O O7 0.000000 0.000000 0.500000
O O8 0.311216 0.375513 0.484645
O O9 0.855840 0.332968 0.646025
O O10 0.500000 0.908324 0.250000
O O11 0.425038 0.773814 0.384913
O O12 0.601096 0.334007 0.906157
O O13 0.000000 0.439001 0.750000
O O14 0.500000 0.500000 0.000000
#
# Coordination Sequence:
#
# PCOD9227121 Si02
#       7
#     2   2   4   4   4   4   4
#     4  11  20  33  58  84 118 141 196 243 286 340
#     4  11  20  33  54  86 122 143 194 239 278 338
#     4  10  18  33  53  85 114 146 177 240 295 341
#     4  10  22  36  54  84 115 154 193 233 287 333
#     4  10  19  32  55  84 112 142 188 232 292 340
#     4  10  21  41  58  78 115 160 191 230 282 343
#     4  11  21  35  59  84 116 153 193 234 286 344
#
# _framework density 20.581651999999998
#
# number of rings (size 3 to 8) (size 9 to 14) (size 15 to 20)
#    0.000    1.667    5.000    2.500    0.000    0.000 
#    3.000    0.000    0.000    1.000    4.333    0.000 
#    0.000    0.000    0.000    0.000    0.000    0.000 
#
# Total GULP energy -133658.398457 kJ/mol
# GULP energy per Si atom -5569.099936 kJ/mol
# Density = 2.053481 g / cm^3
# Si number density = 20.581652 Si / 1000 Ang^3
#
#
#
# Elastic Constant Matrix: (Units=GPa)
#
#
# Indices 1 2 3 4 5 6 
#
# 1 36.4357 -1.5976 1.5699 0.0000 -2.4852 0.0000
# 2 -1.5976 91.8169 16.5365 0.0000 -6.7781 0.0000
# 3 1.5699 16.5365 27.9196 0.0000 -8.2950 0.0000
# 4 0.0000 0.0000 0.0000 16.7395 0.0000 -12.6240
# 5 -2.4852 -6.7781 -8.2950 0.0000 19.8079 0.0000
# 6 0.0000 0.0000 0.0000 -12.6240 0.0000 20.3933
#
#
#
# Elastic Compliance Matrix: (Units=1/GPa)
#
#
# Indices 1 2 3 4 5 6 
#
# 1 0.027762 0.000931 -0.001123 0.000000 0.003332 0.000000
# 2 0.000931 0.012253 -0.006886 0.000000 0.001426 0.000000
# 3 -0.001123 -0.006886 0.044789 0.000000 0.016259 0.000000
# 4 0.000000 0.000000 0.000000 0.112045 0.000000 0.069359
# 5 0.003332 0.001426 0.016259 0.000000 0.058200 0.000000
# 6 0.000000 0.000000 0.000000 0.069359 0.000000 0.091971
#
#
# Mechanical properties :
#
#
# Convention : Reuss Voigt Hill
#
# Bulk Modulus (GPa) = 14.15439 21.02109 17.58774
# Shear Modulus (GPa) = 12.99630 20.69905 16.84768
#
# Velocity S-wave (km/s) = 2.51559 3.17472 2.86418
# Velocity P-wave (km/s) = 3.91532 4.86561 4.41610
#
# Compressibility (1/GPa) = 0.07064945
#
# Stress axis : x y z
#
# Youngs Moduli (GPa) = 36.02035 81.61332 22.32669
#
# Poissons Ratio (x) = -0.07600 0.02507
# Poissons Ratio (y) = -0.03354 0.15374
# Poissons Ratio (z) = 0.04044 0.56199
#
# Static dielectric constant tensor:
#      x y z
#    x 1.848930 0.000000 -0.060840 
#    y 0.000000 -1.479890 0.000000 
#    z -0.060840 0.000000 1.728930 
# 
# From -- ./inp_files/40734.got.cif
#   From: 2010.05.17/outbox.cif.g08.bks.cpg/sg13_21_cif.got.tgz:40734.got - 2010.06.03 16:44:36.
