data_PCOD9227312
_publ_section_title
;
Structure prediction by ZEFSAII (Michael W. Deem and Ramdas Pophale) SiO2 
 PCOD9227312
Probable space group: P 2/C
;
_chemical_formula_sum "Si O2"
_cell_formula_units_Z 18
_cell_length_a 19.042501
_cell_length_b 6.043189
_cell_length_c 14.066950
_cell_angle_alpha 90.000000
_cell_angle_beta 151.260678
_cell_angle_gamma 90.000000
_cell_volume 778.354572
_symmetry_space_group_name_H-M "P 2/C"
_symmetry_group_IT_number 13
_symmetry_cell_setting 'monoclinic'
loop_
_space_group_symop_operation_xyz
x,y,z
-x,y,1/2-z
-x,-y,-z
x,-y,1/2+z
loop_
_atom_site_type_symbol
_atom_site_label
_atom_site_fract_x
_atom_site_fract_y
_atom_site_fract_z
Si Si1 0.106447 0.673400 0.180757
Si Si2 0.757738 0.475770 0.996811
Si Si3 0.728363 0.093155 0.118734
Si Si4 0.327764 0.469500 0.309815
Si Si5 0.500000 0.200083 0.250000
O O1 0.110187 0.601857 0.294810
O O2 0.262530 0.609266 0.318922
O O3 0.128038 0.937831 0.206123
O O4 0.000000 0.500000 0.000000
O O5 0.758825 0.447704 0.885743
O O6 0.619422 0.640385 0.844830
O O7 0.741420 0.258128 0.043043
O O8 0.708573 0.223716 0.194442
O O9 0.581647 0.959181 0.920906
O O10 0.500000 0.500000 0.500000
#
# Coordination Sequence:
#
# PCOD9227312 Si02
#       5
#     4   4   4   4   2
#     4  10  24  42  61  88 125 170 219 269 331 400
#     4  10  21  36  58  90 125 164 215 267 322 394
#     4  10  21  38  63  91 135 176 211 275 337 382
#     4  11  22  37  62  97 128 163 218 271 323 397
#     4  10  18  34  58  90 130 170 210 260 328 394
#
# _framework density 23.125706999999998
#
# number of rings (size 3 to 8) (size 9 to 14) (size 15 to 20)
#    0.000    1.778    0.000    6.000    0.000   11.556 
#    0.000    0.000    0.000   16.000    0.000    0.000 
#    0.000    0.000    0.000    0.000    0.000    0.000 
#
# Total GULP energy -100273.673196 kJ/mol
# GULP energy per Si atom -5570.759622 kJ/mol
# Density = 2.307307 g / cm^3
# Si number density = 23.125707 Si / 1000 Ang^3
#
#
#
# Elastic Constant Matrix: (Units=GPa)
#
#
# Indices 1 2 3 4 5 6 
#
# 1 90.2009 27.0870 37.2886 0.0000 -16.6130 0.0000
# 2 27.0870 134.4749 58.2534 0.0000 -9.9694 0.0000
# 3 37.2886 58.2534 146.0881 0.0000 -25.4249 0.0000
# 4 0.0000 0.0000 0.0000 51.0120 0.0000 -1.5434
# 5 -16.6130 -9.9694 -25.4249 0.0000 35.6696 0.0000
# 6 0.0000 0.0000 0.0000 -1.5434 0.0000 17.7558
#
#
#
# Elastic Compliance Matrix: (Units=1/GPa)
#
#
# Indices 1 2 3 4 5 6 
#
# 1 0.013149 -0.001451 -0.002035 0.000000 0.004268 0.000000
# 2 -0.001451 0.009149 -0.003368 0.000000 -0.000519 0.000000
# 3 -0.002035 -0.003368 0.009566 0.000000 0.004929 0.000000
# 4 0.000000 0.000000 0.000000 0.019655 0.000000 0.001708
# 5 0.004268 -0.000519 0.004929 0.000000 0.033391 0.000000
# 6 0.000000 0.000000 0.000000 0.001708 0.000000 0.056468
#
#
# Mechanical properties :
#
#
# Convention : Reuss Voigt Hill
#
# Bulk Modulus (GPa) = 55.07830 68.44687 61.76259
# Shear Modulus (GPa) = 31.02917 37.42980 34.22949
#
# Velocity S-wave (km/s) = 3.66698 4.02747 3.85144
# Velocity P-wave (km/s) = 6.46511 7.16166 6.82228
#
# Compressibility (1/GPa) = 0.01815597
#
# Stress axis : x y z
#
# Youngs Moduli (GPa) = 76.04914 109.29919 104.54087
#
# Poissons Ratio (x) = 0.15856 0.21275
# Poissons Ratio (y) = 0.11032 0.35214
# Poissons Ratio (z) = 0.15476 0.36817
#
# Static dielectric constant tensor:
#      x y z
#    x 1.821360 0.000000 0.014340 
#    y 0.000000 1.999590 0.000000 
#    z 0.014340 0.000000 1.958640 
# 
# From -- ./inp_files/56165.got.cif
#   From: 2010.05.17/outbox.cif.g08.bks.cpg/sg13_29_cif.got.tgz:56165.got - 2010.06.03 16:44:36.
