data_PCOD9227153
_publ_section_title
;
Structure prediction by ZEFSAII (Michael W. Deem and Ramdas Pophale) SiO2 
 PCOD9227153
Probable space group: P 2/C
;
_chemical_formula_sum "Si O2"
_cell_formula_units_Z 24
_cell_length_a 11.189938
_cell_length_b 9.003281
_cell_length_c 16.783518
_cell_angle_alpha 90.000000
_cell_angle_beta 132.098453
_cell_angle_gamma 90.000000
_cell_volume 1254.618952
_symmetry_space_group_name_H-M "P 2/C"
_symmetry_group_IT_number 13
_symmetry_cell_setting 'monoclinic'
loop_
_space_group_symop_operation_xyz
x,y,z
-x,y,1/2-z
-x,-y,-z
x,-y,1/2+z
loop_
_atom_site_type_symbol
_atom_site_label
_atom_site_fract_x
_atom_site_fract_y
_atom_site_fract_z
Si Si1 0.352883 0.648677 0.079934
Si Si2 0.266326 0.687579 0.213258
Si Si3 0.340644 0.802917 0.905834
Si Si4 0.324812 0.357017 0.975264
Si Si5 0.177873 0.104284 0.819204
Si Si6 0.836775 0.547293 0.725762
O O1 0.259530 0.707033 0.115687
O O2 0.543665 0.663201 0.182782
O O3 0.316448 0.746425 0.985608
O O4 0.315318 0.475068 0.042669
O O5 0.205155 0.814201 0.246552
O O6 0.168763 0.539852 0.194733
O O7 0.208607 0.718468 0.792801
O O8 0.311130 0.977011 0.887133
O O9 0.510666 0.736080 0.953326
O O10 0.195038 0.230294 0.895836
O O11 0.303223 0.466474 0.889396
O O12 0.000000 0.039921 0.750000
O O13 0.000000 0.525425 0.750000
#
# Coordination Sequence:
#
# PCOD9227153 Si02
#       6
#     4   4   4   4   4   4
#     4  10  19  34  59  86 106 141 188 242 273 319
#     4  10  19  35  56  82 116 137 184 237 285 312
#     4  11  19  36  57  83 108 152 193 221 269 340
#     4  10  18  35  57  81 105 142 193 226 265 330
#     4  11  23  37  56  83 116 152 185 224 281 342
#     4  10  18  33  56  82 111 145 184 231 278 330
#
# _framework density 19.129314000000001
#
# number of rings (size 3 to 8) (size 9 to 14) (size 15 to 20)
#    0.000    1.667    5.000    4.000    0.000    0.000 
#    0.000   10.000    0.000    0.000    0.000    0.000 
#    0.000    0.000    0.000    0.000    0.000    0.000 
#
# Total GULP energy -133672.130415 kJ/mol
# GULP energy per Si atom -5569.672101 kJ/mol
# Density = 1.908577 g / cm^3
# Si number density = 19.129314 Si / 1000 Ang^3
#
#
#
# Elastic Constant Matrix: (Units=GPa)
#
#
# Indices 1 2 3 4 5 6 
#
# 1 82.4614 5.6395 22.3559 0.0000 -11.3570 0.0000
# 2 5.6395 89.6972 18.0101 0.0000 -8.5356 0.0000
# 3 22.3559 18.0101 33.0456 0.0000 -11.0835 0.0000
# 4 0.0000 0.0000 0.0000 19.7539 0.0000 5.5531
# 5 -11.3570 -8.5356 -11.0835 0.0000 30.1364 0.0000
# 6 0.0000 0.0000 0.0000 5.5531 0.0000 23.4405
#
#
#
# Elastic Compliance Matrix: (Units=1/GPa)
#
#
# Indices 1 2 3 4 5 6 
#
# 1 0.015112 0.001311 -0.010156 0.000000 0.002331 0.000000
# 2 0.001311 0.012669 -0.007326 0.000000 0.001388 0.000000
# 3 -0.010156 -0.007326 0.044653 0.000000 0.010520 0.000000
# 4 0.000000 0.000000 0.000000 0.054235 0.000000 -0.012848
# 5 0.002331 0.001388 0.010520 0.000000 0.038323 0.000000
# 6 0.000000 0.000000 0.000000 -0.012848 0.000000 0.045705
#
#
# Mechanical properties :
#
#
# Convention : Reuss Voigt Hill
#
# Bulk Modulus (GPa) = 24.94287 33.02393 28.98340
# Shear Modulus (GPa) = 19.50056 25.27941 22.38999
#
# Velocity S-wave (km/s) = 3.19628 3.63919 3.42490
# Velocity P-wave (km/s) = 5.16614 5.91264 5.55195
#
# Compressibility (1/GPa) = 0.04009161
#
# Stress axis : x y z
#
# Youngs Moduli (GPa) = 66.17425 78.93103 22.39488
#
# Poissons Ratio (x) = -0.10347 0.22744
# Poissons Ratio (y) = -0.08675 0.16407
# Poissons Ratio (z) = 0.67206 0.57826
#
# Static dielectric constant tensor:
#      x y z
#    x 1.665230 0.000000 0.025200 
#    y 0.000000 1.689900 0.000000 
#    z 0.025200 0.000000 1.732590 
# 
# From -- ./inp_files/65929.got.cif
#   From: 2010.05.17/outbox.cif.g08.bks.cpg/sg13_33_cif.got.tgz:65929.got - 2010.06.03 16:44:36.
