data_PCOD9227719
_publ_section_title
;
Structure prediction by ZEFSAII (Michael W. Deem and Ramdas Pophale) SiO2 
 PCOD9227719
Probable space group: P 2/C
;
_chemical_formula_sum "Si O2"
_cell_formula_units_Z 24
_cell_length_a 14.273805
_cell_length_b 9.403523
_cell_length_c 7.813847
_cell_angle_alpha 90.000000
_cell_angle_beta 71.448704
_cell_angle_gamma 90.000000
_cell_volume 994.309406
_symmetry_space_group_name_H-M "P 2/C"
_symmetry_group_IT_number 13
_symmetry_cell_setting 'monoclinic'
loop_
_space_group_symop_operation_xyz
x,y,z
-x,y,1/2-z
-x,-y,-z
x,-y,1/2+z
loop_
_atom_site_type_symbol
_atom_site_label
_atom_site_fract_x
_atom_site_fract_y
_atom_site_fract_z
Si Si1 0.417510 0.815167 0.042797
Si Si2 0.902752 0.070087 0.702477
Si Si3 0.622456 0.139453 0.532444
Si Si4 0.115585 0.471595 0.957800
Si Si5 0.150688 0.203896 0.132036
Si Si6 0.777428 0.698309 0.411515
O O1 0.390892 0.824533 0.260084
O O2 0.534866 0.789547 0.971851
O O3 0.340504 0.702590 0.012150
O O4 0.396440 0.970549 0.975715
O O5 0.887800 0.128575 0.521452
O O6 0.812929 0.140181 0.861255
O O7 0.000000 0.116536 0.750000
O O8 0.896989 0.899748 0.701166
O O9 0.731753 0.186109 0.418745
O O10 0.122211 0.366343 0.119398
O O11 0.174877 0.383679 0.779152
O O12 0.172437 0.617422 0.962060
O O13 0.000000 0.500000 0.000000
#
# Coordination Sequence:
#
# PCOD9227719 Si02
#       6
#     4   4   4   4   4   4
#     4  10  20  36  67  93 127 155 195 261 313 370
#     4  11  22  36  58  88 120 152 204 256 302 352
#     4  10  18  38  64  97 122 154 198 249 323 357
#     4  11  24  41  60  84 125 172 209 247 305 368
#     4  11  21  39  60  89 119 157 200 256 304 362
#     4  11  22  42  59  88 121 167 205 252 304 361
#
# _framework density 24.137354999999999
#
# number of rings (size 3 to 8) (size 9 to 14) (size 15 to 20)
#    0.000    1.333    5.000    3.000    0.000    2.667 
#    3.000    0.833    0.000    0.000    0.000    0.000 
#    0.000    0.000    0.000    0.000    0.000    0.000 
#
# Total GULP energy -134291.456354 kJ/mol
# GULP energy per Si atom -5595.477348 kJ/mol
# Density = 2.408242 g / cm^3
# Si number density = 24.137355 Si / 1000 Ang^3
#
#
#
# Elastic Constant Matrix: (Units=GPa)
#
#
# Indices 1 2 3 4 5 6 
#
# 1 251.3065 44.6717 27.8671 0.0000 -6.5633 0.0000
# 2 44.6717 94.9344 3.5078 0.0000 7.0226 0.0000
# 3 27.8671 3.5078 41.4194 0.0000 5.6207 0.0000
# 4 0.0000 0.0000 0.0000 35.6086 0.0000 7.8523
# 5 -6.5633 7.0226 5.6207 0.0000 29.1643 0.0000
# 6 0.0000 0.0000 0.0000 7.8523 0.0000 45.6867
#
#
#
# Elastic Compliance Matrix: (Units=1/GPa)
#
#
# Indices 1 2 3 4 5 6 
#
# 1 0.004823 -0.002315 -0.003360 0.000000 0.002290 0.000000
# 2 -0.002315 0.011849 0.001039 0.000000 -0.003574 0.000000
# 3 -0.003360 0.001039 0.027163 0.000000 -0.006241 0.000000
# 4 0.000000 0.000000 0.000000 0.029189 0.000000 -0.005017
# 5 0.002290 -0.003574 -0.006241 0.000000 0.036867 0.000000
# 6 0.000000 0.000000 0.000000 -0.005017 0.000000 0.022750
#
#
# Mechanical properties :
#
#
# Convention : Reuss Voigt Hill
#
# Bulk Modulus (GPa) = 28.93231 59.97263 44.45247
# Shear Modulus (GPa) = 32.58728 42.86617 37.72673
#
# Velocity S-wave (km/s) = 3.67833 4.21875 3.95777
# Velocity P-wave (km/s) = 5.48203 6.97358 6.27230
#
# Compressibility (1/GPa) = 0.03456344
#
# Stress axis : x y z
#
# Youngs Moduli (GPa) = 207.33781 84.39647 36.81525
#
# Poissons Ratio (x) = 0.19536 0.12369
# Poissons Ratio (y) = 0.47994 -0.03825
# Poissons Ratio (z) = 0.69660 -0.08768
#
# Static dielectric constant tensor:
#      x y z
#    x 1.925290 0.000000 0.031810 
#    y 0.000000 1.953020 0.000000 
#    z 0.031810 0.000000 2.010510 
# 
# From -- ./inp_files/18038.got.cif
#   From: 2010.05.17/outbox.cif.g08.bks.cpg/sg13_10_cif.got.tgz:18038.got - 2010.06.03 16:44:36.
