data_PCOD9227273
_publ_section_title
;
Structure prediction by ZEFSAII (Michael W. Deem and Ramdas Pophale) SiO2 
 PCOD9227273
Probable space group: P 2/C
;
_chemical_formula_sum "Si O2"
_cell_formula_units_Z 24
_cell_length_a 7.742840
_cell_length_b 11.649193
_cell_length_c 19.705865
_cell_angle_alpha 90.000000
_cell_angle_beta 141.539739
_cell_angle_gamma 90.000000
_cell_volume 1105.508905
_symmetry_space_group_name_H-M "P 2/C"
_symmetry_group_IT_number 13
_symmetry_cell_setting 'monoclinic'
loop_
_space_group_symop_operation_xyz
x,y,z
-x,y,1/2-z
-x,-y,-z
x,-y,1/2+z
loop_
_atom_site_type_symbol
_atom_site_label
_atom_site_fract_x
_atom_site_fract_y
_atom_site_fract_z
Si Si1 0.685562 0.057731 0.460159
Si Si2 0.297284 0.678772 0.337868
Si Si3 0.795776 0.801579 0.863414
Si Si4 0.803138 0.809151 0.319730
Si Si5 0.671033 0.167988 0.040153
Si Si6 0.853903 0.380232 0.942043
O O1 0.728420 0.092744 0.394853
O O2 0.433915 0.122485 0.420319
O O3 0.958295 0.106463 0.582663
O O4 0.645453 0.926982 0.471325
O O5 0.212540 0.786534 0.264324
O O6 0.463249 0.728438 0.454190
O O7 0.538895 0.613094 0.371824
O O8 0.000000 0.615325 0.250000
O O9 0.500000 0.755473 0.750000
O O10 0.997697 0.816971 0.861205
O O11 0.976319 0.712909 0.962283
O O12 0.500000 0.848702 0.250000
O O13 0.851626 0.683009 0.368656
O O14 0.000000 0.500000 0.000000
#
# Coordination Sequence:
#
# PCOD9227273 Si02
#       6
#     4   4   4   4   4   4
#     4  10  20  36  54  81 120 150 192 225 270 325
#     4  10  18  34  57  84 111 137 180 234 278 326
#     4  10  22  37  55  79 115 151 185 231 279 329
#     4   9  18  33  57  81 109 146 182 232 277 329
#     4  10  21  35  56  84 114 153 187 230 267 330
#     4   9  20  38  60  80 105 141 186 233 286 339
#
# _framework density 21.709461000000001
#
# number of rings (size 3 to 8) (size 9 to 14) (size 15 to 20)
#    0.000    2.333    1.667    1.500    0.000    4.667 
#    0.000    0.833    7.333    0.000    0.000    0.000 
#    0.000    0.000    0.000    0.000    0.000    0.000 
#
# Total GULP energy -133739.527094 kJ/mol
# GULP energy per Si atom -5572.480296 kJ/mol
# Density = 2.166005 g / cm^3
# Si number density = 21.709461 Si / 1000 Ang^3
#
#
#
# Elastic Constant Matrix: (Units=GPa)
#
#
# Indices 1 2 3 4 5 6 
#
# 1 107.0961 14.1408 44.1137 0.0000 43.4750 0.0000
# 2 14.1408 64.0156 10.2627 0.0000 12.8102 0.0000
# 3 44.1137 10.2627 109.9270 0.0000 38.2115 0.0000
# 4 0.0000 0.0000 0.0000 24.2124 0.0000 6.3781
# 5 43.4750 12.8102 38.2115 0.0000 39.1768 0.0000
# 6 0.0000 0.0000 0.0000 6.3781 0.0000 6.3756
#
#
#
# Elastic Compliance Matrix: (Units=1/GPa)
#
#
# Indices 1 2 3 4 5 6 
#
# 1 0.017004 0.000006 -0.000400 0.000000 -0.018481 0.000000
# 2 0.000006 0.016734 0.000514 0.000000 -0.005980 0.000000
# 3 -0.000400 0.000514 0.013789 0.000000 -0.013173 0.000000
# 4 0.000000 0.000000 0.000000 0.056080 0.000000 -0.056103
# 5 -0.018481 -0.005980 -0.013173 0.000000 0.060838 0.000000
# 6 0.000000 0.000000 0.000000 -0.056103 0.000000 0.212974
#
#
# Mechanical properties :
#
#
# Convention : Reuss Voigt Hill
#
# Bulk Modulus (GPa) = 20.93506 46.45258 33.69382
# Shear Modulus (GPa) = 12.71942 28.12105 20.42023
#
# Velocity S-wave (km/s) = 2.42315 3.60298 3.07027
# Velocity P-wave (km/s) = 4.18247 6.22515 5.30309
#
# Compressibility (1/GPa) = 0.04776677
#
# Stress axis : x y z
#
# Youngs Moduli (GPa) = 58.81098 59.75830 72.52417
#
# Poissons Ratio (x) = -0.00038 0.02901
# Poissons Ratio (y) = -0.00037 -0.03727
# Poissons Ratio (z) = 0.02352 -0.03071
#
# Static dielectric constant tensor:
#      x y z
#    x 1.909960 0.000000 0.093620 
#    y 0.000000 1.809280 0.000000 
#    z 0.093620 0.000000 1.856940 
# 
# From -- ./inp_files/39132.got.cif
#   From: 2010.05.17/outbox.cif.g08.bks.cpg/sg13_20_cif.got.tgz:39132.got - 2010.06.03 16:44:36.
