data_PCOD9227615
_publ_section_title
;
Structure prediction by ZEFSAII (Michael W. Deem and Ramdas Pophale) SiO2 
 PCOD9227615
Probable space group: P 2/C
;
_chemical_formula_sum "Si O2"
_cell_formula_units_Z 30
_cell_length_a 12.170617
_cell_length_b 8.542340
_cell_length_c 23.155710
_cell_angle_alpha 90.000000
_cell_angle_beta 40.620284
_cell_angle_gamma 90.000000
_cell_volume 1567.318314
_symmetry_space_group_name_H-M "P 2/C"
_symmetry_group_IT_number 13
_symmetry_cell_setting 'monoclinic'
loop_
_space_group_symop_operation_xyz
x,y,z
-x,y,1/2-z
-x,-y,-z
x,-y,1/2+z
loop_
_atom_site_type_symbol
_atom_site_label
_atom_site_fract_x
_atom_site_fract_y
_atom_site_fract_z
Si Si1 0.143336 0.378527 0.236979
Si Si2 0.234296 0.703817 0.012748
Si Si3 0.274164 0.563578 0.409008
Si Si4 0.447234 0.783628 0.163442
Si Si5 0.120728 0.618002 0.349708
Si Si6 0.367176 0.379889 0.579734
Si Si7 0.425554 0.847124 0.673535
Si Si8 0.500000 0.676281 0.750000
O O1 0.094115 0.466585 0.317388
O O2 0.225826 0.518735 0.167699
O O3 0.288206 0.248960 0.191031
O O4 0.000000 0.316827 0.250000
O O5 0.229890 0.528059 0.985817
O O6 0.381760 0.799904 0.921452
O O7 0.289551 0.708309 0.056793
O O8 0.035296 0.739090 0.091612
O O9 0.376225 0.722616 0.380499
O O10 0.142886 0.581531 0.408999
O O11 0.403447 0.440178 0.329981
O O12 0.295431 0.695253 0.257682
O O13 0.446100 0.726585 0.097667
O O14 0.415989 0.967372 0.176573
O O15 0.500000 0.500000 0.500000
O O16 0.392239 0.785871 0.751683
#
# Coordination Sequence:
#
# PCOD9227615 Si02
#       8
#     4   4   4   4   4   4   4   2
#     4  11  21  39  65  89 118 160 214 255 300 354
#     4  11  22  38  64  89 124 153 210 260 297 356
#     4  11  19  39  64  89 114 163 208 249 298 361
#     4  11  24  38  64  88 126 167 198 245 317 370
#     4  11  21  39  63  92 115 157 213 259 288 363
#     4  11  19  40  63  86 116 161 214 247 293 364
#     4  11  24  40  58  94 127 162 193 252 321 371
#     4  10  18  36  68  82 118 156 214 246 292 364
#
# _framework density 19.140975999999998
#
# number of rings (size 3 to 8) (size 9 to 14) (size 15 to 20)
#    0.000    1.067    6.667    2.000    1.867    0.533 
#    2.400    2.000    0.000    0.000    0.000    0.000 
#    0.000    0.000    0.000    0.000    0.000    0.000 
#
# Total GULP energy -167061.452539 kJ/mol
# GULP energy per Si atom -5568.715085 kJ/mol
# Density = 1.909741 g / cm^3
# Si number density = 19.140976 Si / 1000 Ang^3
#
#
#
# Elastic Constant Matrix: (Units=GPa)
#
#
# Indices 1 2 3 4 5 6 
#
# 1 92.9183 17.2076 12.0991 0.0000 7.9309 0.0000
# 2 17.2076 74.0402 6.1043 0.0000 6.0676 0.0000
# 3 12.0991 6.1043 62.6319 0.0000 2.8617 0.0000
# 4 0.0000 0.0000 0.0000 8.0562 0.0000 -3.4224
# 5 7.9309 6.0676 2.8617 0.0000 31.0891 0.0000
# 6 0.0000 0.0000 0.0000 -3.4224 0.0000 -0.2320
#
#
#
# Elastic Compliance Matrix: (Units=1/GPa)
#
#
# Indices 1 2 3 4 5 6 
#
# 1 0.011647 -0.002358 -0.001914 0.000000 -0.002335 0.000000
# 2 -0.002358 0.014297 -0.000841 0.000000 -0.002111 0.000000
# 3 -0.001914 -0.000841 0.016457 0.000000 -0.000863 0.000000
# 4 0.000000 0.000000 0.000000 0.017078 0.000000 -0.251990
# 5 -0.002335 -0.002111 -0.000863 0.000000 0.033253 0.000000
# 6 0.000000 0.000000 0.000000 -0.251990 0.000000 -0.593171
#
#
# Mechanical properties :
#
#
# Convention : Reuss Voigt Hill
#
# Bulk Modulus (GPa) = 31.07938 33.37913 32.22926
# Shear Modulus (GPa) = -10.42779 20.72795 5.15008
#
# Velocity S-wave (km/s) = -2.33660 3.29433 1.64209
# Velocity P-wave (km/s) = 2.99879 5.65213 4.52434
#
# Compressibility (1/GPa) = 0.03217567
#
# Stress axis : x y z
#
# Youngs Moduli (GPa) = 85.85721 69.94691 60.76301
#
# Poissons Ratio (x) = 0.16492 0.11627
# Poissons Ratio (y) = 0.20243 0.05113
# Poissons Ratio (z) = 0.16429 0.05886
#
# Static dielectric constant tensor:
#      x y z
#    x 1.450000 0.000000 0.301170 
#    y 0.000000 1.661460 0.000000 
#    z 0.301170 0.000000 1.430200 
# 
# From -- ./inp_files/50328.got.cif
#   From: 2010.05.17/outbox.cif.g08.bks.cpg/sg13_26_cif.got.tgz:50328.got - 2010.06.03 16:44:36.
