data_PCOD9227291
_publ_section_title
;
Structure prediction by ZEFSAII (Michael W. Deem and Ramdas Pophale) SiO2 
 PCOD9227291
Probable space group: P 2/C
;
_chemical_formula_sum "Si O2"
_cell_formula_units_Z 28
_cell_length_a 8.794057
_cell_length_b 16.069635
_cell_length_c 21.243290
_cell_angle_alpha 90.000000
_cell_angle_beta 29.174983
_cell_angle_gamma 90.000000
_cell_volume 1463.431859
_symmetry_space_group_name_H-M "P 2/C"
_symmetry_group_IT_number 13
_symmetry_cell_setting 'monoclinic'
loop_
_space_group_symop_operation_xyz
x,y,z
-x,y,1/2-z
-x,-y,-z
x,-y,1/2+z
loop_
_atom_site_type_symbol
_atom_site_label
_atom_site_fract_x
_atom_site_fract_y
_atom_site_fract_z
Si Si1 0.265742 0.071043 0.776854
Si Si2 0.630188 0.204583 0.371640
Si Si3 0.000000 0.536137 0.750000
Si Si4 0.965056 0.768960 0.333135
Si Si5 0.032278 0.411404 0.840974
Si Si6 0.545959 0.364328 0.121749
Si Si7 0.419027 0.016656 0.455778
Si Si8 0.500000 0.524191 0.750000
O O1 0.500000 0.064737 0.750000
O O2 0.426533 0.042357 0.652927
O O3 0.142546 0.165503 0.812881
O O4 0.956739 0.018442 0.906629
O O5 0.397782 0.232328 0.513116
O O6 0.527960 0.266315 0.352032
O O7 0.000000 0.213595 0.250000
O O8 0.548050 0.108391 0.391833
O O9 0.868405 0.471973 0.849734
O O10 0.241261 0.592842 0.700605
O O11 0.000000 0.801427 0.250000
O O12 0.116472 0.677075 0.279880
O O13 0.301851 0.464439 0.776621
O O14 0.811174 0.383844 0.976486
O O15 0.652792 0.410586 0.146249
O O16 0.500000 0.000000 0.500000
#
# Coordination Sequence:
#
# PCOD9227291 Si02
#       8
#     4   4   2   4   4   4   4   2
#     4  11  23  39  63  91 130 157 198 247 309 362
#     4  10  20  37  61  86 116 149 197 248 290 348
#     4  10  18  34  58  82 108 144 196 242 296 342
#     4  10  21  38  60  89 117 155 199 249 298 355
#     4  10  20  35  57  82 113 150 197 244 293 351
#     4  10  20  36  55  80 115 150 190 243 294 349
#     4  11  22  41  67  92 119 164 204 249 296 366
#     4  10  22  36  54  78 114 156 196 230 302 356
#
# _framework density 19.133108
#
# number of rings (size 3 to 8) (size 9 to 14) (size 15 to 20)
#    0.000    1.714    1.429    4.286    1.000    0.000 
#    1.286    1.429    6.286    0.000    0.000    0.000 
#    0.000    0.000    0.000    0.000    0.000    0.000 
#
# Total GULP energy -155911.172064 kJ/mol
# GULP energy per Si atom -5568.256145 kJ/mol
# Density = 1.908956 g / cm^3
# Si number density = 19.133108 Si / 1000 Ang^3
#
#
#
# Elastic Constant Matrix: (Units=GPa)
#
#
# Indices 1 2 3 4 5 6 
#
# 1 77.8211 27.4797 37.3530 0.0000 -0.2705 0.0000
# 2 27.4797 102.0459 19.8760 0.0000 1.2697 0.0000
# 3 37.3530 19.8760 84.8095 0.0000 -5.7956 0.0000
# 4 0.0000 0.0000 0.0000 25.2089 0.0000 5.6979
# 5 -0.2705 1.2697 -5.7956 0.0000 24.8298 0.0000
# 6 0.0000 0.0000 0.0000 5.6979 0.0000 23.0779
#
#
#
# Elastic Compliance Matrix: (Units=1/GPa)
#
#
# Indices 1 2 3 4 5 6 
#
# 1 0.017349 -0.003302 -0.006954 0.000000 -0.001265 0.000000
# 2 -0.003302 0.010926 -0.001166 0.000000 -0.000867 0.000000
# 3 -0.006954 -0.001166 0.015371 0.000000 0.003572 0.000000
# 4 0.000000 0.000000 0.000000 0.042013 0.000000 -0.010373
# 5 -0.001265 -0.000867 0.003572 0.000000 0.041138 0.000000
# 6 0.000000 0.000000 0.000000 -0.010373 0.000000 0.045893
#
#
# Mechanical properties :
#
#
# Convention : Reuss Voigt Hill
#
# Bulk Modulus (GPa) = 48.06745 48.23264 48.15004
# Shear Modulus (GPa) = 24.69522 26.62117 25.65820
#
# Velocity S-wave (km/s) = 3.59654 3.73415 3.66599
# Velocity P-wave (km/s) = 6.51337 6.62235 6.56809
#
# Compressibility (1/GPa) = 0.02080410
#
# Stress axis : x y z
#
# Youngs Moduli (GPa) = 57.63948 91.52075 65.05700
#
# Poissons Ratio (x) = 0.30218 0.45240
# Poissons Ratio (y) = 0.19031 0.07584
# Poissons Ratio (z) = 0.40082 0.10669
#
# Static dielectric constant tensor:
#      x y z
#    x 1.684220 0.000000 0.009560 
#    y 0.000000 1.704260 0.000000 
#    z 0.009560 0.000000 1.689570 
# 
# From -- ./inp_files/76731.got.cif
#   From: 2010.05.17/outbox.cif.g08.bks.cpg/sg13_39_cif.got.tgz:76731.got - 2010.06.03 16:44:36.
