data_PCOD9227324
_publ_section_title
;
Structure prediction by ZEFSAII (Michael W. Deem and Ramdas Pophale) SiO2 
 PCOD9227324
Probable space group: P 2/C
;
_chemical_formula_sum "Si O2"
_cell_formula_units_Z 22
_cell_length_a 19.975482
_cell_length_b 8.555107
_cell_length_c 15.226487
_cell_angle_alpha 90.000000
_cell_angle_beta 159.069803
_cell_angle_gamma 90.000000
_cell_volume 929.545665
_symmetry_space_group_name_H-M "P 2/C"
_symmetry_group_IT_number 13
_symmetry_cell_setting 'monoclinic'
loop_
_space_group_symop_operation_xyz
x,y,z
-x,y,1/2-z
-x,-y,-z
x,-y,1/2+z
loop_
_atom_site_type_symbol
_atom_site_label
_atom_site_fract_x
_atom_site_fract_y
_atom_site_fract_z
Si Si1 0.500000 0.361429 0.250000
Si Si2 0.111063 0.324240 0.072802
Si Si3 0.163070 0.568861 0.826844
Si Si4 0.185579 0.922994 0.890917
Si Si5 0.275423 0.140715 0.851631
Si Si6 0.244739 0.032615 0.143894
O O1 0.671891 0.467531 0.430466
O O2 0.581493 0.257167 0.427771
O O3 0.203496 0.398102 0.272548
O O4 0.241371 0.207576 0.177607
O O5 0.023110 0.462250 0.905307
O O6 0.929556 0.225492 0.888804
O O7 0.162161 0.738112 0.869088
O O8 0.268690 0.982946 0.901320
O O9 0.977452 0.993091 0.633014
O O10 0.300321 0.996486 0.112449
O O11 0.321331 0.088578 0.809628
#
# Coordination Sequence:
#
# PCOD9227324 Si02
#       6
#     2   4   4   4   4   4
#     4  10  24  34  58  74 116 162 188 232 298 328
#     4   9  17  33  63  81 112 142 190 240 290 327
#     4  10  18  35  57  88 108 150 193 236 286 336
#     4  10  19  33  61  87 113 142 195 235 279 340
#     4  10  18  38  56  81 113 150 188 233 281 346
#     4  10  18  34  59  91 109 144 186 240 286 335
#
# _framework density 23.667477000000002
#
# number of rings (size 3 to 8) (size 9 to 14) (size 15 to 20)
#    0.000    2.182    3.636    1.091    0.000    0.727 
#    0.000   12.727    0.000    0.000    0.000    0.000 
#    0.000    0.000    0.000    0.000    0.000    0.000 
#
# Total GULP energy -122997.572952 kJ/mol
# GULP energy per Si atom -5590.798771 kJ/mol
# Density = 2.361361 g / cm^3
# Si number density = 23.667477 Si / 1000 Ang^3
#
#
#
# Elastic Constant Matrix: (Units=GPa)
#
#
# Indices 1 2 3 4 5 6 
#
# 1 39.2342 5.2065 19.7113 0.0000 -3.5447 0.0000
# 2 5.2065 119.1056 14.7147 0.0000 -3.6648 0.0000
# 3 19.7113 14.7147 79.0555 0.0000 -18.0607 0.0000
# 4 0.0000 0.0000 0.0000 35.3381 0.0000 3.0925
# 5 -3.5447 -3.6648 -18.0607 0.0000 29.6554 0.0000
# 6 0.0000 0.0000 0.0000 3.0925 0.0000 6.3980
#
#
#
# Elastic Compliance Matrix: (Units=1/GPa)
#
#
# Indices 1 2 3 4 5 6 
#
# 1 0.029186 -0.000389 -0.007456 0.000000 -0.001100 0.000000
# 2 -0.000389 0.008599 -0.001477 0.000000 0.000117 0.000000
# 3 -0.007456 -0.001477 0.016888 0.000000 0.009211 0.000000
# 4 0.000000 0.000000 0.000000 0.029548 0.000000 -0.014282
# 5 -0.001100 0.000117 0.009211 0.000000 0.039213 0.000000
# 6 0.000000 0.000000 0.000000 -0.014282 0.000000 0.163202
#
#
# Mechanical properties :
#
#
# Convention : Reuss Voigt Hill
#
# Bulk Modulus (GPa) = 27.75517 35.18448 31.46983
# Shear Modulus (GPa) = 15.75850 27.46250 21.61050
#
# Velocity S-wave (km/s) = 2.58317 3.41008 3.02501
# Velocity P-wave (km/s) = 4.54418 5.51392 5.05237
#
# Compressibility (1/GPa) = 0.03602932
#
# Stress axis : x y z
#
# Youngs Moduli (GPa) = 34.26295 116.29310 59.21480
#
# Poissons Ratio (x) = 0.04518 0.44151
# Poissons Ratio (y) = 0.01331 0.08746
# Poissons Ratio (z) = 0.25547 0.17177
#
# Static dielectric constant tensor:
#      x y z
#    x 1.965440 0.000000 0.035300 
#    y 0.000000 1.886030 0.000000 
#    z 0.035300 0.000000 1.942390 
# 
# From -- ./inp_files/58758.got.cif
#   From: 2010.05.17/outbox.cif.g08.bks.cpg/sg13_30_cif.got.tgz:58758.got - 2010.06.03 16:44:36.
