data_PCOD9227418
_publ_section_title
;
Structure prediction by ZEFSAII (Michael W. Deem and Ramdas Pophale) SiO2 
 PCOD9227418
Probable space group: P 2/C
;
_chemical_formula_sum "Si O2"
_cell_formula_units_Z 20
_cell_length_a 23.502043
_cell_length_b 7.152671
_cell_length_c 5.437991
_cell_angle_alpha 90.000000
_cell_angle_beta 97.053655
_cell_angle_gamma 90.000000
_cell_volume 907.220658
_symmetry_space_group_name_H-M "P 2/C"
_symmetry_group_IT_number 13
_symmetry_cell_setting 'monoclinic'
loop_
_space_group_symop_operation_xyz
x,y,z
-x,y,1/2-z
-x,-y,-z
x,-y,1/2+z
loop_
_atom_site_type_symbol
_atom_site_label
_atom_site_fract_x
_atom_site_fract_y
_atom_site_fract_z
Si Si1 0.656879 0.276638 0.665285
Si Si2 0.701406 0.706473 0.688678
Si Si3 0.061509 0.884394 0.828546
Si Si4 0.475938 0.213644 0.987280
Si Si5 0.832179 0.615208 0.695744
O O1 0.673649 0.497458 0.699864
O O2 0.695462 0.210064 0.457426
O O3 0.592085 0.234232 0.556459
O O4 0.668104 0.200430 0.944649
O O5 0.767575 0.693513 0.648962
O O6 0.117395 0.762079 0.815153
O O7 0.000000 0.784666 0.750000
O O8 0.062161 0.038259 0.608344
O O9 0.500000 0.297818 0.750000
O O10 0.500000 0.297042 0.250000
O O11 0.500000 0.000000 0.000000
O O12 0.837423 0.473229 0.469707
#
# Coordination Sequence:
#
# PCOD9227418 Si02
#       5
#     4   4   4   4   4
#     4  10  18  35  58  78 113 149 186 236 317 374
#     4  10  19  35  56  86 114 153 190 252 318 372
#     4  10  23  43  65  92 139 188 220 260 328 398
#     4  10  21  37  57  77 109 146 192 244 298 367
#     4  12  21  38  68  99 133 164 226 287 317 377
#
# _framework density 22.045355000000001
#
# number of rings (size 3 to 8) (size 9 to 14) (size 15 to 20)
#    0.000    1.600    4.000    2.400    0.000    0.800 
#    0.000   12.000   26.400    0.000    0.000    0.000 
#    0.000    0.000    0.000    0.000    0.000    0.000 
#
# Total GULP energy -111643.273079 kJ/mol
# GULP energy per Si atom -5582.163654 kJ/mol
# Density = 2.199518 g / cm^3
# Si number density = 22.045355 Si / 1000 Ang^3
#
#
#
# Elastic Constant Matrix: (Units=GPa)
#
#
# Indices 1 2 3 4 5 6 
#
# 1 121.0731 12.0298 -24.4296 0.0000 7.9427 0.0000
# 2 12.0298 45.6096 -8.8196 0.0000 11.4558 0.0000
# 3 -24.4296 -8.8196 131.0502 0.0000 -25.2142 0.0000
# 4 0.0000 0.0000 0.0000 -16.0337 0.0000 4.2560
# 5 7.9427 11.4558 -25.2142 0.0000 44.3574 0.0000
# 6 0.0000 0.0000 0.0000 4.2560 0.0000 41.8766
#
#
#
# Elastic Compliance Matrix: (Units=1/GPa)
#
#
# Indices 1 2 3 4 5 6 
#
# 1 0.008764 -0.001972 0.001456 0.000000 -0.000232 0.000000
# 2 -0.001972 0.023915 0.000136 0.000000 -0.005746 0.000000
# 3 0.001456 0.000136 0.008819 0.000000 0.004717 0.000000
# 4 0.000000 0.000000 0.000000 -0.060730 0.000000 0.006172
# 5 -0.000232 -0.005746 0.004717 0.000000 0.026751 0.000000
# 6 0.000000 0.000000 0.000000 0.006172 0.000000 0.023252
#
#
# Mechanical properties :
#
#
# Convention : Reuss Voigt Hill
#
# Bulk Modulus (GPa) = 24.54561 28.36601 26.45581
# Shear Modulus (GPa) = 110.84285 35.30355 73.07320
#
# Velocity S-wave (km/s) = 7.09849 4.00610 5.76357
# Velocity P-wave (km/s) = 8.85117 5.85606 7.50455
#
# Compressibility (1/GPa) = 0.04074048
#
# Stress axis : x y z
#
# Youngs Moduli (GPa) = 114.09676 41.81517 113.39301
#
# Poissons Ratio (x) = 0.08245 -0.16515
# Poissons Ratio (y) = 0.22497 -0.01547
# Poissons Ratio (z) = -0.16617 -0.00571
#
# Static dielectric constant tensor:
#      x y z
#    x 1.904570 0.000000 -0.001990 
#    y 0.000000 0.106930 0.000000 
#    z -0.001990 0.000000 1.873650 
# 
# From -- ./inp_files/6744.got.cif
#   From: 2010.05.17/outbox.cif.g08.bks.cpg/sg13_4_cif.got.tgz:6744.got - 2010.06.03 16:44:36.
