data_PCOD9227712
_publ_section_title
;
Structure prediction by ZEFSAII (Michael W. Deem and Ramdas Pophale) SiO2 
 PCOD9227712
Probable space group: P 2/C
;
_chemical_formula_sum "Si O2"
_cell_formula_units_Z 28
_cell_length_a 13.559462
_cell_length_b 8.782688
_cell_length_c 21.553650
_cell_angle_alpha 90.000000
_cell_angle_beta 150.940871
_cell_angle_gamma 90.000000
_cell_volume 1246.721767
_symmetry_space_group_name_H-M "P 2/C"
_symmetry_group_IT_number 13
_symmetry_cell_setting 'monoclinic'
loop_
_space_group_symop_operation_xyz
x,y,z
-x,y,1/2-z
-x,-y,-z
x,-y,1/2+z
loop_
_atom_site_type_symbol
_atom_site_label
_atom_site_fract_x
_atom_site_fract_y
_atom_site_fract_z
Si Si1 0.683891 0.498508 0.967547
Si Si2 0.106354 0.425998 0.143409
Si Si3 0.784001 0.056923 0.755561
Si Si4 0.910284 0.247709 0.931164
Si Si5 0.500000 0.673886 0.250000
Si Si6 0.582000 0.242088 0.997522
Si Si7 0.462412 0.244421 0.385844
Si Si8 0.000000 0.941360 0.750000
O O1 0.557747 0.434575 0.839494
O O2 0.653155 0.679947 0.956303
O O3 0.622451 0.411805 0.996404
O O4 0.909671 0.443352 0.077408
O O5 0.121805 0.589618 0.120235
O O6 0.296710 0.377769 0.287707
O O7 0.072458 0.295592 0.072315
O O8 0.929098 0.117354 0.890266
O O9 0.598772 0.175521 0.644012
O O10 0.655465 0.905189 0.700602
O O11 0.911692 0.029030 0.762225
O O12 0.695906 0.222615 0.847079
O O13 0.496273 0.222166 0.019357
O O14 0.800655 0.154773 0.117749
#
# Coordination Sequence:
#
# PCOD9227712 Si02
#       8
#     4   4   4   4   2   4   4   2
#     4  11  21  37  65  88 122 161 208 255 310 367
#     4  10  22  39  64  90 122 162 210 258 304 366
#     4  11  23  41  63  91 129 166 207 253 315 373
#     4  10  21  40  63  87 121 166 204 252 310 370
#     4  10  18  38  64  82 116 164 200 244 312 352
#     4  11  22  41  62  91 125 168 202 258 316 372
#     4  11  22  39  61  95 124 160 209 260 308 373
#     4  10  22  38  64  92 130 166 210 258 318 372
#
# _framework density 22.4589
#
# number of rings (size 3 to 8) (size 9 to 14) (size 15 to 20)
#    0.000    1.429    2.857    3.857    0.000    2.857 
#    0.000    0.714    0.000    0.857    0.000    0.000 
#    0.000    0.000    0.000    0.000    0.000    0.000 
#
# Total GULP energy -156218.023390 kJ/mol
# GULP energy per Si atom -5579.215121 kJ/mol
# Density = 2.240778 g / cm^3
# Si number density = 22.458900 Si / 1000 Ang^3
#
#
#
# Elastic Constant Matrix: (Units=GPa)
#
#
# Indices 1 2 3 4 5 6 
#
# 1 52.4645 29.6530 9.8947 0.0000 -9.5659 0.0000
# 2 29.6530 66.2669 14.1600 0.0000 -12.6234 0.0000
# 3 9.8947 14.1600 50.8423 0.0000 -5.1318 0.0000
# 4 0.0000 0.0000 0.0000 29.9685 0.0000 -4.2123
# 5 -9.5659 -12.6234 -5.1318 0.0000 18.3696 0.0000
# 6 0.0000 0.0000 0.0000 -4.2123 0.0000 19.4198
#
#
#
# Elastic Compliance Matrix: (Units=1/GPa)
#
#
# Indices 1 2 3 4 5 6 
#
# 1 0.026282 -0.010229 -0.001640 0.000000 0.006198 0.000000
# 2 -0.010229 0.022063 -0.003253 0.000000 0.008926 0.000000
# 3 -0.001640 -0.003253 0.021179 0.000000 0.002827 0.000000
# 4 0.000000 0.000000 0.000000 0.034418 0.000000 0.007465
# 5 0.006198 0.008926 0.002827 0.000000 0.064589 0.000000
# 6 0.000000 0.000000 0.000000 0.007465 0.000000 0.053113
#
#
# Mechanical properties :
#
#
# Convention : Reuss Voigt Hill
#
# Bulk Modulus (GPa) = 25.45886 30.77658 28.11772
# Shear Modulus (GPa) = 18.86918 21.27598 20.07258
#
# Velocity S-wave (km/s) = 2.90170 3.08121 2.99280
# Velocity P-wave (km/s) = 4.75257 5.13729 4.94867
#
# Compressibility (1/GPa) = 0.03927905
#
# Stress axis : x y z
#
# Youngs Moduli (GPa) = 38.04945 45.32413 47.21605
#
# Poissons Ratio (x) = 0.46363 0.07745
# Poissons Ratio (y) = 0.38922 0.15360
# Poissons Ratio (z) = 0.06241 0.14744
#
# Static dielectric constant tensor:
#      x y z
#    x 1.925680 0.000000 0.031210 
#    y 0.000000 1.870120 0.000000 
#    z 0.031210 0.000000 1.802030 
# 
# From -- ./inp_files/79877.got.cif
#   From: 2010.05.17/outbox.cif.g08.bks.cpg/sg13_40_cif.got.tgz:79877.got - 2010.06.03 16:44:36.
