data_PCOD9227236
_publ_section_title
;
Structure prediction by ZEFSAII (Michael W. Deem and Ramdas Pophale) SiO2 
 PCOD9227236
Probable space group: P 2/C
;
_chemical_formula_sum "Si O2"
_cell_formula_units_Z 28
_cell_length_a 20.868539
_cell_length_b 14.652473
_cell_length_c 8.734261
_cell_angle_alpha 90.000000
_cell_angle_beta 148.761049
_cell_angle_gamma 90.000000
_cell_volume 1385.060283
_symmetry_space_group_name_H-M "P 2/C"
_symmetry_group_IT_number 13
_symmetry_cell_setting 'monoclinic'
loop_
_space_group_symop_operation_xyz
x,y,z
-x,y,1/2-z
-x,-y,-z
x,-y,1/2+z
loop_
_atom_site_type_symbol
_atom_site_label
_atom_site_fract_x
_atom_site_fract_y
_atom_site_fract_z
Si Si1 0.296409 0.822218 0.109713
Si Si2 0.908771 0.959346 0.689724
Si Si3 0.637114 0.453193 0.112764
Si Si4 0.427994 0.884951 0.778433
Si Si5 0.563649 0.685425 0.712641
Si Si6 0.309936 0.368444 0.587968
Si Si7 0.677488 0.938581 0.615660
O O1 0.320930 0.849532 0.985047
O O2 0.189835 0.888290 0.950037
O O3 0.427675 0.856228 0.453692
O O4 0.240963 0.720334 0.008679
O O5 0.819105 0.038859 0.444815
O O6 0.000000 0.919254 0.750000
O O7 0.000000 0.000000 0.000000
O O8 0.637273 0.391969 0.269301
O O9 0.680196 0.550562 0.268000
O O10 0.500000 0.463550 0.750000
O O11 0.713684 0.408828 0.128948
O O12 0.627200 0.971723 0.923871
O O13 0.369008 0.783188 0.641821
O O14 0.403541 0.917207 0.901667
O O15 0.500000 0.669087 0.750000
O O16 0.443647 0.683349 0.356684
#
# Coordination Sequence:
#
# PCOD9227236 Si02
#       7
#     4   4   4   4   4   4   4
#     4  11  24  38  62  91 130 160 209 254 303 376
#     4  12  25  44  63  83 116 163 217 257 300 355
#     4  10  18  34  53  78 120 171 200 235 296 364
#     4  11  25  35  57  92 131 163 201 246 318 379
#     4  10  20  32  49  77 121 165 204 238 281 372
#     4  10  20  34  53  84 116 161 202 240 297 358
#     4  12  23  41  59  87 125 167 199 252 315 368
#
# _framework density 20.215727000000001
#
# number of rings (size 3 to 8) (size 9 to 14) (size 15 to 20)
#    0.000    1.143    2.857    4.714    6.000    2.286 
#    0.000    0.000    0.000    0.000    0.000    1.000 
#    0.000    0.000    0.000    0.000    0.000    0.000 
#
# Total GULP energy -155891.729047 kJ/mol
# GULP energy per Si atom -5567.561752 kJ/mol
# Density = 2.016971 g / cm^3
# Si number density = 20.215727 Si / 1000 Ang^3
#
#
#
# Elastic Constant Matrix: (Units=GPa)
#
#
# Indices 1 2 3 4 5 6 
#
# 1 101.3148 38.7882 27.8755 0.0000 -20.5708 0.0000
# 2 38.7882 142.1479 36.2741 0.0000 -27.4281 0.0000
# 3 27.8755 36.2741 79.3320 0.0000 -4.2588 0.0000
# 4 0.0000 0.0000 0.0000 16.5560 0.0000 -10.8819
# 5 -20.5708 -27.4281 -4.2588 0.0000 30.4711 0.0000
# 6 0.0000 0.0000 0.0000 -10.8819 0.0000 28.7304
#
#
#
# Elastic Compliance Matrix: (Units=1/GPa)
#
#
# Indices 1 2 3 4 5 6 
#
# 1 0.012733 -0.001220 -0.003541 0.000000 0.007003 0.000000
# 2 -0.001220 0.009724 -0.003619 0.000000 0.007423 0.000000
# 3 -0.003541 -0.003619 0.015316 0.000000 -0.003507 0.000000
# 4 0.000000 0.000000 0.000000 0.080422 0.000000 0.030461
# 5 0.007003 0.007423 -0.003507 0.000000 0.043738 0.000000
# 6 0.000000 0.000000 0.000000 0.030461 0.000000 0.046344
#
#
# Mechanical properties :
#
#
# Convention : Reuss Voigt Hill
#
# Bulk Modulus (GPa) = 47.58680 58.74116 53.16398
# Shear Modulus (GPa) = 21.54808 29.80863 25.67836
#
# Velocity S-wave (km/s) = 3.26836 3.84412 3.56788
# Velocity P-wave (km/s) = 6.15090 6.98737 6.58243
#
# Compressibility (1/GPa) = 0.02101423
#
# Stress axis : x y z
#
# Youngs Moduli (GPa) = 78.53438 102.84219 65.29208
#
# Poissons Ratio (x) = 0.12544 0.23117
# Poissons Ratio (y) = 0.09579 0.23629
# Poissons Ratio (z) = 0.27805 0.37218
#
# Static dielectric constant tensor:
#      x y z
#    x 1.757970 0.000000 -0.046540 
#    y 0.000000 1.929640 0.000000 
#    z -0.046540 0.000000 1.782610 
# 
# From -- ./inp_files/21990.got.cif
#   From: 2010.05.17/outbox.cif.g08.bks.cpg/sg13_11_cif.got.tgz:21990.got - 2010.06.03 16:44:36.
