data_PCOD9227929
_publ_section_title
;
Structure prediction by ZEFSAII (Michael W. Deem and Ramdas Pophale) SiO2 
 PCOD9227929
Probable space group: P 2/C
;
_chemical_formula_sum "Si O2"
_cell_formula_units_Z 32
_cell_length_a 12.751474
_cell_length_b 27.883930
_cell_length_c 5.325711
_cell_angle_alpha 90.000000
_cell_angle_beta 86.568105
_cell_angle_gamma 90.000000
_cell_volume 1890.220339
_symmetry_space_group_name_H-M "P 2/C"
_symmetry_group_IT_number 13
_symmetry_cell_setting 'monoclinic'
loop_
_space_group_symop_operation_xyz
x,y,z
-x,y,1/2-z
-x,-y,-z
x,-y,1/2+z
loop_
_atom_site_type_symbol
_atom_site_label
_atom_site_fract_x
_atom_site_fract_y
_atom_site_fract_z
Si Si1 0.256749 0.282816 0.814883
Si Si2 0.119293 0.519489 0.447861
Si Si3 0.128002 0.972116 0.736804
Si Si4 0.750915 0.602902 0.208111
Si Si5 0.619939 0.599763 0.726223
Si Si6 0.871742 0.861336 0.765765
Si Si7 0.617404 0.715655 0.699584
Si Si8 0.874323 0.193187 0.764514
O O1 0.231795 0.339685 0.799599
O O2 0.338022 0.271965 0.578931
O O3 0.160940 0.247549 0.774906
O O4 0.307335 0.271802 0.078368
O O5 0.166916 0.511805 0.715816
O O6 0.141660 0.573237 0.351469
O O7 0.000000 0.500000 0.500000
O O8 0.160767 0.916732 0.750535
O O9 0.000000 0.972131 0.750000
O O10 0.161501 0.997544 0.474484
O O11 0.690416 0.587720 0.471632
O O12 0.676964 0.590273 0.981814
O O13 0.500000 0.580843 0.750000
O O14 0.611841 0.657687 0.709141
O O15 0.837368 0.829846 0.531962
O O16 0.000000 0.861016 0.750000
O O17 0.836963 0.838147 0.032744
O O18 0.500000 0.734685 0.750000
O O19 0.000000 0.191032 0.750000
#
# Coordination Sequence:
#
# PCOD9227929 Si02
#       8
#     4   4   4   4   4   4   4   4
#     4  10  19  31  49  73  98 124 162 198 230 278
#     4  10  21  38  57  73  93 123 160 193 242 289
#     4   9  15  23  37  58  79 104 155 215 249 271
#     4  10  19  33  54  75  98 123 156 199 234 278
#     4   9  17  30  52  79 102 124 147 182 235 289
#     4   9  17  28  42  56  84 127 165 199 242 283
#     4   9  17  30  49  73  98 121 152 194 241 286
#     4  10  19  31  43  61  93 133 168 194 228 277
#
# _framework density 16.929241999999999
#
# number of rings (size 3 to 8) (size 9 to 14) (size 15 to 20)
#    0.000    2.500    0.000    3.000    0.000    6.000 
#    2.250    0.000    5.500    7.500    0.000    0.000 
#    0.000    0.000    0.000    0.000    0.000  157.500 
#
# Total GULP energy -178143.355915 kJ/mol
# GULP energy per Si atom -5566.979872 kJ/mol
# Density = 1.689071 g / cm^3
# Si number density = 16.929242 Si / 1000 Ang^3
#
#
#
# Elastic Constant Matrix: (Units=GPa)
#
#
# Indices 1 2 3 4 5 6 
#
# 1 30.2772 32.1174 22.2275 0.0000 2.7164 0.0000
# 2 32.1174 84.8264 45.4901 0.0000 1.0461 0.0000
# 3 22.2275 45.4901 138.9876 0.0000 1.2591 0.0000
# 4 0.0000 0.0000 0.0000 20.4177 0.0000 2.2455
# 5 2.7164 1.0461 1.2591 0.0000 12.0611 0.0000
# 6 0.0000 0.0000 0.0000 2.2455 0.0000 1.0145
#
#
#
# Elastic Compliance Matrix: (Units=1/GPa)
#
#
# Indices 1 2 3 4 5 6 
#
# 1 0.057264 -0.020242 -0.002434 0.000000 -0.010888 0.000000
# 2 -0.020242 0.021461 -0.003815 0.000000 0.003096 0.000000
# 3 -0.002434 -0.003815 0.008833 0.000000 -0.000043 0.000000
# 4 0.000000 0.000000 0.000000 0.064736 0.000000 -0.143291
# 5 -0.010888 0.003096 -0.000043 0.000000 0.085100 0.000000
# 6 0.000000 0.000000 0.000000 -0.143291 0.000000 1.302886
#
#
# Mechanical properties :
#
#
# Convention : Reuss Voigt Hill
#
# Bulk Modulus (GPa) = 28.92186 50.41792 39.66989
# Shear Modulus (GPa) = 3.11568 16.98240 10.04904
#
# Velocity S-wave (km/s) = 1.35809 3.17067 2.43901
# Velocity P-wave (km/s) = 4.42496 6.57651 5.60494
#
# Compressibility (1/GPa) = 0.03457593
#
# Stress axis : x y z
#
# Youngs Moduli (GPa) = 17.46286 46.59709 113.21014
#
# Poissons Ratio (x) = 0.94322 0.27557
# Poissons Ratio (y) = 0.35349 0.43188
# Poissons Ratio (z) = 0.04251 0.17776
#
# Static dielectric constant tensor:
#      x y z
#    x 1.749130 0.000000 0.112670 
#    y 0.000000 1.574840 0.000000 
#    z 0.112670 0.000000 1.676010 
# 
# From -- ./inp_files/4369.got.cif
#   From: 2010.05.17/outbox.cif.g08.bks.cpg/sg13_3_cif.got.tgz:4369.got - 2010.06.03 16:44:36.
