data_PCOD9227654
_publ_section_title
;
Structure prediction by ZEFSAII (Michael W. Deem and Ramdas Pophale) SiO2 
 PCOD9227654
Probable space group: P 2/C
;
_chemical_formula_sum "Si O2"
_cell_formula_units_Z 24
_cell_length_a 7.561333
_cell_length_b 8.911811
_cell_length_c 17.966763
_cell_angle_alpha 90.000000
_cell_angle_beta 70.137971
_cell_angle_gamma 90.000000
_cell_volume 1138.673473
_symmetry_space_group_name_H-M "P 2/C"
_symmetry_group_IT_number 13
_symmetry_cell_setting 'monoclinic'
loop_
_space_group_symop_operation_xyz
x,y,z
-x,y,1/2-z
-x,-y,-z
x,-y,1/2+z
loop_
_atom_site_type_symbol
_atom_site_label
_atom_site_fract_x
_atom_site_fract_y
_atom_site_fract_z
Si Si1 0.496187 0.443611 0.338912
Si Si2 0.879501 0.612088 0.065067
Si Si3 0.602592 0.107308 0.158089
Si Si4 0.889217 0.472265 0.840616
Si Si5 0.980188 0.823955 0.840441
Si Si6 0.198707 0.072221 0.994922
O O1 0.500000 0.464263 0.250000
O O2 0.302985 0.518262 0.388640
O O3 0.497990 0.263724 0.349914
O O4 0.668394 0.523271 0.356001
O O5 0.813538 0.759048 0.033142
O O6 0.021716 0.640981 0.112921
O O7 0.000000 0.500000 0.000000
O O8 0.500000 0.049701 0.250000
O O9 0.813858 0.148083 0.154573
O O10 0.639046 0.008392 0.077971
O O11 0.000000 0.439132 0.750000
O O12 0.940156 0.645686 0.852506
O O13 0.000000 0.861271 0.750000
O O14 0.824151 0.913258 0.911794
O O15 0.000000 0.000000 0.000000
#
# Coordination Sequence:
#
# PCOD9227654 Si02
#       6
#     4   4   4   4   4   4
#     4  11  21  39  70  96 125 173 219 264 324 389
#     4  12  22  41  64  92 131 162 213 278 322 374
#     4  10  19  38  62  95 128 175 209 260 333 390
#     4  11  20  38  67  98 122 165 221 269 326 382
#     4  10  18  37  64  88 120 167 218 262 317 387
#     4  10  22  40  64  88 130 178 207 261 336 383
#
# _framework density 21.077158000000001
#
# number of rings (size 3 to 8) (size 9 to 14) (size 15 to 20)
#    0.000    1.333    5.000    4.000    0.000    1.333 
#    0.000    6.667    7.333    0.000    0.000    0.000 
#    0.000    0.000    0.000    0.000    0.000    0.000 
#
# Total GULP energy -133821.565404 kJ/mol
# GULP energy per Si atom -5575.898558 kJ/mol
# Density = 2.102919 g / cm^3
# Si number density = 21.077158 Si / 1000 Ang^3
#
#
#
# Elastic Constant Matrix: (Units=GPa)
#
#
# Indices 1 2 3 4 5 6 
#
# 1 104.3368 1.5850 33.1540 0.0000 -13.3687 0.0000
# 2 1.5850 29.0838 44.7444 0.0000 -15.5309 0.0000
# 3 33.1540 44.7444 152.8206 0.0000 -21.3359 0.0000
# 4 0.0000 0.0000 0.0000 70.2024 0.0000 -49.0279
# 5 -13.3687 -15.5309 -21.3359 0.0000 40.8236 0.0000
# 6 0.0000 0.0000 0.0000 -49.0279 0.0000 75.7230
#
#
#
# Elastic Compliance Matrix: (Units=1/GPa)
#
#
# Indices 1 2 3 4 5 6 
#
# 1 0.011437 0.008567 -0.004327 0.000000 0.004743 0.000000
# 2 0.008567 0.079381 -0.022105 0.000000 0.021452 0.000000
# 3 -0.004327 -0.022105 0.013573 0.000000 -0.002733 0.000000
# 4 0.000000 0.000000 0.000000 0.026002 0.000000 0.016835
# 5 0.004743 0.021452 -0.002733 0.000000 0.032782 0.000000
# 6 0.000000 0.000000 0.000000 0.016835 0.000000 0.024106
#
#
# Mechanical properties :
#
#
# Convention : Reuss Voigt Hill
#
# Bulk Modulus (GPa) = 14.56474 49.46756 32.01615
# Shear Modulus (GPa) = 20.33358 51.13365 35.73362
#
# Velocity S-wave (km/s) = 3.10937 4.93081 4.12196
# Velocity P-wave (km/s) = 4.45153 7.47916 6.15443
#
# Compressibility (1/GPa) = 0.06865897
#
# Stress axis : x y z
#
# Youngs Moduli (GPa) = 87.43566 12.59754 73.67500
#
# Poissons Ratio (x) = -0.10792 0.31882
# Poissons Ratio (y) = -0.74906 1.62862
# Poissons Ratio (z) = 0.37837 0.27847
#
# Static dielectric constant tensor:
#      x y z
#    x 1.840710 0.000000 0.160660 
#    y 0.000000 1.713250 0.000000 
#    z 0.160660 0.000000 2.043660 
# 
# From -- ./inp_files/63291.got.cif
#   From: 2010.05.17/outbox.cif.g08.bks.cpg/sg13_32_cif.got.tgz:63291.got - 2010.06.03 16:44:36.
