data_PCOD9227167
_publ_section_title
;
Structure prediction by ZEFSAII (Michael W. Deem and Ramdas Pophale) SiO2 
 PCOD9227167
Probable space group: P 2/C
;
_chemical_formula_sum "Si O2"
_cell_formula_units_Z 28
_cell_length_a 5.035105
_cell_length_b 8.445650
_cell_length_c 28.778937
_cell_angle_alpha 90.000000
_cell_angle_beta 81.579312
_cell_angle_gamma 90.000000
_cell_volume 1210.623327
_symmetry_space_group_name_H-M "P 2/C"
_symmetry_group_IT_number 13
_symmetry_cell_setting 'monoclinic'
loop_
_space_group_symop_operation_xyz
x,y,z
-x,y,1/2-z
-x,-y,-z
x,-y,1/2+z
loop_
_atom_site_type_symbol
_atom_site_label
_atom_site_fract_x
_atom_site_fract_y
_atom_site_fract_z
Si Si1 0.450870 0.198879 0.353748
Si Si2 0.172302 0.108612 0.030492
Si Si3 0.413013 0.299088 0.955152
Si Si4 0.783834 0.394333 0.064897
Si Si5 0.967402 0.669525 0.805606
Si Si6 0.113582 0.391948 0.627722
Si Si7 0.916832 0.911420 0.108944
O O1 0.449323 0.298917 0.402173
O O2 0.747967 0.198874 0.325937
O O3 0.249144 0.286379 0.322805
O O4 0.304907 0.034235 0.368366
O O5 0.992067 0.264186 0.043124
O O6 0.438222 0.182195 0.999044
O O7 0.160974 0.010712 0.078895
O O8 0.000000 0.000000 0.000000
O O9 0.298897 0.473599 0.970009
O O10 0.653017 0.343446 0.914410
O O11 0.210733 0.197265 0.928433
O O12 0.917552 0.500954 0.101521
O O13 0.843126 0.506059 0.829689
O O14 0.000000 0.660540 0.750000
O O15 0.999771 0.219867 0.644146
#
# Coordination Sequence:
#
# PCOD9227167 Si02
#       7
#     4   4   4   4   4   4   4
#     4  10  21  40  65  92 121 162 199 252 314 374
#     4   9  18  33  52  82 119 166 207 262 299 360
#     4  10  18  33  57  82 118 163 207 254 301 366
#     4   9  18  35  53  82 121 157 211 248 302 366
#     4  11  23  42  68  92 121 157 209 256 313 383
#     4  10  21  36  59  88 116 165 203 256 314 375
#     4   9  21  37  57  85 124 159 203 251 311 371
#
# _framework density 23.128581000000001
#
# number of rings (size 3 to 8) (size 9 to 14) (size 15 to 20)
#    0.000    2.286    1.429    0.857    2.000    1.143 
#    0.000    0.714    3.143    0.000    0.000    0.000 
#    0.000    0.000    0.000    0.000    0.000    0.000 
#
# Total GULP energy -156369.178945 kJ/mol
# GULP energy per Si atom -5584.613534 kJ/mol
# Density = 2.307594 g / cm^3
# Si number density = 23.128581 Si / 1000 Ang^3
#
#
#
# Elastic Constant Matrix: (Units=GPa)
#
#
# Indices 1 2 3 4 5 6 
#
# 1 55.0602 1.7349 15.8371 0.0000 -1.6421 0.0000
# 2 1.7349 153.4812 39.5061 0.0000 2.3256 0.0000
# 3 15.8371 39.5061 100.9432 0.0000 -2.7872 0.0000
# 4 0.0000 0.0000 0.0000 19.7031 0.0000 -1.6684
# 5 -1.6421 2.3256 -2.7872 0.0000 31.7763 0.0000
# 6 0.0000 0.0000 0.0000 -1.6684 0.0000 23.4624
#
#
#
# Elastic Compliance Matrix: (Units=1/GPa)
#
#
# Indices 1 2 3 4 5 6 
#
# 1 0.019086 0.000601 -0.003211 0.000000 0.000661 0.000000
# 2 0.000601 0.007284 -0.002966 0.000000 -0.000762 0.000000
# 3 -0.003211 -0.002966 0.011601 0.000000 0.001069 0.000000
# 4 0.000000 0.000000 0.000000 0.051061 0.000000 0.003631
# 5 0.000661 -0.000762 0.001069 0.000000 0.031654 0.000000
# 6 0.000000 0.000000 0.000000 0.003631 0.000000 0.042880
#
#
# Mechanical properties :
#
#
# Convention : Reuss Voigt Hill
#
# Bulk Modulus (GPa) = 37.28866 47.07122 42.17994
# Shear Modulus (GPa) = 27.22466 31.81545 29.52006
#
# Velocity S-wave (km/s) = 3.43461 3.71292 3.57647
# Velocity P-wave (km/s) = 5.64678 6.22713 5.94404
#
# Compressibility (1/GPa) = 0.02681781
#
# Stress axis : x y z
#
# Youngs Moduli (GPa) = 52.39327 137.29402 86.20180
#
# Poissons Ratio (x) = -0.08249 0.27683
# Poissons Ratio (y) = -0.03148 0.25567
# Poissons Ratio (z) = 0.16826 0.40720
#
# Static dielectric constant tensor:
#      x y z
#    x 1.948960 0.000000 -0.018710 
#    y 0.000000 1.921950 0.000000 
#    z -0.018710 0.000000 1.890080 
# 
# From -- ./inp_files/94986.got.cif
#   From: 2010.05.17/outbox.cif.g08.bks.cpg/sg13_48_cif.got.tgz:94986.got - 2010.06.03 16:44:36.
