data_PCOD9227323
_publ_section_title
;
Structure prediction by ZEFSAII (Michael W. Deem and Ramdas Pophale) SiO2 
 PCOD9227323
Probable space group: P 2/C
;
_chemical_formula_sum "Si O2"
_cell_formula_units_Z 24
_cell_length_a 9.812640
_cell_length_b 13.710641
_cell_length_c 21.995685
_cell_angle_alpha 90.000000
_cell_angle_beta 155.486427
_cell_angle_gamma 90.000000
_cell_volume 1227.817327
_symmetry_space_group_name_H-M "P 2/C"
_symmetry_group_IT_number 13
_symmetry_cell_setting 'monoclinic'
loop_
_space_group_symop_operation_xyz
x,y,z
-x,y,1/2-z
-x,-y,-z
x,-y,1/2+z
loop_
_atom_site_type_symbol
_atom_site_label
_atom_site_fract_x
_atom_site_fract_y
_atom_site_fract_z
Si Si1 0.870040 0.396340 0.923457
Si Si2 0.680299 0.398072 0.078572
Si Si3 0.321687 0.706435 0.036554
Si Si4 0.055947 0.291298 0.879171
Si Si5 0.891218 0.086176 0.637370
Si Si6 0.834856 0.872104 0.622791
O O1 0.500000 0.412150 0.750000
O O2 0.153961 0.315708 0.532663
O O3 0.061391 0.350619 0.944065
O O4 0.000000 0.500000 0.000000
O O5 0.000000 0.401654 0.250000
O O6 0.500000 0.500000 0.000000
O O7 0.804124 0.373039 0.061811
O O8 0.392398 0.321071 0.981205
O O9 0.713368 0.687209 0.204846
O O10 0.235728 0.805757 0.964796
O O11 0.019149 0.173987 0.871172
O O12 0.502346 0.093100 0.483934
O O13 0.000000 0.113536 0.750000
O O14 0.003638 0.975086 0.672109
O O15 0.000000 0.824162 0.750000
#
# Coordination Sequence:
#
# PCOD9227323 Si02
#       6
#     4   4   4   4   4   4
#     4  10  24  42  61  82 115 159 200 241 298 356
#     4  12  24  37  58  87 114 145 193 250 298 353
#     4  11  21  39  59  86 118 155 197 243 293 350
#     4  11  21  39  61  85 115 156 198 241 297 349
#     4  10  18  34  59  88 121 157 188 243 297 349
#     4  10  20  33  57  92 124 149 194 241 295 350
#
# _framework density 19.546883000000001
#
# number of rings (size 3 to 8) (size 9 to 14) (size 15 to 20)
#    0.000    1.333    3.333    3.000    0.000    4.000 
#    0.000    0.833    0.000    0.000    0.000    0.000 
#    0.000    0.000    0.000    0.000    0.000    0.000 
#
# Total GULP energy -133635.646832 kJ/mol
# GULP energy per Si atom -5568.151951 kJ/mol
# Density = 1.950239 g / cm^3
# Si number density = 19.546883 Si / 1000 Ang^3
#
#
#
# Elastic Constant Matrix: (Units=GPa)
#
#
# Indices 1 2 3 4 5 6 
#
# 1 71.2172 23.9182 29.8361 0.0000 -23.7194 0.0000
# 2 23.9182 126.4958 25.3216 0.0000 -24.3829 0.0000
# 3 29.8361 25.3216 105.5381 0.0000 -21.2211 0.0000
# 4 0.0000 0.0000 0.0000 27.9331 0.0000 -5.3033
# 5 -23.7194 -24.3829 -21.2211 0.0000 25.7161 0.0000
# 6 0.0000 0.0000 0.0000 -5.3033 0.0000 18.0853
#
#
#
# Elastic Compliance Matrix: (Units=1/GPa)
#
#
# Indices 1 2 3 4 5 6 
#
# 1 0.020774 -0.000166 -0.002412 0.000000 0.017014 0.000000
# 2 -0.000166 0.009703 -0.000554 0.000000 0.008590 0.000000
# 3 -0.002412 -0.000554 0.011674 0.000000 0.006883 0.000000
# 4 0.000000 0.000000 0.000000 0.037910 0.000000 0.011117
# 5 0.017014 0.008590 0.006883 0.000000 0.068404 0.000000
# 6 0.000000 0.000000 0.000000 0.011117 0.000000 0.058553
#
#
# Mechanical properties :
#
#
# Convention : Reuss Voigt Hill
#
# Bulk Modulus (GPa) = 27.86435 51.26698 39.56567
# Shear Modulus (GPa) = 22.19796 29.29194 25.74495
#
# Velocity S-wave (km/s) = 3.37356 3.87531 3.63311
# Velocity P-wave (km/s) = 5.42777 6.80505 6.15505
#
# Compressibility (1/GPa) = 0.03588815
#
# Stress axis : x y z
#
# Youngs Moduli (GPa) = 48.13647 103.05566 85.65889
#
# Poissons Ratio (x) = 0.01708 0.20663
# Poissons Ratio (y) = 0.00798 0.04745
# Poissons Ratio (z) = 0.11612 0.05709
#
# Static dielectric constant tensor:
#      x y z
#    x 1.655750 0.000000 -0.000030 
#    y 0.000000 1.821190 0.000000 
#    z -0.000030 0.000000 1.681120 
# 
# From -- ./inp_files/86651.got.cif
#   From: 2010.05.17/outbox.cif.g08.bks.cpg/sg13_44_cif.got.tgz:86651.got - 2010.06.03 16:44:36.
