data_PCOD9227537
_publ_section_title
;
Structure prediction by ZEFSAII (Michael W. Deem and Ramdas Pophale) SiO2 
 PCOD9227537
Probable space group: P 2/C
;
_chemical_formula_sum "Si O2"
_cell_formula_units_Z 26
_cell_length_a 8.811602
_cell_length_b 10.746497
_cell_length_c 13.305112
_cell_angle_alpha 90.000000
_cell_angle_beta 94.041881
_cell_angle_gamma 90.000000
_cell_volume 1256.778678
_symmetry_space_group_name_H-M "P 2/C"
_symmetry_group_IT_number 13
_symmetry_cell_setting 'monoclinic'
loop_
_space_group_symop_operation_xyz
x,y,z
-x,y,1/2-z
-x,-y,-z
x,-y,1/2+z
loop_
_atom_site_type_symbol
_atom_site_label
_atom_site_fract_x
_atom_site_fract_y
_atom_site_fract_z
Si Si1 0.000000 0.419975 0.750000
Si Si2 0.733906 0.851519 0.814738
Si Si3 0.218338 0.186146 0.412079
Si Si4 0.947502 0.364730 0.397902
Si Si5 0.171592 0.267851 0.906570
Si Si6 0.016852 0.973886 0.129750
Si Si7 0.469094 0.852797 0.509489
O O1 0.058064 0.508534 0.663378
O O2 0.136788 0.337426 0.801284
O O3 0.715825 0.854654 0.694610
O O4 0.855661 0.741317 0.833726
O O5 0.595039 0.824763 0.881566
O O6 0.812460 0.973517 0.868370
O O7 0.361870 0.202266 0.491113
O O8 0.118564 0.311017 0.408203
O O9 0.099258 0.073223 0.425589
O O10 0.868622 0.360201 0.503199
O O11 0.042959 0.160231 0.904307
O O12 0.335722 0.203150 0.931916
O O13 0.000000 0.980402 0.250000
O O14 0.500000 0.000000 0.500000
#
# Coordination Sequence:
#
# PCOD9227537 Si02
#       7
#     2   4   4   4   4   4   4
#     4  12  22  44  60  84 118 156 216 262 280 338
#     4   9  19  34  60  88 115 158 195 238 298 354
#     4  10  18  36  59  84 123 153 189 241 304 365
#     4  10  21  38  65  85 107 156 214 249 287 344
#     4  11  23  36  61  90 117 157 197 253 304 346
#     4   9  17  33  56  89 117 151 193 246 301 354
#     4  11  22  33  54  94 128 149 184 241 310 380
#
# _framework density 20.687811
#
# number of rings (size 3 to 8) (size 9 to 14) (size 15 to 20)
#    0.000    1.846    3.846    1.846    2.154    1.846 
#    0.000    0.769    0.000    1.846    0.000    0.000 
#    0.000    0.000    0.000    0.000    0.000    0.000 
#
# Total GULP energy -144949.883171 kJ/mol
# GULP energy per Si atom -5574.995507 kJ/mol
# Density = 2.064072 g / cm^3
# Si number density = 20.687811 Si / 1000 Ang^3
#
#
#
# Elastic Constant Matrix: (Units=GPa)
#
#
# Indices 1 2 3 4 5 6 
#
# 1 111.7481 37.5899 30.7999 0.0000 32.5665 0.0000
# 2 37.5899 85.4816 41.6049 0.0000 16.8901 0.0000
# 3 30.7999 41.6049 66.5857 0.0000 25.1726 0.0000
# 4 0.0000 0.0000 0.0000 37.0098 0.0000 3.3613
# 5 32.5665 16.8901 25.1726 0.0000 29.1145 0.0000
# 6 0.0000 0.0000 0.0000 3.3613 0.0000 14.6142
#
#
#
# Elastic Compliance Matrix: (Units=1/GPa)
#
#
# Indices 1 2 3 4 5 6 
#
# 1 0.014237 -0.004099 0.001630 0.000000 -0.014956 0.000000
# 2 -0.004099 0.018010 -0.010608 0.000000 0.003308 0.000000
# 3 0.001630 -0.010608 0.028605 0.000000 -0.020401 0.000000
# 4 0.000000 0.000000 0.000000 0.027596 0.000000 -0.006347
# 5 -0.014956 0.003308 -0.020401 0.000000 0.066796 0.000000
# 6 0.000000 0.000000 0.000000 -0.006347 0.000000 0.069887
#
#
# Mechanical properties :
#
#
# Convention : Reuss Voigt Hill
#
# Bulk Modulus (GPa) = 28.81996 53.75611 41.28804
# Shear Modulus (GPa) = 19.02214 26.40242 22.71228
#
# Velocity S-wave (km/s) = 3.03559 3.57631 3.31699
# Velocity P-wave (km/s) = 5.12324 6.56462 5.88820
#
# Compressibility (1/GPa) = 0.03469817
#
# Stress axis : x y z
#
# Youngs Moduli (GPa) = 70.24039 55.52412 34.95850
#
# Poissons Ratio (x) = 0.22757 -0.05697
# Poissons Ratio (y) = 0.28788 0.37085
# Poissons Ratio (z) = -0.11447 0.58901
#
# Static dielectric constant tensor:
#      x y z
#    x 1.744900 0.000000 -0.009280 
#    y 0.000000 1.749890 0.000000 
#    z -0.009280 0.000000 1.834570 
# 
# From -- ./inp_files/46648.got.cif
#   From: 2010.05.17/outbox.cif.g08.bks.cpg/sg13_24_cif.got.tgz:46648.got - 2010.06.03 16:44:36.
