data_PCOD9227279
_publ_section_title
;
Structure prediction by ZEFSAII (Michael W. Deem and Ramdas Pophale) SiO2 
 PCOD9227279
Probable space group: P 2/C
;
_chemical_formula_sum "Si O2"
_cell_formula_units_Z 28
_cell_length_a 19.017867
_cell_length_b 11.517976
_cell_length_c 15.820816
_cell_angle_alpha 90.000000
_cell_angle_beta 21.986972
_cell_angle_gamma 90.000000
_cell_volume 1297.471347
_symmetry_space_group_name_H-M "P 2/C"
_symmetry_group_IT_number 13
_symmetry_cell_setting 'monoclinic'
loop_
_space_group_symop_operation_xyz
x,y,z
-x,y,1/2-z
-x,-y,-z
x,-y,1/2+z
loop_
_atom_site_type_symbol
_atom_site_label
_atom_site_fract_x
_atom_site_fract_y
_atom_site_fract_z
Si Si1 0.172123 0.055762 0.003798
Si Si2 0.552536 0.015940 0.040511
Si Si3 0.525941 0.569938 0.368214
Si Si4 0.201408 0.560834 0.289172
Si Si5 0.724957 0.224653 0.344717
Si Si6 0.880320 0.168015 0.622814
Si Si7 0.799264 0.308137 0.444169
O O1 0.349811 0.970205 0.808582
O O2 0.119623 0.095544 0.966131
O O3 0.219428 0.179770 0.994516
O O4 0.000000 0.008441 0.250000
O O5 0.625228 0.890710 0.987741
O O6 0.724112 0.105164 0.854085
O O7 0.500000 0.000000 0.000000
O O8 0.689688 0.523669 0.246863
O O9 0.356033 0.479443 0.547813
O O10 0.426660 0.684798 0.521400
O O11 0.633735 0.615900 0.166552
O O12 0.179238 0.698609 0.320906
O O13 0.000000 0.500000 0.500000
O O14 0.801671 0.291230 0.341531
O O15 0.901367 0.180373 0.093174
O O16 0.000000 0.354976 0.250000
#
# Coordination Sequence:
#
# PCOD9227279 Si02
#       7
#     4   4   4   4   4   4   4
#     4  10  18  34  57  86 125 159 205 264 319 372
#     4  10  22  35  54  86 132 162 203 260 324 394
#     4  11  22  35  58  94 123 160 206 265 327 372
#     4  11  22  38  59  84 129 165 206 259 319 386
#     4  12  20  35  62  93 121 163 208 262 329 380
#     4  11  20  37  56  88 127 165 203 259 319 379
#     4  11  20  35  61  93 129 150 203 273 322 369
#
# _framework density 21.580438000000001
#
# number of rings (size 3 to 8) (size 9 to 14) (size 15 to 20)
#    0.000    1.143    7.143    1.714    0.000    0.000 
#    0.000    0.000    0.000    0.857    7.429    2.000 
#    0.000    0.000    0.000    0.000    0.000    0.000 
#
# Total GULP energy -156230.355906 kJ/mol
# GULP energy per Si atom -5579.655568 kJ/mol
# Density = 2.153132 g / cm^3
# Si number density = 21.580438 Si / 1000 Ang^3
#
#
#
# Elastic Constant Matrix: (Units=GPa)
#
#
# Indices 1 2 3 4 5 6 
#
# 1 49.3179 13.8240 28.4007 0.0000 -18.6059 0.0000
# 2 13.8240 65.9174 54.5873 0.0000 -2.9453 0.0000
# 3 28.4007 54.5873 229.8031 0.0000 -9.5557 0.0000
# 4 0.0000 0.0000 0.0000 52.5439 0.0000 -0.7961
# 5 -18.6059 -2.9453 -9.5557 0.0000 33.3003 0.0000
# 6 0.0000 0.0000 0.0000 -0.7961 0.0000 15.9016
#
#
#
# Elastic Compliance Matrix: (Units=1/GPa)
#
#
# Indices 1 2 3 4 5 6 
#
# 1 0.027990 -0.003553 -0.002002 0.000000 0.014750 0.000000
# 2 -0.003553 0.019341 -0.004217 0.000000 -0.001485 0.000000
# 3 -0.002002 -0.004217 0.005606 0.000000 0.000117 0.000000
# 4 0.000000 0.000000 0.000000 0.019046 0.000000 0.000953
# 5 0.014750 -0.001485 0.000117 0.000000 0.038173 0.000000
# 6 0.000000 0.000000 0.000000 0.000953 0.000000 0.062934
#
#
# Mechanical properties :
#
#
# Convention : Reuss Voigt Hill
#
# Bulk Modulus (GPa) = 29.94629 59.85139 44.89884
# Shear Modulus (GPa) = 24.53792 36.89759 30.71776
#
# Velocity S-wave (km/s) = 3.37567 4.13942 3.77690
# Velocity P-wave (km/s) = 5.39446 7.11623 6.31431
#
# Compressibility (1/GPa) = 0.03339312
#
# Stress axis : x y z
#
# Youngs Moduli (GPa) = 35.72684 51.70237 178.39559
#
# Poissons Ratio (x) = 0.18371 0.35712
# Poissons Ratio (y) = 0.12694 0.75229
# Poissons Ratio (z) = 0.07152 0.21803
#
# Static dielectric constant tensor:
#      x y z
#    x 1.414890 0.000000 0.024420 
#    y 0.000000 1.824010 0.000000 
#    z 0.024420 0.000000 1.869100 
# 
# From -- ./inp_files/70680.got.cif
#   From: 2010.05.17/outbox.cif.g08.bks.cpg/sg13_36_cif.got.tgz:70680.got - 2010.06.03 16:44:36.
