data_PCOD9227099
_publ_section_title
;
Structure prediction by ZEFSAII (Michael W. Deem and Ramdas Pophale) SiO2 
 PCOD9227099
Probable space group: P 2/C
;
_chemical_formula_sum "Si O2"
_cell_formula_units_Z 28
_cell_length_a 7.137795
_cell_length_b 5.406346
_cell_length_c 28.793131
_cell_angle_alpha 90.000000
_cell_angle_beta 75.417826
_cell_angle_gamma 90.000000
_cell_volume 1075.317789
_symmetry_space_group_name_H-M "P 2/C"
_symmetry_group_IT_number 13
_symmetry_cell_setting 'monoclinic'
loop_
_space_group_symop_operation_xyz
x,y,z
-x,y,1/2-z
-x,-y,-z
x,-y,1/2+z
loop_
_atom_site_type_symbol
_atom_site_label
_atom_site_fract_x
_atom_site_fract_y
_atom_site_fract_z
Si Si1 0.769666 0.923413 0.359944
Si Si2 0.859323 0.434496 0.389928
Si Si3 0.778695 0.062307 0.457387
Si Si4 0.746308 0.946816 0.563599
Si Si5 0.708586 0.930663 0.761145
Si Si6 0.269099 0.552885 0.387647
Si Si7 0.276820 0.426436 0.777591
O O1 0.814301 0.631508 0.352633
O O2 0.678529 0.005810 0.317098
O O3 0.903895 0.168640 0.361863
O O4 0.704822 0.900890 0.418562
O O5 0.726389 0.334990 0.440504
O O6 0.037800 0.550185 0.406236
O O7 0.016663 0.059768 0.446566
O O8 0.705918 0.985119 0.511944
O O9 0.663073 0.692956 0.590246
O O10 0.668926 0.182597 0.597169
O O11 0.500000 0.906263 0.750000
O O12 0.815916 0.162193 0.729840
O O13 0.800407 0.665916 0.744098
O O14 0.290022 0.530392 0.331529
O O15 0.500000 0.394138 0.750000
#
# Coordination Sequence:
#
# PCOD9227099 Si02
#       7
#     4   4   4   4   4   4   4
#     4  10  18  33  51  78 112 141 175 220 262 318
#     4   9  18  30  49  76 118 141 168 208 271 312
#     4   8  19  29  51  78 117 149 179 196 265 324
#     4  10  19  29  53  78 114 152 177 205 257 330
#     4  10  21  38  58  77  96 135 196 229 270 315
#     4  11  19  34  51  79 112 143 181 224 262 314
#     4  10  22  39  57  76  99 136 194 234 272 313
#
# _framework density 26.038815
#
# number of rings (size 3 to 8) (size 9 to 14) (size 15 to 20)
#    0.857    1.429    1.429    1.714    2.000    1.714 
#    0.000    4.286    0.000    0.000    0.000   24.000 
#    0.000    0.000    0.000    0.000    0.000    0.000 
#
# Total GULP energy -155975.662902 kJ/mol
# GULP energy per Si atom -5570.559389 kJ/mol
# Density = 2.597955 g / cm^3
# Si number density = 26.038815 Si / 1000 Ang^3
#
#
#
# Elastic Constant Matrix: (Units=GPa)
#
#
# Indices 1 2 3 4 5 6 
#
# 1 62.3621 4.4291 23.7912 0.0000 30.5308 0.0000
# 2 4.4291 209.4206 46.5991 0.0000 7.4775 0.0000
# 3 23.7912 46.5991 172.9519 0.0000 25.5739 0.0000
# 4 0.0000 0.0000 0.0000 37.5699 0.0000 -0.2074
# 5 30.5308 7.4775 25.5739 0.0000 41.5695 0.0000
# 6 0.0000 0.0000 0.0000 -0.2074 0.0000 -1.9656
#
#
#
# Elastic Compliance Matrix: (Units=1/GPa)
#
#
# Indices 1 2 3 4 5 6 
#
# 1 0.025157 0.000307 -0.000883 0.000000 -0.017989 0.000000
# 2 0.000307 0.005084 -0.001368 0.000000 -0.000298 0.000000
# 3 -0.000883 -0.001368 0.006754 0.000000 -0.003260 0.000000
# 4 0.000000 0.000000 0.000000 0.026602 0.000000 -0.002806
# 5 -0.017989 -0.000298 -0.003260 0.000000 0.039327 0.000000
# 6 0.000000 0.000000 0.000000 -0.002806 0.000000 -0.508446
#
#
# Mechanical properties :
#
#
# Convention : Reuss Voigt Hill
#
# Bulk Modulus (GPa) = 30.20579 66.04150 48.12365
# Shear Modulus (GPa) = -12.80087 40.09577 13.64745
#
# Velocity S-wave (km/s) = -2.21963 3.92834 2.29185
# Velocity P-wave (km/s) = 2.24866 6.78186 5.05223
#
# Compressibility (1/GPa) = 0.03310623
#
# Stress axis : x y z
#
# Youngs Moduli (GPa) = 39.74991 196.71115 148.05830
#
# Poissons Ratio (x) = -0.06035 0.13079
# Poissons Ratio (y) = -0.01220 0.20251
# Poissons Ratio (z) = 0.03511 0.26906
#
# Static dielectric constant tensor:
#      x y z
#    x 2.314380 0.000000 -0.246880 
#    y 0.000000 2.256930 0.000000 
#    z -0.246880 0.000000 2.131150 
# 
# From -- ./inp_files/90836.got.cif
#   From: 2010.05.17/outbox.cif.g08.bks.cpg/sg13_46_cif.got.tgz:90836.got - 2010.06.03 16:44:36.
