data_PCOD9227651
_publ_section_title
;
Structure prediction by ZEFSAII (Michael W. Deem and Ramdas Pophale) SiO2 
 PCOD9227651
Probable space group: P 2/C
;
_chemical_formula_sum "Si O2"
_cell_formula_units_Z 28
_cell_length_a 9.245939
_cell_length_b 12.230447
_cell_length_c 12.176382
_cell_angle_alpha 90.000000
_cell_angle_beta 52.688549
_cell_angle_gamma 90.000000
_cell_volume 1095.143901
_symmetry_space_group_name_H-M "P 2/C"
_symmetry_group_IT_number 13
_symmetry_cell_setting 'monoclinic'
loop_
_space_group_symop_operation_xyz
x,y,z
-x,y,1/2-z
-x,-y,-z
x,-y,1/2+z
loop_
_atom_site_type_symbol
_atom_site_label
_atom_site_fract_x
_atom_site_fract_y
_atom_site_fract_z
Si Si1 0.668741 0.647497 0.604379
Si Si2 0.762966 0.390949 0.418257
Si Si3 0.209317 0.968516 0.819777
Si Si4 0.816486 0.804227 0.266851
Si Si5 0.640731 0.593253 0.359916
Si Si6 0.388316 0.887555 0.931585
Si Si7 0.000000 0.812889 0.750000
Si Si8 0.000000 0.500000 0.500000
O O1 0.500000 0.598900 0.750000
O O2 0.645746 0.624736 0.486219
O O3 0.651045 0.776820 0.618434
O O4 0.860136 0.604220 0.553916
O O5 0.726824 0.472862 0.330554
O O6 0.569593 0.392993 0.570847
O O7 0.834427 0.271488 0.353926
O O8 0.903455 0.446426 0.434957
O O9 0.245237 0.963315 0.934130
O O10 0.410046 0.936079 0.676009
O O11 0.071575 0.889289 0.816937
O O12 0.157590 0.094391 0.823834
O O13 0.757275 0.686123 0.246265
O O14 0.665675 0.852852 0.421081
O O15 0.000000 0.783584 0.250000
#
# Coordination Sequence:
#
# PCOD9227651 Si02
#       8
#     4   4   4   4   4   4   2   2
#     4  10  18  37  63  92 130 169 213 273 332 393
#     4  10  22  38  64  92 126 162 217 264 316 394
#     4  11  22  41  66 101 125 169 226 273 332 387
#     4  11  23  42  67  97 137 174 220 273 342 400
#     4   9  22  42  61  92 127 177 207 260 338 395
#     4  10  22  40  68  90 131 176 216 272 333 401
#     4  12  22  36  68 102 118 160 228 276 312 388
#     4  10  22  36  58  98 126 158 216 268 322 380
#
# _framework density 25.567415
#
# number of rings (size 3 to 8) (size 9 to 14) (size 15 to 20)
#    0.000    1.714    2.143    3.000    3.000    0.571 
#    0.000    0.000   18.857    0.000    0.000    0.000 
#    0.000    0.000    0.000    0.000    0.000    0.000 
#
# Total GULP energy -156066.388772 kJ/mol
# GULP energy per Si atom -5573.799599 kJ/mol
# Density = 2.550922 g / cm^3
# Si number density = 25.567415 Si / 1000 Ang^3
#
#
#
# Elastic Constant Matrix: (Units=GPa)
#
#
# Indices 1 2 3 4 5 6 
#
# 1 120.6399 53.5460 15.0473 0.0000 -25.3819 0.0000
# 2 53.5460 140.1675 8.6329 0.0000 -18.0787 0.0000
# 3 15.0473 8.6329 57.8689 0.0000 -23.0275 0.0000
# 4 0.0000 0.0000 0.0000 54.4966 0.0000 -21.3102
# 5 -25.3819 -18.0787 -23.0275 0.0000 41.0503 0.0000
# 6 0.0000 0.0000 0.0000 -21.3102 0.0000 33.2807
#
#
#
# Elastic Compliance Matrix: (Units=1/GPa)
#
#
# Indices 1 2 3 4 5 6 
#
# 1 0.010949 -0.003512 -0.000315 0.000000 0.005046 0.000000
# 2 -0.003512 0.008694 0.000355 0.000000 0.001856 0.000000
# 3 -0.000315 0.000355 0.022264 0.000000 0.012451 0.000000
# 4 0.000000 0.000000 0.000000 0.024479 0.000000 0.015674
# 5 0.005046 0.001856 0.012451 0.000000 0.035282 0.000000
# 6 0.000000 0.000000 0.000000 0.015674 0.000000 0.040084
#
#
# Mechanical properties :
#
#
# Convention : Reuss Voigt Hill
#
# Bulk Modulus (GPa) = 28.60265 52.56984 40.58624
# Shear Modulus (GPa) = 31.18164 41.86219 36.52191
#
# Velocity S-wave (km/s) = 3.49604 4.05078 3.78359
# Velocity P-wave (km/s) = 5.24479 6.51800 5.91575
#
# Compressibility (1/GPa) = 0.03496180
#
# Stress axis : x y z
#
# Youngs Moduli (GPa) = 91.33126 115.02638 44.91584
#
# Poissons Ratio (x) = 0.40402 0.01415
# Poissons Ratio (y) = 0.32080 -0.01594
# Poissons Ratio (z) = 0.02877 -0.04083
#
# Static dielectric constant tensor:
#      x y z
#    x 1.951960 0.000000 -0.042370 
#    y 0.000000 1.864900 0.000000 
#    z -0.042370 0.000000 2.382380 
# 
# From -- ./inp_files/46838.got.cif
#   From: 2010.05.17/outbox.cif.g08.bks.cpg/sg13_24_cif.got.tgz:46838.got - 2010.06.03 16:44:36.
