data_PCOD9227405
_publ_section_title
;
Structure prediction by ZEFSAII (Michael W. Deem and Ramdas Pophale) SiO2 
 PCOD9227405
Probable space group: P 2/C
;
_chemical_formula_sum "Si O2"
_cell_formula_units_Z 32
_cell_length_a 14.188035
_cell_length_b 8.543937
_cell_length_c 20.316663
_cell_angle_alpha 90.000000
_cell_angle_beta 140.422820
_cell_angle_gamma 90.000000
_cell_volume 1569.104605
_symmetry_space_group_name_H-M "P 2/C"
_symmetry_group_IT_number 13
_symmetry_cell_setting 'monoclinic'
loop_
_space_group_symop_operation_xyz
x,y,z
-x,y,1/2-z
-x,-y,-z
x,-y,1/2+z
loop_
_atom_site_type_symbol
_atom_site_label
_atom_site_fract_x
_atom_site_fract_y
_atom_site_fract_z
Si Si1 0.838257 0.121919 0.666810
Si Si2 0.037028 0.707019 0.847068
Si Si3 0.819481 0.684096 0.284663
Si Si4 0.536303 0.630536 0.842931
Si Si5 0.863051 0.637899 0.062709
Si Si6 0.717136 0.664193 0.688167
Si Si7 0.531342 0.738114 0.195286
Si Si8 0.670200 0.153912 0.027969
O O1 0.811027 0.186155 0.724163
O O2 0.861172 0.267154 0.630008
O O3 0.000000 0.037510 0.750000
O O4 0.698382 0.016786 0.572611
O O5 0.106595 0.544122 0.908510
O O6 0.174692 0.821963 0.927639
O O7 0.000000 0.684050 0.750000
O O8 0.875524 0.746693 0.789639
O O9 0.765573 0.519430 0.221809
O O10 0.706097 0.720757 0.280621
O O11 0.989743 0.682480 0.397916
O O12 0.500000 0.683655 0.750000
O O13 0.416692 0.687657 0.832559
O O14 0.529437 0.440300 0.840243
O O15 0.704887 0.672421 0.947735
O O16 0.668365 0.723240 0.588821
O O17 0.500000 0.807270 0.250000
O O18 0.460108 0.823399 0.093984
#
# Coordination Sequence:
#
# PCOD9227405 Si02
#       8
#     4   4   4   4   4   4   4   4
#     4  10  20  34  58  87 114 139 185 234 278 333
#     4   9  16  32  53  84 109 140 181 228 282 330
#     4   9  20  36  58  83 112 146 184 230 279 338
#     4  10  21  37  55  84 115 146 187 235 273 326
#     4  10  18  35  57  80 112 149 180 225 285 329
#     4   9  19  34  57  84 111 140 185 234 279 326
#     4  10  22  39  55  83 116 147 190 232 274 328
#     4  11  20  34  60  83 111 148 182 235 279 323
#
# _framework density 20.393796999999999
#
# number of rings (size 3 to 8) (size 9 to 14) (size 15 to 20)
#    0.000    2.250    1.250    3.750    1.750    1.500 
#    2.250    3.125    0.000    1.500    0.000    0.000 
#    0.000    0.000    0.000    0.000    0.000    0.000 
#
# Total GULP energy -178356.324483 kJ/mol
# GULP energy per Si atom -5573.635140 kJ/mol
# Density = 2.034738 g / cm^3
# Si number density = 20.393797 Si / 1000 Ang^3
#
#
#
# Elastic Constant Matrix: (Units=GPa)
#
#
# Indices 1 2 3 4 5 6 
#
# 1 122.0350 18.0452 62.8011 0.0000 20.4440 0.0000
# 2 18.0452 16.0725 3.4736 0.0000 1.2546 0.0000
# 3 62.8011 3.4736 102.2167 0.0000 22.1287 0.0000
# 4 0.0000 0.0000 0.0000 4.8880 0.0000 6.8497
# 5 20.4440 1.2546 22.1287 0.0000 28.1957 0.0000
# 6 0.0000 0.0000 0.0000 6.8497 0.0000 1.3076
#
#
#
# Elastic Compliance Matrix: (Units=1/GPa)
#
#
# Indices 1 2 3 4 5 6 
#
# 1 0.015184 -0.015012 -0.007927 0.000000 -0.004120 0.000000
# 2 -0.015012 0.077564 0.005997 0.000000 0.002727 0.000000
# 3 -0.007927 0.005997 0.015978 0.000000 -0.007059 0.000000
# 4 0.000000 0.000000 0.000000 -0.032264 0.000000 0.169014
# 5 -0.004120 0.002727 -0.007059 0.000000 0.043873 0.000000
# 6 0.000000 0.000000 0.000000 0.169014 0.000000 -0.120608
#
#
# Mechanical properties :
#
#
# Convention : Reuss Voigt Hill
#
# Bulk Modulus (GPa) = 13.36151 45.44046 29.40099
# Shear Modulus (GPa) = 85.38669 17.27853 51.33261
#
# Velocity S-wave (km/s) = 6.47764 2.91390 5.02248
# Velocity P-wave (km/s) = 7.90648 5.80095 6.93410
#
# Compressibility (1/GPa) = 0.07484184
#
# Stress axis : x y z
#
# Youngs Moduli (GPa) = 65.86040 12.89257 62.58791
#
# Poissons Ratio (x) = 0.19355 0.49610
# Poissons Ratio (y) = 0.98873 -0.37536
# Poissons Ratio (z) = 0.52204 -0.07732
#
# Static dielectric constant tensor:
#      x y z
#    x 1.747190 0.000000 0.042350 
#    y 0.000000 1.772840 0.000000 
#    z 0.042350 0.000000 1.735820 
# 
# From -- ./inp_files/79817.got.cif
#   From: 2010.05.17/outbox.cif.g08.bks.cpg/sg13_40_cif.got.tgz:79817.got - 2010.06.03 16:44:36.
