data_PCOD9227422
_publ_section_title
;
Structure prediction by ZEFSAII (Michael W. Deem and Ramdas Pophale) SiO2 
 PCOD9227422
Probable space group: P 2/C
;
_chemical_formula_sum "Si O2"
_cell_formula_units_Z 24
_cell_length_a 9.175339
_cell_length_b 10.428315
_cell_length_c 14.125399
_cell_angle_alpha 90.000000
_cell_angle_beta 125.753474
_cell_angle_gamma 90.000000
_cell_volume 1096.847228
_symmetry_space_group_name_H-M "P 2/C"
_symmetry_group_IT_number 13
_symmetry_cell_setting 'monoclinic'
loop_
_space_group_symop_operation_xyz
x,y,z
-x,y,1/2-z
-x,-y,-z
x,-y,1/2+z
loop_
_atom_site_type_symbol
_atom_site_label
_atom_site_fract_x
_atom_site_fract_y
_atom_site_fract_z
Si Si1 0.337455 0.876590 0.529361
Si Si2 0.730705 0.630924 0.532122
Si Si3 0.291959 0.636809 0.386482
Si Si4 0.714023 0.281494 0.821417
Si Si5 0.831915 0.012520 0.367263
Si Si6 0.757548 0.890850 0.641524
O O1 0.257873 0.754210 0.444916
O O2 0.550842 0.878401 0.598643
O O3 0.290978 0.888467 0.621449
O O4 0.260819 0.001666 0.446388
O O5 0.510955 0.634918 0.456946
O O6 0.776727 0.494804 0.594848
O O7 0.787625 0.653265 0.444774
O O8 0.804004 0.752769 0.617224
O O9 0.221004 0.662363 0.253835
O O10 0.500000 0.299486 0.750000
O O11 0.747003 0.129036 0.830615
O O12 0.864720 0.061864 0.274057
O O13 0.000000 0.000000 0.500000
#
# Coordination Sequence:
#
# PCOD9227422 Si02
#       6
#     4   4   4   4   4   4
#     4  10  19  35  59  84 108 142 189 233 278 328
#     4   9  18  32  56  88 114 141 181 234 286 332
#     4   9  18  32  56  88 114 141 181 234 286 332
#     4  10  18  35  58  81 114 148 185 231 288 332
#     4  12  24  35  54  84 116 150 192 232 277 333
#     4  10  19  35  59  84 108 142 189 233 278 328
#
# _framework density 21.880896
#
# number of rings (size 3 to 8) (size 9 to 14) (size 15 to 20)
#    0.000    2.000    3.333    1.500    0.000    2.000 
#    0.000    5.000    0.000    6.000    0.000    0.000 
#    0.000    0.000    0.000    0.000    0.000    0.000 
#
# Total GULP energy -134141.579647 kJ/mol
# GULP energy per Si atom -5589.232485 kJ/mol
# Density = 2.183109 g / cm^3
# Si number density = 21.880896 Si / 1000 Ang^3
#
#
#
# Elastic Constant Matrix: (Units=GPa)
#
#
# Indices 1 2 3 4 5 6 
#
# 1 35.1513 24.6399 36.3339 0.0000 -22.5466 0.0000
# 2 24.6399 156.1491 60.1466 0.0000 -38.5635 0.0000
# 3 36.3339 60.1466 145.3341 0.0000 -40.2799 0.0000
# 4 0.0000 0.0000 0.0000 29.6760 0.0000 -11.2256
# 5 -22.5466 -38.5635 -40.2799 0.0000 50.9205 0.0000
# 6 0.0000 0.0000 0.0000 -11.2256 0.0000 8.2369
#
#
#
# Elastic Compliance Matrix: (Units=1/GPa)
#
#
# Indices 1 2 3 4 5 6 
#
# 1 0.045270 -0.001038 -0.007109 0.000000 0.013635 0.000000
# 2 -0.001038 0.008413 -0.002029 0.000000 0.004307 0.000000
# 3 -0.007109 -0.002029 0.010502 0.000000 0.003623 0.000000
# 4 0.000000 0.000000 0.000000 0.069554 0.000000 0.094792
# 5 0.013635 0.004307 0.003623 0.000000 0.031804 0.000000
# 6 0.000000 0.000000 0.000000 0.094792 0.000000 0.250591
#
#
# Mechanical properties :
#
#
# Convention : Reuss Voigt Hill
#
# Bulk Modulus (GPa) = 22.81330 64.31946 43.56638
# Shear Modulus (GPa) = 11.08412 32.13431 21.60921
#
# Velocity S-wave (km/s) = 2.25314 3.83639 3.14599
# Velocity P-wave (km/s) = 4.14941 7.00592 5.75763
#
# Compressibility (1/GPa) = 0.04383408
#
# Stress axis : x y z
#
# Youngs Moduli (GPa) = 22.08967 118.86386 95.22301
#
# Poissons Ratio (x) = 0.12334 0.67695
# Poissons Ratio (y) = 0.02292 0.19316
# Poissons Ratio (z) = 0.15704 0.24112
#
# Static dielectric constant tensor:
#      x y z
#    x 1.790660 0.000000 0.029510 
#    y 0.000000 1.684100 0.000000 
#    z 0.029510 0.000000 1.792280 
# 
# From -- ./inp_files/33961.got.cif
#   From: 2010.05.17/outbox.cif.g08.bks.cpg/sg13_17_cif.got.tgz:33961.got - 2010.06.03 16:44:36.
