data_PCOD9227867
_publ_section_title
;
Structure prediction by ZEFSAII (Michael W. Deem and Ramdas Pophale) SiO2 
 PCOD9227867
Probable space group: P 2/C
;
_chemical_formula_sum "Si O2"
_cell_formula_units_Z 26
_cell_length_a 11.586202
_cell_length_b 14.285283
_cell_length_c 8.905476
_cell_angle_alpha 90.000000
_cell_angle_beta 54.554029
_cell_angle_gamma 90.000000
_cell_volume 1200.784134
_symmetry_space_group_name_H-M "P 2/C"
_symmetry_group_IT_number 13
_symmetry_cell_setting 'monoclinic'
loop_
_space_group_symop_operation_xyz
x,y,z
-x,y,1/2-z
-x,-y,-z
x,-y,1/2+z
loop_
_atom_site_type_symbol
_atom_site_label
_atom_site_fract_x
_atom_site_fract_y
_atom_site_fract_z
Si Si1 0.154464 0.888482 0.717522
Si Si2 0.000000 0.617915 0.250000
Si Si3 0.837629 0.076324 0.933106
Si Si4 0.379905 0.570143 0.037344
Si Si5 0.837728 0.709049 0.922573
Si Si6 0.247439 0.750039 0.184903
Si Si7 0.210546 0.505180 0.427337
O O1 0.220202 0.784653 0.652128
O O2 0.000000 0.879935 0.750000
O O3 0.219700 0.975343 0.577296
O O4 0.151028 0.913541 0.895855
O O5 0.122794 0.687748 0.207388
O O6 0.929964 0.552598 0.430054
O O7 0.748168 0.156681 0.916459
O O8 0.000000 0.084446 0.750000
O O9 0.382804 0.679797 0.077475
O O10 0.243162 0.529567 0.232306
O O11 0.500000 0.500000 0.000000
O O12 0.338398 0.557161 0.896489
O O13 0.000000 0.691703 0.750000
O O14 0.806996 0.762025 0.103742
O O15 0.779743 0.605392 0.995642
#
# Coordination Sequence:
#
# PCOD9227867 Si02
#       7
#     4   2   4   4   4   4   4
#     4  10  20  29  48  71 111 152 180 217 268 338
#     4  10  20  32  50  82 104 140 178 230 288 330
#     4  11  18  32  48  73 108 149 185 220 275 337
#     4  10  22  38  53  76 105 147 192 232 276 329
#     4  10  19  30  45  76 107 142 180 218 272 338
#     4  10  21  31  52  74 110 145 182 233 278 325
#     4  10  21  33  56  73 109 142 181 233 282 327
#
# _framework density 21.652517
#
# number of rings (size 3 to 8) (size 9 to 14) (size 15 to 20)
#    0.000    1.846    1.538    5.077    2.154    3.077 
#    0.000    0.000    0.000    0.000    0.000    1.077 
#    0.000    7.385    0.000    1.385    0.000    0.000 
#
# Total GULP energy -144858.576288 kJ/mol
# GULP energy per Si atom -5571.483703 kJ/mol
# Density = 2.160324 g / cm^3
# Si number density = 21.652517 Si / 1000 Ang^3
#
#
#
# Elastic Constant Matrix: (Units=GPa)
#
#
# Indices 1 2 3 4 5 6 
#
# 1 21.2413 3.8750 -1.9904 0.0000 -2.5900 0.0000
# 2 3.8750 108.2390 19.8157 0.0000 -1.6019 0.0000
# 3 -1.9904 19.8157 64.0490 0.0000 27.6088 0.0000
# 4 0.0000 0.0000 0.0000 33.7109 0.0000 13.3993
# 5 -2.5900 -1.6019 27.6088 0.0000 32.2713 0.0000
# 6 0.0000 0.0000 0.0000 13.3993 0.0000 25.6136
#
#
#
# Elastic Compliance Matrix: (Units=1/GPa)
#
#
# Indices 1 2 3 4 5 6 
#
# 1 0.047855 -0.001789 0.000671 0.000000 0.003178 0.000000
# 2 -0.001789 0.010370 -0.005424 0.000000 0.005012 0.000000
# 3 0.000671 -0.005424 0.027573 0.000000 -0.023805 0.000000
# 4 0.000000 0.000000 0.000000 0.037451 0.000000 -0.019592
# 5 0.003178 0.005012 -0.023805 0.000000 0.051857 0.000000
# 6 0.000000 0.000000 0.000000 -0.019592 0.000000 0.049291
#
#
# Mechanical properties :
#
#
# Convention : Reuss Voigt Hill
#
# Bulk Modulus (GPa) = 13.75268 26.32555 20.03911
# Shear Modulus (GPa) = 19.10433 29.77441 24.43937
#
# Velocity S-wave (km/s) = 2.97360 3.71226 3.36327
# Velocity P-wave (km/s) = 4.26088 5.52803 4.93529
#
# Compressibility (1/GPa) = 0.07271313
#
# Stress axis : x y z
#
# Youngs Moduli (GPa) = 20.89655 96.43128 36.26679
#
# Poissons Ratio (x) = 0.17251 -0.02432
# Poissons Ratio (y) = 0.03738 0.19672
# Poissons Ratio (z) = -0.01401 0.52307
#
# Static dielectric constant tensor:
#      x y z
#    x 1.837600 0.000000 -0.023110 
#    y 0.000000 1.860350 0.000000 
#    z -0.023110 0.000000 1.839010 
# 
# From -- ./inp_files/16425.got.cif
#   From: 2010.05.17/outbox.cif.g08.bks.cpg/sg13_9_cif.got.tgz:16425.got - 2010.06.03 16:44:36.
