data_PCOD9227594
_publ_section_title
;
Structure prediction by ZEFSAII (Michael W. Deem and Ramdas Pophale) SiO2 
 PCOD9227594
Probable space group: P 2/C
;
_chemical_formula_sum "Si O2"
_cell_formula_units_Z 22
_cell_length_a 14.417703
_cell_length_b 18.623512
_cell_length_c 9.075695
_cell_angle_alpha 90.000000
_cell_angle_beta 152.951263
_cell_angle_gamma 90.000000
_cell_volume 1108.175595
_symmetry_space_group_name_H-M "P 2/C"
_symmetry_group_IT_number 13
_symmetry_cell_setting 'monoclinic'
loop_
_space_group_symop_operation_xyz
x,y,z
-x,y,1/2-z
-x,-y,-z
x,-y,1/2+z
loop_
_atom_site_type_symbol
_atom_site_label
_atom_site_fract_x
_atom_site_fract_y
_atom_site_fract_z
Si Si1 0.500000 0.147274 0.250000
Si Si2 0.172159 0.213840 0.244448
Si Si3 0.500000 0.515589 0.250000
Si Si4 0.941961 0.074310 0.839883
Si Si5 0.385428 0.601844 0.823121
Si Si6 0.000000 0.301850 0.750000
Si Si7 0.581457 0.747359 0.137430
O O1 0.703691 0.099058 0.511558
O O2 0.564058 0.200552 0.473523
O O3 0.225864 0.239025 0.484357
O O4 0.380722 0.229303 0.448250
O O5 0.010538 0.255803 0.913994
O O6 0.088466 0.133692 0.122194
O O7 0.633455 0.567992 0.540747
O O8 0.597756 0.462294 0.269270
O O9 0.000000 0.071554 0.750000
O O10 0.000000 0.000000 0.000000
O O11 0.192724 0.648250 0.512648
O O12 0.563502 0.662371 0.075076
#
# Coordination Sequence:
#
# PCOD9227594 Si02
#       7
#     2   4   2   4   4   2   4
#     4  12  25  44  70  97 130 172 224 272 316 377
#     4  10  20  41  65  93 128 165 216 274 321 378
#     4  10  21  36  54  81 128 164 208 256 318 395
#     4  12  27  46  66  97 138 173 213 265 326 388
#     4  10  20  36  57  88 121 166 209 259 321 381
#     4  10  18  36  64  86 124 160 212 272 316 364
#     4  10  21  39  69  93 122 169 222 268 324 377
#
# _framework density 19.852447999999999
#
# number of rings (size 3 to 8) (size 9 to 14) (size 15 to 20)
#    0.000    1.455    2.727    3.818    2.545    2.909 
#    0.000    0.000    0.000    4.364    0.000    0.000 
#    0.000    0.000    0.000    0.000    0.000    0.000 
#
# Total GULP energy -122699.420396 kJ/mol
# GULP energy per Si atom -5577.246382 kJ/mol
# Density = 1.980726 g / cm^3
# Si number density = 19.852448 Si / 1000 Ang^3
#
#
#
# Elastic Constant Matrix: (Units=GPa)
#
#
# Indices 1 2 3 4 5 6 
#
# 1 77.4063 32.3976 47.5500 0.0000 -18.8526 0.0000
# 2 32.3976 141.9239 75.9420 0.0000 -16.8888 0.0000
# 3 47.5500 75.9420 126.3337 0.0000 -39.0476 0.0000
# 4 0.0000 0.0000 0.0000 -42.2074 0.0000 10.1496
# 5 -18.8526 -16.8888 -39.0476 0.0000 35.7227 0.0000
# 6 0.0000 0.0000 0.0000 10.1496 0.0000 25.1801
#
#
#
# Elastic Compliance Matrix: (Units=1/GPa)
#
#
# Indices 1 2 3 4 5 6 
#
# 1 0.017089 -0.000899 -0.004886 0.000000 0.003253 0.000000
# 2 -0.000899 0.010636 -0.007019 0.000000 -0.003118 0.000000
# 3 -0.004886 -0.007019 0.018351 0.000000 0.014162 0.000000
# 4 0.000000 0.000000 0.000000 -0.021599 0.000000 0.008706
# 5 0.003253 -0.003118 0.014162 0.000000 0.043716 0.000000
# 6 0.000000 0.000000 0.000000 0.008706 0.000000 0.036205
#
#
# Mechanical properties :
#
#
# Convention : Reuss Voigt Hill
#
# Bulk Modulus (GPa) = 48.85817 73.04923 60.95370
# Shear Modulus (GPa) = 36.54214 16.39071 26.46643
#
# Velocity S-wave (km/s) = 4.29498 2.87649 3.65520
# Velocity P-wave (km/s) = 7.01854 6.92158 6.97022
#
# Compressibility (1/GPa) = 0.02046741
#
# Stress axis : x y z
#
# Youngs Moduli (GPa) = 58.51745 94.02060 54.49308
#
# Poissons Ratio (x) = 0.08457 0.26625
# Poissons Ratio (y) = 0.05264 0.38248
# Poissons Ratio (z) = 0.28591 0.65991
#
# Static dielectric constant tensor:
#      x y z
#    x 1.709110 0.000000 0.047810 
#    y 0.000000 1.701750 0.000000 
#    z 0.047810 0.000000 1.796090 
# 
# From -- ./inp_files/13202.got.cif
#   From: 2010.05.17/outbox.cif.g08.bks.cpg/sg13_7_cif.got.tgz:13202.got - 2010.06.03 16:44:36.
