data_PCOD9227993
_publ_section_title
;
Structure prediction by ZEFSAII (Michael W. Deem and Ramdas Pophale) SiO2 
 PCOD9227993
Probable space group: P 2/C
;
_chemical_formula_sum "Si O2"
_cell_formula_units_Z 32
_cell_length_a 15.751304
_cell_length_b 5.706337
_cell_length_c 21.496228
_cell_angle_alpha 90.000000
_cell_angle_beta 140.795507
_cell_angle_gamma 90.000000
_cell_volume 1221.279753
_symmetry_space_group_name_H-M "P 2/C"
_symmetry_group_IT_number 13
_symmetry_cell_setting 'monoclinic'
loop_
_space_group_symop_operation_xyz
x,y,z
-x,y,1/2-z
-x,-y,-z
x,-y,1/2+z
loop_
_atom_site_type_symbol
_atom_site_label
_atom_site_fract_x
_atom_site_fract_y
_atom_site_fract_z
Si Si1 0.205593 0.323055 0.593434
Si Si2 0.066241 0.469006 0.170968
Si Si3 0.525970 0.344855 0.691078
Si Si4 0.268780 0.233606 0.355444
Si Si5 0.011516 0.106199 0.688269
Si Si6 0.438258 0.156767 0.334629
Si Si7 0.152503 0.181532 0.104122
Si Si8 0.792007 0.246952 0.044491
O O1 0.309703 0.341114 0.709959
O O2 0.141594 0.583872 0.555465
O O3 0.262485 0.293812 0.555324
O O4 0.128949 0.077216 0.562777
O O5 0.203414 0.464314 0.288509
O O6 0.052511 0.742556 0.152190
O O7 0.078933 0.281026 0.123860
O O8 0.925925 0.409164 0.125362
O O9 0.500000 0.357610 0.750000
O O10 0.489303 0.593423 0.637788
O O11 0.491811 0.089475 0.642597
O O12 0.385977 0.153480 0.376098
O O13 0.294741 0.269651 0.442580
O O14 0.135386 0.070955 0.271680
O O15 0.000000 0.222446 0.750000
O O16 0.865808 0.002880 0.590077
O O17 0.308818 0.163702 0.215281
#
# Coordination Sequence:
#
# PCOD9227993 Si02
#       8
#     4   4   4   4   4   4   4   4
#     4  10  22  38  51  79 106 143 175 217 272 329
#     4  10  19  31  52  72 103 145 192 232 255 291
#     4  10  20  38  62  84 104 131 168 219 272 328
#     4   9  19  33  51  77 106 143 180 226 256 304
#     4   9  18  31  48  72 103 144 190 223 254 295
#     4   9  19  34  59  85 104 130 174 218 265 315
#     4   9  21  34  53  73 109 140 181 224 260 308
#     4  10  21  33  48  72 110 146 185 217 265 308
#
# _framework density 26.202024000000002
#
# number of rings (size 3 to 8) (size 9 to 14) (size 15 to 20)
#    0.000    2.500    0.000    2.250   12.250    1.000 
#    0.000    0.000    0.000    1.500    0.000    0.000 
#    0.000    0.000    0.000    0.000    0.000    0.000 
#
# Total GULP energy -178355.437615 kJ/mol
# GULP energy per Si atom -5573.607425 kJ/mol
# Density = 2.614239 g / cm^3
# Si number density = 26.202024 Si / 1000 Ang^3
#
#
#
# Elastic Constant Matrix: (Units=GPa)
#
#
# Indices 1 2 3 4 5 6 
#
# 1 108.4232 34.2950 25.7477 0.0000 -51.1249 0.0000
# 2 34.2950 139.7869 63.4625 0.0000 -33.6353 0.0000
# 3 25.7477 63.4625 106.9071 0.0000 -25.9895 0.0000
# 4 0.0000 0.0000 0.0000 26.4352 0.0000 -10.9510
# 5 -51.1249 -33.6353 -25.9895 0.0000 40.8746 0.0000
# 6 0.0000 0.0000 0.0000 -10.9510 0.0000 18.3797
#
#
#
# Elastic Compliance Matrix: (Units=1/GPa)
#
#
# Indices 1 2 3 4 5 6 
#
# 1 0.022862 0.001144 0.001177 0.000000 0.030285 0.000000
# 2 0.001144 0.010866 -0.004973 0.000000 0.007210 0.000000
# 3 0.001177 -0.004973 0.013467 0.000000 0.005943 0.000000
# 4 0.000000 0.000000 0.000000 0.050225 0.000000 0.029925
# 5 0.030285 0.007210 0.005943 0.000000 0.072057 0.000000
# 6 0.000000 0.000000 0.000000 0.029925 0.000000 0.072238
#
#
# Mechanical properties :
#
#
# Convention : Reuss Voigt Hill
#
# Bulk Modulus (GPa) = 23.87119 66.90307 45.38713
# Shear Modulus (GPa) = 19.15842 32.57871 25.86856
#
# Velocity S-wave (km/s) = 2.70697 3.52996 3.14550
# Velocity P-wave (km/s) = 4.34747 6.49640 5.52737
#
# Compressibility (1/GPa) = 0.04189150
#
# Stress axis : x y z
#
# Youngs Moduli (GPa) = 43.74033 92.03371 74.25452
#
# Poissons Ratio (x) = -0.10526 -0.08742
# Poissons Ratio (y) = -0.05003 0.36925
# Poissons Ratio (z) = -0.05150 0.45766
#
# Static dielectric constant tensor:
#      x y z
#    x 2.169720 0.000000 0.037880 
#    y 0.000000 2.161460 0.000000 
#    z 0.037880 0.000000 2.142440 
# 
# From -- ./inp_files/80596.got.cif
#   From: 2010.05.17/outbox.cif.g08.bks.cpg/sg13_41_cif.got.tgz:80596.got - 2010.06.03 16:44:36.
