data_PCOD9227251
_publ_section_title
;
Structure prediction by ZEFSAII (Michael W. Deem and Ramdas Pophale) SiO2 
 PCOD9227251
Probable space group: P 2/C
;
_chemical_formula_sum "Si O2"
_cell_formula_units_Z 28
_cell_length_a 25.500952
_cell_length_b 6.473973
_cell_length_c 14.008749
_cell_angle_alpha 90.000000
_cell_angle_beta 139.423337
_cell_angle_gamma 90.000000
_cell_volume 1504.355583
_symmetry_space_group_name_H-M "P 2/C"
_symmetry_group_IT_number 13
_symmetry_cell_setting 'monoclinic'
loop_
_space_group_symop_operation_xyz
x,y,z
-x,y,1/2-z
-x,-y,-z
x,-y,1/2+z
loop_
_atom_site_type_symbol
_atom_site_label
_atom_site_fract_x
_atom_site_fract_y
_atom_site_fract_z
Si Si1 0.885899 0.767594 0.092885
Si Si2 0.005956 0.006511 0.395154
Si Si3 0.711345 0.748137 0.932957
Si Si4 0.638281 0.021535 0.487799
Si Si5 0.000000 0.614156 0.750000
Si Si6 0.500000 0.651326 0.750000
Si Si7 0.597059 0.988960 0.143328
Si Si8 0.385622 0.356186 0.686648
O O1 0.915220 0.890992 0.039295
O O2 0.932569 0.882769 0.243810
O O3 0.923298 0.538109 0.141839
O O4 0.792036 0.769788 0.984438
O O5 0.002338 0.234959 0.344591
O O6 0.000000 0.000000 0.500000
O O7 0.689425 0.511449 0.923611
O O8 0.712978 0.878212 0.033847
O O9 0.636403 0.846501 0.770319
O O10 0.615175 0.815087 0.398071
O O11 0.569531 0.197598 0.382622
O O12 0.640671 0.980687 0.602803
O O13 0.463574 0.499547 0.779209
O O14 0.614729 0.767648 0.215487
O O15 0.500000 0.000000 0.000000
#
# Coordination Sequence:
#
# PCOD9227251 Si02
#       8
#     4   4   4   4   2   2   4   4
#     4   9  20  37  56  85 119 149 184 223 274 335
#     4   9  19  37  64  90 113 145 183 224 272 330
#     4  10  23  38  54  81 116 151 187 231 282 336
#     4  10  21  36  53  77 107 141 184 234 284 333
#     4   8  18  36  58  82 116 150 180 222 272 330
#     4  10  18  34  56  76 102 138 182 234 290 340
#     4  11  22  37  57  81 108 146 197 245 285 329
#     4  10  21  36  55  76 106 144 185 236 290 336
#
# _framework density 18.612621000000001
#
# number of rings (size 3 to 8) (size 9 to 14) (size 15 to 20)
#    0.000    2.571    0.000    3.857    0.000   12.571 
#    0.000    2.857    0.000    0.000    0.000    0.000 
#    0.000    0.000    0.000    0.000    0.000    0.000 
#
# Total GULP energy -156088.437072 kJ/mol
# GULP energy per Si atom -5574.587038 kJ/mol
# Density = 1.857026 g / cm^3
# Si number density = 18.612621 Si / 1000 Ang^3
#
#
#
# Elastic Constant Matrix: (Units=GPa)
#
#
# Indices 1 2 3 4 5 6 
#
# 1 149.4981 53.5589 49.0190 0.0000 -13.3481 0.0000
# 2 53.5589 126.4640 28.3573 0.0000 -4.0351 0.0000
# 3 49.0190 28.3573 39.4951 0.0000 -9.7689 0.0000
# 4 0.0000 0.0000 0.0000 7.0364 0.0000 -3.6944
# 5 -13.3481 -4.0351 -9.7689 0.0000 46.6498 0.0000
# 6 0.0000 0.0000 0.0000 -3.6944 0.0000 13.3978
#
#
#
# Elastic Compliance Matrix: (Units=1/GPa)
#
#
# Indices 1 2 3 4 5 6 
#
# 1 0.011708 -0.002039 -0.012953 0.000000 0.000461 0.000000
# 2 -0.002039 0.009798 -0.004681 0.000000 -0.000716 0.000000
# 3 -0.012953 -0.004681 0.046129 0.000000 0.005549 0.000000
# 4 0.000000 0.000000 0.000000 0.166177 0.000000 0.045823
# 5 0.000461 -0.000716 0.005549 0.000000 0.022668 0.000000
# 6 0.000000 0.000000 0.000000 0.045823 0.000000 0.087275
#
#
# Mechanical properties :
#
#
# Convention : Reuss Voigt Hill
#
# Bulk Modulus (GPa) = 35.34964 64.14750 49.74857
# Shear Modulus (GPa) = 12.73784 25.71827 19.22806
#
# Velocity S-wave (km/s) = 2.61888 3.72124 3.21762
# Velocity P-wave (km/s) = 5.30832 7.28031 6.37107
#
# Compressibility (1/GPa) = 0.02828883
#
# Stress axis : x y z
#
# Youngs Moduli (GPa) = 85.41193 102.06370 21.67814
#
# Poissons Ratio (x) = 0.20813 0.28080
# Poissons Ratio (y) = 0.17418 0.10147
# Poissons Ratio (z) = 1.10634 0.47775
#
# Static dielectric constant tensor:
#      x y z
#    x 1.674650 0.000000 0.002170 
#    y 0.000000 1.653540 0.000000 
#    z 0.002170 0.000000 1.632400 
# 
# From -- ./inp_files/54302.got.cif
#   From: 2010.05.17/outbox.cif.g08.bks.cpg/sg13_28_cif.got.tgz:54302.got - 2010.06.03 16:44:36.
