data_PCOD9227438
_publ_section_title
;
Structure prediction by ZEFSAII (Michael W. Deem and Ramdas Pophale) SiO2 
 PCOD9227438
Probable space group: P 2/C
;
_chemical_formula_sum "Si O2"
_cell_formula_units_Z 28
_cell_length_a 31.499933
_cell_length_b 10.686326
_cell_length_c 30.929650
_cell_angle_alpha 90.000000
_cell_angle_beta 170.763373
_cell_angle_gamma 90.000000
_cell_volume 1671.171743
_symmetry_space_group_name_H-M "P 2/C"
_symmetry_group_IT_number 13
_symmetry_cell_setting 'monoclinic'
loop_
_space_group_symop_operation_xyz
x,y,z
-x,y,1/2-z
-x,-y,-z
x,-y,1/2+z
loop_
_atom_site_type_symbol
_atom_site_label
_atom_site_fract_x
_atom_site_fract_y
_atom_site_fract_z
Si Si1 0.562238 0.146713 0.557906
Si Si2 0.052033 0.778552 0.493264
Si Si3 0.007018 0.971587 0.142334
Si Si4 0.513994 0.330590 0.589823
Si Si5 0.477946 0.134406 0.622370
Si Si6 0.749250 0.019176 0.027515
Si Si7 0.994380 0.507068 0.942349
O O1 0.341663 0.209291 0.305357
O O2 0.550259 0.218991 0.591338
O O3 0.500000 0.000000 0.500000
O O4 0.845762 0.166520 0.820827
O O5 0.038985 0.861326 0.437152
O O6 0.974819 0.635472 0.407102
O O7 0.738712 0.048847 0.880765
O O8 0.132013 0.933274 0.314442
O O9 0.233702 0.065672 0.352250
O O10 0.527918 0.266078 0.650518
O O11 0.241391 0.402302 0.308446
O O12 0.740591 0.430334 0.808561
O O13 0.374792 0.131841 0.568161
O O14 0.500000 0.968200 0.750000
O O15 0.000000 0.052460 0.250000
O O16 0.000000 0.500000 0.000000
#
# Coordination Sequence:
#
# PCOD9227438 Si02
#       7
#     4   4   4   4   4   4   4
#     4  12  23  34  55  75 110 152 189 225 291 311
#     4  12  23  37  52  78 111 151 194 231 263 318
#     4  10  20  35  55  84 120 131 178 224 283 332
#     4  12  22  38  54  78 111 152 197 236 265 320
#     4  10  21  35  57  85 118 135 178 227 286 331
#     4  10  18  35  59  86 115 137 164 213 295 364
#     4  12  23  39  54  73 107 164 206 234 257 307
#
# _framework density 16.754712999999999
#
# number of rings (size 3 to 8) (size 9 to 14) (size 15 to 20)
#    0.857    0.000    4.286    5.143    0.000    0.000 
#    0.000    0.000    0.000    0.000    0.000    4.000 
#    0.000    0.000    0.000    0.000    0.000    0.000 
#
# Total GULP energy -156166.729187 kJ/mol
# GULP energy per Si atom -5577.383185 kJ/mol
# Density = 1.671658 g / cm^3
# Si number density = 16.754713 Si / 1000 Ang^3
#
#
#
# Elastic Constant Matrix: (Units=GPa)
#
#
# Indices 1 2 3 4 5 6 
#
# 1 62.8279 11.1877 20.4699 0.0000 13.0417 0.0000
# 2 11.1877 81.0373 20.1212 0.0000 33.1305 0.0000
# 3 20.4699 20.1212 115.2253 0.0000 40.4982 0.0000
# 4 0.0000 0.0000 0.0000 26.7937 0.0000 4.0954
# 5 13.0417 33.1305 40.4982 0.0000 39.2742 0.0000
# 6 0.0000 0.0000 0.0000 4.0954 0.0000 10.5244
#
#
#
# Elastic Compliance Matrix: (Units=1/GPa)
#
#
# Indices 1 2 3 4 5 6 
#
# 1 0.017307 -0.000525 -0.001754 0.000000 -0.003495 0.000000
# 2 -0.000525 0.019855 0.003845 0.000000 -0.020540 0.000000
# 3 -0.001754 0.003845 0.014515 0.000000 -0.017628 0.000000
# 4 0.000000 0.000000 0.000000 0.039682 0.000000 -0.015442
# 5 -0.003495 -0.020540 -0.017628 0.000000 0.062127 0.000000
# 6 0.000000 0.000000 0.000000 -0.015442 0.000000 0.101026
#
#
# Mechanical properties :
#
#
# Convention : Reuss Voigt Hill
#
# Bulk Modulus (GPa) = 18.24523 40.29421 29.26972
# Shear Modulus (GPa) = 18.54253 29.13924 23.84089
#
# Velocity S-wave (km/s) = 3.33033 4.17486 3.77627
# Velocity P-wave (km/s) = 5.06965 6.88047 6.04327
#
# Compressibility (1/GPa) = 0.05480883
#
# Stress axis : x y z
#
# Youngs Moduli (GPa) = 57.77969 50.36495 68.89613
#
# Poissons Ratio (x) = 0.02643 0.12088
# Poissons Ratio (y) = 0.03032 -0.26492
# Poissons Ratio (z) = 0.10137 -0.19366
#
# Static dielectric constant tensor:
#      x y z
#    x 1.593420 0.000000 -0.005440 
#    y 0.000000 1.549390 0.000000 
#    z -0.005440 0.000000 1.571320 
# 
# From -- ./inp_files/98049.got.cif
#   From: 2010.05.17/outbox.cif.g08.bks.cpg/sg13_50_cif.got.tgz:98049.got - 2010.06.03 16:44:36.
