data_PCOD9227827
_publ_section_title
;
Structure prediction by ZEFSAII (Michael W. Deem and Ramdas Pophale) SiO2 
 PCOD9227827
Probable space group: P 2/C
;
_chemical_formula_sum "Si O2"
_cell_formula_units_Z 28
_cell_length_a 14.157467
_cell_length_b 11.614783
_cell_length_c 9.650744
_cell_angle_alpha 90.000000
_cell_angle_beta 59.711064
_cell_angle_gamma 90.000000
_cell_volume 1370.301885
_symmetry_space_group_name_H-M "P 2/C"
_symmetry_group_IT_number 13
_symmetry_cell_setting 'monoclinic'
loop_
_space_group_symop_operation_xyz
x,y,z
-x,y,1/2-z
-x,-y,-z
x,-y,1/2+z
loop_
_atom_site_type_symbol
_atom_site_label
_atom_site_fract_x
_atom_site_fract_y
_atom_site_fract_z
Si Si1 0.370771 0.093505 0.003858
Si Si2 0.906898 0.605168 0.708145
Si Si3 0.349838 0.481791 0.382030
Si Si4 0.042009 0.668337 0.362580
Si Si5 0.647159 0.352319 0.392759
Si Si6 0.628548 0.106681 0.805271
Si Si7 0.276115 0.340017 0.703009
O O1 0.500709 0.076087 0.890715
O O2 0.323268 0.100654 0.884592
O O3 0.363130 0.217057 0.082204
O O4 0.323238 0.988264 0.127024
O O5 0.926314 0.467935 0.676704
O O6 0.778149 0.625430 0.822413
O O7 0.000000 0.639960 0.750000
O O8 0.944966 0.669751 0.542528
O O9 0.392415 0.395737 0.229471
O O10 0.410474 0.571085 0.442885
O O11 0.289534 0.401307 0.542217
O O12 0.288349 0.569745 0.321243
O O13 0.158823 0.719685 0.311610
O O14 0.000000 0.714193 0.250000
O O15 0.637482 0.237689 0.850098
#
# Coordination Sequence:
#
# PCOD9227827 Si02
#       7
#     4   4   4   4   4   4   4
#     4  10  23  43  65  85 108 144 197 240 282 338
#     4  10  19  27  49  78 112 154 188 220 271 332
#     4  10  20  32  55  86 118 154 184 223 286 354
#     4  10  19  29  49  80 116 155 190 226 268 332
#     4  11  20  37  55  84 122 150 186 237 280 337
#     4  10  23  43  65  86 106 146 196 240 283 336
#     4  11  20  37  57  84 124 152 187 238 282 337
#
# _framework density 20.433454999999999
#
# number of rings (size 3 to 8) (size 9 to 14) (size 15 to 20)
#    0.000    1.714    4.286    1.714    6.000    0.000 
#    0.000    4.286    0.000    1.714    0.000    0.000 
#    0.000    0.000    0.000    0.000    0.000    0.000 
#
# Total GULP energy -155877.400615 kJ/mol
# GULP energy per Si atom -5567.050022 kJ/mol
# Density = 2.038695 g / cm^3
# Si number density = 20.433455 Si / 1000 Ang^3
#
#
#
# Elastic Constant Matrix: (Units=GPa)
#
#
# Indices 1 2 3 4 5 6 
#
# 1 40.0626 4.9568 21.3966 0.0000 11.8568 0.0000
# 2 4.9568 86.3358 49.3874 0.0000 17.8535 0.0000
# 3 21.3966 49.3874 129.0885 0.0000 36.3918 0.0000
# 4 0.0000 0.0000 0.0000 21.1026 0.0000 5.8493
# 5 11.8568 17.8535 36.3918 0.0000 28.6103 0.0000
# 6 0.0000 0.0000 0.0000 5.8493 0.0000 9.2856
#
#
#
# Elastic Compliance Matrix: (Units=1/GPa)
#
#
# Indices 1 2 3 4 5 6 
#
# 1 0.029098 0.001956 -0.002850 0.000000 -0.009655 0.000000
# 2 0.001956 0.015147 -0.005030 0.000000 -0.003865 0.000000
# 3 -0.002850 -0.005030 0.013915 0.000000 -0.013381 0.000000
# 4 0.000000 0.000000 0.000000 0.057412 0.000000 -0.036165
# 5 -0.009655 -0.003865 -0.013381 0.000000 0.058385 0.000000
# 6 0.000000 0.000000 0.000000 -0.036165 0.000000 0.130475
#
#
# Mechanical properties :
#
#
# Convention : Reuss Voigt Hill
#
# Bulk Modulus (GPa) = 21.59163 45.21872 33.40517
# Shear Modulus (GPa) = 15.07310 23.78280 19.42795
#
# Velocity S-wave (km/s) = 2.71895 3.41532 3.08684
# Velocity P-wave (km/s) = 4.52180 6.14250 5.39338
#
# Compressibility (1/GPa) = 0.04631424
#
# Stress axis : x y z
#
# Youngs Moduli (GPa) = 34.36627 66.02091 71.86331
#
# Poissons Ratio (x) = -0.12914 0.20478
# Poissons Ratio (y) = -0.06722 0.36144
# Poissons Ratio (z) = 0.09793 0.33205
#
# Static dielectric constant tensor:
#      x y z
#    x 1.764930 0.000000 0.002570 
#    y 0.000000 1.737320 0.000000 
#    z 0.002570 0.000000 1.787010 
# 
# From -- ./inp_files/18745.got.cif
#   From: 2010.05.17/outbox.cif.g08.bks.cpg/sg13_10_cif.got.tgz:18745.got - 2010.06.03 16:44:36.
