data_PCOD9227836
_publ_section_title
;
Structure prediction by ZEFSAII (Michael W. Deem and Ramdas Pophale) SiO2 
 PCOD9227836
Probable space group: P 2/C
;
_chemical_formula_sum "Si O2"
_cell_formula_units_Z 24
_cell_length_a 16.515256
_cell_length_b 8.573761
_cell_length_c 14.559091
_cell_angle_alpha 90.000000
_cell_angle_beta 150.300089
_cell_angle_gamma 90.000000
_cell_volume 1021.403148
_symmetry_space_group_name_H-M "P 2/C"
_symmetry_group_IT_number 13
_symmetry_cell_setting 'monoclinic'
loop_
_space_group_symop_operation_xyz
x,y,z
-x,y,1/2-z
-x,-y,-z
x,-y,1/2+z
loop_
_atom_site_type_symbol
_atom_site_label
_atom_site_fract_x
_atom_site_fract_y
_atom_site_fract_z
Si Si1 0.308190 0.836689 0.040757
Si Si2 0.702803 0.166836 0.681585
Si Si3 0.307213 0.501773 0.042600
Si Si4 0.809145 0.170165 0.573522
Si Si5 0.309766 0.165913 0.321118
Si Si6 0.303055 0.499811 0.819823
O O1 0.500000 0.836333 0.250000
O O2 0.238135 0.670153 0.006168
O O3 0.291858 0.835895 0.914076
O O4 0.245793 0.001248 0.017104
O O5 0.754280 0.168191 0.625959
O O6 0.504165 0.166174 0.490283
O O7 0.757747 0.333000 0.776934
O O8 0.759036 0.001273 0.778323
O O9 0.500000 0.510597 0.250000
O O10 0.257226 0.333352 0.031736
O O11 0.275350 0.497319 0.901967
O O12 0.000000 0.177841 0.750000
O O13 0.240337 0.333480 0.221984
O O14 0.500000 0.500000 0.000000
#
# Coordination Sequence:
#
# PCOD9227836 Si02
#       6
#     4   4   4   4   4   4
#     4   9  17  29  46  67  86 110 144 182 220 252
#     4   8  14  24  38  58  81 106 137 172 209 245
#     4   9  17  29  45  66  88 111 144 183 219 254
#     4  10  19  29  43  64  91 119 143 172 215 267
#     4   8  13  23  40  60  80 101 135 180 212 239
#     4   8  13  22  38  61  83 102 131 174 216 248
#
# _framework density 23.497087000000001
#
# number of rings (size 3 to 8) (size 9 to 14) (size 15 to 20)
#    0.000    3.333    0.000    0.500    0.000    0.667 
#    0.000    0.000    0.000    1.000    0.000   29.167 
#    0.000    0.000    0.000    0.000    0.000    0.000 
#
# Total GULP energy -133657.947724 kJ/mol
# GULP energy per Si atom -5569.081155 kJ/mol
# Density = 2.344361 g / cm^3
# Si number density = 23.497087 Si / 1000 Ang^3
#
#
#
# Elastic Constant Matrix: (Units=GPa)
#
#
# Indices 1 2 3 4 5 6 
#
# 1 65.9430 35.4111 -19.8538 0.0000 -56.3384 0.0000
# 2 35.4111 358.1324 44.0432 0.0000 17.9831 0.0000
# 3 -19.8538 44.0432 4.7616 0.0000 -13.9135 0.0000
# 4 0.0000 0.0000 0.0000 -10.4278 0.0000 -30.1094
# 5 -56.3384 17.9831 -13.9135 0.0000 -15.7485 0.0000
# 6 0.0000 0.0000 0.0000 -30.1094 0.0000 -67.3848
#
#
#
# Elastic Compliance Matrix: (Units=1/GPa)
#
#
# Indices 1 2 3 4 5 6 
#
# 1 0.005088 0.001200 -0.010908 0.000000 -0.007196 0.000000
# 2 0.001200 0.003293 -0.007542 0.000000 0.006132 0.000000
# 3 -0.010908 -0.007542 0.090225 0.000000 -0.049303 0.000000
# 4 0.000000 0.000000 0.000000 0.330476 0.000000 -0.147666
# 5 -0.007196 0.006132 -0.049303 0.000000 0.012806 0.000000
# 6 0.000000 0.000000 0.000000 -0.147666 0.000000 0.051141
#
#
# Mechanical properties :
#
#
# Convention : Reuss Voigt Hill
#
# Bulk Modulus (GPa) = 15.59884 60.89310 38.24597
# Shear Modulus (GPa) = 9.10914 5.90356 7.50635
#
# Velocity S-wave (km/s) = 1.97107 1.58680 1.78928
# Velocity P-wave (km/s) = 3.43994 5.41559 4.53662
#
# Compressibility (1/GPa) = 0.06410733
#
# Stress axis : x y z
#
# Youngs Moduli (GPa) = 196.52876 303.65382 11.08334
#
# Poissons Ratio (x) = -0.36428 0.12089
# Poissons Ratio (y) = -0.23577 0.08359
# Poissons Ratio (z) = 2.14370 2.29007
#
# Static dielectric constant tensor:
#      x y z
#    x 1.843610 0.000000 -0.003210 
#    y 0.000000 2.080630 0.000000 
#    z -0.003210 0.000000 1.769710 
# 
# From -- ./inp_files/74914.got.cif
#   From: 2010.05.17/outbox.cif.g08.bks.cpg/sg13_38_cif.got.tgz:74914.got - 2010.06.03 16:44:36.
