data_PCOD9227871
_publ_section_title
;
Structure prediction by ZEFSAII (Michael W. Deem and Ramdas Pophale) SiO2 
 PCOD9227871
Probable space group: P 2/C
;
_chemical_formula_sum "Si O2"
_cell_formula_units_Z 26
_cell_length_a 33.300762
_cell_length_b 6.676902
_cell_length_c 5.155605
_cell_angle_alpha 90.000000
_cell_angle_beta 89.956515
_cell_angle_gamma 90.000000
_cell_volume 1146.327429
_symmetry_space_group_name_H-M "P 2/C"
_symmetry_group_IT_number 13
_symmetry_cell_setting 'monoclinic'
loop_
_space_group_symop_operation_xyz
x,y,z
-x,y,1/2-z
-x,-y,-z
x,-y,1/2+z
loop_
_atom_site_type_symbol
_atom_site_label
_atom_site_fract_x
_atom_site_fract_y
_atom_site_fract_z
Si Si1 0.585249 0.139048 0.821407
Si Si2 0.787873 0.717741 0.879304
Si Si3 0.670420 0.136275 0.712177
Si Si4 0.245483 0.724006 0.120294
Si Si5 0.129184 0.140786 0.278055
Si Si6 0.041792 0.138954 0.309070
Si Si7 0.500000 0.855384 0.250000
O O1 0.627739 0.243939 0.765726
O O2 0.585309 0.955853 0.609947
O O3 0.543211 0.252271 0.768229
O O4 0.758244 0.813861 0.666887
O O5 0.770061 0.499174 0.932557
O O6 0.832549 0.719467 0.767478
O O7 0.785293 0.809097 0.166004
O O8 0.709914 0.263670 0.770256
O O9 0.671171 0.043659 0.424920
O O10 0.131351 0.023442 0.548780
O O11 0.085006 0.241200 0.268100
O O12 0.000000 0.251548 0.250000
O O13 0.041199 0.042105 0.595912
O O14 0.500000 0.000000 0.500000
#
# Coordination Sequence:
#
# PCOD9227871 Si02
#       7
#     4   4   4   4   4   4   2
#     4   8  14  23  36  57  84 112 141 175 218 263
#     4  10  21  35  48  65  90 122 157 188 229 274
#     4  10  19  30  46  68  91 117 153 195 230 263
#     4  10  21  35  48  63  89 124 156 190 231 275
#     4  10  19  30  48  73  96 119 152 190 223 262
#     4   8  14  25  41  64  94 120 141 173 218 264
#     4   8  12  20  34  52  80 114 138 164 212 268
#
# _framework density 22.681128999999999
#
# number of rings (size 3 to 8) (size 9 to 14) (size 15 to 20)
#    0.000    2.769    0.000    1.846    0.000    3.692 
#    0.000    0.000    0.000    0.000    0.000    4.308 
#    0.000    4.923    0.000    0.000    0.000   19.385 
#
# Total GULP energy -144821.607614 kJ/mol
# GULP energy per Si atom -5570.061831 kJ/mol
# Density = 2.262951 g / cm^3
# Si number density = 22.681129 Si / 1000 Ang^3
#
#
#
# Elastic Constant Matrix: (Units=GPa)
#
#
# Indices 1 2 3 4 5 6 
#
# 1 221.6611 7.3368 -9.4498 0.0000 -0.7420 0.0000
# 2 7.3368 35.0273 -16.9174 0.0000 -0.2153 0.0000
# 3 -9.4498 -16.9174 143.3016 0.0000 1.8947 0.0000
# 4 0.0000 0.0000 0.0000 10.4502 0.0000 0.0809
# 5 -0.7420 -0.2153 1.8947 0.0000 31.4167 0.0000
# 6 0.0000 0.0000 0.0000 0.0809 0.0000 4.8840
#
#
#
# Elastic Compliance Matrix: (Units=1/GPa)
#
#
# Indices 1 2 3 4 5 6 
#
# 1 0.004548 -0.000857 0.000198 0.000000 0.000090 0.000000
# 2 -0.000857 0.030437 0.003537 0.000000 -0.000025 0.000000
# 3 0.000198 0.003537 0.007414 0.000000 -0.000418 0.000000
# 4 0.000000 0.000000 0.000000 0.095704 0.000000 -0.001585
# 5 0.000090 -0.000025 -0.000418 0.000000 0.031857 0.000000
# 6 0.000000 0.000000 0.000000 -0.001585 0.000000 0.204775
#
#
# Mechanical properties :
#
#
# Convention : Reuss Voigt Hill
#
# Bulk Modulus (GPa) = 20.76606 40.21436 30.49021
# Shear Modulus (GPa) = 12.98591 37.28487 25.13539
#
# Velocity S-wave (km/s) = 2.39538 4.05887 3.33259
# Velocity P-wave (km/s) = 4.10195 6.30355 5.31793
#
# Compressibility (1/GPa) = 0.04815550
#
# Stress axis : x y z
#
# Youngs Moduli (GPa) = 219.85402 32.85500 134.87249
#
# Poissons Ratio (x) = 0.02815 -0.02665
# Poissons Ratio (y) = 0.18835 -0.47705
# Poissons Ratio (z) = -0.04345 -0.11621
#
# Static dielectric constant tensor:
#      x y z
#    x 1.955470 0.000000 0.000450 
#    y 0.000000 0.651390 0.000000 
#    z 0.000450 0.000000 1.909250 
# 
# From -- ./inp_files/8009.got.cif
#   From: 2010.05.17/outbox.cif.g08.bks.cpg/sg13_5_cif.got.tgz:8009.got - 2010.06.03 16:44:36.
