data_PCOD9227597
_publ_section_title
;
Structure prediction by ZEFSAII (Michael W. Deem and Ramdas Pophale) SiO2 
 PCOD9227597
Probable space group: P 2/C
;
_chemical_formula_sum "Si O2"
_cell_formula_units_Z 30
_cell_length_a 8.934789
_cell_length_b 11.424954
_cell_length_c 30.964599
_cell_angle_alpha 90.000000
_cell_angle_beta 29.293189
_cell_angle_gamma 90.000000
_cell_volume 1546.538028
_symmetry_space_group_name_H-M "P 2/C"
_symmetry_group_IT_number 13
_symmetry_cell_setting 'monoclinic'
loop_
_space_group_symop_operation_xyz
x,y,z
-x,y,1/2-z
-x,-y,-z
x,-y,1/2+z
loop_
_atom_site_type_symbol
_atom_site_label
_atom_site_fract_x
_atom_site_fract_y
_atom_site_fract_z
Si Si1 0.699747 0.306310 0.589529
Si Si2 0.131108 0.902026 0.845610
Si Si3 0.000000 0.332344 0.750000
Si Si4 0.791957 0.550881 0.149567
Si Si5 0.182088 0.328163 0.040031
Si Si6 0.887965 0.704783 0.366087
Si Si7 0.154017 0.941150 0.419456
Si Si8 0.112101 0.046317 0.770555
O O1 0.339915 0.276299 0.671227
O O2 0.716126 0.412009 0.619560
O O3 0.831375 0.327046 0.508879
O O4 0.873812 0.197441 0.567171
O O5 0.500000 0.899837 0.750000
O O6 0.013287 0.777353 0.891104
O O7 0.033963 0.998305 0.906106
O O8 0.013807 0.944856 0.828569
O O9 0.049047 0.384873 0.690088
O O10 0.500000 0.507823 0.250000
O O11 0.052303 0.453200 0.086392
O O12 0.905185 0.665883 0.146553
O O13 0.531664 0.304515 0.965423
O O14 0.985414 0.832123 0.323298
O O15 0.520324 0.958086 0.324619
O O16 0.000000 0.000000 0.500000
O O17 0.000000 0.033187 0.750000
#
# Coordination Sequence:
#
# PCOD9227597 Si02
#       8
#     4   4   2   4   4   4   4   4
#     4  11  21  39  65  94 121 159 213 257 314 361
#     4  10  23  40  60  89 128 170 201 247 320 381
#     4  10  18  36  64  90 116 152 196 268 308 348
#     4  12  23  40  65  91 122 162 216 259 309 376
#     4  11  24  41  60  89 130 167 203 257 318 371
#     4  11  21  39  64  89 120 155 211 263 308 355
#     4  11  20  37  63  94 123 158 204 259 305 370
#     4  11  21  39  64  89 126 162 207 256 312 370
#
# _framework density 19.398164999999999
#
# number of rings (size 3 to 8) (size 9 to 14) (size 15 to 20)
#    0.000    1.067    4.667    2.800    0.000    1.600 
#    2.400    0.000    1.467    0.000    0.000    0.000 
#    0.000    0.000    0.000    0.000    0.000    0.000 
#
# Total GULP energy -167183.742301 kJ/mol
# GULP energy per Si atom -5572.791410 kJ/mol
# Density = 1.935401 g / cm^3
# Si number density = 19.398165 Si / 1000 Ang^3
#
#
#
# Elastic Constant Matrix: (Units=GPa)
#
#
# Indices 1 2 3 4 5 6 
#
# 1 90.3818 21.0833 22.7029 0.0000 18.9619 0.0000
# 2 21.0833 59.4867 35.6948 0.0000 6.4988 0.0000
# 3 22.7029 35.6948 105.9044 0.0000 13.1924 0.0000
# 4 0.0000 0.0000 0.0000 23.2306 0.0000 -0.5318
# 5 18.9619 6.4988 13.1924 0.0000 28.2075 0.0000
# 6 0.0000 0.0000 0.0000 -0.5318 0.0000 8.7283
#
#
#
# Elastic Compliance Matrix: (Units=1/GPa)
#
#
# Indices 1 2 3 4 5 6 
#
# 1 0.013778 -0.003550 -0.000749 0.000000 -0.008094 0.000000
# 2 -0.003550 0.022057 -0.006730 0.000000 0.000452 0.000000
# 3 -0.000749 -0.006730 0.012334 0.000000 -0.003715 0.000000
# 4 0.000000 0.000000 0.000000 0.043107 0.000000 0.002626
# 5 -0.008094 0.000452 -0.003715 0.000000 0.042526 0.000000
# 6 0.000000 0.000000 0.000000 0.002626 0.000000 0.114729
#
#
# Mechanical properties :
#
#
# Convention : Reuss Voigt Hill
#
# Bulk Modulus (GPa) = 38.29508 46.08168 42.18838
# Shear Modulus (GPa) = 17.90235 23.78608 20.84421
#
# Velocity S-wave (km/s) = 3.04120 3.50552 3.28158
# Velocity P-wave (km/s) = 5.66713 6.33973 6.01284
#
# Compressibility (1/GPa) = 0.02611302
#
# Stress axis : x y z
#
# Youngs Moduli (GPa) = 72.57696 45.33642 81.07681
#
# Poissons Ratio (x) = 0.16093 0.06073
# Poissons Ratio (y) = 0.25762 0.54562
# Poissons Ratio (z) = 0.05436 0.30510
#
# Static dielectric constant tensor:
#      x y z
#    x 1.705040 0.000000 0.017640 
#    y 0.000000 1.692330 0.000000 
#    z 0.017640 0.000000 1.685260 
# 
# From -- ./inp_files/96086.got.cif
#   From: 2010.05.17/outbox.cif.g08.bks.cpg/sg13_49_cif.got.tgz:96086.got - 2010.06.03 16:44:36.
