data_PCOD9227304
_publ_section_title
;
Structure prediction by ZEFSAII (Michael W. Deem and Ramdas Pophale) SiO2 
 PCOD9227304
Probable space group: P 2/C
;
_chemical_formula_sum "Si O2"
_cell_formula_units_Z 28
_cell_length_a 16.299623
_cell_length_b 9.595939
_cell_length_c 14.288728
_cell_angle_alpha 90.000000
_cell_angle_beta 150.897042
_cell_angle_gamma 90.000000
_cell_volume 1087.013038
_symmetry_space_group_name_H-M "P 2/C"
_symmetry_group_IT_number 13
_symmetry_cell_setting 'monoclinic'
loop_
_space_group_symop_operation_xyz
x,y,z
-x,y,1/2-z
-x,-y,-z
x,-y,1/2+z
loop_
_atom_site_type_symbol
_atom_site_label
_atom_site_fract_x
_atom_site_fract_y
_atom_site_fract_z
Si Si1 0.196540 0.497331 0.051143
Si Si2 0.465836 0.617942 0.616116
Si Si3 0.296622 0.832605 0.888116
Si Si4 0.692478 0.194444 0.785803
Si Si5 0.117757 0.932364 0.535678
Si Si6 0.162655 0.537952 0.796750
Si Si7 0.774820 0.142350 0.649278
O O1 0.344985 0.395307 0.233313
O O2 0.242231 0.657692 0.116218
O O3 0.171219 0.492677 0.913937
O O4 0.013112 0.477019 0.913403
O O5 0.500000 0.543837 0.750000
O O6 0.331084 0.530473 0.422262
O O7 0.362603 0.759096 0.537528
O O8 0.257737 0.858039 0.739105
O O9 0.182570 0.703496 0.806939
O O10 0.256647 0.979241 0.897796
O O11 0.492744 0.806722 0.101091
O O12 0.726709 0.176883 0.709152
O O13 0.790855 0.059944 0.925652
O O14 0.978516 0.842109 0.341149
O O15 0.000000 0.000000 0.500000
#
# Coordination Sequence:
#
# PCOD9227304 Si02
#       7
#     4   4   4   4   4   4   4
#     4  10  20  37  61  80 114 149 196 239 279 343
#     4  10  22  41  56  81 114 156 189 235 288 340
#     4  10  18  35  59  86 112 147 191 234 286 342
#     4  10  18  34  58  88 112 148 189 237 288 337
#     4   8  16  31  53  79 113 142 176 229 288 332
#     4  10  20  38  61  81 109 153 196 237 283 332
#     4  10  20  36  57  81 119 150 182 238 292 343
#
# _framework density 25.758662000000001
#
# number of rings (size 3 to 8) (size 9 to 14) (size 15 to 20)
#    0.000    2.571    1.429    4.286    0.000    0.571 
#    7.714    1.429    0.000    1.714    0.000    0.000 
#    0.000    0.000    0.000    0.000    0.000    0.000 
#
# Total GULP energy -156267.310476 kJ/mol
# GULP energy per Si atom -5580.975374 kJ/mol
# Density = 2.570003 g / cm^3
# Si number density = 25.758662 Si / 1000 Ang^3
#
#
#
# Elastic Constant Matrix: (Units=GPa)
#
#
# Indices 1 2 3 4 5 6 
#
# 1 51.9451 7.3904 15.4191 0.0000 -13.1918 0.0000
# 2 7.3904 161.2205 62.6013 0.0000 21.5108 0.0000
# 3 15.4191 62.6013 205.6575 0.0000 53.4743 0.0000
# 4 0.0000 0.0000 0.0000 56.9848 0.0000 -79.9904
# 5 -13.1918 21.5108 53.4743 0.0000 25.4413 0.0000
# 6 0.0000 0.0000 0.0000 -79.9904 0.0000 -64.0972
#
#
#
# Elastic Compliance Matrix: (Units=1/GPa)
#
#
# Indices 1 2 3 4 5 6 
#
# 1 0.041059 -0.003084 -0.018421 0.000000 0.062615 0.000000
# 2 -0.003084 0.007385 0.000050 0.000000 -0.007948 0.000000
# 3 -0.018421 0.000050 0.019235 0.000000 -0.050024 0.000000
# 4 0.000000 0.000000 0.000000 0.006377 0.000000 -0.007958
# 5 0.062615 -0.007948 -0.050024 0.000000 0.183637 0.000000
# 6 0.000000 0.000000 0.000000 -0.007958 0.000000 -0.005670
#
#
# Mechanical properties :
#
#
# Convention : Reuss Voigt Hill
#
# Bulk Modulus (GPa) = 40.37100 65.51608 52.94354
# Shear Modulus (GPa) = 16.49127 25.89327 21.19227
#
# Velocity S-wave (km/s) = 2.53301 3.17397 2.87143
# Velocity P-wave (km/s) = 4.92561 6.23874 5.62066
#
# Compressibility (1/GPa) = 0.02477025
#
# Stress axis : x y z
#
# Youngs Moduli (GPa) = 24.35502 135.40658 51.98747
#
# Poissons Ratio (x) = 0.41758 0.95764
# Poissons Ratio (y) = 0.07511 -0.00259
# Poissons Ratio (z) = 0.44864 -0.00674
#
# Static dielectric constant tensor:
#      x y z
#    x 2.070440 0.000000 0.034250 
#    y 0.000000 2.075880 0.000000 
#    z 0.034250 0.000000 2.237820 
# 
# From -- ./inp_files/82204.got.cif
#   From: 2010.05.17/outbox.cif.g08.bks.cpg/sg13_42_cif.got.tgz:82204.got - 2010.06.03 16:44:36.
