data_PCOD9227763
_publ_section_title
;
Structure prediction by ZEFSAII (Michael W. Deem and Ramdas Pophale) SiO2 
 PCOD9227763
Probable space group: P 2/C
;
_chemical_formula_sum "Si O2"
_cell_formula_units_Z 30
_cell_length_a 9.753375
_cell_length_b 13.224660
_cell_length_c 11.792639
_cell_angle_alpha 90.000000
_cell_angle_beta 111.375790
_cell_angle_gamma 90.000000
_cell_volume 1416.439504
_symmetry_space_group_name_H-M "P 2/C"
_symmetry_group_IT_number 13
_symmetry_cell_setting 'monoclinic'
loop_
_space_group_symop_operation_xyz
x,y,z
-x,y,1/2-z
-x,-y,-z
x,-y,1/2+z
loop_
_atom_site_type_symbol
_atom_site_label
_atom_site_fract_x
_atom_site_fract_y
_atom_site_fract_z
Si Si1 0.718546 0.424649 0.288555
Si Si2 0.103912 0.631497 0.452922
Si Si3 0.705344 0.794603 0.066590
Si Si4 0.326256 0.845834 0.199672
Si Si5 0.773764 0.365553 0.907227
Si Si6 0.463195 0.381365 0.471601
Si Si7 0.000000 0.466664 0.250000
Si Si8 0.581815 0.026230 0.400860
O O1 0.755719 0.385567 0.424378
O O2 0.709639 0.546145 0.305990
O O3 0.591086 0.377933 0.174954
O O4 0.872658 0.404861 0.271190
O O5 0.140348 0.737737 0.406205
O O6 0.090678 0.543206 0.357670
O O7 0.948584 0.619743 0.470022
O O8 0.709102 0.864963 0.179586
O O9 0.582144 0.704598 0.041352
O O10 0.659014 0.867735 0.950497
O O11 0.500000 0.820639 0.250000
O O12 0.241606 0.744223 0.148988
O O13 0.310658 0.933121 0.100987
O O14 0.678709 0.365233 0.991533
O O15 0.500000 0.500000 0.500000
O O16 0.500000 0.035078 0.250000
O O17 0.500000 0.000000 0.500000
#
# Coordination Sequence:
#
# PCOD9227763 Si02
#       8
#     4   4   4   4   4   4   2   4
#     4  11  22  35  57  88 130 166 215 261 318 379
#     4  11  24  39  60  91 124 174 212 263 326 405
#     4  12  24  41  65  98 129 164 219 270 332 400
#     4  11  21  42  68  94 118 165 216 275 336 400
#     4  11  22  40  63  85 128 174 218 262 329 398
#     4  12  24  37  60  96 132 173 219 270 321 390
#     4  10  18  40  58  78 122 178 212 246 310 394
#     4  11  22  42  68  97 128 165 215 281 352 404
#
# _framework density 21.179867999999999
#
# number of rings (size 3 to 8) (size 9 to 14) (size 15 to 20)
#    0.000    0.800    4.000    7.200    1.867    1.067 
#    0.000    0.667    0.000    0.000    0.000    0.000 
#    0.000    0.000    0.000    0.000    0.000    0.000 
#
# Total GULP energy -167252.093766 kJ/mol
# GULP energy per Si atom -5575.069792 kJ/mol
# Density = 2.113166 g / cm^3
# Si number density = 21.179868 Si / 1000 Ang^3
#
#
#
# Elastic Constant Matrix: (Units=GPa)
#
#
# Indices 1 2 3 4 5 6 
#
# 1 66.1430 11.6880 20.3756 0.0000 -16.6565 0.0000
# 2 11.6880 77.5959 11.2197 0.0000 -5.9717 0.0000
# 3 20.3756 11.2197 103.8533 0.0000 -13.3095 0.0000
# 4 0.0000 0.0000 0.0000 13.4271 0.0000 -4.9671
# 5 -16.6565 -5.9717 -13.3095 0.0000 31.9979 0.0000
# 6 0.0000 0.0000 0.0000 -4.9671 0.0000 26.8711
#
#
#
# Elastic Compliance Matrix: (Units=1/GPa)
#
#
# Indices 1 2 3 4 5 6 
#
# 1 0.018211 -0.001776 -0.002333 0.000000 0.008178 0.000000
# 2 -0.001776 0.013382 -0.000946 0.000000 0.001179 0.000000
# 3 -0.002333 -0.000946 0.010574 0.000000 0.003007 0.000000
# 4 0.000000 0.000000 0.000000 0.079943 0.000000 0.014777
# 5 0.008178 0.001179 0.003007 0.000000 0.036980 0.000000
# 6 0.000000 0.000000 0.000000 0.014777 0.000000 0.039946
#
#
# Mechanical properties :
#
#
# Convention : Reuss Voigt Hill
#
# Bulk Modulus (GPa) = 31.19480 37.12875 34.16177
# Shear Modulus (GPa) = 22.74458 28.07982 25.41220
#
# Velocity S-wave (km/s) = 3.28056 3.64507 3.46761
# Velocity P-wave (km/s) = 5.39536 5.94001 5.67422
#
# Compressibility (1/GPa) = 0.03205663
#
# Stress axis : x y z
#
# Youngs Moduli (GPa) = 54.91288 74.72502 94.56885
#
# Poissons Ratio (x) = 0.13274 0.22062
# Poissons Ratio (y) = 0.09754 0.08947
# Poissons Ratio (z) = 0.12811 0.07070
#
# Static dielectric constant tensor:
#      x y z
#    x 1.821840 0.000000 -0.041540 
#    y 0.000000 1.783620 0.000000 
#    z -0.041540 0.000000 1.908700 
# 
# From -- ./inp_files/33917.got.cif
#   From: 2010.05.17/outbox.cif.g08.bks.cpg/sg13_17_cif.got.tgz:33917.got - 2010.06.03 16:44:36.
