data_PCOD9227534
_publ_section_title
;
Structure prediction by ZEFSAII (Michael W. Deem and Ramdas Pophale) SiO2 
 PCOD9227534
Probable space group: P 2/C
;
_chemical_formula_sum "Si O2"
_cell_formula_units_Z 32
_cell_length_a 21.447663
_cell_length_b 5.301771
_cell_length_c 18.694250
_cell_angle_alpha 90.000000
_cell_angle_beta 37.463469
_cell_angle_gamma 90.000000
_cell_volume 1292.989550
_symmetry_space_group_name_H-M "P 2/C"
_symmetry_group_IT_number 13
_symmetry_cell_setting 'monoclinic'
loop_
_space_group_symop_operation_xyz
x,y,z
-x,y,1/2-z
-x,-y,-z
x,-y,1/2+z
loop_
_atom_site_type_symbol
_atom_site_label
_atom_site_fract_x
_atom_site_fract_y
_atom_site_fract_z
Si Si1 0.583944 0.780356 0.128027
Si Si2 0.200805 0.944453 0.101558
Si Si3 0.726629 0.565094 0.578971
Si Si4 0.907182 0.175193 0.424202
Si Si5 0.584265 0.377213 0.474359
Si Si6 0.046007 0.744941 0.920973
Si Si7 0.217435 0.112588 0.354830
Si Si8 0.286872 0.866968 0.166353
O O1 0.500000 0.931026 0.250000
O O2 0.689901 0.918764 0.011625
O O3 0.624654 0.564987 0.143834
O O4 0.542242 0.675759 0.091705
O O5 0.110984 0.090972 0.141218
O O6 0.220663 0.691659 0.038847
O O7 0.196096 0.913200 0.190854
O O8 0.815475 0.372957 0.521865
O O9 0.702383 0.744986 0.668448
O O10 0.009358 0.263028 0.371743
O O11 0.868749 0.939408 0.506894
O O12 0.500000 0.500000 0.500000
O O13 0.633871 0.106562 0.407108
O O14 0.666426 0.603673 0.401851
O O15 0.164327 0.740225 0.837667
O O16 0.000000 0.500000 0.000000
O O17 0.000000 0.000000 0.000000
O O18 0.254184 0.866451 0.278859
#
# Coordination Sequence:
#
# PCOD9227534 Si02
#       8
#     4   4   4   4   4   4   4   4
#     4  10  22  37  59  84 118 154 207 261 302 365
#     4   9  20  39  56  84 116 166 199 247 313 362
#     4  10  18  36  59  84 112 157 206 247 307 358
#     4   9  19  35  60  89 120 154 207 250 301 356
#     4  11  25  43  61  88 120 163 201 253 317 366
#     4  10  19  35  57  93 127 152 195 255 303 350
#     4  10  22  34  62  92 120 159 202 255 307 369
#     4  11  24  42  61  87 126 161 203 249 309 382
#
# _framework density 24.748846
#
# number of rings (size 3 to 8) (size 9 to 14) (size 15 to 20)
#    0.000    2.000    2.500    0.375    3.500    2.500 
#    0.000    0.625    0.000    0.000    0.000    0.000 
#    0.000    0.000    0.000    0.000    0.000    0.000 
#
# Total GULP energy -178465.765445 kJ/mol
# GULP energy per Si atom -5577.055170 kJ/mol
# Density = 2.469252 g / cm^3
# Si number density = 24.748846 Si / 1000 Ang^3
#
#
#
# Elastic Constant Matrix: (Units=GPa)
#
#
# Indices 1 2 3 4 5 6 
#
# 1 145.9438 5.3011 18.7212 0.0000 29.0455 0.0000
# 2 5.3011 74.0876 3.6551 0.0000 6.0570 0.0000
# 3 18.7212 3.6551 54.7827 0.0000 12.6027 0.0000
# 4 0.0000 0.0000 0.0000 16.0256 0.0000 3.6755
# 5 29.0455 6.0570 12.6027 0.0000 28.4506 0.0000
# 6 0.0000 0.0000 0.0000 3.6755 0.0000 28.6531
#
#
#
# Elastic Compliance Matrix: (Units=1/GPa)
#
#
# Indices 1 2 3 4 5 6 
#
# 1 0.008652 0.000119 -0.001032 0.000000 -0.008401 0.000000
# 2 0.000119 0.013742 -0.000286 0.000000 -0.002920 0.000000
# 3 -0.001032 -0.000286 0.020454 0.000000 -0.007946 0.000000
# 4 0.000000 0.000000 0.000000 0.064291 0.000000 -0.008247
# 5 -0.008401 -0.002920 -0.007946 0.000000 0.047867 0.000000
# 6 0.000000 0.000000 0.000000 -0.008247 0.000000 0.035958
#
#
# Mechanical properties :
#
#
# Convention : Reuss Voigt Hill
#
# Bulk Modulus (GPa) = 24.72211 36.68543 30.70377
# Shear Modulus (GPa) = 24.17270 31.10166 27.63718
#
# Velocity S-wave (km/s) = 3.12864 3.54883 3.34534
# Velocity P-wave (km/s) = 4.80230 5.62561 5.23018
#
# Compressibility (1/GPa) = 0.04044962
#
# Stress axis : x y z
#
# Youngs Moduli (GPa) = 115.58047 72.77025 48.89117
#
# Poissons Ratio (x) = -0.00864 0.05045
# Poissons Ratio (y) = -0.01372 0.01396
# Poissons Ratio (z) = 0.11927 0.02079
#
# Static dielectric constant tensor:
#      x y z
#    x 2.049650 0.000000 -0.035490 
#    y 0.000000 2.040880 0.000000 
#    z -0.035490 0.000000 2.042960 
# 
# From -- ./inp_files/70279.got.cif
#   From: 2010.05.17/outbox.cif.g08.bks.cpg/sg13_36_cif.got.tgz:70279.got - 2010.06.03 16:44:36.
