data_PCOD9227745
_publ_section_title
;
Structure prediction by ZEFSAII (Michael W. Deem and Ramdas Pophale) SiO2 
 PCOD9227745
Probable space group: P 2/C
;
_chemical_formula_sum "Si O2"
_cell_formula_units_Z 26
_cell_length_a 8.438577
_cell_length_b 18.944422
_cell_length_c 8.078713
_cell_angle_alpha 90.000000
_cell_angle_beta 103.206975
_cell_angle_gamma 90.000000
_cell_volume 1257.336454
_symmetry_space_group_name_H-M "P 2/C"
_symmetry_group_IT_number 13
_symmetry_cell_setting 'monoclinic'
loop_
_space_group_symop_operation_xyz
x,y,z
-x,y,1/2-z
-x,-y,-z
x,-y,1/2+z
loop_
_atom_site_type_symbol
_atom_site_label
_atom_site_fract_x
_atom_site_fract_y
_atom_site_fract_z
Si Si1 0.856889 0.557483 0.437414
Si Si2 0.500000 0.829781 0.750000
Si Si3 0.189037 0.785122 0.500716
Si Si4 0.806804 0.930463 0.200779
Si Si5 0.000000 0.677424 0.250000
Si Si6 0.000000 0.833706 0.750000
Si Si7 0.301941 0.077668 0.448682
Si Si8 0.623323 0.462509 0.156087
O O1 0.932428 0.625966 0.374157
O O2 0.726841 0.520555 0.282980
O O3 0.758940 0.576248 0.580512
O O4 0.000000 0.500000 0.500000
O O5 0.354226 0.782011 0.645060
O O6 0.554349 0.880510 0.610115
O O7 0.194375 0.859925 0.407740
O O8 0.044365 0.788641 0.600278
O O9 0.143077 0.725617 0.358885
O O10 0.728627 0.915970 0.362324
O O11 0.000000 0.950977 0.250000
O O12 0.707947 0.995236 0.098182
O O13 0.148641 0.884491 0.826565
O O14 0.500000 0.422574 0.250000
O O15 0.500000 0.500000 0.000000
#
# Coordination Sequence:
#
# PCOD9227745 Si02
#       8
#     4   2   4   4   2   2   4   4
#     4  11  20  40  69 104 133 165 222 278 314 394
#     4  10  26  44  64  98 136 172 228 290 348 386
#     4  11  24  44  66  92 132 180 223 276 337 416
#     4  12  21  37  66  99 127 172 232 282 336 391
#     4  12  24  43  71  98 128 182 228 260 342 402
#     4  10  18  39  61  84 124 168 226 268 322 388
#     4  11  21  35  65  97 129 171 220 288 335 392
#     4   9  19  37  67  99 138 170 193 265 342 376
#
# _framework density 20.678633999999999
#
# number of rings (size 3 to 8) (size 9 to 14) (size 15 to 20)
#    0.000    1.231    4.615    2.308    0.000    3.077 
#    2.769    1.538   27.077    0.000    0.000    0.000 
#    0.000    0.000    0.000    0.000    0.000    0.000 
#
# Total GULP energy -145180.271773 kJ/mol
# GULP energy per Si atom -5583.856607 kJ/mol
# Density = 2.063157 g / cm^3
# Si number density = 20.678634 Si / 1000 Ang^3
#
#
#
# Elastic Constant Matrix: (Units=GPa)
#
#
# Indices 1 2 3 4 5 6 
#
# 1 108.7962 39.3394 37.5223 0.0000 -15.2672 0.0000
# 2 39.3394 77.9245 26.8692 0.0000 7.4728 0.0000
# 3 37.5223 26.8692 91.1671 0.0000 -15.6017 0.0000
# 4 0.0000 0.0000 0.0000 24.8057 0.0000 3.9633
# 5 -15.2672 7.4728 -15.6017 0.0000 59.0044 0.0000
# 6 0.0000 0.0000 0.0000 3.9633 0.0000 6.4538
#
#
#
# Elastic Compliance Matrix: (Units=1/GPa)
#
#
# Indices 1 2 3 4 5 6 
#
# 1 0.012746 -0.005705 -0.003013 0.000000 0.003224 0.000000
# 2 -0.005705 0.017386 -0.003567 0.000000 -0.004621 0.000000
# 3 -0.003013 -0.003567 0.013830 0.000000 0.003329 0.000000
# 4 0.000000 0.000000 0.000000 0.044699 0.000000 -0.027450
# 5 0.003224 -0.004621 0.003329 0.000000 0.019248 0.000000
# 6 0.000000 0.000000 0.000000 -0.027450 0.000000 0.171806
#
#
# Mechanical properties :
#
#
# Convention : Reuss Voigt Hill
#
# Bulk Modulus (GPa) = 51.56651 53.92774 52.74713
# Shear Modulus (GPa) = 16.09023 29.66324 22.87674
#
# Velocity S-wave (km/s) = 2.79249 3.79157 3.32971
# Velocity P-wave (km/s) = 5.94883 6.73080 6.35186
#
# Compressibility (1/GPa) = 0.01939243
#
# Stress axis : x y z
#
# Youngs Moduli (GPa) = 78.45735 57.51731 72.30742
#
# Poissons Ratio (x) = 0.32813 0.21785
# Poissons Ratio (y) = 0.44759 0.25792
# Poissons Ratio (z) = 0.23638 0.20516
#
# Static dielectric constant tensor:
#      x y z
#    x 1.671770 0.000000 0.126640 
#    y 0.000000 1.688110 0.000000 
#    z 0.126640 0.000000 1.616260 
# 
# From -- ./inp_files/13162.got.cif
#   From: 2010.05.17/outbox.cif.g08.bks.cpg/sg13_7_cif.got.tgz:13162.got - 2010.06.03 16:44:36.
