data_PCOD9227496
_publ_section_title
;
Structure prediction by ZEFSAII (Michael W. Deem and Ramdas Pophale) SiO2 
 PCOD9227496
Probable space group: P 2/C
;
_chemical_formula_sum "Si O2"
_cell_formula_units_Z 26
_cell_length_a 7.669661
_cell_length_b 9.120112
_cell_length_c 19.837264
_cell_angle_alpha 90.000000
_cell_angle_beta 122.606801
_cell_angle_gamma 90.000000
_cell_volume 1168.881571
_symmetry_space_group_name_H-M "P 2/C"
_symmetry_group_IT_number 13
_symmetry_cell_setting 'monoclinic'
loop_
_space_group_symop_operation_xyz
x,y,z
-x,y,1/2-z
-x,-y,-z
x,-y,1/2+z
loop_
_atom_site_type_symbol
_atom_site_label
_atom_site_fract_x
_atom_site_fract_y
_atom_site_fract_z
Si Si1 0.433000 0.761733 0.505811
Si Si2 0.252717 0.055618 0.510823
Si Si3 0.048194 0.106268 0.152681
Si Si4 0.000000 0.641474 0.750000
Si Si5 0.433879 0.748302 0.354026
Si Si6 0.500000 0.191377 0.250000
Si Si7 0.000000 0.128463 0.750000
Si Si8 0.539756 0.564233 0.647584
O O1 0.636471 0.858947 0.530061
O O2 0.364662 0.714895 0.417272
O O3 0.473879 0.623799 0.561094
O O4 0.290843 0.883679 0.511034
O O5 0.387052 0.127432 0.599292
O O6 0.019610 0.093434 0.439476
O O7 0.294949 0.096677 0.212400
O O8 0.999248 0.255283 0.183468
O O9 0.948508 0.976452 0.175950
O O10 0.212009 0.554295 0.795176
O O11 0.215322 0.791833 0.276043
O O12 0.536353 0.597765 0.349988
O O13 0.524471 0.303433 0.317142
#
# Coordination Sequence:
#
# PCOD9227496 Si02
#       8
#     4   4   4   2   4   2   2   4
#     4   9  17  31  57  85 106 141 194 249 290 328
#     4   9  17  33  56  87 109 141 190 254 290 327
#     4  10  18  36  55  84 111 150 199 236 286 347
#     4   9  17  28  58  72 104 154 190 246 276 324
#     4  10  20  31  59  91 113 141 190 262 298 321
#     4  10  26  34  58  80 128 168 188 226 294 364
#     4  11  19  34  66  90 114 140 200 262 292 324
#     4  11  20  37  52  86 119 154 197 232 290 361
#
# _framework density 22.243486000000001
#
# number of rings (size 3 to 8) (size 9 to 14) (size 15 to 20)
#    0.923    1.231    3.077    0.923    4.308    0.000 
#    0.000    2.308    0.000    0.000    0.000    0.000 
#    0.000    0.000    0.000    0.000    0.000    0.000 
#
# Total GULP energy -144811.824658 kJ/mol
# GULP energy per Si atom -5569.685564 kJ/mol
# Density = 2.219286 g / cm^3
# Si number density = 22.243486 Si / 1000 Ang^3
#
#
#
# Elastic Constant Matrix: (Units=GPa)
#
#
# Indices 1 2 3 4 5 6 
#
# 1 17.5816 -4.6609 -21.6244 0.0000 -2.3530 0.0000
# 2 -4.6609 82.2600 16.6429 0.0000 9.0066 0.0000
# 3 -21.6244 16.6429 70.8864 0.0000 2.2834 0.0000
# 4 0.0000 0.0000 0.0000 22.6331 0.0000 5.1284
# 5 -2.3530 9.0066 2.2834 0.0000 23.1421 0.0000
# 6 0.0000 0.0000 0.0000 5.1284 0.0000 9.5185
#
#
#
# Elastic Compliance Matrix: (Units=1/GPa)
#
#
# Indices 1 2 3 4 5 6 
#
# 1 0.092148 -0.001255 0.028177 0.000000 0.007077 0.000000
# 2 -0.001255 0.013307 -0.003347 0.000000 -0.004976 0.000000
# 3 0.028177 -0.003347 0.023429 0.000000 0.001856 0.000000
# 4 0.000000 0.000000 0.000000 0.050327 0.000000 -0.027115
# 5 0.007077 -0.004976 0.001856 0.000000 0.045685 0.000000
# 6 0.000000 0.000000 0.000000 -0.027115 0.000000 0.119668
#
#
# Mechanical properties :
#
#
# Convention : Reuss Voigt Hill
#
# Bulk Modulus (GPa) = 5.68067 16.82704 11.25386
# Shear Modulus (GPa) = 14.04136 23.08342 18.56239
#
# Velocity S-wave (km/s) = 2.51521 3.22492 2.89192
# Velocity P-wave (km/s) = 3.31579 4.63122 4.02757
#
# Compressibility (1/GPa) = 0.17603546
#
# Stress axis : x y z
#
# Youngs Moduli (GPa) = 10.85210 75.14574 42.68281
#
# Poissons Ratio (x) = 0.09427 -1.20267
# Poissons Ratio (y) = 0.01361 0.14285
# Poissons Ratio (z) = -0.30578 0.25150
#
# Static dielectric constant tensor:
#      x y z
#    x 1.865500 0.000000 -0.005630 
#    y 0.000000 1.793080 0.000000 
#    z -0.005630 0.000000 1.942220 
# 
# From -- ./inp_files/84874.got.cif
#   From: 2010.05.17/outbox.cif.g08.bks.cpg/sg13_43_cif.got.tgz:84874.got - 2010.06.03 16:44:36.
