data_PCOD9227049
_publ_section_title
;
Structure prediction by ZEFSAII (Michael W. Deem and Ramdas Pophale) SiO2 
 PCOD9227049
Probable space group: P 2/C
;
_chemical_formula_sum "Si O2"
_cell_formula_units_Z 30
_cell_length_a 23.550477
_cell_length_b 12.341905
_cell_length_c 13.858618
_cell_angle_alpha 90.000000
_cell_angle_beta 19.378980
_cell_angle_gamma 90.000000
_cell_volume 1336.589174
_symmetry_space_group_name_H-M "P 2/C"
_symmetry_group_IT_number 13
_symmetry_cell_setting 'monoclinic'
loop_
_space_group_symop_operation_xyz
x,y,z
-x,y,1/2-z
-x,-y,-z
x,-y,1/2+z
loop_
_atom_site_type_symbol
_atom_site_label
_atom_site_fract_x
_atom_site_fract_y
_atom_site_fract_z
Si Si1 0.246458 0.595370 0.366329
Si Si2 0.734680 0.953553 0.614984
Si Si3 0.002169 0.478084 0.883536
Si Si4 0.000000 0.212242 0.250000
Si Si5 0.426134 0.081420 0.472070
Si Si6 0.945337 0.102821 0.151702
Si Si7 0.531826 0.318588 0.299543
Si Si8 0.083215 0.756095 0.266294
O O1 0.185116 0.519026 0.550374
O O2 0.153687 0.710135 0.535717
O O3 0.144002 0.545614 0.438143
O O4 0.442787 0.615863 0.028306
O O5 0.563238 0.912971 0.839376
O O6 0.870203 0.857202 0.378307
O O7 0.783090 0.057262 0.470422
O O8 0.703258 0.993533 0.774014
O O9 0.990229 0.351103 0.878361
O O10 0.000000 0.500000 0.000000
O O11 0.052061 0.142287 0.073804
O O12 0.500000 0.042294 0.250000
O O13 0.410202 0.210826 0.481818
O O14 0.967900 0.198501 0.039032
O O15 0.000000 0.000000 0.000000
O O16 0.500000 0.379731 0.250000
O O17 0.728827 0.284873 0.998138
#
# Coordination Sequence:
#
# PCOD9227049 Si02
#       8
#     4   4   4   2   4   4   4   4
#     4  10  22  36  58  83 104 145 198 241 286 341
#     4   9  19  33  52  81 115 148 185 223 274 349
#     4  10  20  37  56  79 111 143 185 244 297 339
#     4  10  18  34  54  76 108 142 188 236 276 328
#     4   9  18  33  54  81 112 145 185 232 278 330
#     4  10  20  33  53  84 115 147 186 226 279 345
#     4  10  18  32  57  83 106 138 188 242 287 333
#     4  10  20  35  54  79 116 151 184 236 293 338
#
# _framework density 22.445191000000001
#
# number of rings (size 3 to 8) (size 9 to 14) (size 15 to 20)
#    0.000    2.400    0.000    4.000    0.000    4.800 
#    0.000    8.000    0.000    0.800    0.000    0.000 
#    0.000    2.133    0.000    0.000    0.000    0.000 
#
# Total GULP energy -167050.512063 kJ/mol
# GULP energy per Si atom -5568.350402 kJ/mol
# Density = 2.239410 g / cm^3
# Si number density = 22.445191 Si / 1000 Ang^3
#
#
#
# Elastic Constant Matrix: (Units=GPa)
#
#
# Indices 1 2 3 4 5 6 
#
# 1 75.9984 28.4253 18.2921 0.0000 35.7629 0.0000
# 2 28.4253 101.0410 22.6657 0.0000 22.8350 0.0000
# 3 18.2921 22.6657 83.7853 0.0000 35.0356 0.0000
# 4 0.0000 0.0000 0.0000 22.7686 0.0000 3.7641
# 5 35.7629 22.8350 35.0356 0.0000 53.7379 0.0000
# 6 0.0000 0.0000 0.0000 3.7641 0.0000 17.5344
#
#
#
# Elastic Compliance Matrix: (Units=1/GPa)
#
#
# Indices 1 2 3 4 5 6 
#
# 1 0.020139 -0.003092 0.002055 0.000000 -0.013429 0.000000
# 2 -0.003092 0.011543 -0.001728 0.000000 -0.001721 0.000000
# 3 0.002055 -0.001728 0.016799 0.000000 -0.011586 0.000000
# 4 0.000000 0.000000 0.000000 0.045536 0.000000 -0.009775
# 5 -0.013429 -0.001721 -0.011586 0.000000 0.035830 0.000000
# 6 0.000000 0.000000 0.000000 -0.009775 0.000000 0.059129
#
#
# Mechanical properties :
#
#
# Convention : Reuss Voigt Hill
#
# Bulk Modulus (GPa) = 23.28219 44.39898 33.84058
# Shear Modulus (GPa) = 23.94362 31.57095 27.75728
#
# Velocity S-wave (km/s) = 3.26967 3.75451 3.52045
# Velocity P-wave (km/s) = 4.96485 6.21443 5.62445
#
# Compressibility (1/GPa) = 0.04295129
#
# Stress axis : x y z
#
# Youngs Moduli (GPa) = 49.65451 86.63007 59.52837
#
# Poissons Ratio (x) = 0.26784 -0.12233
# Poissons Ratio (y) = 0.15352 0.10287
# Poissons Ratio (z) = -0.10204 0.14971
#
# Static dielectric constant tensor:
#      x y z
#    x 1.850160 0.000000 -0.009440 
#    y 0.000000 1.892070 0.000000 
#    z -0.009440 0.000000 1.964030 
# 
# From -- ./inp_files/59611.got.cif
#   From: 2010.05.17/outbox.cif.g08.bks.cpg/sg13_30_cif.got.tgz:59611.got - 2010.06.03 16:44:36.
