data_PCOD9227219
_publ_section_title
;
Structure prediction by ZEFSAII (Michael W. Deem and Ramdas Pophale) SiO2 
 PCOD9227219
Probable space group: P 2/C
;
_chemical_formula_sum "Si O2"
_cell_formula_units_Z 30
_cell_length_a 19.772720
_cell_length_b 14.189342
_cell_length_c 9.378178
_cell_angle_alpha 90.000000
_cell_angle_beta 138.004817
_cell_angle_gamma 90.000000
_cell_volume 1760.424829
_symmetry_space_group_name_H-M "P 2/C"
_symmetry_group_IT_number 13
_symmetry_cell_setting 'monoclinic'
loop_
_space_group_symop_operation_xyz
x,y,z
-x,y,1/2-z
-x,-y,-z
x,-y,1/2+z
loop_
_atom_site_type_symbol
_atom_site_label
_atom_site_fract_x
_atom_site_fract_y
_atom_site_fract_z
Si Si1 0.553935 0.374156 0.199627
Si Si2 0.281655 0.760703 0.980119
Si Si3 0.410324 0.113621 0.877144
Si Si4 0.674375 0.040558 0.457513
Si Si5 0.128789 0.089043 0.206264
Si Si6 0.000000 0.008912 0.750000
Si Si7 0.409316 0.586023 0.214774
Si Si8 0.633333 0.197537 0.192883
O O1 0.500000 0.327388 0.250000
O O2 0.603400 0.473827 0.320718
O O3 0.631735 0.303361 0.249877
O O4 0.461495 0.396785 0.948578
O O5 0.330775 0.809262 0.195514
O O6 0.311995 0.650983 0.037269
O O7 0.170379 0.804579 0.789592
O O8 0.338377 0.799583 0.927656
O O9 0.398456 0.027579 0.747781
O O10 0.378833 0.078230 0.983646
O O11 0.519635 0.159786 0.036210
O O12 0.699981 0.127430 0.392615
O O13 0.773366 0.979844 0.648465
O O14 0.067728 0.055342 0.250494
O O15 0.065496 0.071046 0.963408
O O16 0.500000 0.615631 0.250000
#
# Coordination Sequence:
#
# PCOD9227219 Si02
#       8
#     4   4   4   4   4   2   4   4
#     4  10  20  31  48  71 102 152 188 210 239 277
#     4  11  20  34  52  73 102 132 181 213 256 293
#     4  11  21  33  45  67 104 150 177 207 239 286
#     4  11  22  33  48  73 103 132 180 213 250 290
#     4  10  21  36  56  76  97 129 159 218 259 332
#     4  10  20  40  58  72  98 126 162 202 296 328
#     4  10  18  34  51  70 105 150 179 212 247 285
#     4  12  21  32  46  71 106 149 182 209 240 286
#
# _framework density 17.041340999999999
#
# number of rings (size 3 to 8) (size 9 to 14) (size 15 to 20)
#    0.000    1.333    2.667    6.000    0.000    2.133 
#    0.000    0.000    0.000    0.000    0.000    0.000 
#    0.000   18.133    0.000    0.000    0.000    0.000 
#
# Total GULP energy -167431.694961 kJ/mol
# GULP energy per Si atom -5581.056499 kJ/mol
# Density = 1.700255 g / cm^3
# Si number density = 17.041341 Si / 1000 Ang^3
#
#
#
# Elastic Constant Matrix: (Units=GPa)
#
#
# Indices 1 2 3 4 5 6 
#
# 1 69.3019 18.9881 24.6340 0.0000 -12.0680 0.0000
# 2 18.9881 94.8490 29.3045 0.0000 5.7358 0.0000
# 3 24.6340 29.3045 74.6246 0.0000 -6.4326 0.0000
# 4 0.0000 0.0000 0.0000 22.6328 0.0000 -1.8219
# 5 -12.0680 5.7358 -6.4326 0.0000 28.0257 0.0000
# 6 0.0000 0.0000 0.0000 -1.8219 0.0000 22.9067
#
#
#
# Elastic Compliance Matrix: (Units=1/GPa)
#
#
# Indices 1 2 3 4 5 6 
#
# 1 0.017954 -0.002732 -0.004223 0.000000 0.007321 0.000000
# 2 -0.002732 0.012783 -0.004535 0.000000 -0.004834 0.000000
# 3 -0.004223 -0.004535 0.016831 0.000000 0.002973 0.000000
# 4 0.000000 0.000000 0.000000 0.044468 0.000000 0.003537
# 5 0.007321 -0.004834 0.002973 0.000000 0.040506 0.000000
# 6 0.000000 0.000000 0.000000 0.003537 0.000000 0.043937
#
#
# Mechanical properties :
#
#
# Convention : Reuss Voigt Hill
#
# Bulk Modulus (GPa) = 40.66786 42.73652 41.70219
# Shear Modulus (GPa) = 24.07836 25.76965 24.92400
#
# Velocity S-wave (km/s) = 3.76298 3.89290 3.82849
# Velocity P-wave (km/s) = 6.54187 6.73341 6.63833
#
# Compressibility (1/GPa) = 0.02458944
#
# Stress axis : x y z
#
# Youngs Moduli (GPa) = 55.69747 78.22652 59.41302
#
# Poissons Ratio (x) = 0.21374 0.25088
# Poissons Ratio (y) = 0.15219 0.26942
# Poissons Ratio (z) = 0.23519 0.35473
#
# Static dielectric constant tensor:
#      x y z
#    x 1.589000 0.000000 -0.020760 
#    y 0.000000 1.632960 0.000000 
#    z -0.020760 0.000000 1.603780 
# 
# From -- ./inp_files/21904.got.cif
#   From: 2010.05.17/outbox.cif.g08.bks.cpg/sg13_11_cif.got.tgz:21904.got - 2010.06.03 16:44:36.
