data_PCOD9227377
_publ_section_title
;
Structure prediction by ZEFSAII (Michael W. Deem and Ramdas Pophale) SiO2 
 PCOD9227377
Probable space group: P 2/C
;
_chemical_formula_sum "Si O2"
_cell_formula_units_Z 26
_cell_length_a 23.513782
_cell_length_b 9.158801
_cell_length_c 9.381600
_cell_angle_alpha 90.000000
_cell_angle_beta 34.766100
_cell_angle_gamma 90.000000
_cell_volume 1152.089644
_symmetry_space_group_name_H-M "P 2/C"
_symmetry_group_IT_number 13
_symmetry_cell_setting 'monoclinic'
loop_
_space_group_symop_operation_xyz
x,y,z
-x,y,1/2-z
-x,-y,-z
x,-y,1/2+z
loop_
_atom_site_type_symbol
_atom_site_label
_atom_site_fract_x
_atom_site_fract_y
_atom_site_fract_z
Si Si1 0.118681 0.333674 0.493425
Si Si2 0.538382 0.275082 0.522917
Si Si3 0.755291 0.162533 0.023703
Si Si4 0.366951 0.581213 0.219235
Si Si5 0.760657 0.395813 0.785325
Si Si6 0.000000 0.945266 0.750000
Si Si7 0.128098 0.878265 0.746313
O O1 0.182785 0.240437 0.476012
O O2 0.148726 0.501255 0.445045
O O3 0.152059 0.273313 0.270847
O O4 0.000000 0.320182 0.750000
O O5 0.574854 0.442675 0.468537
O O6 0.444953 0.297692 0.611220
O O7 0.500000 0.213300 0.750000
O O8 0.637082 0.188808 0.275030
O O9 0.788881 0.253557 0.816071
O O10 0.784650 0.994104 0.959099
O O11 0.308080 0.499939 0.469741
O O12 0.299527 0.641840 0.232049
O O13 0.931278 0.860665 0.778693
O O14 0.062972 0.043522 0.507550
#
# Coordination Sequence:
#
# PCOD9227377 Si02
#       7
#     4   4   4   4   4   2   4
#     4  12  23  43  64  92 138 178 216 273 327 393
#     4  10  18  34  65  92 127 166 213 269 333 390
#     4  11  24  40  62 103 129 167 228 276 327 389
#     4  10  19  35  62  96 123 169 211 262 325 411
#     4  11  22  41  63 101 131 167 219 269 342 381
#     4  10  20  40  68  92 114 178 242 254 312 396
#     4  11  21  42  68  93 123 180 231 271 317 396
#
# _framework density 22.567689000000001
#
# number of rings (size 3 to 8) (size 9 to 14) (size 15 to 20)
#    0.000    1.231    6.923    0.923    0.000    1.846 
#    1.385    0.000    0.000    3.692    4.000    0.000 
#    0.000    0.000    0.000    0.000    0.000    0.000 
#
# Total GULP energy -145301.028408 kJ/mol
# GULP energy per Si atom -5588.501093 kJ/mol
# Density = 2.251632 g / cm^3
# Si number density = 22.567689 Si / 1000 Ang^3
#
#
#
# Elastic Constant Matrix: (Units=GPa)
#
#
# Indices 1 2 3 4 5 6 
#
# 1 194.6533 47.0150 28.3442 0.0000 5.4156 0.0000
# 2 47.0150 63.4092 24.2483 0.0000 -14.9219 0.0000
# 3 28.3442 24.2483 82.6839 0.0000 3.2773 0.0000
# 4 0.0000 0.0000 0.0000 10.4319 0.0000 16.7315
# 5 5.4156 -14.9219 3.2773 0.0000 30.0311 0.0000
# 6 0.0000 0.0000 0.0000 16.7315 0.0000 2.9444
#
#
#
# Elastic Compliance Matrix: (Units=1/GPa)
#
#
# Indices 1 2 3 4 5 6 
#
# 1 0.006701 -0.005738 -0.000455 0.000000 -0.004010 0.000000
# 2 -0.005738 0.025807 -0.006177 0.000000 0.014532 0.000000
# 3 -0.000455 -0.006177 0.014242 0.000000 -0.004542 0.000000
# 4 0.000000 0.000000 0.000000 -0.011814 0.000000 0.067134
# 5 -0.004010 0.014532 -0.004542 0.000000 0.041738 0.000000
# 6 0.000000 0.000000 0.000000 0.067134 0.000000 -0.041857
#
#
# Mechanical properties :
#
#
# Convention : Reuss Voigt Hill
#
# Bulk Modulus (GPa) = 45.43678 59.99574 52.71626
# Shear Modulus (GPa) = 74.74401 24.75741 49.75071
#
# Velocity S-wave (km/s) = 5.76123 3.31574 4.70032
# Velocity P-wave (km/s) = 8.02702 6.42661 7.27098
#
# Compressibility (1/GPa) = 0.02200860
#
# Stress axis : x y z
#
# Youngs Moduli (GPa) = 149.22823 38.74897 70.21493
#
# Poissons Ratio (x) = 0.22234 0.03198
# Poissons Ratio (y) = 0.85628 0.43374
# Poissons Ratio (z) = 0.06797 0.23936
#
# Static dielectric constant tensor:
#      x y z
#    x 1.822750 0.000000 -0.026880 
#    y 0.000000 1.818200 0.000000 
#    z -0.026880 0.000000 1.924820 
# 
# From -- ./inp_files/23313.got.cif
#   From: 2010.05.17/outbox.cif.g08.bks.cpg/sg13_12_cif.got.tgz:23313.got - 2010.06.03 16:44:36.
