data_PCOD9227616
_publ_section_title
;
Structure prediction by ZEFSAII (Michael W. Deem and Ramdas Pophale) SiO2 
 PCOD9227616
Probable space group: P 2/C
;
_chemical_formula_sum "Si O2"
_cell_formula_units_Z 30
_cell_length_a 14.537947
_cell_length_b 8.657121
_cell_length_c 16.435305
_cell_angle_alpha 90.000000
_cell_angle_beta 48.181524
_cell_angle_gamma 90.000000
_cell_volume 1541.568214
_symmetry_space_group_name_H-M "P 2/C"
_symmetry_group_IT_number 13
_symmetry_cell_setting 'monoclinic'
loop_
_space_group_symop_operation_xyz
x,y,z
-x,y,1/2-z
-x,-y,-z
x,-y,1/2+z
loop_
_atom_site_type_symbol
_atom_site_label
_atom_site_fract_x
_atom_site_fract_y
_atom_site_fract_z
Si Si1 0.277587 0.579671 0.394328
Si Si2 0.000000 0.651082 0.750000
Si Si3 0.621043 0.591386 0.898534
Si Si4 0.244783 0.194815 0.064658
Si Si5 0.214456 0.671912 0.258027
Si Si6 0.461489 0.323511 0.353256
Si Si7 0.937453 0.388488 0.914894
Si Si8 0.756826 0.166699 0.921166
O O1 0.252221 0.713663 0.475091
O O2 0.288019 0.655959 0.299281
O O3 0.390756 0.477570 0.362802
O O4 0.162695 0.457025 0.463012
O O5 0.880700 0.757467 0.815470
O O6 0.974986 0.535979 0.838921
O O7 0.648592 0.731973 0.942086
O O8 0.737468 0.476121 0.823212
O O9 0.584989 0.644754 0.830188
O O10 0.500000 0.500000 0.000000
O O11 0.244690 0.012386 0.056069
O O12 0.237285 0.807824 0.179635
O O13 0.069551 0.672871 0.366222
O O14 0.500000 0.232034 0.250000
O O15 0.366747 0.240879 0.468889
O O16 0.867918 0.262898 0.898869
#
# Coordination Sequence:
#
# PCOD9227616 Si02
#       8
#     4   2   4   4   4   4   4   4
#     4  10  22  38  63  91 125 158 223 271 306 365
#     4  10  18  36  68  84 118 168 220 256 296 374
#     4  12  21  40  67  89 118 162 226 257 301 380
#     4  11  24  41  60  95 132 168 206 262 328 380
#     4  12  20  38  65  93 118 166 218 267 313 374
#     4  11  22  42  65  92 121 167 213 269 313 371
#     4  10  19  39  62  91 119 167 213 263 314 373
#     4  11  24  40  63  92 136 166 205 263 335 389
#
# _framework density 19.460702000000001
#
# number of rings (size 3 to 8) (size 9 to 14) (size 15 to 20)
#    0.000    1.067    6.667    1.200    1.867    0.533 
#    2.400    1.333    0.000    0.000    0.000    0.000 
#    0.000    0.000    0.000    0.000    0.000    0.000 
#
# Total GULP energy -167319.472396 kJ/mol
# GULP energy per Si atom -5577.315747 kJ/mol
# Density = 1.941641 g / cm^3
# Si number density = 19.460702 Si / 1000 Ang^3
#
#
#
# Elastic Constant Matrix: (Units=GPa)
#
#
# Indices 1 2 3 4 5 6 
#
# 1 73.4620 33.8055 20.6128 0.0000 3.3081 0.0000
# 2 33.8055 104.7200 27.8610 0.0000 0.0622 0.0000
# 3 20.6128 27.8610 70.2594 0.0000 2.0659 0.0000
# 4 0.0000 0.0000 0.0000 10.5187 0.0000 1.5176
# 5 3.3081 0.0622 2.0659 0.0000 40.6490 0.0000
# 6 0.0000 0.0000 0.0000 1.5176 0.0000 16.5153
#
#
#
# Elastic Compliance Matrix: (Units=1/GPa)
#
#
# Indices 1 2 3 4 5 6 
#
# 1 0.016613 -0.004556 -0.003033 0.000000 -0.001191 0.000000
# 2 -0.004556 0.011926 -0.003408 0.000000 0.000526 0.000000
# 3 -0.003033 -0.003408 0.016491 0.000000 -0.000586 0.000000
# 4 0.000000 0.000000 0.000000 0.096347 0.000000 -0.008854
# 5 -0.001191 0.000526 -0.000586 0.000000 0.024727 0.000000
# 6 0.000000 0.000000 0.000000 -0.008854 0.000000 0.061364
#
#
# Mechanical properties :
#
#
# Convention : Reuss Voigt Hill
#
# Bulk Modulus (GPa) = 43.40583 45.88889 44.64736
# Shear Modulus (GPa) = 19.44463 24.61405 22.02934
#
# Velocity S-wave (km/s) = 3.16440 3.56027 3.36816
# Velocity P-wave (km/s) = 5.97528 6.36649 6.17399
#
# Compressibility (1/GPa) = 0.02303838
#
# Stress axis : x y z
#
# Youngs Moduli (GPa) = 60.19241 83.84791 60.63751
#
# Poissons Ratio (x) = 0.38198 0.18389
# Poissons Ratio (y) = 0.27421 0.20667
# Poissons Ratio (z) = 0.18254 0.28578
#
# Static dielectric constant tensor:
#      x y z
#    x 1.726040 0.000000 -0.017510 
#    y 0.000000 1.657360 0.000000 
#    z -0.017510 0.000000 1.725640 
# 
# From -- ./inp_files/67962.got.cif
#   From: 2010.05.17/outbox.cif.g08.bks.cpg/sg13_34_cif.got.tgz:67962.got - 2010.06.03 16:44:36.
