data_PCOD9227395
_publ_section_title
;
Structure prediction by ZEFSAII (Michael W. Deem and Ramdas Pophale) SiO2 
 PCOD9227395
Probable space group: P 2/C
;
_chemical_formula_sum "Si O2"
_cell_formula_units_Z 26
_cell_length_a 20.662376
_cell_length_b 5.081981
_cell_length_c 19.285304
_cell_angle_alpha 90.000000
_cell_angle_beta 39.258197
_cell_angle_gamma 90.000000
_cell_volume 1281.496173
_symmetry_space_group_name_H-M "P 2/C"
_symmetry_group_IT_number 13
_symmetry_cell_setting 'monoclinic'
loop_
_space_group_symop_operation_xyz
x,y,z
-x,y,1/2-z
-x,-y,-z
x,-y,1/2+z
loop_
_atom_site_type_symbol
_atom_site_label
_atom_site_fract_x
_atom_site_fract_y
_atom_site_fract_z
Si Si1 0.408452 0.698993 0.139772
Si Si2 0.124886 0.701211 0.929278
Si Si3 0.619891 0.755393 0.029298
Si Si4 0.716525 0.255654 0.896526
Si Si5 0.500000 0.527716 0.750000
Si Si6 0.652695 0.800050 0.726509
Si Si7 0.900880 0.797006 0.145959
O O1 0.529805 0.737235 0.046142
O O2 0.357921 0.761628 0.108715
O O3 0.378635 0.403641 0.186276
O O4 0.364202 0.905208 0.232841
O O5 0.227937 0.752591 0.885910
O O6 0.131412 0.422656 0.884309
O O7 0.114775 0.921638 0.877483
O O8 0.020225 0.733414 0.058888
O O9 0.563940 0.656328 0.144837
O O10 0.704032 0.541743 0.939014
O O11 0.671688 0.038856 0.985941
O O12 0.828818 0.213654 0.772436
O O13 0.577581 0.711896 0.728040
#
# Coordination Sequence:
#
# PCOD9227395 Si02
#       7
#     4   4   4   4   2   4   4
#     4  11  21  35  55  86 113 148 182 230 289 354
#     4  10  18  35  55  86 114 152 168 236 271 348
#     4  11  24  36  55  76 116 152 192 230 279 323
#     4  12  20  36  56  86 115 145 176 244 287 346
#     4  10  26  42  54  82 106 162 204 228 262 348
#     4  11  20  37  60  79 118 149 193 230 273 325
#     4  10  20  32  57  86 119 137 186 213 302 341
#
# _framework density 20.288782999999999
#
# number of rings (size 3 to 8) (size 9 to 14) (size 15 to 20)
#    0.000    1.231    3.077    4.615    0.000    5.538 
#    0.000    0.000    0.000    0.923    0.000    4.308 
#    0.000    0.000    0.000    0.000    0.000    0.000 
#
# Total GULP energy -145394.287641 kJ/mol
# GULP energy per Si atom -5592.087986 kJ/mol
# Density = 2.024261 g / cm^3
# Si number density = 20.288783 Si / 1000 Ang^3
#
#
#
# Elastic Constant Matrix: (Units=GPa)
#
#
# Indices 1 2 3 4 5 6 
#
# 1 56.9471 1.0462 30.5614 0.0000 -5.1064 0.0000
# 2 1.0462 52.7879 -1.8209 0.0000 -0.2730 0.0000
# 3 30.5614 -1.8209 101.9017 0.0000 -17.9486 0.0000
# 4 0.0000 0.0000 0.0000 29.8807 0.0000 -4.2893
# 5 -5.1064 -0.2730 -17.9486 0.0000 33.7206 0.0000
# 6 0.0000 0.0000 0.0000 -4.2893 0.0000 11.9823
#
#
#
# Elastic Compliance Matrix: (Units=1/GPa)
#
#
# Indices 1 2 3 4 5 6 
#
# 1 0.020951 -0.000635 -0.006330 0.000000 -0.000202 0.000000
# 2 -0.000635 0.018979 0.000595 0.000000 0.000374 0.000000
# 3 -0.006330 0.000595 0.012750 0.000000 0.005833 0.000000
# 4 0.000000 0.000000 0.000000 0.035279 0.000000 0.012629
# 5 -0.000202 0.000374 0.005833 0.000000 0.032732 0.000000
# 6 0.000000 0.000000 0.000000 0.012629 0.000000 0.087977
#
#
# Mechanical properties :
#
#
# Convention : Reuss Voigt Hill
#
# Bulk Modulus (GPa) = 25.03717 30.13444 27.58581
# Shear Modulus (GPa) = 21.30187 27.24006 24.27097
#
# Velocity S-wave (km/s) = 3.24378 3.66815 3.46247
# Velocity P-wave (km/s) = 5.13777 5.72935 5.44160
#
# Compressibility (1/GPa) = 0.03994061
#
# Stress axis : x y z
#
# Youngs Moduli (GPa) = 47.73055 52.69042 78.43211
#
# Poissons Ratio (x) = 0.03344 0.49650
# Poissons Ratio (y) = 0.03029 -0.04670
# Poissons Ratio (z) = 0.30215 -0.03137
#
# Static dielectric constant tensor:
#      x y z
#    x 1.702860 0.000000 -0.017540 
#    y 0.000000 1.718180 0.000000 
#    z -0.017540 0.000000 1.739400 
# 
# From -- ./inp_files/70249.got.cif
#   From: 2010.05.17/outbox.cif.g08.bks.cpg/sg13_36_cif.got.tgz:70249.got - 2010.06.03 16:44:36.
