data_PCOD9227364
_publ_section_title
;
Structure prediction by ZEFSAII (Michael W. Deem and Ramdas Pophale) SiO2 
 PCOD9227364
Probable space group: P 2/C
;
_chemical_formula_sum "Si O2"
_cell_formula_units_Z 26
_cell_length_a 5.132506
_cell_length_b 10.471482
_cell_length_c 21.566133
_cell_angle_alpha 90.000000
_cell_angle_beta 111.667526
_cell_angle_gamma 90.000000
_cell_volume 1077.172988
_symmetry_space_group_name_H-M "P 2/C"
_symmetry_group_IT_number 13
_symmetry_cell_setting 'monoclinic'
loop_
_space_group_symop_operation_xyz
x,y,z
-x,y,1/2-z
-x,-y,-z
x,-y,1/2+z
loop_
_atom_site_type_symbol
_atom_site_label
_atom_site_fract_x
_atom_site_fract_y
_atom_site_fract_z
Si Si1 0.298168 0.862908 0.791582
Si Si2 0.287692 0.205286 0.518647
Si Si3 0.570002 0.521013 0.434335
Si Si4 0.305634 0.868715 0.346696
Si Si5 0.500000 0.304433 0.750000
Si Si6 0.021352 0.383810 0.826828
Si Si7 0.319624 0.244266 0.067004
O O1 0.500000 0.886888 0.750000
O O2 0.496215 0.793632 0.858140
O O3 0.000000 0.796304 0.750000
O O4 0.204253 0.993712 0.817848
O O5 0.278032 0.342588 0.553042
O O6 0.441099 0.116474 0.582451
O O7 0.492155 0.219571 0.477563
O O8 0.977028 0.174458 0.468371
O O9 0.500000 0.500000 0.500000
O O10 0.266480 0.531771 0.374857
O O11 0.738309 0.395935 0.429900
O O12 0.384644 0.794171 0.290807
O O13 0.090655 0.762602 0.354409
O O14 0.692823 0.396709 0.809425
O O15 0.000000 0.394268 0.750000
#
# Coordination Sequence:
#
# PCOD9227364 Si02
#       7
#     4   4   4   4   2   4   4
#     4  12  26  44  68  92 131 178 216 261 316 392
#     4  10  23  41  68  95 127 164 211 277 320 379
#     4   9  20  39  65  89 127 167 214 261 322 383
#     4  10  22  37  65  94 128 163 216 263 334 374
#     4  10  18  34  62  90 132 156 212 270 330 376
#     4   9  19  36  56  94 123 163 207 274 321 377
#     4  11  24  44  63  94 131 170 217 258 324 385
#
# _framework density 24.137259
#
# number of rings (size 3 to 8) (size 9 to 14) (size 15 to 20)
#    0.000    1.846    0.769    2.769    6.462    1.846 
#    8.308    0.000    8.462    0.000    0.000    0.000 
#    0.000    0.000    0.000    0.000    0.000    0.000 
#
# Total GULP energy -145126.760802 kJ/mol
# GULP energy per Si atom -5581.798492 kJ/mol
# Density = 2.408232 g / cm^3
# Si number density = 24.137259 Si / 1000 Ang^3
#
#
#
# Elastic Constant Matrix: (Units=GPa)
#
#
# Indices 1 2 3 4 5 6 
#
# 1 81.9960 -9.3357 32.2196 0.0000 18.1178 0.0000
# 2 -9.3357 11.1517 7.5707 0.0000 -6.4991 0.0000
# 3 32.2196 7.5707 177.1836 0.0000 31.4649 0.0000
# 4 0.0000 0.0000 0.0000 22.8575 0.0000 6.2222
# 5 18.1178 -6.4991 31.4649 0.0000 47.5672 0.0000
# 6 0.0000 0.0000 0.0000 6.2222 0.0000 11.1435
#
#
#
# Elastic Compliance Matrix: (Units=1/GPa)
#
#
# Indices 1 2 3 4 5 6 
#
# 1 0.015397 0.013808 -0.003041 0.000000 -0.001967 0.000000
# 2 0.013808 0.119189 -0.010834 0.000000 0.018192 0.000000
# 3 -0.003041 -0.010834 0.007611 0.000000 -0.005357 0.000000
# 4 0.000000 0.000000 0.000000 0.051591 0.000000 -0.028807
# 5 -0.001967 0.018192 -0.005357 0.000000 0.027801 0.000000
# 6 0.000000 0.000000 0.000000 -0.028807 0.000000 0.105823
#
#
# Mechanical properties :
#
#
# Convention : Reuss Voigt Hill
#
# Bulk Modulus (GPa) = 7.03913 36.80451 21.92182
# Shear Modulus (GPa) = 13.33687 32.30541 22.82114
#
# Velocity S-wave (km/s) = 2.35317 3.66239 3.07819
# Velocity P-wave (km/s) = 3.21027 5.75893 4.66214
#
# Compressibility (1/GPa) = 0.14206304
#
# Stress axis : x y z
#
# Youngs Moduli (GPa) = 64.94712 8.39004 131.38967
#
# Poissons Ratio (x) = -0.11585 0.39950
# Poissons Ratio (y) = -0.89677 1.42350
# Poissons Ratio (z) = 0.19748 0.09090
#
# Static dielectric constant tensor:
#      x y z
#    x 2.486420 0.000000 -0.001230 
#    y 0.000000 1.940040 0.000000 
#    z -0.001230 0.000000 1.935710 
# 
# From -- ./inp_files/83775.got.cif
#   From: 2010.05.17/outbox.cif.g08.bks.cpg/sg13_42_cif.got.tgz:83775.got - 2010.06.03 16:44:36.
