data_PCOD9227575
_publ_section_title
;
Structure prediction by ZEFSAII (Michael W. Deem and Ramdas Pophale) SiO2 
 PCOD9227575
Probable space group: P 2/C
;
_chemical_formula_sum "Si O2"
_cell_formula_units_Z 30
_cell_length_a 9.431983
_cell_length_b 5.743373
_cell_length_c 22.856694
_cell_angle_alpha 90.000000
_cell_angle_beta 91.665145
_cell_angle_gamma 90.000000
_cell_volume 1237.656178
_symmetry_space_group_name_H-M "P 2/C"
_symmetry_group_IT_number 13
_symmetry_cell_setting 'monoclinic'
loop_
_space_group_symop_operation_xyz
x,y,z
-x,y,1/2-z
-x,-y,-z
x,-y,1/2+z
loop_
_atom_site_type_symbol
_atom_site_label
_atom_site_fract_x
_atom_site_fract_y
_atom_site_fract_z
Si Si1 0.000000 0.165992 0.250000
Si Si2 0.713223 0.247623 0.826972
Si Si3 0.707174 0.686566 0.465472
Si Si4 0.955413 0.790645 0.161554
Si Si5 0.611253 0.686263 0.043253
Si Si6 0.165061 0.950558 0.936828
Si Si7 0.695113 0.735288 0.773455
Si Si8 0.722025 0.589151 0.648089
O O1 0.867935 0.283080 0.280002
O O2 0.920620 0.007641 0.202028
O O3 0.702682 0.271685 0.896902
O O4 0.646596 0.485582 0.799715
O O5 0.883364 0.256289 0.819736
O O6 0.662461 0.991565 0.801789
O O7 0.543994 0.737260 0.482500
O O8 0.712217 0.426534 0.493796
O O9 0.824772 0.844629 0.498596
O O10 0.833146 0.604615 0.172310
O O11 0.944191 0.871227 0.093723
O O12 0.610915 0.519540 0.100501
O O13 0.686604 0.914536 0.067201
O O14 0.177100 0.734792 0.893816
O O15 0.658852 0.718905 0.703654
#
# Coordination Sequence:
#
# PCOD9227575 Si02
#       8
#     2   4   4   4   4   4   4   4
#     4  10  18  36  62  86 128 168 212 248 294 394
#     4  11  26  38  63  92 137 168 204 255 329 388
#     4  10  22  43  61  91 121 168 217 264 319 383
#     4  10  20  35  58  97 124 168 203 259 320 371
#     4   9  21  40  70  86 115 164 223 271 312 365
#     4  10  20  36  65  92 117 160 217 271 305 366
#     4  11  22  39  61  93 128 171 204 258 314 380
#     4  10  19  37  63  92 123 156 219 262 305 375
#
# _framework density 24.239366
#
# number of rings (size 3 to 8) (size 9 to 14) (size 15 to 20)
#    0.000    1.867    1.333    2.800    5.600    1.067 
#    0.000    6.667    0.000    0.000    0.000    0.000 
#    0.000    0.000    0.000    0.000    0.000    0.000 
#
# Total GULP energy -167092.256605 kJ/mol
# GULP energy per Si atom -5569.741887 kJ/mol
# Density = 2.418420 g / cm^3
# Si number density = 24.239366 Si / 1000 Ang^3
#
#
#
# Elastic Constant Matrix: (Units=GPa)
#
#
# Indices 1 2 3 4 5 6 
#
# 1 28.0460 16.5355 5.2810 0.0000 16.2133 0.0000
# 2 16.5355 117.9437 54.5509 0.0000 -1.5740 0.0000
# 3 5.2810 54.5509 159.6840 0.0000 -7.4268 0.0000
# 4 0.0000 0.0000 0.0000 27.3856 0.0000 13.8378
# 5 16.2133 -1.5740 -7.4268 0.0000 32.8938 0.0000
# 6 0.0000 0.0000 0.0000 13.8378 0.0000 12.8818
#
#
#
# Elastic Compliance Matrix: (Units=1/GPa)
#
#
# Indices 1 2 3 4 5 6 
#
# 1 0.057127 -0.008196 -0.000421 0.000000 -0.028645 0.000000
# 2 -0.008196 0.011249 -0.003394 0.000000 0.003812 0.000000
# 3 -0.000421 -0.003394 0.007517 0.000000 0.001743 0.000000
# 4 0.000000 0.000000 0.000000 0.079867 0.000000 -0.085794
# 5 -0.028645 0.003812 0.001743 0.000000 0.045096 0.000000
# 6 0.000000 0.000000 0.000000 -0.085794 0.000000 0.169791
#
#
# Mechanical properties :
#
#
# Convention : Reuss Voigt Hill
#
# Bulk Modulus (GPa) = 19.27969 50.93429 35.10699
# Shear Modulus (GPa) = 12.13710 29.91933 21.02822
#
# Velocity S-wave (km/s) = 2.24010 3.51711 2.94857
# Velocity P-wave (km/s) = 3.82908 6.12798 5.10950
#
# Compressibility (1/GPa) = 0.05186806
#
# Stress axis : x y z
#
# Youngs Moduli (GPa) = 17.50480 88.90024 133.03321
#
# Poissons Ratio (x) = 0.72867 0.05607
# Poissons Ratio (y) = 0.14348 0.45156
# Poissons Ratio (z) = 0.00738 0.30176
#
# Static dielectric constant tensor:
#      x y z
#    x 1.953380 0.000000 -0.031340 
#    y 0.000000 2.054910 0.000000 
#    z -0.031340 0.000000 1.994600 
# 
# From -- ./inp_files/85612.got.cif
#   From: 2010.05.17/outbox.cif.g08.bks.cpg/sg13_43_cif.got.tgz:85612.got - 2010.06.03 16:44:36.
