data_PCOD9227241
_publ_section_title
;
Structure prediction by ZEFSAII (Michael W. Deem and Ramdas Pophale) SiO2 
 PCOD9227241
Probable space group: P 2/C
;
_chemical_formula_sum "Si O2"
_cell_formula_units_Z 24
_cell_length_a 11.504330
_cell_length_b 8.632489
_cell_length_c 18.453332
_cell_angle_alpha 90.000000
_cell_angle_beta 40.833360
_cell_angle_gamma 90.000000
_cell_volume 1198.278476
_symmetry_space_group_name_H-M "P 2/C"
_symmetry_group_IT_number 13
_symmetry_cell_setting 'monoclinic'
loop_
_space_group_symop_operation_xyz
x,y,z
-x,y,1/2-z
-x,-y,-z
x,-y,1/2+z
loop_
_atom_site_type_symbol
_atom_site_label
_atom_site_fract_x
_atom_site_fract_y
_atom_site_fract_z
Si Si1 0.452810 0.114714 0.921059
Si Si2 0.500000 0.736802 0.250000
Si Si3 0.098721 0.341723 0.931900
Si Si4 0.000000 0.985249 0.750000
Si Si5 0.061824 0.411386 0.638065
Si Si6 0.950072 0.228207 0.397853
Si Si7 0.663450 0.187409 0.957957
O O1 0.522841 0.157097 0.809622
O O2 0.556611 0.206695 0.934362
O O3 0.251046 0.172761 0.018777
O O4 0.449933 0.931720 0.939914
O O5 0.688207 0.646557 0.156608
O O6 0.049273 0.318103 0.870991
O O7 0.023558 0.220985 0.027507
O O8 0.000000 0.500000 0.000000
O O9 0.941397 0.876785 0.709886
O O10 0.160419 0.091429 0.647531
O O11 0.041377 0.592289 0.629208
O O12 0.262174 0.342930 0.540994
O O13 0.000000 0.393054 0.750000
#
# Coordination Sequence:
#
# PCOD9227241 Si02
#       7
#     4   2   4   2   4   4   4
#     4   9  20  37  53  78 113 149 185 232 285 337
#     4  10  18  36  60  78 112 160 186 224 294 344
#     4   9  20  36  57  85 116 146 191 239 283 335
#     4  10  18  34  54  80 108 150 184 228 280 344
#     4  11  19  33  58  86 108 146 193 232 282 341
#     4   9  19  36  56  79 111 147 189 231 289 335
#     4  10  20  34  54  80 115 142 186 240 275 332
#
# _framework density 20.028732999999999
#
# number of rings (size 3 to 8) (size 9 to 14) (size 15 to 20)
#    0.000    2.333    1.667    1.000    0.000    0.667 
#    3.000    4.167    7.333    1.000    0.000    0.000 
#    0.000    0.000    0.000    0.000    0.000    0.000 
#
# Total GULP energy -133653.928521 kJ/mol
# GULP energy per Si atom -5568.913688 kJ/mol
# Density = 1.998315 g / cm^3
# Si number density = 20.028733 Si / 1000 Ang^3
#
#
#
# Elastic Constant Matrix: (Units=GPa)
#
#
# Indices 1 2 3 4 5 6 
#
# 1 78.8512 -4.7544 19.5570 0.0000 36.7374 0.0000
# 2 -4.7544 35.2181 12.6068 0.0000 13.1934 0.0000
# 3 19.5570 12.6068 73.6237 0.0000 20.5946 0.0000
# 4 0.0000 0.0000 0.0000 9.6392 0.0000 -3.0052
# 5 36.7374 13.1934 20.5946 0.0000 31.9124 0.0000
# 6 0.0000 0.0000 0.0000 -3.0052 0.0000 17.4836
#
#
#
# Elastic Compliance Matrix: (Units=1/GPa)
#
#
# Indices 1 2 3 4 5 6 
#
# 1 0.043170 0.028785 0.001018 0.000000 -0.062255 0.000000
# 2 0.028785 0.053108 -0.001622 0.000000 -0.054047 0.000000
# 3 0.001018 -0.001622 0.016755 0.000000 -0.011314 0.000000
# 4 0.000000 0.000000 0.000000 0.109617 0.000000 0.018842
# 5 -0.062255 -0.054047 -0.011314 0.000000 0.132649 0.000000
# 6 0.000000 0.000000 0.000000 0.018842 0.000000 0.060435
#
#
# Mechanical properties :
#
#
# Convention : Reuss Voigt Hill
#
# Bulk Modulus (GPa) = 5.90334 26.94579 16.42457
# Shear Modulus (GPa) = 12.02395 22.49262 17.25829
#
# Velocity S-wave (km/s) = 2.45283 3.35478 2.93862
# Velocity P-wave (km/s) = 3.31296 5.33749 4.44210
#
# Compressibility (1/GPa) = 0.16939566
#
# Stress axis : x y z
#
# Youngs Moduli (GPa) = 23.16409 18.82954 59.68472
#
# Poissons Ratio (x) = -0.54201 -0.06075
# Poissons Ratio (y) = -0.66679 0.09680
# Poissons Ratio (z) = -0.02358 0.03054
#
# Static dielectric constant tensor:
#      x y z
#    x 1.736540 0.000000 0.029810 
#    y 0.000000 1.732810 0.000000 
#    z 0.029810 0.000000 1.775950 
# 
# From -- ./inp_files/65942.got.cif
#   From: 2010.05.17/outbox.cif.g08.bks.cpg/sg13_33_cif.got.tgz:65942.got - 2010.06.03 16:44:36.
