data_PCOD9227040
_publ_section_title
;
Structure prediction by ZEFSAII (Michael W. Deem and Ramdas Pophale) SiO2 
 PCOD9227040
Probable space group: P 2/C
;
_chemical_formula_sum "Si O2"
_cell_formula_units_Z 22
_cell_length_a 6.145967
_cell_length_b 11.959731
_cell_length_c 13.754192
_cell_angle_alpha 90.000000
_cell_angle_beta 91.783068
_cell_angle_gamma 90.000000
_cell_volume 1010.500148
_symmetry_space_group_name_H-M "P 2/C"
_symmetry_group_IT_number 13
_symmetry_cell_setting 'monoclinic'
loop_
_space_group_symop_operation_xyz
x,y,z
-x,y,1/2-z
-x,-y,-z
x,-y,1/2+z
loop_
_atom_site_type_symbol
_atom_site_label
_atom_site_fract_x
_atom_site_fract_y
_atom_site_fract_z
Si Si1 0.781770 0.547201 0.583565
Si Si2 0.865396 0.302099 0.647694
Si Si3 0.472562 0.274724 0.535782
Si Si4 0.843283 0.279618 0.375019
Si Si5 0.500000 0.371236 0.250000
Si Si6 0.080915 0.874048 0.003591
O O1 0.862478 0.419880 0.588536
O O2 0.675837 0.615297 0.490702
O O3 0.592101 0.555608 0.662863
O O4 0.996259 0.615731 0.615278
O O5 0.605472 0.276576 0.638408
O O6 0.000000 0.315051 0.750000
O O7 0.974228 0.200921 0.588579
O O8 0.654534 0.276128 0.454047
O O9 0.330750 0.163108 0.519142
O O10 0.703951 0.292942 0.277243
O O11 0.995225 0.176161 0.400610
O O12 0.000000 0.000000 0.000000
#
# Coordination Sequence:
#
# PCOD9227040 Si02
#       6
#     4   4   4   4   2   4
#     4  10  20  36  58  90 129 162 197 245 306 376
#     4  11  23  37  58  91 125 156 201 261 318 374
#     4   9  21  38  61  85 116 162 203 246 312 373
#     4   9  19  35  57  86 118 154 197 246 304 370
#     4  10  18  32  56  88 120 154 194 248 312 366
#     4  10  23  43  60  79 113 161 213 260 307 368
#
# _framework density 21.7714
#
# number of rings (size 3 to 8) (size 9 to 14) (size 15 to 20)
#    0.000    2.182    0.000    2.182    0.000   14.545 
#    0.000    7.273    0.000    0.000    0.000    1.273 
#    0.000    0.000    0.000    0.000    0.000    0.000 
#
# Total GULP energy -122509.060547 kJ/mol
# GULP energy per Si atom -5568.593661 kJ/mol
# Density = 2.172185 g / cm^3
# Si number density = 21.771400 Si / 1000 Ang^3
#
#
#
# Elastic Constant Matrix: (Units=GPa)
#
#
# Indices 1 2 3 4 5 6 
#
# 1 142.5755 46.5349 38.6820 0.0000 26.5140 0.0000
# 2 46.5349 159.1004 25.2303 0.0000 5.1269 0.0000
# 3 38.6820 25.2303 71.7302 0.0000 16.3055 0.0000
# 4 0.0000 0.0000 0.0000 14.9902 0.0000 -3.5858
# 5 26.5140 5.1269 16.3055 0.0000 50.2455 0.0000
# 6 0.0000 0.0000 0.0000 -3.5858 0.0000 24.2021
#
#
#
# Elastic Compliance Matrix: (Units=1/GPa)
#
#
# Indices 1 2 3 4 5 6 
#
# 1 0.009290 -0.002051 -0.003478 0.000000 -0.003564 0.000000
# 2 -0.002051 0.007110 -0.001594 0.000000 0.000874 0.000000
# 3 -0.003478 -0.001594 0.017191 0.000000 -0.003581 0.000000
# 4 0.000000 0.000000 0.000000 0.069161 0.000000 0.010247
# 5 -0.003564 0.000874 -0.003581 0.000000 0.022856 0.000000
# 6 0.000000 0.000000 0.000000 0.010247 0.000000 0.042837
#
#
# Mechanical properties :
#
#
# Convention : Reuss Voigt Hill
#
# Bulk Modulus (GPa) = 51.69050 66.03339 58.86195
# Shear Modulus (GPa) = 26.43572 35.41816 30.92694
#
# Velocity S-wave (km/s) = 3.48838 4.03776 3.77308
# Velocity P-wave (km/s) = 6.32605 7.22040 6.78797
#
# Compressibility (1/GPa) = 0.01934591
#
# Stress axis : x y z
#
# Youngs Moduli (GPa) = 107.64751 140.65333 58.16908
#
# Poissons Ratio (x) = 0.28843 0.20232
# Poissons Ratio (y) = 0.22075 0.09269
# Poissons Ratio (z) = 0.37441 0.22413
#
# Static dielectric constant tensor:
#      x y z
#    x 1.896270 0.000000 0.019470 
#    y 0.000000 1.798650 0.000000 
#    z 0.019470 0.000000 1.928250 
# 
# From -- ./inp_files/43686.got.cif
#   From: 2010.05.17/outbox.cif.g08.bks.cpg/sg13_22_cif.got.tgz:43686.got - 2010.06.03 16:44:36.
