data_PCOD9227809
_publ_section_title
;
Structure prediction by ZEFSAII (Michael W. Deem and Ramdas Pophale) SiO2 
 PCOD9227809
Probable space group: P 2/C
;
_chemical_formula_sum "Si O2"
_cell_formula_units_Z 30
_cell_length_a 22.926406
_cell_length_b 11.121260
_cell_length_c 12.949799
_cell_angle_alpha 90.000000
_cell_angle_beta 155.111591
_cell_angle_gamma 90.000000
_cell_volume 1389.577312
_symmetry_space_group_name_H-M "P 2/C"
_symmetry_group_IT_number 13
_symmetry_cell_setting 'monoclinic'
loop_
_space_group_symop_operation_xyz
x,y,z
-x,y,1/2-z
-x,-y,-z
x,-y,1/2+z
loop_
_atom_site_type_symbol
_atom_site_label
_atom_site_fract_x
_atom_site_fract_y
_atom_site_fract_z
Si Si1 0.342045 0.835169 0.219864
Si Si2 0.143379 0.649146 0.419186
Si Si3 0.263300 0.567061 0.015055
Si Si4 0.790936 0.073695 0.193321
Si Si5 0.367051 0.797704 0.890546
Si Si6 0.113741 0.867374 0.016106
Si Si7 0.987157 0.701025 0.966428
Si Si8 0.500000 0.595196 0.250000
O O1 0.507407 0.841127 0.479732
O O2 0.259060 0.855077 0.191215
O O3 0.304832 0.698813 0.123995
O O4 0.277895 0.924033 0.029966
O O5 0.234032 0.527958 0.557674
O O6 0.233757 0.754787 0.613485
O O7 0.000000 0.632261 0.250000
O O8 0.102275 0.676622 0.235788
O O9 0.120722 0.593476 0.725065
O O10 0.385669 0.526850 0.134303
O O11 0.675059 0.104634 0.092351
O O12 0.894185 0.187537 0.357462
O O13 0.868003 0.956811 0.358494
O O14 0.418476 0.683609 0.040836
O O15 0.000000 0.911700 0.750000
O O16 0.054344 0.743603 0.966929
#
# Coordination Sequence:
#
# PCOD9227809 Si02
#       8
#     4   4   4   4   4   4   4   2
#     4  10  23  44  64  92 129 173 212 262 323 387
#     4  12  25  38  66 100 128 166 213 268 319 383
#     4  10  21  40  66  90 128 168 213 257 323 387
#     4  11  21  40  68  90 125 163 216 266 315 387
#     4  11  21  43  66  92 128 171 217 260 314 385
#     4  12  25  39  67  99 127 169 216 269 325 376
#     4  11  23  44  59  97 131 165 207 271 319 380
#     4  10  18  42  64  86 122 174 216 254 314 386
#
# _framework density 21.589299
#
# number of rings (size 3 to 8) (size 9 to 14) (size 15 to 20)
#    0.000    1.067    8.000    0.800    3.733    2.667 
#    2.400    1.333    0.000    0.000    0.000    0.000 
#    0.000    0.000    0.000    0.000    0.000    0.000 
#
# Total GULP energy -167671.426501 kJ/mol
# GULP energy per Si atom -5589.047550 kJ/mol
# Density = 2.154016 g / cm^3
# Si number density = 21.589299 Si / 1000 Ang^3
#
#
#
# Elastic Constant Matrix: (Units=GPa)
#
#
# Indices 1 2 3 4 5 6 
#
# 1 127.0245 27.5328 33.9744 0.0000 34.0402 0.0000
# 2 27.5328 25.6524 15.8836 0.0000 4.7462 0.0000
# 3 33.9744 15.8836 59.9477 0.0000 8.4511 0.0000
# 4 0.0000 0.0000 0.0000 13.6204 0.0000 -5.1168
# 5 34.0402 4.7462 8.4511 0.0000 36.7361 0.0000
# 6 0.0000 0.0000 0.0000 -5.1168 0.0000 13.2245
#
#
#
# Elastic Compliance Matrix: (Units=1/GPa)
#
#
# Indices 1 2 3 4 5 6 
#
# 1 0.014095 -0.010914 -0.003570 0.000000 -0.010829 0.000000
# 2 -0.010914 0.055472 -0.009227 0.000000 0.005069 0.000000
# 3 -0.003570 -0.009227 0.021202 0.000000 -0.000378 0.000000
# 4 0.000000 0.000000 0.000000 0.085906 0.000000 0.033239
# 5 -0.010829 0.005069 -0.000378 0.000000 0.036688 0.000000
# 6 0.000000 0.000000 0.000000 0.033239 0.000000 0.088478
#
#
# Mechanical properties :
#
#
# Convention : Reuss Voigt Hill
#
# Bulk Modulus (GPa) = 23.06913 40.82289 31.94601
# Shear Modulus (GPa) = 13.74711 21.73178 17.73945
#
# Velocity S-wave (km/s) = 2.52614 3.17614 2.86960
# Velocity P-wave (km/s) = 4.38374 5.69213 5.08023
#
# Compressibility (1/GPa) = 0.04334798
#
# Stress axis : x y z
#
# Youngs Moduli (GPa) = 70.94717 18.02698 47.16488
#
# Poissons Ratio (x) = 0.19675 0.16836
# Poissons Ratio (y) = 0.77434 0.43519
# Poissons Ratio (z) = 0.25326 0.16633
#
# Static dielectric constant tensor:
#      x y z
#    x 1.794580 0.000000 0.016760 
#    y 0.000000 1.798500 0.000000 
#    z 0.016760 0.000000 1.795400 
# 
# From -- ./inp_files/40891.got.cif
#   From: 2010.05.17/outbox.cif.g08.bks.cpg/sg13_21_cif.got.tgz:40891.got - 2010.06.03 16:44:36.
