data_PCOD9227643
_publ_section_title
;
Structure prediction by ZEFSAII (Michael W. Deem and Ramdas Pophale) SiO2 
 PCOD9227643
Probable space group: P 2/C
;
_chemical_formula_sum "Si O2"
_cell_formula_units_Z 18
_cell_length_a 13.680485
_cell_length_b 6.772230
_cell_length_c 21.093874
_cell_angle_alpha 90.000000
_cell_angle_beta 156.808698
_cell_angle_gamma 90.000000
_cell_volume 769.604980
_symmetry_space_group_name_H-M "P 2/C"
_symmetry_group_IT_number 13
_symmetry_cell_setting 'monoclinic'
loop_
_space_group_symop_operation_xyz
x,y,z
-x,y,1/2-z
-x,-y,-z
x,-y,1/2+z
loop_
_atom_site_type_symbol
_atom_site_label
_atom_site_fract_x
_atom_site_fract_y
_atom_site_fract_z
Si Si1 0.899178 0.844350 0.851759
Si Si2 0.722011 0.289725 0.018531
Si Si3 0.504343 0.732667 0.517221
Si Si4 0.297829 0.203879 0.681665
Si Si5 0.000000 0.642719 0.250000
O O1 0.657650 0.765067 0.672110
O O2 0.812314 0.038564 0.837130
O O3 0.101471 0.855221 0.915896
O O4 0.061324 0.720978 0.000323
O O5 0.635706 0.189062 0.032507
O O6 0.474712 0.338276 0.830632
O O7 0.877151 0.488566 0.126478
O O8 0.500000 0.500000 0.500000
O O9 0.215413 0.774984 0.349776
O O10 0.500000 0.124511 0.750000
#
# Coordination Sequence:
#
# PCOD9227643 Si02
#       5
#     4   4   4   4   2
#     4  10  18  38  60  81 117 153 195 242 296 348
#     4  10  18  37  62  82 117 152 192 245 298 346
#     4  10  19  36  60  83 114 155 194 242 291 348
#     4   9  21  36  59  86 117 156 193 245 297 351
#     4  10  20  38  56  86 120 150 192 244 290 352
#
# _framework density 23.388622999999999
#
# number of rings (size 3 to 8) (size 9 to 14) (size 15 to 20)
#    0.000    2.222    4.444    0.000    0.000    0.889 
#   12.000    4.444    0.000    0.000    0.000    0.000 
#    0.000    0.000    0.000    0.000    0.000    0.000 
#
# Total GULP energy -100310.740246 kJ/mol
# GULP energy per Si atom -5572.818903 kJ/mol
# Density = 2.333539 g / cm^3
# Si number density = 23.388623 Si / 1000 Ang^3
#
#
#
# Elastic Constant Matrix: (Units=GPa)
#
#
# Indices 1 2 3 4 5 6 
#
# 1 150.8234 38.5372 49.6254 0.0000 6.6357 0.0000
# 2 38.5372 50.5677 38.7453 0.0000 -5.5427 0.0000
# 3 49.6254 38.7453 232.5094 0.0000 -27.7460 0.0000
# 4 0.0000 0.0000 0.0000 18.0707 0.0000 -4.6962
# 5 6.6357 -5.5427 -27.7460 0.0000 44.5401 0.0000
# 6 0.0000 0.0000 0.0000 -4.6962 0.0000 14.9357
#
#
#
# Elastic Compliance Matrix: (Units=1/GPa)
#
#
# Indices 1 2 3 4 5 6 
#
# 1 0.008677 -0.006012 -0.001182 0.000000 -0.002777 0.000000
# 2 -0.006012 0.026846 -0.002900 0.000000 0.002430 0.000000
# 3 -0.001182 -0.002900 0.005417 0.000000 0.003190 0.000000
# 4 0.000000 0.000000 0.000000 0.060262 0.000000 0.018948
# 5 -0.002777 0.002430 0.003190 0.000000 0.025155 0.000000
# 6 0.000000 0.000000 0.000000 0.018948 0.000000 0.072912
#
#
# Mechanical properties :
#
#
# Convention : Reuss Voigt Hill
#
# Bulk Modulus (GPa) = 48.18787 76.41293 62.30040
# Shear Modulus (GPa) = 22.08730 35.97545 29.03138
#
# Velocity S-wave (km/s) = 3.07638 3.92619 3.52698
# Velocity P-wave (km/s) = 5.76773 7.30036 6.57883
#
# Compressibility (1/GPa) = 0.02075211
#
# Stress axis : x y z
#
# Youngs Moduli (GPa) = 115.24240 37.24974 184.60204
#
# Poissons Ratio (x) = 0.22394 0.21812
# Poissons Ratio (y) = 0.69283 0.53544
# Poissons Ratio (z) = 0.13617 0.10804
#
# Static dielectric constant tensor:
#      x y z
#    x 1.971680 0.000000 0.013180 
#    y 0.000000 1.943740 0.000000 
#    z 0.013180 0.000000 1.937930 
# 
# From -- ./inp_files/75105.got.cif
#   From: 2010.05.17/outbox.cif.g08.bks.cpg/sg13_38_cif.got.tgz:75105.got - 2010.06.03 16:44:36.
