data_PCOD9227609
_publ_section_title
;
Structure prediction by ZEFSAII (Michael W. Deem and Ramdas Pophale) SiO2 
 PCOD9227609
Probable space group: P 2/C
;
_chemical_formula_sum "Si O2"
_cell_formula_units_Z 24
_cell_length_a 5.311636
_cell_length_b 11.549403
_cell_length_c 19.676391
_cell_angle_alpha 90.000000
_cell_angle_beta 127.030920
_cell_angle_gamma 90.000000
_cell_volume 963.618641
_symmetry_space_group_name_H-M "P 2/C"
_symmetry_group_IT_number 13
_symmetry_cell_setting 'monoclinic'
loop_
_space_group_symop_operation_xyz
x,y,z
-x,y,1/2-z
-x,-y,-z
x,-y,1/2+z
loop_
_atom_site_type_symbol
_atom_site_label
_atom_site_fract_x
_atom_site_fract_y
_atom_site_fract_z
Si Si1 0.221088 0.132111 0.586427
Si Si2 0.461313 0.826907 0.498853
Si Si3 0.407229 0.431379 0.155753
Si Si4 0.011344 0.359561 0.606028
Si Si5 0.500000 0.020414 0.250000
Si Si6 0.000000 0.420511 0.750000
Si Si7 0.692836 0.790699 0.672512
O O1 0.430307 0.116012 0.553596
O O2 0.238138 0.269435 0.604671
O O3 0.154157 0.886265 0.483143
O O4 0.306242 0.062127 0.667928
O O5 0.723826 0.826972 0.599573
O O6 0.330934 0.696774 0.462281
O O7 0.500000 0.421797 0.250000
O O8 0.097711 0.510198 0.098751
O O9 0.406171 0.301127 0.128513
O O10 0.703767 0.503782 0.175630
O O11 0.092044 0.349190 0.698856
O O12 0.342722 0.105986 0.279810
O O13 0.000000 0.725279 0.750000
#
# Coordination Sequence:
#
# PCOD9227609 Si02
#       7
#     4   4   4   4   2   2   4
#     4  10  26  48  75 112 144 187 248 317 370 434
#     4  10  26  48  75 111 150 189 244 314 373 433
#     4  10  20  39  67 106 146 192 241 298 356 447
#     4   9  22  38  75 106 146 187 239 307 368 428
#     4  12  30  48  76 106 144 198 252 310 378 446
#     4  10  18  36  66 108 140 190 236 290 366 428
#     4  12  28  48  73 104 151 204 252 297 373 452
#
# _framework density 24.906116999999998
#
# number of rings (size 3 to 8) (size 9 to 14) (size 15 to 20)
#    1.000    0.667    1.667    1.000   10.500    2.000 
#    0.000    1.667    0.000    0.000    0.000    0.000 
#    0.000    0.000    0.000    0.000    0.000    0.000 
#
# Total GULP energy -133986.652122 kJ/mol
# GULP energy per Si atom -5582.777172 kJ/mol
# Density = 2.484943 g / cm^3
# Si number density = 24.906117 Si / 1000 Ang^3
#
#
#
# Elastic Constant Matrix: (Units=GPa)
#
#
# Indices 1 2 3 4 5 6 
#
# 1 89.3058 15.5581 28.6729 0.0000 -15.3383 0.0000
# 2 15.5581 88.9401 40.3484 0.0000 -4.3207 0.0000
# 3 28.6729 40.3484 133.8703 0.0000 -1.7761 0.0000
# 4 0.0000 0.0000 0.0000 -48.2196 0.0000 50.6433
# 5 -15.3383 -4.3207 -1.7761 0.0000 26.0312 0.0000
# 6 0.0000 0.0000 0.0000 50.6433 0.0000 -7.4405
#
#
#
# Elastic Compliance Matrix: (Units=1/GPa)
#
#
# Indices 1 2 3 4 5 6 
#
# 1 0.013465 -0.000837 -0.002531 0.000000 0.007622 0.000000
# 2 -0.000837 0.013171 -0.003771 0.000000 0.001436 0.000000
# 3 -0.002531 -0.003771 0.009129 0.000000 -0.001494 0.000000
# 4 0.000000 0.000000 0.000000 0.003373 0.000000 0.022957
# 5 0.007622 0.001436 -0.001494 0.000000 0.043043 0.000000
# 6 0.000000 0.000000 0.000000 0.022957 0.000000 0.021859
#
#
# Mechanical properties :
#
#
# Convention : Reuss Voigt Hill
#
# Bulk Modulus (GPa) = 46.54105 53.47503 50.00804
# Shear Modulus (GPa) = 39.84735 9.24333 24.54534
#
# Velocity S-wave (km/s) = 4.00422 1.92856 3.14270
# Velocity P-wave (km/s) = 6.33289 5.14552 5.76983
#
# Compressibility (1/GPa) = 0.02148641
#
# Stress axis : x y z
#
# Youngs Moduli (GPa) = 74.26710 75.92701 109.54407
#
# Poissons Ratio (x) = 0.06356 0.27721
# Poissons Ratio (y) = 0.06217 0.41312
# Poissons Ratio (z) = 0.18794 0.28634
#
# Static dielectric constant tensor:
#      x y z
#    x 2.046830 0.000000 0.041230 
#    y 0.000000 2.029040 0.000000 
#    z 0.041230 0.000000 1.918960 
# 
# From -- ./inp_files/61173.got.cif
#   From: 2010.05.17/outbox.cif.g08.bks.cpg/sg13_31_cif.got.tgz:61173.got - 2010.06.03 16:44:36.
