data_PCOD9227657
_publ_section_title
;
Structure prediction by ZEFSAII (Michael W. Deem and Ramdas Pophale) SiO2 
 PCOD9227657
Probable space group: P 2/C
;
_chemical_formula_sum "Si O2"
_cell_formula_units_Z 24
_cell_length_a 13.631394
_cell_length_b 8.645459
_cell_length_c 27.618013
_cell_angle_alpha 90.000000
_cell_angle_beta 159.677244
_cell_angle_gamma 90.000000
_cell_volume 1130.409235
_symmetry_space_group_name_H-M "P 2/C"
_symmetry_group_IT_number 13
_symmetry_cell_setting 'monoclinic'
loop_
_space_group_symop_operation_xyz
x,y,z
-x,y,1/2-z
-x,-y,-z
x,-y,1/2+z
loop_
_atom_site_type_symbol
_atom_site_label
_atom_site_fract_x
_atom_site_fract_y
_atom_site_fract_z
Si Si1 0.798220 0.675718 0.946886
Si Si2 0.911700 0.675645 0.623801
Si Si3 0.834174 0.612152 0.857353
Si Si4 0.674234 0.843072 0.982346
Si Si5 0.575006 0.523799 0.591278
Si Si6 0.095906 0.997731 0.742546
O O1 0.886121 0.702102 0.931845
O O2 0.498044 0.589606 0.803222
O O3 0.733046 0.816655 0.952696
O O4 0.014799 0.553600 0.069806
O O5 0.596686 0.620176 0.466903
O O6 0.058924 0.700582 0.640372
O O7 0.103951 0.548875 0.742031
O O8 0.935338 0.831763 0.664880
O O9 0.574363 0.678656 0.957871
O O10 0.421722 0.958688 0.881852
O O11 0.961722 0.895739 0.139855
O O12 0.500000 0.500000 0.500000
O O13 0.000000 0.063797 0.750000
#
# Coordination Sequence:
#
# PCOD9227657 Si02
#       6
#     4   4   4   4   4   4
#     4  10  20  37  64  92 120 150 198 254 316 360
#     4  11  20  38  59  88 118 155 198 249 305 352
#     4  10  18  37  65  91 120 150 191 257 317 355
#     4  11  23  43  58  89 122 164 206 245 303 361
#     4  11  22  36  59  89 119 150 203 253 293 352
#     4  11  24  41  59  83 125 170 202 243 302 366
#
# _framework density 21.231248999999998
#
# number of rings (size 3 to 8) (size 9 to 14) (size 15 to 20)
#    0.000    1.333    5.000    3.000    0.000    2.667 
#    3.000    0.833    0.000    0.000    0.000    0.000 
#    0.000    0.000    0.000    0.000    0.000    0.000 
#
# Total GULP energy -133905.338629 kJ/mol
# GULP energy per Si atom -5579.389110 kJ/mol
# Density = 2.118293 g / cm^3
# Si number density = 21.231249 Si / 1000 Ang^3
#
#
#
# Elastic Constant Matrix: (Units=GPa)
#
#
# Indices 1 2 3 4 5 6 
#
# 1 131.5795 2.3709 19.9786 0.0000 -15.2317 0.0000
# 2 2.3709 4.8309 8.7278 0.0000 -5.0643 0.0000
# 3 19.9786 8.7278 56.9240 0.0000 -15.0464 0.0000
# 4 0.0000 0.0000 0.0000 28.0629 0.0000 -10.7105
# 5 -15.2317 -5.0643 -15.0464 0.0000 25.2957 0.0000
# 6 0.0000 0.0000 0.0000 -10.7105 0.0000 12.4406
#
#
#
# Elastic Compliance Matrix: (Units=1/GPa)
#
#
# Indices 1 2 3 4 5 6 
#
# 1 0.008426 0.005318 -0.002551 0.000000 0.004621 0.000000
# 2 0.005318 0.322225 -0.039599 0.000000 0.044159 0.000000
# 3 -0.002551 -0.039599 0.026143 0.000000 0.006086 0.000000
# 4 0.000000 0.000000 0.000000 0.053073 0.000000 0.045692
# 5 0.004621 0.044159 0.006086 0.000000 0.054776 0.000000
# 6 0.000000 0.000000 0.000000 0.045692 0.000000 0.119719
#
#
# Mechanical properties :
#
#
# Convention : Reuss Voigt Hill
#
# Bulk Modulus (GPa) = 3.53194 28.38767 15.95980
# Shear Modulus (GPa) = 6.64537 23.97699 15.31118
#
# Velocity S-wave (km/s) = 1.77110 3.36419 2.68836
# Velocity P-wave (km/s) = 2.41858 5.33761 4.14365
#
# Compressibility (1/GPa) = 0.28313041
#
# Stress axis : x y z
#
# Youngs Moduli (GPa) = 118.67357 3.10342 38.25130
#
# Poissons Ratio (x) = -0.01650 0.09759
# Poissons Ratio (y) = -0.63113 1.51471
# Poissons Ratio (z) = 0.30278 0.12289
#
# Static dielectric constant tensor:
#      x y z
#    x 1.960580 0.000000 0.053470 
#    y 0.000000 1.747660 0.000000 
#    z 0.053470 0.000000 1.806910 
# 
# From -- ./inp_files/96974.got.cif
#   From: 2010.05.17/outbox.cif.g08.bks.cpg/sg13_49_cif.got.tgz:96974.got - 2010.06.03 16:44:36.
