data_PCOD9227774
_publ_section_title
;
Structure prediction by ZEFSAII (Michael W. Deem and Ramdas Pophale) SiO2 
 PCOD9227774
Probable space group: P 2/C
;
_chemical_formula_sum "Si O2"
_cell_formula_units_Z 28
_cell_length_a 20.863985
_cell_length_b 8.066824
_cell_length_c 22.117889
_cell_angle_alpha 90.000000
_cell_angle_beta 22.116248
_cell_angle_gamma 90.000000
_cell_volume 1401.501270
_symmetry_space_group_name_H-M "P 2/C"
_symmetry_group_IT_number 13
_symmetry_cell_setting 'monoclinic'
loop_
_space_group_symop_operation_xyz
x,y,z
-x,y,1/2-z
-x,-y,-z
x,-y,1/2+z
loop_
_atom_site_type_symbol
_atom_site_label
_atom_site_fract_x
_atom_site_fract_y
_atom_site_fract_z
Si Si1 0.135223 0.842424 0.310524
Si Si2 0.633281 0.675692 0.049409
Si Si3 0.386793 0.635009 0.565111
Si Si4 0.219059 0.991789 0.368387
Si Si5 0.249170 0.674045 0.423407
Si Si6 0.943069 0.524360 0.617488
Si Si7 0.579310 0.027001 0.516409
O O1 0.170089 0.891100 0.350060
O O2 0.146962 0.647924 0.287814
O O3 0.266516 0.934543 0.150919
O O4 0.935747 0.890082 0.478454
O O5 0.440484 0.627784 0.235831
O O6 0.752093 0.655886 0.003269
O O7 0.662257 0.583407 0.960800
O O8 0.639481 0.868621 0.022736
O O9 0.500000 0.500000 0.500000
O O10 0.203829 0.662536 0.755015
O O11 0.471775 0.815613 0.482564
O O12 0.234105 0.859693 0.409750
O O13 0.405941 0.064541 0.187984
O O14 0.099744 0.571653 0.522595
O O15 0.000000 0.500000 0.500000
#
# Coordination Sequence:
#
# PCOD9227774 Si02
#       7
#     4   4   4   4   4   4   4
#     4  11  22  36  55  93 124 156 200 249 319 361
#     4   8  20  37  66  85 111 160 210 253 307 376
#     4  10  20  37  60  90 117 152 206 254 309 363
#     4  10  20  36  60  85 121 153 197 253 303 370
#     4  10  18  40  63  86 116 159 213 250 309 379
#     4  12  23  36  59  91 124 161 202 266 310 366
#     4   9  20  39  59  91 114 162 202 250 310 370
#
# _framework density 19.978577999999999
#
# number of rings (size 3 to 8) (size 9 to 14) (size 15 to 20)
#    0.857    1.143    1.429    3.000    2.000    0.571 
#    2.571    0.000    6.286    1.714    0.000    0.000 
#    0.000    0.000    0.000    0.000    0.000    0.000 
#
# Total GULP energy -155943.915722 kJ/mol
# GULP energy per Si atom -5569.425561 kJ/mol
# Density = 1.993311 g / cm^3
# Si number density = 19.978578 Si / 1000 Ang^3
#
#
#
# Elastic Constant Matrix: (Units=GPa)
#
#
# Indices 1 2 3 4 5 6 
#
# 1 120.7194 7.2842 49.1440 0.0000 -4.1120 0.0000
# 2 7.2842 43.8079 34.1503 0.0000 0.9774 0.0000
# 3 49.1440 34.1503 122.9307 0.0000 1.4168 0.0000
# 4 0.0000 0.0000 0.0000 37.1740 0.0000 -1.0078
# 5 -4.1120 0.9774 1.4168 0.0000 27.7509 0.0000
# 6 0.0000 0.0000 0.0000 -1.0078 0.0000 20.9976
#
#
#
# Elastic Compliance Matrix: (Units=1/GPa)
#
#
# Indices 1 2 3 4 5 6 
#
# 1 0.010087 0.001843 -0.004564 0.000000 0.001663 0.000000
# 2 0.001843 0.029484 -0.008924 0.000000 -0.000310 0.000000
# 3 -0.004564 -0.008924 0.012450 0.000000 -0.000998 0.000000
# 4 0.000000 0.000000 0.000000 0.026936 0.000000 0.001293
# 5 0.001663 -0.000310 -0.000998 0.000000 0.036343 0.000000
# 6 0.000000 0.000000 0.000000 0.001293 0.000000 0.047686
#
#
# Mechanical properties :
#
#
# Convention : Reuss Voigt Hill
#
# Bulk Modulus (GPa) = 34.80458 52.06832 43.43645
# Shear Modulus (GPa) = 25.52948 30.30980 27.91964
#
# Velocity S-wave (km/s) = 3.57857 3.89924 3.74234
# Velocity P-wave (km/s) = 5.87653 6.81108 6.36099
#
# Compressibility (1/GPa) = 0.02873185
#
# Stress axis : x y z
#
# Youngs Moduli (GPa) = 99.13820 33.91662 80.32326
#
# Poissons Ratio (x) = -0.06252 0.36657
# Poissons Ratio (y) = -0.18274 0.71681
# Poissons Ratio (z) = 0.45244 0.30267
#
# Static dielectric constant tensor:
#      x y z
#    x 1.714200 0.000000 0.015080 
#    y 0.000000 1.893640 0.000000 
#    z 0.015080 0.000000 1.777870 
# 
# From -- ./inp_files/88485.got.cif
#   From: 2010.05.17/outbox.cif.g08.bks.cpg/sg13_45_cif.got.tgz:88485.got - 2010.06.03 16:44:36.
