data_PCOD9227333
_publ_section_title
;
Structure prediction by ZEFSAII (Michael W. Deem and Ramdas Pophale) SiO2 
 PCOD9227333
Probable space group: P 2/C
;
_chemical_formula_sum "Si O2"
_cell_formula_units_Z 28
_cell_length_a 15.784000
_cell_length_b 8.802926
_cell_length_c 15.891030
_cell_angle_alpha 90.000000
_cell_angle_beta 135.535224
_cell_angle_gamma 90.000000
_cell_volume 1546.628860
_symmetry_space_group_name_H-M "P 2/C"
_symmetry_group_IT_number 13
_symmetry_cell_setting 'monoclinic'
loop_
_space_group_symop_operation_xyz
x,y,z
-x,y,1/2-z
-x,-y,-z
x,-y,1/2+z
loop_
_atom_site_type_symbol
_atom_site_label
_atom_site_fract_x
_atom_site_fract_y
_atom_site_fract_z
Si Si1 0.000000 0.583984 0.250000
Si Si2 0.156143 0.150911 0.286884
Si Si3 0.393242 0.393238 0.029988
Si Si4 0.101921 0.302023 0.418790
Si Si5 0.800032 0.796307 0.184542
Si Si6 0.500000 0.417812 0.750000
Si Si7 0.661203 0.626374 0.658639
Si Si8 0.720067 0.658887 0.301737
O O1 0.075217 0.469885 0.363128
O O2 0.086367 0.687988 0.254766
O O3 0.168626 0.212475 0.391063
O O4 0.260763 0.227158 0.306056
O O5 0.027505 0.217879 0.164235
O O6 0.162149 0.970507 0.292032
O O7 0.412365 0.475116 0.132368
O O8 0.525811 0.341435 0.093422
O O9 0.299610 0.256152 0.954815
O O10 0.349993 0.522546 0.933253
O O11 0.179573 0.308491 0.557542
O O12 0.743291 0.758767 0.235466
O O13 0.413157 0.324982 0.751159
O O14 0.722800 0.514963 0.770305
#
# Coordination Sequence:
#
# PCOD9227333 Si02
#       8
#     2   4   4   4   4   2   4   4
#     4  10  20  36  58  78 106 146 192 230 272 328
#     4  10  21  36  53  78 117 150 179 225 288 340
#     4   9  18  34  56  78 103 141 188 228 272 325
#     4  10  20  36  57  80 107 148 193 237 275 322
#     4  11  22  36  55  83 115 150 182 225 286 345
#     4  10  18  34  60  86 110 140 192 248 276 314
#     4   9  18  34  55  78 103 138 184 231 273 329
#     4  10  20  35  59  84 107 142 192 236 276 325
#
# _framework density 18.103891000000001
#
# number of rings (size 3 to 8) (size 9 to 14) (size 15 to 20)
#    0.000    2.286    0.000    6.857    0.000    3.429 
#    0.000    4.286    0.000    1.714    0.000    0.000 
#    0.000    0.000    0.000    0.000    0.000    0.000 
#
# Total GULP energy -156222.120403 kJ/mol
# GULP energy per Si atom -5579.361443 kJ/mol
# Density = 1.806269 g / cm^3
# Si number density = 18.103891 Si / 1000 Ang^3
#
#
#
# Elastic Constant Matrix: (Units=GPa)
#
#
# Indices 1 2 3 4 5 6 
#
# 1 101.6257 53.5595 16.2238 0.0000 -1.6751 0.0000
# 2 53.5595 121.5867 23.6208 0.0000 5.9650 0.0000
# 3 16.2238 23.6208 99.3235 0.0000 -12.7916 0.0000
# 4 0.0000 0.0000 0.0000 9.0866 0.0000 0.9579
# 5 -1.6751 5.9650 -12.7916 0.0000 17.1037 0.0000
# 6 0.0000 0.0000 0.0000 0.9579 0.0000 12.3060
#
#
#
# Elastic Compliance Matrix: (Units=1/GPa)
#
#
# Indices 1 2 3 4 5 6 
#
# 1 0.013009 -0.005811 -0.000352 0.000000 0.003038 0.000000
# 2 -0.005811 0.011628 -0.002669 0.000000 -0.006620 0.000000
# 3 -0.000352 -0.002669 0.012035 0.000000 0.009897 0.000000
# 4 0.000000 0.000000 0.000000 0.110963 0.000000 -0.008638
# 5 0.003038 -0.006620 0.009897 0.000000 0.068475 0.000000
# 6 0.000000 0.000000 0.000000 -0.008638 0.000000 0.081933
#
#
# Mechanical properties :
#
#
# Convention : Reuss Voigt Hill
#
# Bulk Modulus (GPa) = 52.60850 56.59379 54.60115
# Shear Modulus (GPa) = 15.52591 22.97470 19.25031
#
# Velocity S-wave (km/s) = 2.93166 3.56623 3.26440
# Velocity P-wave (km/s) = 6.37039 6.94880 6.66587
#
# Compressibility (1/GPa) = 0.01900833
#
# Stress axis : x y z
#
# Youngs Moduli (GPa) = 76.87050 86.00186 83.09231
#
# Poissons Ratio (x) = 0.49977 0.02922
# Poissons Ratio (y) = 0.44671 0.22174
# Poissons Ratio (z) = 0.02704 0.22951
#
# Static dielectric constant tensor:
#      x y z
#    x 1.656590 0.000000 0.008570 
#    y 0.000000 1.589930 0.000000 
#    z 0.008570 0.000000 1.620960 
# 
# From -- ./inp_files/53162.got.cif
#   From: 2010.05.17/outbox.cif.g08.bks.cpg/sg13_27_cif.got.tgz:53162.got - 2010.06.03 16:44:36.
