data_PCOD9227100
_publ_section_title
;
Structure prediction by ZEFSAII (Michael W. Deem and Ramdas Pophale) SiO2 
 PCOD9227100
Probable space group: P 2/C
;
_chemical_formula_sum "Si O2"
_cell_formula_units_Z 30
_cell_length_a 20.005368
_cell_length_b 9.429534
_cell_length_c 8.915074
_cell_angle_alpha 90.000000
_cell_angle_beta 89.856199
_cell_angle_gamma 90.000000
_cell_volume 1681.745832
_symmetry_space_group_name_H-M "P 2/C"
_symmetry_group_IT_number 13
_symmetry_cell_setting 'monoclinic'
loop_
_space_group_symop_operation_xyz
x,y,z
-x,y,1/2-z
-x,-y,-z
x,-y,1/2+z
loop_
_atom_site_type_symbol
_atom_site_label
_atom_site_fract_x
_atom_site_fract_y
_atom_site_fract_z
Si Si1 0.363745 0.596321 0.858453
Si Si2 0.546473 0.427177 0.873079
Si Si3 0.000000 0.039222 0.250000
Si Si4 0.730244 0.163054 0.171806
Si Si5 0.818158 0.629201 0.467763
Si Si6 0.908590 0.881547 0.490164
Si Si7 0.776197 0.077004 0.494273
Si Si8 0.237044 0.386718 0.863290
O O1 0.415579 0.536671 0.736480
O O2 0.332321 0.739008 0.791397
O O3 0.307338 0.472408 0.884506
O O4 0.396591 0.637223 0.018875
O O5 0.500000 0.345652 0.750000
O O6 0.500000 0.500000 0.000000
O O7 0.955417 0.944398 0.360903
O O8 0.049839 0.126154 0.356291
O O9 0.777083 0.273663 0.084163
O O10 0.764737 0.104770 0.319940
O O11 0.721516 0.031455 0.060906
O O12 0.882743 0.726245 0.444080
O O13 0.818821 0.476745 0.545840
O O14 0.779634 0.612827 0.312013
O O15 0.846873 0.993546 0.512549
O O16 0.767458 0.226437 0.577928
#
# Coordination Sequence:
#
# PCOD9227100 Si02
#       8
#     4   4   2   4   4   4   4   4
#     4  10  18  33  51  81 112 132 176 223 262 321
#     4   9  18  31  51  77 105 144 183 221 257 295
#     4  10  20  34  58  76  94 142 190 224 258 300
#     4  10  20  32  51  79 111 140 169 217 272 325
#     4  10  20  34  51  78 108 138 170 214 278 322
#     4  10  20  36  55  76 103 135 182 224 256 322
#     4  11  20  34  54  82 111 139 173 214 280 336
#     4  11  20  32  56  82 111 142 166 216 285 336
#
# _framework density 17.838604
#
# number of rings (size 3 to 8) (size 9 to 14) (size 15 to 20)
#    0.000    1.867    0.000    8.000    0.000    0.000 
#    0.000    0.000    0.000   13.600    0.000   58.800 
#    0.000    0.000    0.000    0.000    0.000    0.000 
#
# Total GULP energy -167006.867015 kJ/mol
# GULP energy per Si atom -5566.895567 kJ/mol
# Density = 1.779800 g / cm^3
# Si number density = 17.838604 Si / 1000 Ang^3
#
#
#
# Elastic Constant Matrix: (Units=GPa)
#
#
# Indices 1 2 3 4 5 6 
#
# 1 63.5212 21.9970 20.4213 0.0000 7.1489 0.0000
# 2 21.9970 65.9834 -17.5486 0.0000 -9.0946 0.0000
# 3 20.4213 -17.5486 84.4276 0.0000 9.0676 0.0000
# 4 0.0000 0.0000 0.0000 27.2300 0.0000 -5.7972
# 5 7.1489 -9.0946 9.0676 0.0000 34.6397 0.0000
# 6 0.0000 0.0000 0.0000 -5.7972 0.0000 -5.8254
#
#
#
# Elastic Compliance Matrix: (Units=1/GPa)
#
#
# Indices 1 2 3 4 5 6 
#
# 1 0.021935 -0.009851 -0.006780 0.000000 -0.005339 0.000000
# 2 -0.009851 0.020874 0.006086 0.000000 0.005921 0.000000
# 3 -0.006780 0.006086 0.014845 0.000000 -0.000889 0.000000
# 4 0.000000 0.000000 0.000000 0.030304 0.000000 -0.030157
# 5 -0.005339 0.005921 -0.000889 0.000000 0.031757 0.000000
# 6 0.000000 0.000000 0.000000 -0.030157 0.000000 -0.141651
#
#
# Mechanical properties :
#
#
# Convention : Reuss Voigt Hill
#
# Bulk Modulus (GPa) = 27.35032 29.29683 28.32358
# Shear Modulus (GPa) = 440.84476 23.81302 232.32889
#
# Velocity S-wave (km/s) = 15.73741 3.65761 11.42463
# Velocity P-wave (km/s) = 18.58997 5.85632 13.78193
#
# Compressibility (1/GPa) = 0.03656264
#
# Stress axis : x y z
#
# Youngs Moduli (GPa) = 45.58989 47.90630 67.36370
#
# Poissons Ratio (x) = 0.47194 0.45671
# Poissons Ratio (y) = 0.44912 -0.40996
# Poissons Ratio (z) = 0.30909 -0.29155
#
# Static dielectric constant tensor:
#      x y z
#    x 1.700540 0.000000 0.021210 
#    y 0.000000 1.588930 0.000000 
#    z 0.021210 0.000000 1.626360 
# 
# From -- ./inp_files/22764.got.cif
#   From: 2010.05.17/outbox.cif.g08.bks.cpg/sg13_12_cif.got.tgz:22764.got - 2010.06.03 16:44:36.
