data_PCOD9227784
_publ_section_title
;
Structure prediction by ZEFSAII (Michael W. Deem and Ramdas Pophale) SiO2 
 PCOD9227784
Probable space group: P 2/C
;
_chemical_formula_sum "Si O2"
_cell_formula_units_Z 26
_cell_length_a 8.279910
_cell_length_b 13.210633
_cell_length_c 13.665981
_cell_angle_alpha 90.000000
_cell_angle_beta 139.841070
_cell_angle_gamma 90.000000
_cell_volume 964.026975
_symmetry_space_group_name_H-M "P 2/C"
_symmetry_group_IT_number 13
_symmetry_cell_setting 'monoclinic'
loop_
_space_group_symop_operation_xyz
x,y,z
-x,y,1/2-z
-x,-y,-z
x,-y,1/2+z
loop_
_atom_site_type_symbol
_atom_site_label
_atom_site_fract_x
_atom_site_fract_y
_atom_site_fract_z
Si Si1 0.302750 0.231595 0.299092
Si Si2 0.000000 0.880609 0.250000
Si Si3 0.763328 0.526340 0.067185
Si Si4 0.342614 0.706138 0.375310
Si Si5 0.134700 0.848315 0.010092
Si Si6 0.700771 0.942907 0.945049
Si Si7 0.500000 0.408212 0.250000
Si Si8 0.500000 0.321581 0.750000
O O1 0.402801 0.262895 0.451910
O O2 0.482151 0.138447 0.348704
O O3 0.343160 0.330543 0.247149
O O4 0.031323 0.186257 0.158163
O O5 0.184422 0.805037 0.277696
O O6 0.183313 0.948608 0.394584
O O7 0.791281 0.645900 0.099134
O O8 0.000000 0.485019 0.250000
O O9 0.500000 0.500000 0.000000
O O10 0.689383 0.528186 0.913558
O O11 0.385250 0.639016 0.298821
O O12 0.921287 0.892860 0.983169
O O13 0.277116 0.749255 0.109340
O O14 0.330977 0.940074 0.093144
#
# Coordination Sequence:
#
# PCOD9227784 Si02
#       8
#     4   2   4   4   4   4   2   2
#     4  10  21  41  67  91 124 188 239 275 339 418
#     4  10  18  40  66  90 114 184 228 276 328 418
#     4  11  26  49  78 112 145 182 229 285 353 440
#     4  10  23  43  68  94 134 172 229 275 342 420
#     4  11  23  36  56  89 137 169 224 296 341 389
#     4  10  21  34  61  87 124 175 236 281 337 393
#     4  10  22  44  78 104 138 186 236 282 342 424
#     4  12  26  38  60 100 134 176 222 294 348 384
#
# _framework density 26.970199999999998
#
# number of rings (size 3 to 8) (size 9 to 14) (size 15 to 20)
#    0.000    1.538    3.846    0.000    6.462    3.077 
#    5.538    3.077    0.000    0.000    0.000    0.000 
#    0.000    0.000    0.000    0.000    0.000    0.000 
#
# Total GULP energy -144808.507180 kJ/mol
# GULP energy per Si atom -5569.557968 kJ/mol
# Density = 2.690881 g / cm^3
# Si number density = 26.970200 Si / 1000 Ang^3
#
#
#
# Elastic Constant Matrix: (Units=GPa)
#
#
# Indices 1 2 3 4 5 6 
#
# 1 76.5853 1.5045 32.2895 0.0000 -15.0349 0.0000
# 2 1.5045 45.2895 30.7500 0.0000 5.3808 0.0000
# 3 32.2895 30.7500 214.6040 0.0000 -17.7755 0.0000
# 4 0.0000 0.0000 0.0000 38.7789 0.0000 2.5212
# 5 -15.0349 5.3808 -17.7755 0.0000 43.8484 0.0000
# 6 0.0000 0.0000 0.0000 2.5212 0.0000 9.3902
#
#
#
# Elastic Compliance Matrix: (Units=1/GPa)
#
#
# Indices 1 2 3 4 5 6 
#
# 1 0.014683 0.000302 -0.001902 0.000000 0.004226 0.000000
# 2 0.000302 0.025387 -0.004069 0.000000 -0.004661 0.000000
# 3 -0.001902 -0.004069 0.005708 0.000000 0.002161 0.000000
# 4 0.000000 0.000000 0.000000 0.026245 0.000000 -0.007047
# 5 0.004226 -0.004661 0.002161 0.000000 0.025703 0.000000
# 6 0.000000 0.000000 0.000000 -0.007047 0.000000 0.108386
#
#
# Mechanical properties :
#
#
# Convention : Reuss Voigt Hill
#
# Bulk Modulus (GPa) = 29.03730 51.72967 40.38348
# Shear Modulus (GPa) = 21.84065 36.53249 29.18657
#
# Velocity S-wave (km/s) = 2.84880 3.68441 3.29322
# Velocity P-wave (km/s) = 4.64873 6.10916 5.42828
#
# Compressibility (1/GPa) = 0.03443847
#
# Stress axis : x y z
#
# Youngs Moduli (GPa) = 68.10498 39.39064 175.19190
#
# Poissons Ratio (x) = -0.01189 0.33329
# Poissons Ratio (y) = -0.02055 0.71287
# Poissons Ratio (z) = 0.12956 0.16028
#
# Static dielectric constant tensor:
#      x y z
#    x 2.433490 0.000000 -0.018190 
#    y 0.000000 2.127680 0.000000 
#    z -0.018190 0.000000 2.254540 
# 
# From -- ./inp_files/47966.got.cif
#   From: 2010.05.17/outbox.cif.g08.bks.cpg/sg13_24_cif.got.tgz:47966.got - 2010.06.03 16:44:36.
