data_PCOD9227681
_publ_section_title
;
Structure prediction by ZEFSAII (Michael W. Deem and Ramdas Pophale) SiO2 
 PCOD9227681
Probable space group: P 2/C
;
_chemical_formula_sum "Si O2"
_cell_formula_units_Z 24
_cell_length_a 12.146708
_cell_length_b 9.066178
_cell_length_c 11.587810
_cell_angle_alpha 90.000000
_cell_angle_beta 48.861744
_cell_angle_gamma 90.000000
_cell_volume 961.060790
_symmetry_space_group_name_H-M "P 2/C"
_symmetry_group_IT_number 13
_symmetry_cell_setting 'monoclinic'
loop_
_space_group_symop_operation_xyz
x,y,z
-x,y,1/2-z
-x,-y,-z
x,-y,1/2+z
loop_
_atom_site_type_symbol
_atom_site_label
_atom_site_fract_x
_atom_site_fract_y
_atom_site_fract_z
Si Si1 0.377912 0.801739 0.188944
Si Si2 0.651848 0.881692 0.688499
Si Si3 0.844200 0.886067 0.335720
Si Si4 0.833455 0.660137 0.979614
Si Si5 0.128369 0.800990 0.788034
Si Si6 0.430040 0.457342 0.922684
O O1 0.288808 0.799462 0.131868
O O2 0.269296 0.717559 0.349408
O O3 0.529411 0.717490 0.094694
O O4 0.396150 0.970384 0.211609
O O5 0.500000 0.816977 0.750000
O O6 0.768274 0.926362 0.509626
O O7 0.738728 0.779503 0.717059
O O8 0.000000 0.808912 0.250000
O O9 0.890005 0.020164 0.214769
O O10 0.839403 0.765392 0.865535
O O11 0.998352 0.687727 0.911233
O O12 0.744022 0.523993 0.982510
O O13 0.500000 0.502808 0.750000
O O14 0.500000 0.500000 0.000000
#
# Coordination Sequence:
#
# PCOD9227681 Si02
#       6
#     4   4   4   4   4   4
#     4  10  21  35  60  84 126 169 205 258 323 380
#     4  11  22  33  52  93 136 171 209 253 301 384
#     4  11  20  33  56  90 132 173 210 246 302 395
#     4  10  18  38  60  87 115 165 212 246 321 387
#     4  10  20  33  59  85 125 171 205 238 302 403
#     4  10  23  44  71  89 120 166 224 288 339 381
#
# _framework density 24.972404999999998
#
# number of rings (size 3 to 8) (size 9 to 14) (size 15 to 20)
#    0.000    1.667    3.333    2.500    2.333    4.000 
#    3.000    0.000    3.667    8.000    0.000    0.000 
#    0.000    0.000    0.000    0.000    0.000    0.000 
#
# Total GULP energy -133637.654470 kJ/mol
# GULP energy per Si atom -5568.235603 kJ/mol
# Density = 2.491557 g / cm^3
# Si number density = 24.972405 Si / 1000 Ang^3
#
#
#
# Elastic Constant Matrix: (Units=GPa)
#
#
# Indices 1 2 3 4 5 6 
#
# 1 163.3916 16.2472 29.6845 0.0000 -1.0512 0.0000
# 2 16.2472 38.1699 2.0928 0.0000 -2.3032 0.0000
# 3 29.6845 2.0928 67.8608 0.0000 -14.1870 0.0000
# 4 0.0000 0.0000 0.0000 -6.9446 0.0000 1.1494
# 5 -1.0512 -2.3032 -14.1870 0.0000 38.0020 0.0000
# 6 0.0000 0.0000 0.0000 1.1494 0.0000 26.0165
#
#
#
# Elastic Compliance Matrix: (Units=1/GPa)
#
#
# Indices 1 2 3 4 5 6 
#
# 1 0.006981 -0.002867 -0.003212 0.000000 -0.001180 0.000000
# 2 -0.002867 0.027489 0.000800 0.000000 0.001886 0.000000
# 3 -0.003212 0.000800 0.017472 0.000000 0.006482 0.000000
# 4 0.000000 0.000000 0.000000 -0.142952 0.000000 0.006316
# 5 -0.001180 0.001886 0.006482 0.000000 0.028816 0.000000
# 6 0.000000 0.000000 0.000000 0.006316 0.000000 0.038158
#
#
# Mechanical properties :
#
#
# Convention : Reuss Voigt Hill
#
# Bulk Modulus (GPa) = 24.16338 40.60794 32.38566
# Shear Modulus (GPa) = 15838.24908 26.17463 7932.21186
#
# Velocity S-wave (km/s) = 79.72496 3.24101 56.42062
# Velocity P-wave (km/s) = 92.11110 5.50472 65.24859
#
# Compressibility (1/GPa) = 0.04138494
#
# Stress axis : x y z
#
# Youngs Moduli (GPa) = 143.23996 36.37849 57.23576
#
# Poissons Ratio (x) = 0.10429 0.18385
# Poissons Ratio (y) = 0.41063 -0.04581
# Poissons Ratio (z) = 0.46010 -0.02912
#
# Static dielectric constant tensor:
#      x y z
#    x 1.974420 0.000000 -0.028530 
#    y 0.000000 2.066430 0.000000 
#    z -0.028530 0.000000 1.976480 
# 
# From -- ./inp_files/33700.got.cif
#   From: 2010.05.17/outbox.cif.g08.bks.cpg/sg13_17_cif.got.tgz:33700.got - 2010.06.03 16:44:36.
