data_PCOD9227303
_publ_section_title
;
Structure prediction by ZEFSAII (Michael W. Deem and Ramdas Pophale) SiO2 
 PCOD9227303
Probable space group: P 2/C
;
_chemical_formula_sum "Si O2"
_cell_formula_units_Z 32
_cell_length_a 14.564719
_cell_length_b 8.823996
_cell_length_c 19.435859
_cell_angle_alpha 90.000000
_cell_angle_beta 149.622390
_cell_angle_gamma 90.000000
_cell_volume 1263.168389
_symmetry_space_group_name_H-M "P 2/C"
_symmetry_group_IT_number 13
_symmetry_cell_setting 'monoclinic'
loop_
_space_group_symop_operation_xyz
x,y,z
-x,y,1/2-z
-x,-y,-z
x,-y,1/2+z
loop_
_atom_site_type_symbol
_atom_site_label
_atom_site_fract_x
_atom_site_fract_y
_atom_site_fract_z
Si Si1 0.251032 0.398285 0.830443
Si Si2 0.292447 0.900482 0.799458
Si Si3 0.055969 0.639946 0.623904
Si Si4 0.280638 0.528291 0.152158
Si Si5 0.577356 0.665451 0.915638
Si Si6 0.812708 0.873807 0.611132
Si Si7 0.930753 0.805732 0.128969
Si Si8 0.566089 0.777889 0.159899
O O1 0.176428 0.560033 0.760456
O O2 0.419785 0.338747 0.895123
O O3 0.099203 0.277193 0.702290
O O4 0.314143 0.401731 0.949464
O O5 0.103067 0.817774 0.656676
O O6 0.445698 0.788088 0.867098
O O7 0.279222 0.919212 0.874151
O O8 0.344661 0.061327 0.801459
O O9 0.149382 0.575159 0.615162
O O10 0.853146 0.573590 0.496914
O O11 0.469932 0.445867 0.296481
O O12 0.324844 0.695480 0.209865
O O13 0.740488 0.743262 0.978948
O O14 0.646801 0.800938 0.463747
O O15 0.000000 0.787147 0.750000
O O16 0.885947 0.019188 0.615594
O O17 0.000000 0.756440 0.250000
#
# Coordination Sequence:
#
# PCOD9227303 Si02
#       8
#     4   4   4   4   4   4   4   4
#     4  10  20  36  61  87 117 153 200 244 295 350
#     4  11  20  34  61  87 121 155 194 238 300 355
#     4   9  21  39  57  85 117 155 202 244 287 344
#     4   9  21  37  57  84 120 154 198 246 286 347
#     4  10  18  34  58  87 116 152 198 247 291 344
#     4  11  21  34  54  90 126 147 186 247 301 355
#     4   9  18  33  55  86 118 148 189 246 293 347
#     4  11  20  34  59  89 118 158 192 238 303 356
#
# _framework density 25.333123000000001
#
# number of rings (size 3 to 8) (size 9 to 14) (size 15 to 20)
#    0.000    2.000    2.500    2.625    1.750    2.000 
#    2.250    0.625    0.000    0.000    9.750    0.000 
#    0.000    0.000    0.000    0.000    0.000    0.000 
#
# Total GULP energy -178336.816054 kJ/mol
# GULP energy per Si atom -5573.025502 kJ/mol
# Density = 2.527546 g / cm^3
# Si number density = 25.333123 Si / 1000 Ang^3
#
#
#
# Elastic Constant Matrix: (Units=GPa)
#
#
# Indices 1 2 3 4 5 6 
#
# 1 43.3791 38.8864 24.2888 0.0000 13.7760 0.0000
# 2 38.8864 121.8396 62.3408 0.0000 9.4778 0.0000
# 3 24.2888 62.3408 108.0951 0.0000 12.9692 0.0000
# 4 0.0000 0.0000 0.0000 3.0812 0.0000 5.7519
# 5 13.7760 9.4778 12.9692 0.0000 36.4338 0.0000
# 6 0.0000 0.0000 0.0000 5.7519 0.0000 11.8079
#
#
#
# Elastic Compliance Matrix: (Units=1/GPa)
#
#
# Indices 1 2 3 4 5 6 
#
# 1 0.036128 -0.010217 -0.000946 0.000000 -0.010666 0.000000
# 2 -0.010217 0.014548 -0.006376 0.000000 0.002348 0.000000
# 3 -0.000946 -0.006376 0.013475 0.000000 -0.002780 0.000000
# 4 0.000000 0.000000 0.000000 3.580527 0.000000 -1.744162
# 5 -0.010666 0.002348 -0.002780 0.000000 0.031859 0.000000
# 6 0.000000 0.000000 0.000000 -1.744162 0.000000 0.934313
#
#
# Mechanical properties :
#
#
# Convention : Reuss Voigt Hill
#
# Bulk Modulus (GPa) = 34.39665 58.26066 46.32865
# Shear Modulus (GPa) = 1.07397 20.11776 10.59587
#
# Velocity S-wave (km/s) = 0.65181 2.82109 2.04736
# Velocity P-wave (km/s) = 3.76480 5.80165 4.89044
#
# Compressibility (1/GPa) = 0.02907260
#
# Stress axis : x y z
#
# Youngs Moduli (GPa) = 27.67919 68.73701 74.21398
#
# Poissons Ratio (x) = 0.70229 0.07020
# Poissons Ratio (y) = 0.28280 0.47321
# Poissons Ratio (z) = 0.02618 0.43829
#
# Static dielectric constant tensor:
#      x y z
#    x 2.260530 0.000000 0.134350 
#    y 0.000000 2.038580 0.000000 
#    z 0.134350 0.000000 2.061090 
# 
# From -- ./inp_files/93582.got.cif
#   From: 2010.05.17/outbox.cif.g08.bks.cpg/sg13_47_cif.got.tgz:93582.got - 2010.06.03 16:44:36.
