data_PCOD9227224
_publ_section_title
;
Structure prediction by ZEFSAII (Michael W. Deem and Ramdas Pophale) SiO2 
 PCOD9227224
Probable space group: P 2/C
;
_chemical_formula_sum "Si O2"
_cell_formula_units_Z 32
_cell_length_a 13.750267
_cell_length_b 14.579350
_cell_length_c 9.410862
_cell_angle_alpha 90.000000
_cell_angle_beta 89.179867
_cell_angle_gamma 90.000000
_cell_volume 1886.401813
_symmetry_space_group_name_H-M "P 2/C"
_symmetry_group_IT_number 13
_symmetry_cell_setting 'monoclinic'
loop_
_space_group_symop_operation_xyz
x,y,z
-x,y,1/2-z
-x,-y,-z
x,-y,1/2+z
loop_
_atom_site_type_symbol
_atom_site_label
_atom_site_fract_x
_atom_site_fract_y
_atom_site_fract_z
Si Si1 0.873564 0.158561 0.854907
Si Si2 0.826459 0.640500 0.859599
Si Si3 0.093137 0.210450 0.946927
Si Si4 0.069735 0.958989 0.620321
Si Si5 0.402356 0.398428 0.436336
Si Si6 0.203324 0.698396 0.958869
Si Si7 0.931921 0.547898 0.383336
Si Si8 0.614739 0.589205 0.900213
O O1 0.852072 0.205650 0.704201
O O2 0.808867 0.200210 0.979842
O O3 0.982311 0.187837 0.903787
O O4 0.870803 0.049051 0.834498
O O5 0.825329 0.687887 0.705492
O O6 0.862170 0.536161 0.836890
O O7 0.717199 0.638291 0.924822
O O8 0.893877 0.696075 0.967479
O O9 0.123515 0.127344 0.050961
O O10 0.000000 0.928272 0.750000
O O11 0.000000 0.000000 0.500000
O O12 0.314645 0.331560 0.474177
O O13 0.386819 0.490335 0.526479
O O14 0.390405 0.421840 0.269826
O O15 0.513436 0.364562 0.451283
O O16 0.133163 0.628892 0.048820
O O17 0.000000 0.578051 0.250000
O O18 0.000000 0.500000 0.500000
#
# Coordination Sequence:
#
# PCOD9227224 Si02
#       8
#     4   4   4   4   4   4   4   4
#     4  10  21  35  49  74 101 136 168 204 246 293
#     4  11  23  35  49  74  98 136 175 207 251 299
#     4  10  22  33  51  73 102 136 167 206 244 296
#     4  10  18  34  52  73 100 132 169 209 252 289
#     4   9  18  34  53  74  94 128 167 218 262 297
#     4  11  23  34  50  72 101 135 173 208 250 301
#     4  12  24  34  43  65 102 140 171 202 239 291
#     4   9  18  34  54  72  97 124 170 218 261 299
#
# _framework density 16.963512000000001
#
# number of rings (size 3 to 8) (size 9 to 14) (size 15 to 20)
#    0.000    1.750    5.000    0.750    7.000    1.000 
#    0.000    0.000    0.000    0.000    0.000    0.875 
#    0.000    0.000    0.000    0.000    0.000    0.000 
#
# Total GULP energy -178427.583126 kJ/mol
# GULP energy per Si atom -5575.861973 kJ/mol
# Density = 1.692490 g / cm^3
# Si number density = 16.963512 Si / 1000 Ang^3
#
#
#
# Elastic Constant Matrix: (Units=GPa)
#
#
# Indices 1 2 3 4 5 6 
#
# 1 69.7394 11.7831 23.2921 0.0000 -12.6129 0.0000
# 2 11.7831 53.5255 13.8530 0.0000 -6.3077 0.0000
# 3 23.2921 13.8530 59.2840 0.0000 -13.9607 0.0000
# 4 0.0000 0.0000 0.0000 26.8482 0.0000 -3.7012
# 5 -12.6129 -6.3077 -13.9607 0.0000 18.7711 0.0000
# 6 0.0000 0.0000 0.0000 -3.7012 0.0000 10.1282
#
#
#
# Elastic Compliance Matrix: (Units=1/GPa)
#
#
# Indices 1 2 3 4 5 6 
#
# 1 0.017601 -0.001749 -0.004679 0.000000 0.007758 0.000000
# 2 -0.001749 0.020299 -0.003305 0.000000 0.003187 0.000000
# 3 -0.004679 -0.003305 0.022400 0.000000 0.012405 0.000000
# 4 0.000000 0.000000 0.000000 0.039222 0.000000 0.014333
# 5 0.007758 0.003187 0.012405 0.000000 0.068783 0.000000
# 6 0.000000 0.000000 0.000000 0.014333 0.000000 0.103972
#
#
# Mechanical properties :
#
#
# Convention : Reuss Voigt Hill
#
# Bulk Modulus (GPa) = 24.49091 31.15612 27.82351
# Shear Modulus (GPa) = 16.37434 20.05756 18.21595
#
# Velocity S-wave (km/s) = 3.11025 3.44233 3.28049
# Velocity P-wave (km/s) = 5.23134 5.84858 5.54855
#
# Compressibility (1/GPa) = 0.04083148
#
# Stress axis : x y z
#
# Youngs Moduli (GPa) = 56.81603 49.26388 44.64290
#
# Poissons Ratio (x) = 0.08617 0.20890
# Poissons Ratio (y) = 0.09938 0.14756
# Poissons Ratio (z) = 0.26586 0.16284
#
# Static dielectric constant tensor:
#      x y z
#    x 1.604320 0.000000 0.003100 
#    y 0.000000 1.596780 0.000000 
#    z 0.003100 0.000000 1.599870 
# 
# From -- ./inp_files/19370.got.cif
#   From: 2010.05.17/outbox.cif.g08.bks.cpg/sg13_10_cif.got.tgz:19370.got - 2010.06.03 16:44:36.
