data_PCOD9227903
_publ_section_title
;
Structure prediction by ZEFSAII (Michael W. Deem and Ramdas Pophale) SiO2 
 PCOD9227903
Probable space group: P 2/C
;
_chemical_formula_sum "Si O2"
_cell_formula_units_Z 22
_cell_length_a 18.582090
_cell_length_b 15.838016
_cell_length_c 5.202433
_cell_angle_alpha 90.000000
_cell_angle_beta 88.346748
_cell_angle_gamma 90.000000
_cell_volume 1530.456577
_symmetry_space_group_name_H-M "P 2/C"
_symmetry_group_IT_number 13
_symmetry_cell_setting 'monoclinic'
loop_
_space_group_symop_operation_xyz
x,y,z
-x,y,1/2-z
-x,-y,-z
x,-y,1/2+z
loop_
_atom_site_type_symbol
_atom_site_label
_atom_site_fract_x
_atom_site_fract_y
_atom_site_fract_z
Si Si1 0.735144 0.559796 0.726579
Si Si2 0.081550 0.966041 0.435581
Si Si3 0.000000 0.442022 0.250000
Si Si4 0.866119 0.315304 0.262309
Si Si5 0.916063 0.225748 0.758080
Si Si6 0.574940 0.443954 0.179954
O O1 0.744172 0.497371 0.481388
O O2 0.792781 0.634392 0.721526
O O3 0.653269 0.594949 0.720431
O O4 0.082346 0.872219 0.323993
O O5 0.115389 0.974729 0.713433
O O6 0.000000 0.000000 0.500000
O O7 0.929981 0.383697 0.244905
O O8 0.000000 0.500000 0.500000
O O9 0.872368 0.274353 0.542470
O O10 0.883574 0.246978 0.039069
O O11 0.000000 0.254221 0.750000
O O12 0.500000 0.396704 0.250000
O O13 0.573348 0.520785 0.389472
#
# Coordination Sequence:
#
# PCOD9227903 Si02
#       6
#     4   4   2   4   4   4
#     4  10  19  33  47  60  84 115 149 184 217 254
#     4  10  19  30  50  66  80  97 128 175 212 265
#     4  12  22  32  42  52  70 104 152 190 208 228
#     4  12  23  33  44  59  83 112 146 181 220 247
#     4  12  21  34  46  63  82 106 139 182 215 253
#     4   8  14  25  44  66  82 100 133 178 219 254
#
# _framework density 14.374796
#
# number of rings (size 3 to 8) (size 9 to 14) (size 15 to 20)
#    0.000    1.455    3.636    4.364    2.545    0.000 
#    0.000    0.000    0.000    0.000    0.000    0.000 
#    0.000    0.000    0.000    0.000    0.000   18.182 
#
# Total GULP energy -122581.966574 kJ/mol
# GULP energy per Si atom -5571.907572 kJ/mol
# Density = 1.434208 g / cm^3
# Si number density = 14.374796 Si / 1000 Ang^3
#
#
#
# Elastic Constant Matrix: (Units=GPa)
#
#
# Indices 1 2 3 4 5 6 
#
# 1 95.6052 23.0314 5.1858 0.0000 -1.1095 0.0000
# 2 23.0314 54.2960 15.8367 0.0000 2.4089 0.0000
# 3 5.1858 15.8367 101.0614 0.0000 12.5453 0.0000
# 4 0.0000 0.0000 0.0000 27.7042 0.0000 0.5515
# 5 -1.1095 2.4089 12.5453 0.0000 16.6758 0.0000
# 6 0.0000 0.0000 0.0000 0.5515 0.0000 -2.1712
#
#
#
# Elastic Compliance Matrix: (Units=1/GPa)
#
#
# Indices 1 2 3 4 5 6 
#
# 1 0.011687 -0.005025 0.000001 0.000000 0.001503 0.000000
# 2 -0.005025 0.021465 -0.002955 0.000000 -0.001212 0.000000
# 3 0.000001 -0.002955 0.011367 0.000000 -0.008124 0.000000
# 4 0.000000 0.000000 0.000000 0.035914 0.000000 0.009123
# 5 0.001503 -0.001212 -0.008124 0.000000 0.066354 0.000000
# 6 0.000000 0.000000 0.000000 0.009123 0.000000 -0.458265
#
#
# Mechanical properties :
#
#
# Convention : Reuss Voigt Hill
#
# Bulk Modulus (GPa) = 35.01279 37.67448 36.34364
# Shear Modulus (GPa) = -17.48250 22.23568 2.37659
#
# Velocity S-wave (km/s) = -3.49118 3.93727 1.28720
# Velocity P-wave (km/s) = 2.85637 6.85092 5.24852
#
# Compressibility (1/GPa) = 0.02856099
#
# Stress axis : x y z
#
# Youngs Moduli (GPa) = 85.56152 46.58823 87.97776
#
# Poissons Ratio (x) = 0.23409 -0.00010
# Poissons Ratio (y) = 0.42991 0.26000
# Poissons Ratio (z) = -0.00010 0.13768
#
# Static dielectric constant tensor:
#      x y z
#    x 1.518170 0.000000 0.034820 
#    y 0.000000 1.464330 0.000000 
#    z 0.034820 0.000000 1.542020 
# 
# From -- ./inp_files/6054.got.cif
#   From: 2010.05.17/outbox.cif.g08.bks.cpg/sg13_4_cif.got.tgz:6054.got - 2010.06.03 16:44:36.
