data_PCOD9227492
_publ_section_title
;
Structure prediction by ZEFSAII (Michael W. Deem and Ramdas Pophale) SiO2 
 PCOD9227492
Probable space group: P 2/C
;
_chemical_formula_sum "Si O2"
_cell_formula_units_Z 30
_cell_length_a 20.469346
_cell_length_b 11.910774
_cell_length_c 9.502399
_cell_angle_alpha 90.000000
_cell_angle_beta 135.629978
_cell_angle_gamma 90.000000
_cell_volume 1620.071464
_symmetry_space_group_name_H-M "P 2/C"
_symmetry_group_IT_number 13
_symmetry_cell_setting 'monoclinic'
loop_
_space_group_symop_operation_xyz
x,y,z
-x,y,1/2-z
-x,-y,-z
x,-y,1/2+z
loop_
_atom_site_type_symbol
_atom_site_label
_atom_site_fract_x
_atom_site_fract_y
_atom_site_fract_z
Si Si1 0.151716 0.094496 0.309454
Si Si2 0.862424 0.620151 0.411243
Si Si3 0.298403 0.929406 0.526342
Si Si4 0.752140 0.786892 0.791268
Si Si5 0.895603 0.607559 0.132595
Si Si6 0.602245 0.172845 0.844094
Si Si7 0.000000 0.804950 0.750000
Si Si8 0.293137 0.220775 0.747235
O O1 0.173587 0.145321 0.190591
O O2 0.219346 0.155759 0.529992
O O3 0.050667 0.118425 0.212824
O O4 0.189972 0.969324 0.358352
O O5 0.884441 0.595169 0.282872
O O6 0.882856 0.511615 0.536220
O O7 0.758248 0.666721 0.281062
O O8 0.929214 0.721502 0.562607
O O9 0.302177 0.862003 0.677292
O O10 0.314460 0.853368 0.416078
O O11 0.360782 0.042482 0.610021
O O12 0.672166 0.759116 0.554620
O O13 0.812246 0.689028 0.953429
O O14 0.000000 0.648509 0.250000
O O15 0.500000 0.173525 0.750000
O O16 0.616127 0.226883 0.711764
#
# Coordination Sequence:
#
# PCOD9227492 Si02
#       8
#     4   4   4   4   4   4   2   4
#     4   9  18  32  53  71 112 161 189 229 289 345
#     4  11  23  37  58  83 115 155 199 249 296 331
#     4  10  18  36  54  84 121 152 191 235 290 355
#     4  10  21  37  57  84 122 152 194 246 296 342
#     4  12  24  37  61  88 116 155 208 249 284 341
#     4  10  21  37  65  91 117 154 192 236 293 364
#     4  10  20  36  52  80 116 148 202 250 280 338
#     4   9  19  36  55  81 121 151 188 240 297 346
#
# _framework density 18.517702
#
# number of rings (size 3 to 8) (size 9 to 14) (size 15 to 20)
#    0.000    2.133    2.000    4.400    5.600    2.133 
#    1.200    3.333    0.000    0.800    0.000    0.000 
#    0.000    0.000    0.000    0.000    0.000    0.000 
#
# Total GULP energy -167170.332260 kJ/mol
# GULP energy per Si atom -5572.344409 kJ/mol
# Density = 1.847555 g / cm^3
# Si number density = 18.517702 Si / 1000 Ang^3
#
#
#
# Elastic Constant Matrix: (Units=GPa)
#
#
# Indices 1 2 3 4 5 6 
#
# 1 155.8430 28.2830 51.3784 0.0000 -20.1585 0.0000
# 2 28.2830 18.3923 15.4566 0.0000 -1.8987 0.0000
# 3 51.3784 15.4566 46.5529 0.0000 -22.7897 0.0000
# 4 0.0000 0.0000 0.0000 33.0902 0.0000 -65.5945
# 5 -20.1585 -1.8987 -22.7897 0.0000 40.4021 0.0000
# 6 0.0000 0.0000 0.0000 -65.5945 0.0000 129.9954
#
#
#
# Elastic Compliance Matrix: (Units=1/GPa)
#
#
# Indices 1 2 3 4 5 6 
#
# 1 0.011156 -0.009408 -0.009229 0.000000 -0.000081 0.000000
# 2 -0.009408 0.090158 -0.027318 0.000000 -0.015867 0.000000
# 3 -0.009229 -0.027318 0.052294 0.000000 0.023609 0.000000
# 4 0.000000 0.000000 0.000000********** 0.000000-61.258089
# 5 -0.000081 -0.015867 0.023609 0.000000 0.037282 0.000000
# 6 0.000000 0.000000 0.000000-61.258089 0.000000-30.902589
#
#
# Mechanical properties :
#
#
# Convention : Reuss Voigt Hill
#
# Bulk Modulus (GPa) = 16.20803 45.66937 30.93870
# Shear Modulus (GPa) = -0.03289 49.07555 24.52133
#
# Velocity S-wave (km/s) = -0.13343 5.15359 3.64292
# Velocity P-wave (km/s) = 2.95770 7.75427 5.86842
#
# Compressibility (1/GPa) = 0.06169781
#
# Stress axis : x y z
#
# Youngs Moduli (GPa) = 89.63670 11.09162 19.12256
#
# Poissons Ratio (x) = 0.10435 0.17648
# Poissons Ratio (y) = 0.84333 0.52240
# Poissons Ratio (z) = 0.82723 0.30301
#
# Static dielectric constant tensor:
#      x y z
#    x 1.682050 0.000000 0.008280 
#    y 0.000000 1.634260 0.000000 
#    z 0.008280 0.000000 1.684980 
# 
# From -- ./inp_files/23269.got.cif
#   From: 2010.05.17/outbox.cif.g08.bks.cpg/sg13_12_cif.got.tgz:23269.got - 2010.06.03 16:44:36.
