data_PCOD9227510
_publ_section_title
;
Structure prediction by ZEFSAII (Michael W. Deem and Ramdas Pophale) SiO2 
 PCOD9227510
Probable space group: P 2/C
;
_chemical_formula_sum "Si O2"
_cell_formula_units_Z 22
_cell_length_a 9.695175
_cell_length_b 7.897308
_cell_length_c 17.725149
_cell_angle_alpha 90.000000
_cell_angle_beta 40.459367
_cell_angle_gamma 90.000000
_cell_volume 880.659789
_symmetry_space_group_name_H-M "P 2/C"
_symmetry_group_IT_number 13
_symmetry_cell_setting 'monoclinic'
loop_
_space_group_symop_operation_xyz
x,y,z
-x,y,1/2-z
-x,-y,-z
x,-y,1/2+z
loop_
_atom_site_type_symbol
_atom_site_label
_atom_site_fract_x
_atom_site_fract_y
_atom_site_fract_z
Si Si1 0.969808 0.312830 0.975077
Si Si2 0.542859 0.870971 0.602067
Si Si3 0.000000 0.963056 0.250000
Si Si4 0.887344 0.811145 0.660031
Si Si5 0.170780 0.439312 0.747010
Si Si6 0.461697 0.208609 0.562142
O O1 0.109891 0.312157 0.841299
O O2 0.736953 0.248866 0.045065
O O3 0.007424 0.192090 0.030888
O O4 0.000000 0.500000 0.000000
O O5 0.356013 0.872388 0.741022
O O6 0.455055 0.795373 0.557890
O O7 0.576428 0.068277 0.565353
O O8 0.004985 0.076691 0.321797
O O9 0.218224 0.859470 0.156636
O O10 0.859597 0.621599 0.702994
O O11 0.408894 0.389901 0.620534
O O12 0.000000 0.438853 0.750000
#
# Coordination Sequence:
#
# PCOD9227510 Si02
#       6
#     4   4   2   4   4   4
#     4  10  21  38  60  86 122 158 201 253 305 361
#     4  10  20  38  58  88 120 157 200 254 306 361
#     4  10  18  36  56  88 118 160 208 240 310 366
#     4  10  22  35  61  88 120 156 202 255 304 363
#     4  11  19  38  62  87 115 156 204 244 303 369
#     4  10  20  35  62  87 119 158 201 256 296 371
#
# _framework density 24.981269000000001
#
# number of rings (size 3 to 8) (size 9 to 14) (size 15 to 20)
#    0.000    1.818    3.636    0.545    0.000    0.727 
#    0.000   11.818    0.000   10.909    0.000    0.000 
#    0.000    0.000    0.000    0.000    0.000    0.000 
#
# Total GULP energy -122855.446676 kJ/mol
# GULP energy per Si atom -5584.338485 kJ/mol
# Density = 2.492441 g / cm^3
# Si number density = 24.981269 Si / 1000 Ang^3
#
#
#
# Elastic Constant Matrix: (Units=GPa)
#
#
# Indices 1 2 3 4 5 6 
#
# 1 112.3546 32.4394 23.2766 0.0000 10.7776 0.0000
# 2 32.4394 89.8625 0.1191 0.0000 0.8832 0.0000
# 3 23.2766 0.1191 90.4842 0.0000 20.4298 0.0000
# 4 0.0000 0.0000 0.0000 25.6647 0.0000 12.4473
# 5 10.7776 0.8832 20.4298 0.0000 49.4854 0.0000
# 6 0.0000 0.0000 0.0000 12.4473 0.0000 31.9762
#
#
#
# Elastic Compliance Matrix: (Units=1/GPa)
#
#
# Indices 1 2 3 4 5 6 
#
# 1 0.010630 -0.003822 -0.002451 0.000000 -0.001235 0.000000
# 2 -0.003822 0.012504 0.000914 0.000000 0.000232 0.000000
# 3 -0.002451 0.000914 0.012753 0.000000 -0.004748 0.000000
# 4 0.000000 0.000000 0.000000 0.048032 0.000000 -0.018697
# 5 -0.001235 0.000232 -0.004748 0.000000 0.022433 0.000000
# 6 0.000000 0.000000 0.000000 -0.018697 0.000000 0.038551
#
#
# Mechanical properties :
#
#
# Convention : Reuss Voigt Hill
#
# Bulk Modulus (GPa) = 39.72857 44.93019 42.32938
# Shear Modulus (GPa) = 30.48591 37.21634 33.85113
#
# Velocity S-wave (km/s) = 3.49714 3.86394 3.68511
# Velocity P-wave (km/s) = 5.67843 6.15884 5.92351
#
# Compressibility (1/GPa) = 0.02517080
#
# Stress axis : x y z
#
# Youngs Moduli (GPa) = 94.07279 79.97242 78.41439
#
# Poissons Ratio (x) = 0.30565 0.19216
# Poissons Ratio (y) = 0.35954 -0.07170
# Poissons Ratio (z) = 0.23054 -0.07313
#
# Static dielectric constant tensor:
#      x y z
#    x 1.989950 0.000000 -0.033170 
#    y 0.000000 2.089470 0.000000 
#    z -0.033170 0.000000 2.123910 
# 
# From -- ./inp_files/63682.got.cif
#   From: 2010.05.17/outbox.cif.g08.bks.cpg/sg13_32_cif.got.tgz:63682.got - 2010.06.03 16:44:36.
