data_PCOD9227397
_publ_section_title
;
Structure prediction by ZEFSAII (Michael W. Deem and Ramdas Pophale) SiO2 
 PCOD9227397
Probable space group: P 2/C
;
_chemical_formula_sum "Si O2"
_cell_formula_units_Z 20
_cell_length_a 6.943384
_cell_length_b 22.628727
_cell_length_c 5.464339
_cell_angle_alpha 90.000000
_cell_angle_beta 102.435536
_cell_angle_gamma 90.000000
_cell_volume 838.413945
_symmetry_space_group_name_H-M "P 2/C"
_symmetry_group_IT_number 13
_symmetry_cell_setting 'monoclinic'
loop_
_space_group_symop_operation_xyz
x,y,z
-x,y,1/2-z
-x,-y,-z
x,-y,1/2+z
loop_
_atom_site_type_symbol
_atom_site_label
_atom_site_fract_x
_atom_site_fract_y
_atom_site_fract_z
Si Si1 0.373533 0.841729 0.464376
Si Si2 0.234373 0.027555 0.829821
Si Si3 0.239715 0.532048 0.828346
Si Si4 0.293167 0.665947 0.944049
Si Si5 0.741117 0.714108 0.063739
O O1 0.500000 0.835111 0.250000
O O2 0.270792 0.904981 0.414163
O O3 0.234724 0.784360 0.432332
O O4 0.500000 0.840617 0.750000
O O5 0.000000 0.017254 0.750000
O O6 0.309390 0.012814 0.576243
O O7 0.294674 0.511342 0.568917
O O8 0.319353 0.596062 0.925977
O O9 0.000000 0.536201 0.750000
O O10 0.189473 0.686524 0.669126
O O11 0.504879 0.699065 0.001555
O O12 0.191242 0.684239 0.167938
#
# Coordination Sequence:
#
# PCOD9227397 Si02
#       5
#     4   4   4   4   4
#     4  12  21  37  63  88 121 155 195 249 293 343
#     4  10  23  42  60  85 123 160 196 243 295 348
#     4  10  21  37  55  78 109 144 185 231 275 332
#     4  10  18  35  56  76 107 148 172 224 281 330
#     4  10  19  35  54  79 111 142 177 227 284 325
#
# _framework density 23.854564
#
# number of rings (size 3 to 8) (size 9 to 14) (size 15 to 20)
#    0.000    1.600    4.000    2.400    0.000    2.400 
#    0.000   14.000    0.000    0.000    0.000    0.000 
#    0.000    0.000    0.000    0.000    0.000    0.000 
#
# Total GULP energy -111904.751972 kJ/mol
# GULP energy per Si atom -5595.237599 kJ/mol
# Density = 2.380027 g / cm^3
# Si number density = 23.854564 Si / 1000 Ang^3
#
#
#
# Elastic Constant Matrix: (Units=GPa)
#
#
# Indices 1 2 3 4 5 6 
#
# 1 57.9907 -11.0833 47.0160 0.0000 -2.7767 0.0000
# 2 -11.0833 174.0443 70.8800 0.0000 0.7313 0.0000
# 3 47.0160 70.8800 248.4445 0.0000 -23.5701 0.0000
# 4 0.0000 0.0000 0.0000 28.9973 0.0000 -74.1154
# 5 -2.7767 0.7313 -23.5701 0.0000 50.0509 0.0000
# 6 0.0000 0.0000 0.0000 -74.1154 0.0000 -202.8859
#
#
#
# Elastic Compliance Matrix: (Units=1/GPa)
#
#
# Indices 1 2 3 4 5 6 
#
# 1 0.022213 0.003603 -0.005359 0.000000 -0.001344 0.000000
# 2 0.003603 0.007135 -0.002835 0.000000 -0.001239 0.000000
# 3 -0.005359 -0.002835 0.006096 0.000000 0.002615 0.000000
# 4 0.000000 0.000000 0.000000 0.017834 0.000000 -0.006515
# 5 -0.001344 -0.001239 0.002615 0.000000 0.021155 0.000000
# 6 0.000000 0.000000 0.000000 -0.006515 0.000000 -0.002549
#
#
# Mechanical properties :
#
#
# Convention : Reuss Voigt Hill
#
# Bulk Modulus (GPa) = 38.07844 77.12279 57.60061
# Shear Modulus (GPa) = 55.66683 0.14358 27.90520
#
# Velocity S-wave (km/s) = 4.83597 0.24560 3.42395
# Velocity P-wave (km/s) = 6.86873 5.69921 6.31112
#
# Compressibility (1/GPa) = 0.02626158
#
# Stress axis : x y z
#
# Youngs Moduli (GPa) = 45.01840 140.15803 164.04093
#
# Poissons Ratio (x) = -0.50494 0.87909
# Poissons Ratio (y) = -0.16219 0.46504
# Poissons Ratio (z) = 0.24125 0.39733
#
# Static dielectric constant tensor:
#      x y z
#    x 1.952480 0.000000 0.004510 
#    y 0.000000 1.833430 0.000000 
#    z 0.004510 0.000000 1.900300 
# 
# From -- ./inp_files/2163.got.cif
#   From: 2010.05.17/outbox.cif.g08.bks.cpg/sg13_2_cif.got.tgz:2163.got - 2010.06.03 16:44:36.
