data_PCOD9227678
_publ_section_title
;
Structure prediction by ZEFSAII (Michael W. Deem and Ramdas Pophale) SiO2 
 PCOD9227678
Probable space group: P 2/C
;
_chemical_formula_sum "Si O2"
_cell_formula_units_Z 26
_cell_length_a 20.025110
_cell_length_b 9.064581
_cell_length_c 8.870405
_cell_angle_alpha 90.000000
_cell_angle_beta 135.966006
_cell_angle_gamma 90.000000
_cell_volume 1119.190548
_symmetry_space_group_name_H-M "P 2/C"
_symmetry_group_IT_number 13
_symmetry_cell_setting 'monoclinic'
loop_
_space_group_symop_operation_xyz
x,y,z
-x,y,1/2-z
-x,-y,-z
x,-y,1/2+z
loop_
_atom_site_type_symbol
_atom_site_label
_atom_site_fract_x
_atom_site_fract_y
_atom_site_fract_z
Si Si1 0.000000 0.537349 0.750000
Si Si2 0.383418 0.664920 0.719552
Si Si3 0.181042 0.213557 0.822051
Si Si4 0.500000 0.080912 0.250000
Si Si5 0.623548 0.186170 0.989257
Si Si6 0.500000 0.401499 0.750000
Si Si7 0.037751 0.299581 0.034745
Si Si8 0.176303 0.068990 0.138059
O O1 0.062651 0.426229 0.954202
O O2 0.061008 0.640562 0.737928
O O3 0.272980 0.681225 0.486828
O O4 0.386159 0.674840 0.907512
O O5 0.438441 0.527511 0.742748
O O6 0.436289 0.813608 0.750401
O O7 0.077769 0.289408 0.655095
O O8 0.183881 0.102359 0.686318
O O9 0.183253 0.108668 0.973845
O O10 0.575734 0.969962 0.452538
O O11 0.733488 0.152921 0.141320
O O12 0.562546 0.263347 0.762471
O O13 0.082587 0.146007 0.056465
#
# Coordination Sequence:
#
# PCOD9227678 Si02
#       8
#     2   4   4   2   4   2   4   4
#     4  10  24  42  66  88 128 180 202 244 320 364
#     4  10  21  38  60  88 122 160 208 256 312 374
#     4  11  23  41  64  95 124 163 211 264 314 376
#     4  10  18  38  60  82 120 162 202 254 310 376
#     4  10  21  38  60  88 122 160 208 256 312 374
#     4  10  22  38  60  90 120 162 206 266 316 374
#     4  11  23  44  65  96 128 170 206 257 303 382
#     4  11  23  41  64  95 124 163 211 264 314 376
#
# _framework density 23.231074
#
# number of rings (size 3 to 8) (size 9 to 14) (size 15 to 20)
#    0.000    1.538    3.077    1.385    2.154    2.462 
#    0.000    1.538    0.000    0.000    0.000    0.000 
#    0.000    0.000    0.000    0.000    0.000    0.000 
#
# Total GULP energy -144790.364536 kJ/mol
# GULP energy per Si atom -5568.860174 kJ/mol
# Density = 2.317820 g / cm^3
# Si number density = 23.231074 Si / 1000 Ang^3
#
#
#
# Elastic Constant Matrix: (Units=GPa)
#
#
# Indices 1 2 3 4 5 6 
#
# 1 63.2814 5.9690 21.2278 0.0000 11.0449 0.0000
# 2 5.9690 75.0760 13.7579 0.0000 -2.3178 0.0000
# 3 21.2278 13.7579 55.0868 0.0000 18.6894 0.0000
# 4 0.0000 0.0000 0.0000 44.1839 0.0000 -2.1635
# 5 11.0449 -2.3178 18.6894 0.0000 40.5344 0.0000
# 6 0.0000 0.0000 0.0000 -2.1635 0.0000 32.8688
#
#
#
# Elastic Compliance Matrix: (Units=1/GPa)
#
#
# Indices 1 2 3 4 5 6 
#
# 1 0.018302 -0.000379 -0.006234 0.000000 -0.002134 0.000000
# 2 -0.000379 0.014250 -0.004415 0.000000 0.002954 0.000000
# 3 -0.006234 -0.004415 0.025093 0.000000 -0.010123 0.000000
# 4 0.000000 0.000000 0.000000 0.022706 0.000000 0.001495
# 5 -0.002134 0.002954 -0.010123 0.000000 0.030089 0.000000
# 6 0.000000 0.000000 0.000000 0.001495 0.000000 0.030522
#
#
# Mechanical properties :
#
#
# Convention : Reuss Voigt Hill
#
# Bulk Modulus (GPa) = 28.09844 30.59486 29.34665
# Shear Modulus (GPa) = 28.59097 33.68338 31.13717
#
# Velocity S-wave (km/s) = 3.51197 3.81192 3.66502
# Velocity P-wave (km/s) = 5.34478 5.70725 5.52899
#
# Compressibility (1/GPa) = 0.03558916
#
# Stress axis : x y z
#
# Youngs Moduli (GPa) = 54.63927 70.17428 39.85212
#
# Poissons Ratio (x) = 0.02657 0.24844
# Poissons Ratio (y) = 0.02069 0.17596
# Poissons Ratio (z) = 0.34062 0.30984
#
# Static dielectric constant tensor:
#      x y z
#    x 1.926000 0.000000 -0.012660 
#    y 0.000000 1.816020 0.000000 
#    z -0.012660 0.000000 1.764880 
# 
# From -- ./inp_files/22865.got.cif
#   From: 2010.05.17/outbox.cif.g08.bks.cpg/sg13_12_cif.got.tgz:22865.got - 2010.06.03 16:44:36.
