data_PCOD9227331
_publ_section_title
;
Structure prediction by ZEFSAII (Michael W. Deem and Ramdas Pophale) SiO2 
 PCOD9227331
Probable space group: P 2/C
;
_chemical_formula_sum "Si O2"
_cell_formula_units_Z 24
_cell_length_a 27.790186
_cell_length_b 8.411443
_cell_length_c 13.985538
_cell_angle_alpha 90.000000
_cell_angle_beta 20.652099
_cell_angle_gamma 90.000000
_cell_volume 1153.021910
_symmetry_space_group_name_H-M "P 2/C"
_symmetry_group_IT_number 13
_symmetry_cell_setting 'monoclinic'
loop_
_space_group_symop_operation_xyz
x,y,z
-x,y,1/2-z
-x,-y,-z
x,-y,1/2+z
loop_
_atom_site_type_symbol
_atom_site_label
_atom_site_fract_x
_atom_site_fract_y
_atom_site_fract_z
Si Si1 0.144303 0.929193 0.535000
Si Si2 0.747821 0.281795 0.184084
Si Si3 0.359309 0.816299 0.980794
Si Si4 0.075444 0.685910 0.805692
Si Si5 0.500000 0.127742 0.750000
Si Si6 0.000000 0.496555 0.750000
Si Si7 0.787655 0.383632 0.906729
O O1 0.256913 0.840646 0.260025
O O2 0.132430 0.850970 0.661402
O O3 0.000000 0.916606 0.750000
O O4 0.184988 0.111508 0.462500
O O5 0.610266 0.238347 0.494571
O O6 0.717307 0.360090 0.138976
O O7 0.864131 0.390308 0.016613
O O8 0.289747 0.710885 0.030543
O O9 0.500000 0.734909 0.750000
O O10 0.410975 0.995446 0.855180
O O11 0.028984 0.598394 0.792114
O O12 0.183728 0.571486 0.655472
O O13 0.941083 0.691091 0.120302
#
# Coordination Sequence:
#
# PCOD9227331 Si02
#       7
#     4   4   4   4   2   2   4
#     4  11  18  36  60  84 112 156 186 232 290 344
#     4  10  21  34  62  85 113 146 201 233 285 334
#     4   9  19  36  59  78 113 158 188 228 293 337
#     4  10  20  34  59  85 125 145 185 241 291 326
#     4   8  20  38  54  80 116 160 180 240 292 334
#     4  10  18  34  60  84 108 160 188 230 282 356
#     4  10  20  36  57  88 114 152 191 241 281 335
#
# _framework density 20.814869000000002
#
# number of rings (size 3 to 8) (size 9 to 14) (size 15 to 20)
#    0.500    1.667    3.333    0.000    0.000    1.333 
#    0.000    2.500   16.500    0.000    0.000    0.000 
#    0.000    0.000    0.000    0.000    0.000    0.000 
#
# Total GULP energy -133852.230018 kJ/mol
# GULP energy per Si atom -5577.176251 kJ/mol
# Density = 2.076749 g / cm^3
# Si number density = 20.814869 Si / 1000 Ang^3
#
#
#
# Elastic Constant Matrix: (Units=GPa)
#
#
# Indices 1 2 3 4 5 6 
#
# 1 24.1875 1.2457 3.7292 0.0000 1.8935 0.0000
# 2 1.2457 40.7176 26.6635 0.0000 3.0330 0.0000
# 3 3.7292 26.6635 112.2813 0.0000 -3.4265 0.0000
# 4 0.0000 0.0000 0.0000 3.4890 0.0000 12.7256
# 5 1.8935 3.0330 -3.4265 0.0000 17.9803 0.0000
# 6 0.0000 0.0000 0.0000 12.7256 0.0000 13.2325
#
#
#
# Elastic Compliance Matrix: (Units=1/GPa)
#
#
# Indices 1 2 3 4 5 6 
#
# 1 0.041950 0.000090 -0.001559 0.000000 -0.004730 0.000000
# 2 0.000090 0.029799 -0.007275 0.000000 -0.006423 0.000000
# 3 -0.001559 -0.007275 0.010791 0.000000 0.003448 0.000000
# 4 0.000000 0.000000 0.000000 -0.114299 0.000000 0.109920
# 5 -0.004730 -0.006423 0.003448 0.000000 0.057855 0.000000
# 6 0.000000 0.000000 0.000000 0.109920 0.000000 -0.030137
#
#
# Mechanical properties :
#
#
# Convention : Reuss Voigt Hill
#
# Bulk Modulus (GPa) = 15.37260 26.71811 21.04535
# Shear Modulus (GPa) = 142.32157 16.64358 79.48257
#
# Velocity S-wave (km/s) = 8.27789 2.83079 6.18614
# Velocity P-wave (km/s) = 9.93811 4.85267 7.82031
#
# Compressibility (1/GPa) = 0.06505082
#
# Stress axis : x y z
#
# Youngs Moduli (GPa) = 23.83805 33.55782 92.67073
#
# Poissons Ratio (x) = -0.00301 0.14447
# Poissons Ratio (y) = -0.00214 0.67422
# Poissons Ratio (z) = 0.03716 0.24415
#
# Static dielectric constant tensor:
#      x y z
#    x 1.772080 0.000000 0.002060 
#    y 0.000000 1.791550 0.000000 
#    z 0.002060 0.000000 1.743300 
# 
# From -- ./inp_files/59886.got.cif
#   From: 2010.05.17/outbox.cif.g08.bks.cpg/sg13_30_cif.got.tgz:59886.got - 2010.06.03 16:44:36.
