data_PCOD9227983
_publ_section_title
;
Structure prediction by ZEFSAII (Michael W. Deem and Ramdas Pophale) SiO2 
 PCOD9227983
Probable space group: P 2/C
;
_chemical_formula_sum "Si O2"
_cell_formula_units_Z 16
_cell_length_a 8.316504
_cell_length_b 8.765527
_cell_length_c 9.350020
_cell_angle_alpha 90.000000
_cell_angle_beta 124.503021
_cell_angle_gamma 90.000000
_cell_volume 561.706370
_symmetry_space_group_name_H-M "P 2/C"
_symmetry_group_IT_number 13
_symmetry_cell_setting 'monoclinic'
loop_
_space_group_symop_operation_xyz
x,y,z
-x,y,1/2-z
-x,-y,-z
x,-y,1/2+z
loop_
_atom_site_type_symbol
_atom_site_label
_atom_site_fract_x
_atom_site_fract_y
_atom_site_fract_z
Si Si1 0.567869 0.263335 0.636378
Si Si2 0.173397 0.016236 0.742536
Si Si3 0.779771 0.437462 0.984471
Si Si4 0.121803 0.745140 0.556270
O O1 0.500000 0.174981 0.750000
O O2 0.670490 0.126269 0.604491
O O3 0.696924 0.393303 0.782716
O O4 0.372693 0.349735 0.490862
O O5 0.000000 0.947240 0.750000
O O6 0.047300 0.144896 0.594158
O O7 0.252743 0.872223 0.697151
O O8 0.780951 0.619826 0.999043
O O9 0.994730 0.367595 0.092871
#
# Coordination Sequence:
#
# PCOD9227983 Si02
#       4
#     4   4   4   4
#     4   7  15  32  50  72  98 132 163 204 247 283
#     4  10  19  31  50  78 104 128 161 206 253 298
#     4   7  14  31  52  69  94 136 170 197 239 293
#     4   9  16  32  53  70  97 139 165 198 250 295
#
# _framework density 28.484631
#
# number of rings (size 3 to 8) (size 9 to 14) (size 15 to 20)
#    1.500    2.000    0.000    0.000    0.000    0.000 
#    4.500   13.750    0.000    0.000    0.000    0.000 
#    0.000    0.000    0.000    0.000    0.000    0.000 
#
# Total GULP energy -89111.470698 kJ/mol
# GULP energy per Si atom -5569.466919 kJ/mol
# Density = 2.841980 g / cm^3
# Si number density = 28.484631 Si / 1000 Ang^3
#
#
#
# Elastic Constant Matrix: (Units=GPa)
#
#
# Indices 1 2 3 4 5 6 
#
# 1 52.6533 53.3659 17.5921 0.0000 20.6723 0.0000
# 2 53.3659 261.7959 49.6819 0.0000 17.3801 0.0000
# 3 17.5921 49.6819 63.0203 0.0000 7.8102 0.0000
# 4 0.0000 0.0000 0.0000 44.0681 0.0000 -5.9434
# 5 20.6723 17.3801 7.8102 0.0000 37.4180 0.0000
# 6 0.0000 0.0000 0.0000 -5.9434 0.0000 41.7520
#
#
#
# Elastic Compliance Matrix: (Units=1/GPa)
#
#
# Indices 1 2 3 4 5 6 
#
# 1 0.030168 -0.004653 -0.003034 0.000000 -0.013873 0.000000
# 2 -0.004653 0.005280 -0.002955 0.000000 0.000735 0.000000
# 3 -0.003034 -0.002955 0.019162 0.000000 -0.000951 0.000000
# 4 0.000000 0.000000 0.000000 0.023136 0.000000 0.003293
# 5 -0.013873 0.000735 -0.000951 0.000000 0.034246 0.000000
# 6 0.000000 0.000000 0.000000 0.003293 0.000000 0.024420
#
#
# Mechanical properties :
#
#
# Convention : Reuss Voigt Hill
#
# Bulk Modulus (GPa) = 30.00580 68.74994 49.37787
# Shear Modulus (GPa) = 29.61980 41.76958 35.69469
#
# Velocity S-wave (km/s) = 3.22817 3.83350 3.54379
# Velocity P-wave (km/s) = 4.94486 6.61684 5.84098
#
# Compressibility (1/GPa) = 0.03332689
#
# Stress axis : x y z
#
# Youngs Moduli (GPa) = 33.14740 189.38638 52.18614
#
# Poissons Ratio (x) = 0.88119 0.15834
# Poissons Ratio (y) = 0.15423 0.15420
# Poissons Ratio (z) = 0.10057 0.55961
#
# Static dielectric constant tensor:
#      x y z
#    x 2.540600 0.000000 -0.079110 
#    y 0.000000 2.116100 0.000000 
#    z -0.079110 0.000000 2.480680 
# 
# From -- ./inp_files/27848.got.cif
#   From: 2010.05.17/outbox.cif.g08.bks.cpg/sg13_14_cif.got.tgz:27848.got - 2010.06.03 16:44:36.
