data_PCOD9227347
_publ_section_title
;
Structure prediction by ZEFSAII (Michael W. Deem and Ramdas Pophale) SiO2 
 PCOD9227347
Probable space group: P 2/C
;
_chemical_formula_sum "Si O2"
_cell_formula_units_Z 24
_cell_length_a 13.005865
_cell_length_b 11.319745
_cell_length_c 13.716464
_cell_angle_alpha 90.000000
_cell_angle_beta 31.977991
_cell_angle_gamma 90.000000
_cell_volume 1069.450458
_symmetry_space_group_name_H-M "P 2/C"
_symmetry_group_IT_number 13
_symmetry_cell_setting 'monoclinic'
loop_
_space_group_symop_operation_xyz
x,y,z
-x,y,1/2-z
-x,-y,-z
x,-y,1/2+z
loop_
_atom_site_type_symbol
_atom_site_label
_atom_site_fract_x
_atom_site_fract_y
_atom_site_fract_z
Si Si1 0.081200 0.657421 0.530991
Si Si2 0.839803 0.097379 0.613754
Si Si3 0.427464 0.974870 0.445926
Si Si4 0.714620 0.714192 0.939853
Si Si5 0.793261 0.202351 0.866388
Si Si6 0.647530 0.394892 0.858194
O O1 0.079371 0.796619 0.512953
O O2 0.226168 0.651792 0.506570
O O3 0.169693 0.592749 0.364090
O O4 0.860049 0.646169 0.747281
O O5 0.818232 0.152443 0.737912
O O6 0.636527 0.055341 0.731883
O O7 0.000000 0.000000 0.500000
O O8 0.334071 0.097453 0.484112
O O9 0.500000 0.000000 0.500000
O O10 0.285745 0.859368 0.557195
O O11 0.493866 0.692534 0.088047
O O12 0.704074 0.330596 0.914179
O O13 0.000000 0.213954 0.750000
O O14 0.500000 0.500000 0.000000
#
# Coordination Sequence:
#
# PCOD9227347 Si02
#       6
#     4   4   4   4   4   4
#     4  10  22  38  66 101 124 168 223 276 336 402
#     4  10  20  34  58  95 137 170 213 261 334 415
#     4  10  18  34  60  94 135 171 205 270 339 413
#     4  11  21  39  68 100 131 166 222 276 341 418
#     4  10  22  40  60  92 138 175 219 271 344 411
#     4  11  24  45  69  89 131 179 232 293 332 390
#
# _framework density 22.441431999999999
#
# number of rings (size 3 to 8) (size 9 to 14) (size 15 to 20)
#    0.000    1.667    5.000    2.500    4.667    0.667 
#    3.000    0.000    7.333    0.000    0.000    0.000 
#    0.000    0.000    0.000    0.000    0.000    0.000 
#
# Total GULP energy -133663.327857 kJ/mol
# GULP energy per Si atom -5569.305327 kJ/mol
# Density = 2.239035 g / cm^3
# Si number density = 22.441432 Si / 1000 Ang^3
#
#
#
# Elastic Constant Matrix: (Units=GPa)
#
#
# Indices 1 2 3 4 5 6 
#
# 1 81.3171 24.1970 26.3044 0.0000 -30.5759 0.0000
# 2 24.1970 102.5695 42.8132 0.0000 -8.0176 0.0000
# 3 26.3044 42.8132 95.2292 0.0000 -7.3631 0.0000
# 4 0.0000 0.0000 0.0000 41.6507 0.0000 -16.1564
# 5 -30.5759 -8.0176 -7.3631 0.0000 37.5582 0.0000
# 6 0.0000 0.0000 0.0000 -16.1564 0.0000 24.1274
#
#
#
# Elastic Compliance Matrix: (Units=1/GPa)
#
#
# Indices 1 2 3 4 5 6 
#
# 1 0.019568 -0.002067 -0.003329 0.000000 0.014836 0.000000
# 2 -0.002067 0.012307 -0.004964 0.000000 -0.000029 0.000000
# 3 -0.003329 -0.004964 0.013566 0.000000 -0.001110 0.000000
# 4 0.000000 0.000000 0.000000 0.032434 0.000000 0.021719
# 5 0.014836 -0.000029 -0.001110 0.000000 0.038480 0.000000
# 6 0.000000 0.000000 0.000000 0.021719 0.000000 0.055990
#
#
# Mechanical properties :
#
#
# Convention : Reuss Voigt Hill
#
# Bulk Modulus (GPa) = 40.45079 51.74945 46.10012
# Shear Modulus (GPa) = 24.83787 33.05402 28.94594
#
# Velocity S-wave (km/s) = 3.33045 3.84200 3.59534
# Velocity P-wave (km/s) = 5.73179 6.54150 6.14998
#
# Compressibility (1/GPa) = 0.02472139
#
# Stress axis : x y z
#
# Youngs Moduli (GPa) = 51.10396 81.25461 73.71141
#
# Poissons Ratio (x) = 0.16797 0.24536
# Poissons Ratio (y) = 0.10564 0.36592
# Poissons Ratio (z) = 0.17011 0.40337
#
# Static dielectric constant tensor:
#      x y z
#    x 1.913550 0.000000 0.157290 
#    y 0.000000 1.223870 0.000000 
#    z 0.157290 0.000000 2.370080 
# 
# From -- ./inp_files/53464.got.cif
#   From: 2010.05.17/outbox.cif.g08.bks.cpg/sg13_27_cif.got.tgz:53464.got - 2010.06.03 16:44:36.
