data_PCOD9227301
_publ_section_title
;
Structure prediction by ZEFSAII (Michael W. Deem and Ramdas Pophale) SiO2 
 PCOD9227301
Probable space group: P 2/C
;
_chemical_formula_sum "Si O2"
_cell_formula_units_Z 30
_cell_length_a 9.027957
_cell_length_b 10.987873
_cell_length_c 32.358717
_cell_angle_alpha 90.000000
_cell_angle_beta 29.457056
_cell_angle_gamma 90.000000
_cell_volume 1578.546538
_symmetry_space_group_name_H-M "P 2/C"
_symmetry_group_IT_number 13
_symmetry_cell_setting 'monoclinic'
loop_
_space_group_symop_operation_xyz
x,y,z
-x,y,1/2-z
-x,-y,-z
x,-y,1/2+z
loop_
_atom_site_type_symbol
_atom_site_label
_atom_site_fract_x
_atom_site_fract_y
_atom_site_fract_z
Si Si1 0.183468 0.020314 0.349815
Si Si2 0.580997 0.274263 0.068653
Si Si3 0.945209 0.783812 0.685407
Si Si4 0.000000 0.854501 0.250000
Si Si5 0.745343 0.313694 0.745259
Si Si6 0.087113 0.755126 0.381965
Si Si7 0.699958 0.422625 0.294283
Si Si8 0.459621 0.056338 0.156073
O O1 0.500000 0.995747 0.250000
O O2 0.065169 0.140311 0.354690
O O3 0.276708 0.038443 0.374582
O O4 0.001764 0.894421 0.390605
O O5 0.548606 0.372612 0.113378
O O6 0.584767 0.144608 0.090776
O O7 0.277307 0.263450 0.115137
O O8 0.860472 0.293203 0.971076
O O9 0.732987 0.667478 0.746750
O O10 0.813255 0.876905 0.752196
O O11 0.035043 0.768204 0.280822
O O12 0.298854 0.937625 0.177066
O O13 0.889606 0.325232 0.664917
O O14 0.426947 0.245032 0.817044
O O15 0.679001 0.441198 0.783257
O O16 0.000000 0.411468 0.250000
#
# Coordination Sequence:
#
# PCOD9227301 Si02
#       8
#     4   4   4   2   4   4   4   4
#     4  10  18  35  56  84 122 150 192 246 287 350
#     4  10  21  37  59  86 116 153 192 248 295 344
#     4   9  18  36  60  84 113 152 196 242 291 345
#     4  12  18  36  66  86 106 160 208 230 290 362
#     4  11  22  40  60  81 115 165 198 240 289 353
#     4  11  23  38  55  87 124 150 191 246 304 348
#     4   9  19  40  65  84 109 155 212 240 281 348
#     4  10  18  34  58  86 114 148 199 240 291 347
#
# _framework density 19.004823999999999
#
# number of rings (size 3 to 8) (size 9 to 14) (size 15 to 20)
#    0.000    1.867    4.667    1.600    0.000    1.600 
#   12.000    2.667    0.000    0.000    0.000    0.000 
#    0.000    0.000    0.000    0.000    0.000    0.000 
#
# Total GULP energy -167173.046926 kJ/mol
# GULP energy per Si atom -5572.434898 kJ/mol
# Density = 1.896157 g / cm^3
# Si number density = 19.004824 Si / 1000 Ang^3
#
#
#
# Elastic Constant Matrix: (Units=GPa)
#
#
# Indices 1 2 3 4 5 6 
#
# 1 84.9522 45.0676 29.7289 0.0000 16.1639 0.0000
# 2 45.0676 112.4207 26.4863 0.0000 16.3181 0.0000
# 3 29.7289 26.4863 94.1107 0.0000 23.3016 0.0000
# 4 0.0000 0.0000 0.0000 10.9086 0.0000 8.3820
# 5 16.1639 16.3181 23.3016 0.0000 14.9798 0.0000
# 6 0.0000 0.0000 0.0000 8.3820 0.0000 29.4207
#
#
#
# Elastic Compliance Matrix: (Units=1/GPa)
#
#
# Indices 1 2 3 4 5 6 
#
# 1 0.016884 -0.004884 -0.001245 0.000000 -0.010961 0.000000
# 2 -0.004884 0.011981 0.000159 0.000000 -0.008028 0.000000
# 3 -0.001245 0.000159 0.017377 0.000000 -0.025861 0.000000
# 4 0.000000 0.000000 0.000000 0.117363 0.000000 -0.033437
# 5 -0.010961 -0.008028 -0.025861 0.000000 0.127557 0.000000
# 6 0.000000 0.000000 0.000000 -0.033437 0.000000 0.043516
#
#
# Mechanical properties :
#
#
# Convention : Reuss Voigt Hill
#
# Bulk Modulus (GPa) = 29.15316 54.89435 42.02375
# Shear Modulus (GPa) = 13.96445 23.74187 18.85316
#
# Velocity S-wave (km/s) = 2.71363 3.53831 3.15305
# Velocity P-wave (km/s) = 5.01912 6.75574 5.95112
#
# Compressibility (1/GPa) = 0.03430160
#
# Stress axis : x y z
#
# Youngs Moduli (GPa) = 59.22915 83.46558 57.54592
#
# Poissons Ratio (x) = 0.40765 0.07164
# Poissons Ratio (y) = 0.28928 -0.00913
# Poissons Ratio (z) = 0.07373 -0.01324
#
# Static dielectric constant tensor:
#      x y z
#    x 1.701350 0.000000 0.001940 
#    y 0.000000 1.705680 0.000000 
#    z 0.001940 0.000000 1.637520 
# 
# From -- ./inp_files/96068.got.cif
#   From: 2010.05.17/outbox.cif.g08.bks.cpg/sg13_49_cif.got.tgz:96068.got - 2010.06.03 16:44:36.
