data_PCOD9227014
_publ_section_title
;
Structure prediction by ZEFSAII (Michael W. Deem and Ramdas Pophale) SiO2 
 PCOD9227014
Probable space group: P 2/C
;
_chemical_formula_sum "Si O2"
_cell_formula_units_Z 18
_cell_length_a 12.162737
_cell_length_b 9.370563
_cell_length_c 5.554859
_cell_angle_alpha 90.000000
_cell_angle_beta 98.745019
_cell_angle_gamma 90.000000
_cell_volume 625.736767
_symmetry_space_group_name_H-M "P 2/C"
_symmetry_group_IT_number 13
_symmetry_cell_setting 'monoclinic'
loop_
_space_group_symop_operation_xyz
x,y,z
-x,y,1/2-z
-x,-y,-z
x,-y,1/2+z
loop_
_atom_site_type_symbol
_atom_site_label
_atom_site_fract_x
_atom_site_fract_y
_atom_site_fract_z
Si Si1 0.452598 0.841708 0.985180
Si Si2 0.785355 0.168232 0.904643
Si Si3 0.681105 0.551493 0.246187
Si Si4 0.897024 0.365871 0.333263
Si Si5 0.000000 0.150773 0.750000
O O1 0.500000 0.776701 0.750000
O O2 0.500000 0.772551 0.250000
O O3 0.320972 0.877696 0.971619
O O4 0.500000 0.000000 0.000000
O O5 0.721124 0.284911 0.712453
O O6 0.887230 0.075983 0.821786
O O7 0.853765 0.263850 0.109889
O O8 0.627604 0.527990 0.496947
O O9 0.795417 0.467866 0.350250
O O10 0.940048 0.257644 0.545989
O O11 0.000000 0.450035 0.250000
#
# Coordination Sequence:
#
# PCOD9227014 Si02
#       5
#     4   4   4   4   2
#     4  10  24  46  73  93 110 154 219 275 318 373
#     4  10  21  34  60  91 130 161 210 257 310 368
#     4  10  19  30  48  81 129 172 203 234 284 364
#     4   9  19  30  49  86 135 179 202 233 292 373
#     4  10  18  32  54  96 130 172 198 248 302 372
#
# _framework density 28.766093000000001
#
# number of rings (size 3 to 8) (size 9 to 14) (size 15 to 20)
#    0.000    2.222    2.222    0.000    4.667    2.667 
#    0.000    0.000    0.000   21.333    0.000    0.000 
#    0.000    0.000    0.000    0.000    0.000    0.000 
#
# Total GULP energy -100417.908367 kJ/mol
# GULP energy per Si atom -5578.772687 kJ/mol
# Density = 2.870062 g / cm^3
# Si number density = 28.766093 Si / 1000 Ang^3
#
#
#
# Elastic Constant Matrix: (Units=GPa)
#
#
# Indices 1 2 3 4 5 6 
#
# 1 260.7225 16.4277 26.3946 0.0000 -42.6380 0.0000
# 2 16.4277 45.5996 7.0500 0.0000 -11.6142 0.0000
# 3 26.3946 7.0500 172.0076 0.0000 -22.1270 0.0000
# 4 0.0000 0.0000 0.0000 17.4491 0.0000 -16.5452
# 5 -42.6380 -11.6142 -22.1270 0.0000 42.7460 0.0000
# 6 0.0000 0.0000 0.0000 -16.5452 0.0000 28.2078
#
#
#
# Elastic Compliance Matrix: (Units=1/GPa)
#
#
# Indices 1 2 3 4 5 6 
#
# 1 0.004597 -0.000522 -0.000120 0.000000 0.004381 0.000000
# 2 -0.000522 0.023623 -0.000139 0.000000 0.005827 0.000000
# 3 -0.000120 -0.000139 0.006233 0.000000 0.003068 0.000000
# 4 0.000000 0.000000 0.000000 0.129122 0.000000 0.075736
# 5 0.004381 0.005827 0.003068 0.000000 0.030936 0.000000
# 6 0.000000 0.000000 0.000000 0.075736 0.000000 0.079873
#
#
# Mechanical properties :
#
#
# Convention : Reuss Voigt Hill
#
# Bulk Modulus (GPa) = 30.40283 64.23047 47.31665
# Shear Modulus (GPa) = 17.42713 46.24442 31.83578
#
# Velocity S-wave (km/s) = 2.46402 4.01384 3.33034
# Velocity P-wave (km/s) = 4.32286 6.62255 5.59220
#
# Compressibility (1/GPa) = 0.03289167
#
# Stress axis : x y z
#
# Youngs Moduli (GPa) = 217.52960 42.33093 160.44716
#
# Poissons Ratio (x) = 0.02208 0.01932
# Poissons Ratio (y) = 0.11346 0.02225
# Poissons Ratio (z) = 0.02620 0.00587
#
# Static dielectric constant tensor:
#      x y z
#    x 2.564600 0.000000 -0.305730 
#    y 0.000000 2.836220 0.000000 
#    z -0.305730 0.000000 2.519870 
# 
# From -- ./inp_files/3060.got.cif
#   From: 2010.05.17/outbox.cif.g08.bks.cpg/sg13_2_cif.got.tgz:3060.got - 2010.06.03 16:44:36.
