data_PCOD9227673
_publ_section_title
;
Structure prediction by ZEFSAII (Michael W. Deem and Ramdas Pophale) SiO2 
 PCOD9227673
Probable space group: P 2/C
;
_chemical_formula_sum "Si O2"
_cell_formula_units_Z 26
_cell_length_a 16.319621
_cell_length_b 13.707740
_cell_length_c 9.534080
_cell_angle_alpha 90.000000
_cell_angle_beta 140.468818
_cell_angle_gamma 90.000000
_cell_volume 1357.537413
_symmetry_space_group_name_H-M "P 2/C"
_symmetry_group_IT_number 13
_symmetry_cell_setting 'monoclinic'
loop_
_space_group_symop_operation_xyz
x,y,z
-x,y,1/2-z
-x,-y,-z
x,-y,1/2+z
loop_
_atom_site_type_symbol
_atom_site_label
_atom_site_fract_x
_atom_site_fract_y
_atom_site_fract_z
Si Si1 0.000000 0.340328 0.250000
Si Si2 0.671426 0.883183 0.713271
Si Si3 0.222691 0.771379 0.890277
Si Si4 0.648743 0.572426 0.420318
Si Si5 0.643236 0.233488 0.453240
Si Si6 0.625418 0.103781 0.690897
Si Si7 0.233162 0.587451 0.228176
O O1 0.910674 0.273956 0.232450
O O2 0.092847 0.403352 0.472712
O O3 0.770535 0.848837 0.725971
O O4 0.683608 0.807036 0.856255
O O5 0.523651 0.883535 0.460350
O O6 0.678882 0.994626 0.774463
O O7 0.313734 0.679521 0.973507
O O8 0.287167 0.824095 0.106652
O O9 0.500000 0.550103 0.250000
O O10 0.677138 0.573284 0.291207
O O11 0.738452 0.496986 0.622863
O O12 0.500000 0.278232 0.250000
O O13 0.628291 0.139627 0.534248
O O14 0.732800 0.312270 0.646323
#
# Coordination Sequence:
#
# PCOD9227673 Si02
#       7
#     2   4   4   4   4   4   4
#     4  10  24  46  62  80 126 174 208 254 296 356
#     4  10  21  32  64  96 122 156 203 252 314 369
#     4  11  22  39  63  86 124 169 210 246 301 370
#     4  11  23  38  66  95 122 154 201 263 324 375
#     4  10  20  35  58  90 128 153 187 258 318 361
#     4  10  18  38  59  93 128 157 193 256 316 367
#     4  11  24  41  62  88 125 161 203 252 311 367
#
# _framework density 19.152325999999999
#
# number of rings (size 3 to 8) (size 9 to 14) (size 15 to 20)
#    0.000    1.538    3.077    3.231    4.308    4.923 
#    0.000    1.538    0.000    0.000    0.000    0.000 
#    0.000    0.000    0.000    0.000    0.000    0.000 
#
# Total GULP energy -145097.318032 kJ/mol
# GULP energy per Si atom -5580.666078 kJ/mol
# Density = 1.910873 g / cm^3
# Si number density = 19.152326 Si / 1000 Ang^3
#
#
#
# Elastic Constant Matrix: (Units=GPa)
#
#
# Indices 1 2 3 4 5 6 
#
# 1 70.5620 23.8345 31.8647 0.0000 -3.6847 0.0000
# 2 23.8345 89.3785 43.4471 0.0000 -7.7676 0.0000
# 3 31.8647 43.4471 101.2392 0.0000 -0.2503 0.0000
# 4 0.0000 0.0000 0.0000 27.8013 0.0000 -7.1188
# 5 -3.6847 -7.7676 -0.2503 0.0000 21.6401 0.0000
# 6 0.0000 0.0000 0.0000 -7.1188 0.0000 5.7965
#
#
#
# Elastic Compliance Matrix: (Units=1/GPa)
#
#
# Indices 1 2 3 4 5 6 
#
# 1 0.017015 -0.002222 -0.004397 0.000000 0.002049 0.000000
# 2 -0.002222 0.014991 -0.005722 0.000000 0.004937 0.000000
# 3 -0.004397 -0.005722 0.013711 0.000000 -0.002644 0.000000
# 4 0.000000 0.000000 0.000000 0.052470 0.000000 0.064439
# 5 0.002049 0.004937 -0.002644 0.000000 0.048301 0.000000
# 6 0.000000 0.000000 0.000000 0.064439 0.000000 0.251656
#
#
# Mechanical properties :
#
#
# Convention : Reuss Voigt Hill
#
# Bulk Modulus (GPa) = 47.53912 51.05248 49.29580
# Shear Modulus (GPa) = 11.63231 21.84982 16.74107
#
# Velocity S-wave (km/s) = 2.46714 3.38130 2.95973
# Velocity P-wave (km/s) = 5.74379 6.47751 6.12166
#
# Compressibility (1/GPa) = 0.02103531
#
# Stress axis : x y z
#
# Youngs Moduli (GPa) = 58.77171 66.70472 72.93648
#
# Poissons Ratio (x) = 0.14822 0.32068
# Poissons Ratio (y) = 0.13059 0.41735
# Poissons Ratio (z) = 0.25840 0.38169
#
# Static dielectric constant tensor:
#      x y z
#    x 1.668600 0.000000 0.005130 
#    y 0.000000 1.685250 0.000000 
#    z 0.005130 0.000000 1.657730 
# 
# From -- ./inp_files/19905.got.cif
#   From: 2010.05.17/outbox.cif.g08.bks.cpg/sg13_10_cif.got.tgz:19905.got - 2010.06.03 16:44:36.
