data_PCOD9227994
_publ_section_title
;
Structure prediction by ZEFSAII (Michael W. Deem and Ramdas Pophale) SiO2 
 PCOD9227994
Probable space group: P 2/C
;
_chemical_formula_sum "Si O2"
_cell_formula_units_Z 28
_cell_length_a 23.145689
_cell_length_b 9.648404
_cell_length_c 19.238982
_cell_angle_alpha 90.000000
_cell_angle_beta 160.179562
_cell_angle_gamma 90.000000
_cell_volume 1456.805449
_symmetry_space_group_name_H-M "P 2/C"
_symmetry_group_IT_number 13
_symmetry_cell_setting 'monoclinic'
loop_
_space_group_symop_operation_xyz
x,y,z
-x,y,1/2-z
-x,-y,-z
x,-y,1/2+z
loop_
_atom_site_type_symbol
_atom_site_label
_atom_site_fract_x
_atom_site_fract_y
_atom_site_fract_z
Si Si1 0.850483 0.658745 0.771128
Si Si2 0.092215 0.882899 0.783317
Si Si3 0.095250 0.830594 0.447769
Si Si4 0.129938 0.663352 0.211890
Si Si5 0.651070 0.172601 0.140245
Si Si6 0.358762 0.088481 0.142355
Si Si7 0.615532 0.110874 0.555239
O O1 0.890538 0.760691 0.752576
O O2 0.833160 0.497597 0.734354
O O3 0.679127 0.712063 0.614783
O O4 0.997548 0.672606 0.996868
O O5 0.000000 0.835377 0.750000
O O6 0.977907 0.013159 0.627479
O O7 0.272811 0.955186 0.008241
O O8 0.238124 0.797141 0.666681
O O9 0.194679 0.827898 0.486735
O O10 0.949276 0.727242 0.307811
O O11 0.285476 0.761541 0.365525
O O12 0.464211 0.151701 0.960471
O O13 0.721441 0.028403 0.188190
O O14 0.500000 0.150933 0.250000
O O15 0.468444 0.060210 0.335737
#
# Coordination Sequence:
#
# PCOD9227994 Si02
#       7
#     4   4   4   4   4   4   4
#     4  10  20  35  54  80 111 143 180 218 270 322
#     4  10  20  35  55  77 105 141 179 221 267 322
#     4   9  18  33  53  77 100 131 180 225 268 310
#     4  10  20  34  56  82 109 140 177 228 270 315
#     4   9  18  32  54  79 103 134 175 229 271 310
#     4  10  19  31  52  76 102 135 173 217 266 319
#     4  10  19  32  52  80 107 134 178 224 270 313
#
# _framework density 19.220137000000001
#
# number of rings (size 3 to 8) (size 9 to 14) (size 15 to 20)
#    0.000    2.286    0.000    3.429    0.000    4.000 
#    0.000    3.571    0.000    7.714    0.000    0.000 
#    0.000    0.000    0.000    0.000    0.000    0.000 
#
# Total GULP energy -155934.791590 kJ/mol
# GULP energy per Si atom -5569.099700 kJ/mol
# Density = 1.917639 g / cm^3
# Si number density = 19.220137 Si / 1000 Ang^3
#
#
#
# Elastic Constant Matrix: (Units=GPa)
#
#
# Indices 1 2 3 4 5 6 
#
# 1 144.6979 87.4385 26.4108 0.0000 22.8877 0.0000
# 2 87.4385 130.9317 24.3015 0.0000 22.5356 0.0000
# 3 26.4108 24.3015 37.1531 0.0000 12.9408 0.0000
# 4 0.0000 0.0000 0.0000 17.0579 0.0000 -6.1981
# 5 22.8877 22.5356 12.9408 0.0000 31.9505 0.0000
# 6 0.0000 0.0000 0.0000 -6.1981 0.0000 19.4332
#
#
#
# Elastic Compliance Matrix: (Units=1/GPa)
#
#
# Indices 1 2 3 4 5 6 
#
# 1 0.012178 -0.007132 -0.003150 0.000000 -0.002418 0.000000
# 2 -0.007132 0.013451 -0.002565 0.000000 -0.003340 0.000000
# 3 -0.003150 -0.002565 0.034248 0.000000 -0.009806 0.000000
# 4 0.000000 0.000000 0.000000 0.066308 0.000000 0.021149
# 5 -0.002418 -0.003340 -0.009806 0.000000 0.039357 0.000000
# 6 0.000000 0.000000 0.000000 0.021149 0.000000 0.058204
#
#
# Mechanical properties :
#
#
# Convention : Reuss Voigt Hill
#
# Bulk Modulus (GPa) = 29.25417 65.45381 47.35399
# Shear Modulus (GPa) = 19.16917 25.33046 22.24981
#
# Velocity S-wave (km/s) = 3.16151 3.63424 3.40609
# Velocity P-wave (km/s) = 5.34607 7.19299 6.33717
#
# Compressibility (1/GPa) = 0.03418316
#
# Stress axis : x y z
#
# Youngs Moduli (GPa) = 82.11536 74.34196 29.19862
#
# Poissons Ratio (x) = 0.53020 0.09197
# Poissons Ratio (y) = 0.58564 0.07490
# Poissons Ratio (z) = 0.25865 0.19071
#
# Static dielectric constant tensor:
#      x y z
#    x 1.720280 0.000000 0.003730 
#    y 0.000000 1.645420 0.000000 
#    z 0.003730 0.000000 1.759480 
# 
# From -- ./inp_files/75289.got.cif
#   From: 2010.05.17/outbox.cif.g08.bks.cpg/sg13_38_cif.got.tgz:75289.got - 2010.06.03 16:44:36.
