data_PCOD9227572
_publ_section_title
;
Structure prediction by ZEFSAII (Michael W. Deem and Ramdas Pophale) SiO2 
 PCOD9227572
Probable space group: P 2/C
;
_chemical_formula_sum "Si O2"
_cell_formula_units_Z 14
_cell_length_a 8.839548
_cell_length_b 5.161902
_cell_length_c 14.762305
_cell_angle_alpha 90.000000
_cell_angle_beta 51.734626
_cell_angle_gamma 90.000000
_cell_volume 528.867714
_symmetry_space_group_name_H-M "P 2/C"
_symmetry_group_IT_number 13
_symmetry_cell_setting 'monoclinic'
loop_
_space_group_symop_operation_xyz
x,y,z
-x,y,1/2-z
-x,-y,-z
x,-y,1/2+z
loop_
_atom_site_type_symbol
_atom_site_label
_atom_site_fract_x
_atom_site_fract_y
_atom_site_fract_z
Si Si1 0.422720 0.714646 0.597144
Si Si2 0.000000 0.353217 0.250000
Si Si3 0.798326 0.467026 0.156605
Si Si4 0.677924 0.960643 0.114489
O O1 0.500000 0.500000 0.500000
O O2 0.386437 0.561981 0.706668
O O3 0.574531 0.941004 0.561735
O O4 0.200297 0.799366 0.663384
O O5 0.037559 0.512480 0.328187
O O6 0.810172 0.190794 0.103679
O O7 0.780726 0.688483 0.089068
O O8 0.500000 0.944356 0.250000
#
# Coordination Sequence:
#
# PCOD9227572 Si02
#       4
#     4   2   4   4
#     4   9  19  39  65  93 127 167 217 265 317 382
#     4   8  20  38  62  94 126 162 218 262 324 368
#     4   9  20  37  61  87 122 168 203 255 317 380
#     4  10  18  36  62  85 121 170 204 245 327 375
#
# _framework density 26.471647000000001
#
# number of rings (size 3 to 8) (size 9 to 14) (size 15 to 20)
#    1.714    1.143    0.000    2.571    0.000    1.143 
#    0.000   15.714    0.000    1.714    0.000    0.000 
#    0.000    0.000    0.000    0.000    0.000    0.000 
#
# Total GULP energy -78173.053111 kJ/mol
# GULP energy per Si atom -5583.789508 kJ/mol
# Density = 2.641140 g / cm^3
# Si number density = 26.471647 Si / 1000 Ang^3
#
#
#
# Elastic Constant Matrix: (Units=GPa)
#
#
# Indices 1 2 3 4 5 6 
#
# 1 178.6294 52.0581 16.3571 0.0000 13.4843 0.0000
# 2 52.0581 148.8843 12.5765 0.0000 8.0302 0.0000
# 3 16.3571 12.5765 118.8380 0.0000 -13.0192 0.0000
# 4 0.0000 0.0000 0.0000 28.8463 0.0000 10.2485
# 5 13.4843 8.0302 -13.0192 0.0000 36.4407 0.0000
# 6 0.0000 0.0000 0.0000 10.2485 0.0000 -1.4443
#
#
#
# Elastic Compliance Matrix: (Units=1/GPa)
#
#
# Indices 1 2 3 4 5 6 
#
# 1 0.006452 -0.002057 -0.000918 0.000000 -0.002263 0.000000
# 2 -0.002057 0.007551 -0.000640 0.000000 -0.001132 0.000000
# 3 -0.000918 -0.000640 0.009014 0.000000 0.003701 0.000000
# 4 0.000000 0.000000 0.000000 0.009846 0.000000 0.069863
# 5 -0.002263 -0.001132 0.003701 0.000000 0.029851 0.000000
# 6 0.000000 0.000000 0.000000 0.069863 0.000000 -0.196642
#
#
# Mechanical properties :
#
#
# Convention : Reuss Voigt Hill
#
# Bulk Modulus (GPa) = 63.33954 67.59279 65.46616
# Shear Modulus (GPa) = -41.17397 37.12587 -2.02405
#
# Velocity S-wave (km/s) = -3.94813 3.74903 -0.87537
# Velocity P-wave (km/s) = 1.78762 6.65806 4.87470
#
# Compressibility (1/GPa) = 0.01578793
#
# Stress axis : x y z
#
# Youngs Moduli (GPa) = 154.98118 132.43658 110.93286
#
# Poissons Ratio (x) = 0.27236 0.10188
# Poissons Ratio (y) = 0.31872 0.07100
# Poissons Ratio (z) = 0.14233 0.08476
#
# Static dielectric constant tensor:
#      x y z
#    x 2.272040 0.000000 0.009340 
#    y 0.000000 2.078460 0.000000 
#    z 0.009340 0.000000 2.131080 
# 
# From -- ./inp_files/61923.got.cif
#   From: 2010.05.17/outbox.cif.g08.bks.cpg/sg13_31_cif.got.tgz:61923.got - 2010.06.03 16:44:36.
