data_PCOD9227988
_publ_section_title
;
Structure prediction by ZEFSAII (Michael W. Deem and Ramdas Pophale) SiO2 
 PCOD9227988
Probable space group: P 2/C
;
_chemical_formula_sum "Si O2"
_cell_formula_units_Z 28
_cell_length_a 7.960149
_cell_length_b 31.938763
_cell_length_c 5.369553
_cell_angle_alpha 90.000000
_cell_angle_beta 118.696311
_cell_angle_gamma 90.000000
_cell_volume 1197.470155
_symmetry_space_group_name_H-M "P 2/C"
_symmetry_group_IT_number 13
_symmetry_cell_setting 'monoclinic'
loop_
_space_group_symop_operation_xyz
x,y,z
-x,y,1/2-z
-x,-y,-z
x,-y,1/2+z
loop_
_atom_site_type_symbol
_atom_site_label
_atom_site_fract_x
_atom_site_fract_y
_atom_site_fract_z
Si Si1 0.275612 0.519003 0.115586
Si Si2 0.733994 0.841850 0.913742
Si Si3 0.728746 0.700392 0.407432
Si Si4 0.215918 0.984932 0.960332
Si Si5 0.732072 0.111034 0.914073
Si Si6 0.734999 0.254402 0.413857
Si Si7 0.123995 0.608111 0.086717
O O1 0.500000 0.508924 0.250000
O O2 0.195415 0.490508 0.282826
O O3 0.254608 0.566900 0.185293
O O4 0.500000 0.841682 0.750000
O O5 0.794930 0.868310 0.717711
O O6 0.794117 0.793714 0.926781
O O7 0.793911 0.862862 0.216244
O O8 0.500000 0.705230 0.250000
O O9 0.796608 0.716600 0.725571
O O10 0.772662 0.652352 0.377969
O O11 0.798903 0.728109 0.226022
O O12 0.000000 0.000355 0.750000
O O13 0.305251 0.988520 0.748760
O O14 0.209940 0.937304 0.047341
O O15 0.500000 0.111481 0.750000
O O16 0.500000 0.254964 0.250000
O O17 0.000000 0.609551 0.250000
O O18 0.000000 0.602815 0.750000
#
# Coordination Sequence:
#
# PCOD9227988 Si02
#       7
#     4   4   4   4   4   4   4
#     4  10  22  41  64  88 115 149 191 238 282 330
#     4   9  17  30  50  80 109 131 165 215 269 315
#     4  10  20  36  58  82 108 145 192 232 267 318
#     4  10  21  36  52  70  96 133 173 212 253 303
#     4  10  19  31  51  77 105 133 163 210 265 317
#     4   9  17  31  55  82 107 139 181 227 269 317
#     4  12  25  39  58  85 119 155 187 229 285 337
#
# _framework density 23.382631
#
# number of rings (size 3 to 8) (size 9 to 14) (size 15 to 20)
#    0.000    2.000    0.000    3.857    0.000    5.714 
#    0.000    5.714    0.000    8.571    0.000    0.000 
#    0.000    0.000    0.000    0.000    0.000    0.000 
#
# Total GULP energy -156682.610641 kJ/mol
# GULP energy per Si atom -5595.807523 kJ/mol
# Density = 2.332941 g / cm^3
# Si number density = 23.382631 Si / 1000 Ang^3
#
#
#
# Elastic Constant Matrix: (Units=GPa)
#
#
# Indices 1 2 3 4 5 6 
#
# 1 90.1174 13.8136 38.8894 0.0000 -25.2768 0.0000
# 2 13.8136 154.5999 41.6321 0.0000 -43.5850 0.0000
# 3 38.8894 41.6321 159.9190 0.0000 -46.5652 0.0000
# 4 0.0000 0.0000 0.0000 45.2460 0.0000 -8.3165
# 5 -25.2768 -43.5850 -46.5652 0.0000 46.3433 0.0000
# 6 0.0000 0.0000 0.0000 -8.3165 0.0000 35.3866
#
#
#
# Elastic Compliance Matrix: (Units=1/GPa)
#
#
# Indices 1 2 3 4 5 6 
#
# 1 0.013533 0.001156 -0.001592 0.000000 0.006869 0.000000
# 2 0.001156 0.008904 0.000032 0.000000 0.009037 0.000000
# 3 -0.001592 0.000032 0.009030 0.000000 0.008235 0.000000
# 4 0.000000 0.000000 0.000000 0.023099 0.000000 0.005429
# 5 0.006869 0.009037 0.008235 0.000000 0.042098 0.000000
# 6 0.000000 0.000000 0.000000 0.005429 0.000000 0.029535
#
#
# Mechanical properties :
#
#
# Convention : Reuss Voigt Hill
#
# Bulk Modulus (GPa) = 32.61597 65.92295 49.26946
# Shear Modulus (GPa) = 36.43605 46.08193 41.25899
#
# Velocity S-wave (km/s) = 3.95175 4.44416 4.20517
# Velocity P-wave (km/s) = 5.89923 7.38840 6.68541
#
# Compressibility (1/GPa) = 0.03065983
#
# Stress axis : x y z
#
# Youngs Moduli (GPa) = 73.89316 112.30818 110.74479
#
# Poissons Ratio (x) = -0.12983 0.17628
# Poissons Ratio (y) = -0.08542 -0.00357
# Poissons Ratio (z) = 0.11762 -0.00362
#
# Static dielectric constant tensor:
#      x y z
#    x 1.929300 0.000000 0.025290 
#    y 0.000000 1.829190 0.000000 
#    z 0.025290 0.000000 1.875080 
# 
# From -- ./inp_files/2643.got.cif
#   From: 2010.05.17/outbox.cif.g08.bks.cpg/sg13_2_cif.got.tgz:2643.got - 2010.06.03 16:44:36.
