data_PCOD9227490
_publ_section_title
;
Structure prediction by ZEFSAII (Michael W. Deem and Ramdas Pophale) SiO2 
 PCOD9227490
Probable space group: P 2/C
;
_chemical_formula_sum "Si O2"
_cell_formula_units_Z 26
_cell_length_a 9.206846
_cell_length_b 9.094509
_cell_length_c 18.173027
_cell_angle_alpha 90.000000
_cell_angle_beta 53.452722
_cell_angle_gamma 90.000000
_cell_volume 1222.448940
_symmetry_space_group_name_H-M "P 2/C"
_symmetry_group_IT_number 13
_symmetry_cell_setting 'monoclinic'
loop_
_space_group_symop_operation_xyz
x,y,z
-x,y,1/2-z
-x,-y,-z
x,-y,1/2+z
loop_
_atom_site_type_symbol
_atom_site_label
_atom_site_fract_x
_atom_site_fract_y
_atom_site_fract_z
Si Si1 0.647930 0.756693 0.821031
Si Si2 0.000000 0.894317 0.750000
Si Si3 0.548692 0.745733 0.014025
Si Si4 0.669778 0.996252 0.585993
Si Si5 0.500000 0.809719 0.250000
Si Si6 0.386785 0.443307 0.673631
Si Si7 0.150116 0.133938 0.594936
Si Si8 0.000000 0.645836 0.250000
O O1 0.588077 0.605020 0.801724
O O2 0.852060 0.808037 0.746108
O O3 0.499815 0.884263 0.855459
O O4 0.648106 0.722245 0.908166
O O5 0.109599 0.995734 0.659671
O O6 0.630757 0.876648 0.037729
O O7 0.528615 0.597496 0.066893
O O8 0.348397 0.803517 0.054488
O O9 0.655186 0.087297 0.666482
O O10 0.834603 0.908435 0.496369
O O11 0.588509 0.697772 0.281378
O O12 0.183694 0.442191 0.703900
O O13 0.018372 0.255325 0.670278
#
# Coordination Sequence:
#
# PCOD9227490 Si02
#       8
#     4   2   4   4   2   4   4   2
#     4  11  19  30  57  85 111 138 188 240 277 322
#     4  11  17  26  52  94 114 130 172 248 290 306
#     4   9  16  33  52  82 109 141 182 236 280 324
#     4  10  18  36  54  80 106 147 193 228 269 331
#     4  10  24  38  56  74 114 158 188 228 272 338
#     4  10  21  36  54  82 116 151 183 223 283 339
#     4   9  16  29  55  81 112 137 179 231 280 319
#     4   9  19  34  58  84 118 144 178 234 292 324
#
# _framework density 21.268782000000002
#
# number of rings (size 3 to 8) (size 9 to 14) (size 15 to 20)
#    0.000    2.154    3.077    1.846    2.154    0.615 
#    0.000    0.769    0.000    0.923    0.000    0.000 
#    0.000    0.000    0.000    0.000    0.000    0.000 
#
# Total GULP energy -144825.678896 kJ/mol
# GULP energy per Si atom -5570.218419 kJ/mol
# Density = 2.122037 g / cm^3
# Si number density = 21.268782 Si / 1000 Ang^3
#
#
#
# Elastic Constant Matrix: (Units=GPa)
#
#
# Indices 1 2 3 4 5 6 
#
# 1 15.4393 10.8483 7.6582 0.0000 4.1248 0.0000
# 2 10.8483 99.5478 21.8414 0.0000 0.1845 0.0000
# 3 7.6582 21.8414 86.0428 0.0000 4.4745 0.0000
# 4 0.0000 0.0000 0.0000 9.5325 0.0000 -6.9200
# 5 4.1248 0.1845 4.4745 0.0000 25.2448 0.0000
# 6 0.0000 0.0000 0.0000 -6.9200 0.0000 -15.8950
#
#
#
# Elastic Compliance Matrix: (Units=1/GPa)
#
#
# Indices 1 2 3 4 5 6 
#
# 1 0.075010 -0.007221 -0.004248 0.000000 -0.011450 0.000000
# 2 -0.007221 0.011337 -0.002314 0.000000 0.001507 0.000000
# 3 -0.004248 -0.002314 0.012667 0.000000 -0.001534 0.000000
# 4 0.000000 0.000000 0.000000 0.079712 0.000000 -0.034703
# 5 -0.011450 0.001507 -0.001534 0.000000 0.041744 0.000000
# 6 0.000000 0.000000 0.000000 -0.034703 0.000000 -0.047805
#
#
# Mechanical properties :
#
#
# Convention : Reuss Voigt Hill
#
# Bulk Modulus (GPa) = 13.99592 31.30287 22.64939
# Shear Modulus (GPa) = 22.31680 14.48859 18.40269
#
# Velocity S-wave (km/s) = 3.24277 2.61284 2.94469
# Velocity P-wave (km/s) = 4.54043 4.88388 4.71528
#
# Compressibility (1/GPa) = 0.07144938
#
# Stress axis : x y z
#
# Youngs Moduli (GPa) = 13.33162 88.20548 78.94370
#
# Poissons Ratio (x) = 0.63694 0.33533
# Poissons Ratio (y) = 0.09627 0.18264
# Poissons Ratio (z) = 0.05663 0.20407
#
# Static dielectric constant tensor:
#      x y z
#    x 1.789520 0.000000 0.024740 
#    y 0.000000 1.817980 0.000000 
#    z 0.024740 0.000000 1.858150 
# 
# From -- ./inp_files/65640.got.cif
#   From: 2010.05.17/outbox.cif.g08.bks.cpg/sg13_33_cif.got.tgz:65640.got - 2010.06.03 16:44:36.
