data_PCOD9227363
_publ_section_title
;
Structure prediction by ZEFSAII (Michael W. Deem and Ramdas Pophale) SiO2 
 PCOD9227363
Probable space group: P 2/C
;
_chemical_formula_sum "Si O2"
_cell_formula_units_Z 26
_cell_length_a 7.511198
_cell_length_b 8.849757
_cell_length_c 20.594731
_cell_angle_alpha 90.000000
_cell_angle_beta 67.223121
_cell_angle_gamma 90.000000
_cell_volume 1262.224961
_symmetry_space_group_name_H-M "P 2/C"
_symmetry_group_IT_number 13
_symmetry_cell_setting 'monoclinic'
loop_
_space_group_symop_operation_xyz
x,y,z
-x,y,1/2-z
-x,-y,-z
x,-y,1/2+z
loop_
_atom_site_type_symbol
_atom_site_label
_atom_site_fract_x
_atom_site_fract_y
_atom_site_fract_z
Si Si1 0.500000 0.116038 0.750000
Si Si2 0.833205 0.706938 0.895933
Si Si3 0.224712 0.622990 0.314818
Si Si4 0.129911 0.138314 0.453816
Si Si5 0.439518 0.876430 0.656662
Si Si6 0.500000 0.626461 0.750000
Si Si7 0.121192 0.579022 0.040145
Si Si8 0.000000 0.533047 0.750000
O O1 0.656395 0.225827 0.695855
O O2 0.394455 0.017946 0.709500
O O3 0.682412 0.829666 0.889460
O O4 0.753623 0.557542 0.945716
O O5 0.942826 0.636689 0.818354
O O6 0.990429 0.783646 0.920395
O O7 0.360778 0.480854 0.311631
O O8 0.169675 0.578954 0.248896
O O9 0.033030 0.625566 0.383413
O O10 0.334860 0.098926 0.392308
O O11 0.190864 0.264577 0.499043
O O12 0.000000 0.000000 0.500000
O O13 0.407225 0.735974 0.710285
O O14 0.000000 0.500000 0.000000
#
# Coordination Sequence:
#
# PCOD9227363 Si02
#       8
#     2   4   4   4   4   2   4   2
#     4  10  24  38  54  96 130 166 194 260 328 378
#     4  10  22  39  65  94 117 162 209 264 308 377
#     4  10  19  37  61  87 126 154 202 260 316 372
#     4  11  24  42  62  88 130 172 205 254 313 374
#     4  11  22  40  61  91 124 165 209 252 318 372
#     4  10  18  34  62  90 118 154 200 264 312 366
#     4   9  19  38  62  88 119 163 205 251 306 365
#     4  10  18  38  64  96 118 150 216 262 318 376
#
# _framework density 20.598547
#
# number of rings (size 3 to 8) (size 9 to 14) (size 15 to 20)
#    0.000    1.846    1.538    3.692    2.154    1.231 
#    8.308    0.000    0.000    0.000    0.000    0.000 
#    0.000    0.000    0.000    0.000    0.000    0.000 
#
# Total GULP energy -144825.508532 kJ/mol
# GULP energy per Si atom -5570.211867 kJ/mol
# Density = 2.055166 g / cm^3
# Si number density = 20.598547 Si / 1000 Ang^3
#
#
#
# Elastic Constant Matrix: (Units=GPa)
#
#
# Indices 1 2 3 4 5 6 
#
# 1 69.4538 23.3576 6.9951 0.0000 18.0782 0.0000
# 2 23.3576 101.2780 22.0866 0.0000 14.8495 0.0000
# 3 6.9951 22.0866 63.5794 0.0000 11.5703 0.0000
# 4 0.0000 0.0000 0.0000 20.9175 0.0000 3.4533
# 5 18.0782 14.8495 11.5703 0.0000 28.7229 0.0000
# 6 0.0000 0.0000 0.0000 3.4533 0.0000 21.3975
#
#
#
# Elastic Compliance Matrix: (Units=1/GPa)
#
#
# Indices 1 2 3 4 5 6 
#
# 1 0.017906 -0.002828 0.000860 0.000000 -0.010154 0.000000
# 2 -0.002828 0.011658 -0.003200 0.000000 -0.002958 0.000000
# 3 0.000860 -0.003200 0.017852 0.000000 -0.006078 0.000000
# 4 0.000000 0.000000 0.000000 0.049116 0.000000 -0.007927
# 5 -0.010154 -0.002958 -0.006078 0.000000 0.045184 0.000000
# 6 0.000000 0.000000 0.000000 -0.007927 0.000000 0.048014
#
#
# Mechanical properties :
#
#
# Convention : Reuss Voigt Hill
#
# Bulk Modulus (GPa) = 26.96994 37.68776 32.32885
# Shear Modulus (GPa) = 23.53781 26.33235 24.93508
#
# Velocity S-wave (km/s) = 3.38404 3.57929 3.48304
# Velocity P-wave (km/s) = 5.32828 5.95129 5.64838
#
# Compressibility (1/GPa) = 0.03707831
#
# Stress axis : x y z
#
# Youngs Moduli (GPa) = 55.84828 85.78034 56.01756
#
# Poissons Ratio (x) = 0.24262 -0.04820
# Poissons Ratio (y) = 0.15796 0.17927
# Poissons Ratio (z) = -0.04805 0.27452
#
# Static dielectric constant tensor:
#      x y z
#    x 1.824200 0.000000 0.021880 
#    y 0.000000 1.191110 0.000000 
#    z 0.021880 0.000000 1.739180 
# 
# From -- ./inp_files/75280.got.cif
#   From: 2010.05.17/outbox.cif.g08.bks.cpg/sg13_38_cif.got.tgz:75280.got - 2010.06.03 16:44:36.
