data_PCOD9227274
_publ_section_title
;
Structure prediction by ZEFSAII (Michael W. Deem and Ramdas Pophale) SiO2 
 PCOD9227274
Probable space group: P 2/C
;
_chemical_formula_sum "Si O2"
_cell_formula_units_Z 28
_cell_length_a 9.643231
_cell_length_b 10.579858
_cell_length_c 15.393676
_cell_angle_alpha 90.000000
_cell_angle_beta 118.705015
_cell_angle_gamma 90.000000
_cell_volume 1377.513631
_symmetry_space_group_name_H-M "P 2/C"
_symmetry_group_IT_number 13
_symmetry_cell_setting 'monoclinic'
loop_
_space_group_symop_operation_xyz
x,y,z
-x,y,1/2-z
-x,-y,-z
x,-y,1/2+z
loop_
_atom_site_type_symbol
_atom_site_label
_atom_site_fract_x
_atom_site_fract_y
_atom_site_fract_z
Si Si1 0.828128 0.587825 0.728809
Si Si2 0.812033 0.514713 0.919292
Si Si3 0.407302 0.900317 0.914493
Si Si4 0.254027 0.323580 0.467600
Si Si5 0.067345 0.827973 0.647561
Si Si6 0.871657 0.931594 0.153505
Si Si7 0.284541 0.793063 0.555633
O O1 0.787212 0.525194 0.808002
O O2 0.729194 0.582687 0.610642
O O3 0.000000 0.542212 0.750000
O O4 0.842950 0.740040 0.754099
O O5 0.720872 0.399123 0.936917
O O6 0.746115 0.644404 0.940816
O O7 0.000000 0.500000 0.000000
O O8 0.353171 0.796438 0.968647
O O9 0.263332 0.987472 0.836515
O O10 0.532025 0.833978 0.888112
O O11 0.500000 0.000000 0.000000
O O12 0.074272 0.269386 0.420033
O O13 0.186445 0.852619 0.605388
O O14 0.978164 0.955428 0.645392
O O15 0.791704 0.845685 0.056395
O O16 0.000000 0.858379 0.250000
#
# Coordination Sequence:
#
# PCOD9227274 Si02
#       7
#     4   4   4   4   4   4   4
#     4   9  16  29  52  84 108 142 193 244 285 332
#     4  11  19  34  55  86 118 154 198 243 288 352
#     4   9  20  37  60  84 117 154 194 249 306 360
#     4  10  18  34  57  84 113 155 194 245 292 345
#     4   9  16  30  54  77 106 142 196 242 282 341
#     4  10  19  35  54  82 112 145 192 241 298 358
#     4  10  20  34  53  84 113 152 195 235 298 355
#
# _framework density 20.326477000000001
#
# number of rings (size 3 to 8) (size 9 to 14) (size 15 to 20)
#    0.000    2.286    4.286    2.571    0.000    0.571 
#    2.571    6.429    0.000    0.000    0.000    0.000 
#    0.000    0.000    0.000    0.000    0.000    0.000 
#
# Total GULP energy -155909.613455 kJ/mol
# GULP energy per Si atom -5568.200481 kJ/mol
# Density = 2.028021 g / cm^3
# Si number density = 20.326477 Si / 1000 Ang^3
#
#
#
# Elastic Constant Matrix: (Units=GPa)
#
#
# Indices 1 2 3 4 5 6 
#
# 1 125.4833 28.3173 29.9020 0.0000 -12.8497 0.0000
# 2 28.3173 50.0226 23.3633 0.0000 -12.8837 0.0000
# 3 29.9020 23.3633 67.6115 0.0000 -18.3741 0.0000
# 4 0.0000 0.0000 0.0000 19.8494 0.0000 -6.3451
# 5 -12.8497 -12.8837 -18.3741 0.0000 29.4107 0.0000
# 6 0.0000 0.0000 0.0000 -6.3451 0.0000 30.0546
#
#
#
# Elastic Compliance Matrix: (Units=1/GPa)
#
#
# Indices 1 2 3 4 5 6 
#
# 1 0.009579 -0.003984 -0.002646 0.000000 0.000787 0.000000
# 2 -0.003984 0.026532 -0.005686 0.000000 0.006330 0.000000
# 3 -0.002646 -0.005686 0.020397 0.000000 0.009096 0.000000
# 4 0.000000 0.000000 0.000000 0.054025 0.000000 0.011406
# 5 0.000787 0.006330 0.009096 0.000000 0.042801 0.000000
# 6 0.000000 0.000000 0.000000 0.011406 0.000000 0.035681
#
#
# Mechanical properties :
#
#
# Convention : Reuss Voigt Hill
#
# Bulk Modulus (GPa) = 31.37100 45.14250 38.25675
# Shear Modulus (GPa) = 22.29414 26.63194 24.46304
#
# Velocity S-wave (km/s) = 3.31539 3.62361 3.47292
# Velocity P-wave (km/s) = 5.48843 6.30590 5.91131
#
# Compressibility (1/GPa) = 0.03187658
#
# Stress axis : x y z
#
# Youngs Moduli (GPa) = 104.39053 37.68975 49.02585
#
# Poissons Ratio (x) = 0.15017 0.12972
# Poissons Ratio (y) = 0.41593 0.27876
# Poissons Ratio (z) = 0.27622 0.21430
#
# Static dielectric constant tensor:
#      x y z
#    x 1.792050 0.000000 0.040500 
#    y 0.000000 1.735450 0.000000 
#    z 0.040500 0.000000 1.794180 
# 
# From -- ./inp_files/47005.got.cif
#   From: 2010.05.17/outbox.cif.g08.bks.cpg/sg13_24_cif.got.tgz:47005.got - 2010.06.03 16:44:36.
