data_PCOD9227710
_publ_section_title
;
Structure prediction by ZEFSAII (Michael W. Deem and Ramdas Pophale) SiO2 
 PCOD9227710
Probable space group: P 2/C
;
_chemical_formula_sum "Si O2"
_cell_formula_units_Z 18
_cell_length_a 5.397435
_cell_length_b 10.968050
_cell_length_c 12.190619
_cell_angle_alpha 90.000000
_cell_angle_beta 71.973182
_cell_angle_gamma 90.000000
_cell_volume 686.250739
_symmetry_space_group_name_H-M "P 2/C"
_symmetry_group_IT_number 13
_symmetry_cell_setting 'monoclinic'
loop_
_space_group_symop_operation_xyz
x,y,z
-x,y,1/2-z
-x,-y,-z
x,-y,1/2+z
loop_
_atom_site_type_symbol
_atom_site_label
_atom_site_fract_x
_atom_site_fract_y
_atom_site_fract_z
Si Si1 0.493565 0.223298 0.071514
Si Si2 0.000000 0.895079 0.250000
Si Si3 0.716716 0.462540 0.123373
Si Si4 0.500000 0.051660 0.250000
Si Si5 0.000000 0.678562 0.750000
Si Si6 0.723469 0.257306 0.625778
O O1 0.629927 0.356848 0.051566
O O2 0.632997 0.122513 0.127098
O O3 0.246763 0.242276 0.186730
O O4 0.384066 0.191738 0.967803
O O5 0.025627 0.805834 0.352877
O O6 0.261491 0.974499 0.228710
O O7 0.500000 0.463282 0.250000
O O8 0.763642 0.601681 0.088424
O O9 0.962463 0.408678 0.152460
O O10 0.500000 0.257872 0.750000
#
# Coordination Sequence:
#
# PCOD9227710 Si02
#       6
#     4   2   4   2   2   4
#     4  11  23  42  75 106 140 188 238 312 355 431
#     4  12  28  52  70 106 144 204 246 298 356 424
#     4   9  19  38  70 106 145 181 233 294 373 438
#     4  12  26  50  74 104 140 192 268 292 350 420
#     4  10  18  38  64 110 138 186 232 286 372 416
#     4  11  25  47  68 107 151 187 238 292 377 438
#
# _framework density 26.229482000000001
#
# number of rings (size 3 to 8) (size 9 to 14) (size 15 to 20)
#    0.000    1.333    4.444    2.000    0.000    4.444 
#    0.000    0.000    0.000    0.000    0.000    0.000 
#    0.000    0.000    0.000    0.000    0.000    0.000 
#
# Total GULP energy -100640.423853 kJ/mol
# GULP energy per Si atom -5591.134659 kJ/mol
# Density = 2.616978 g / cm^3
# Si number density = 26.229482 Si / 1000 Ang^3
#
#
#
# Elastic Constant Matrix: (Units=GPa)
#
#
# Indices 1 2 3 4 5 6 
#
# 1 110.3928 41.0060 51.0883 0.0000 44.2757 0.0000
# 2 41.0060 141.3958 47.9461 0.0000 30.4539 0.0000
# 3 51.0883 47.9461 163.4578 0.0000 41.0762 0.0000
# 4 0.0000 0.0000 0.0000 10.3591 0.0000 -7.1293
# 5 44.2757 30.4539 41.0762 0.0000 67.3767 0.0000
# 6 0.0000 0.0000 0.0000 -7.1293 0.0000 -6.8754
#
#
#
# Elastic Compliance Matrix: (Units=1/GPa)
#
#
# Indices 1 2 3 4 5 6 
#
# 1 0.013329 -0.001743 -0.001950 0.000000 -0.006782 0.000000
# 2 -0.001743 0.008466 -0.001493 0.000000 -0.001770 0.000000
# 3 -0.001950 -0.001493 0.007881 0.000000 -0.002848 0.000000
# 4 0.000000 0.000000 0.000000 0.056333 0.000000 -0.058413
# 5 -0.006782 -0.001770 -0.002848 0.000000 0.021835 0.000000
# 6 0.000000 0.000000 0.000000 -0.058413 0.000000 -0.084876
#
#
# Mechanical properties :
#
#
# Convention : Reuss Voigt Hill
#
# Bulk Modulus (GPa) = 51.81003 77.25858 64.53430
# Shear Modulus (GPa) = 125.70759 32.51915 79.11337
#
# Velocity S-wave (km/s) = 6.93038 3.52489 5.49795
# Velocity P-wave (km/s) = 9.15618 6.78861 8.05980
#
# Compressibility (1/GPa) = 0.01930128
#
# Stress axis : x y z
#
# Youngs Moduli (GPa) = 75.02594 118.12445 126.88584
#
# Poissons Ratio (x) = 0.20595 0.24746
# Poissons Ratio (y) = 0.13081 0.18949
# Poissons Ratio (z) = 0.14632 0.17641
#
# Static dielectric constant tensor:
#      x y z
#    x 2.150280 0.000000 -0.059930 
#    y 0.000000 2.180120 0.000000 
#    z -0.059930 0.000000 2.069650 
# 
# From -- ./inp_files/25740.got.cif
#   From: 2010.05.17/outbox.cif.g08.bks.cpg/sg13_13_cif.got.tgz:25740.got - 2010.06.03 16:44:36.
