data_PCOD9227000
_publ_section_title
;
Structure prediction by ZEFSAII (Michael W. Deem and Ramdas Pophale) SiO2 
 PCOD9227000
Probable space group: P 2/C
;
_chemical_formula_sum "Si O2"
_cell_formula_units_Z 16
_cell_length_a 5.049160
_cell_length_b 8.007771
_cell_length_c 20.217865
_cell_angle_alpha 90.000000
_cell_angle_beta 113.542083
_cell_angle_gamma 90.000000
_cell_volume 749.419552
_symmetry_space_group_name_H-M "P 2/C"
_symmetry_group_IT_number 13
_symmetry_cell_setting 'monoclinic'
loop_
_space_group_symop_operation_xyz
x,y,z
-x,y,1/2-z
-x,-y,-z
x,-y,1/2+z
loop_
_atom_site_type_symbol
_atom_site_label
_atom_site_fract_x
_atom_site_fract_y
_atom_site_fract_z
Si Si1 0.848457 0.440224 0.669888
Si Si2 0.675938 0.947013 0.453885
Si Si3 0.310568 0.064329 0.796837
Si Si4 0.228341 0.433385 0.575753
O O1 0.768901 0.250150 0.684224
O O2 0.542499 0.519001 0.616659
O O3 0.000000 0.517131 0.750000
O O4 0.068921 0.430702 0.630785
O O5 0.509476 0.017648 0.372989
O O6 0.696776 0.750159 0.443425
O O7 0.500000 0.000000 0.500000
O O8 0.000000 0.000000 0.500000
O O9 0.500000 0.080313 0.750000
O O10 0.000000 0.983247 0.750000
O O11 0.000000 0.500000 0.500000
#
# Coordination Sequence:
#
# PCOD9227000 Si02
#       4
#     4   4   4   4
#     4  10  18  33  56  82 107 139 187 237 274 319
#     4  11  21  35  56  82 110 143 181 227 277 331
#     4  10  18  32  54  81 105 135 182 233 271 313
#     4  11  22  36  56  83 113 147 182 229 284 337
#
# _framework density 21.349857
#
# number of rings (size 3 to 8) (size 9 to 14) (size 15 to 20)
#    0.000    1.500    0.000   12.000    0.000    0.000 
#    0.000    0.000    0.000   15.000    0.000    0.000 
#    0.000    0.000    0.000    0.000    0.000    0.000 
#
# Total GULP energy -89298.459676 kJ/mol
# GULP energy per Si atom -5581.153730 kJ/mol
# Density = 2.130126 g / cm^3
# Si number density = 21.349857 Si / 1000 Ang^3
#
#
#
# Elastic Constant Matrix: (Units=GPa)
#
#
# Indices 1 2 3 4 5 6 
#
# 1 178.6523 17.8398 75.4311 0.0000 2.4646 0.0000
# 2 17.8398 20.8689 27.7477 0.0000 4.7147 0.0000
# 3 75.4311 27.7477 188.8712 0.0000 25.0845 0.0000
# 4 0.0000 0.0000 0.0000 15.7722 0.0000 8.7241
# 5 2.4646 4.7147 25.0845 0.0000 78.3246 0.0000
# 6 0.0000 0.0000 0.0000 8.7241 0.0000 12.8124
#
#
#
# Elastic Compliance Matrix: (Units=1/GPa)
#
#
# Indices 1 2 3 4 5 6 
#
# 1 0.006898 -0.002821 -0.002438 0.000000 0.000734 0.000000
# 2 -0.002821 0.060755 -0.007650 0.000000 -0.001118 0.000000
# 3 -0.002438 -0.007650 0.007646 0.000000 -0.001912 0.000000
# 4 0.000000 0.000000 0.000000 0.101709 0.000000 -0.069254
# 5 0.000734 -0.001118 -0.001912 0.000000 0.013424 0.000000
# 6 0.000000 0.000000 0.000000 -0.069254 0.000000 0.125205
#
#
# Mechanical properties :
#
#
# Convention : Reuss Voigt Hill
#
# Bulk Modulus (GPa) = 20.21018 70.04773 45.12896
# Shear Modulus (GPa) = 13.96843 39.20676 26.58760
#
# Velocity S-wave (km/s) = 2.56063 4.28997 3.53275
# Velocity P-wave (km/s) = 4.26957 7.57754 6.15013
#
# Compressibility (1/GPa) = 0.04948000
#
# Stress axis : x y z
#
# Youngs Moduli (GPa) = 144.95980 16.45961 130.78474
#
# Poissons Ratio (x) = 0.04644 0.31886
# Poissons Ratio (y) = 0.40896 1.00056
# Poissons Ratio (z) = 0.35342 0.12592
#
# Static dielectric constant tensor:
#      x y z
#    x 1.770910 0.000000 0.090840 
#    y 0.000000 1.843790 0.000000 
#    z 0.090840 0.000000 1.834620 
# 
# From -- ./inp_files/60304.got.cif
#   From: 2010.05.17/outbox.cif.g08.bks.cpg/sg13_31_cif.got.tgz:60304.got - 2010.06.03 16:44:36.
