data_PCOD9227788
_publ_section_title
;
Structure prediction by ZEFSAII (Michael W. Deem and Ramdas Pophale) SiO2 
 PCOD9227788
Probable space group: P 2/C
;
_chemical_formula_sum "Si O2"
_cell_formula_units_Z 30
_cell_length_a 19.102083
_cell_length_b 12.422469
_cell_length_c 9.893860
_cell_angle_alpha 90.000000
_cell_angle_beta 30.769867
_cell_angle_gamma 90.000000
_cell_volume 1201.094970
_symmetry_space_group_name_H-M "P 2/C"
_symmetry_group_IT_number 13
_symmetry_cell_setting 'monoclinic'
loop_
_space_group_symop_operation_xyz
x,y,z
-x,y,1/2-z
-x,-y,-z
x,-y,1/2+z
loop_
_atom_site_type_symbol
_atom_site_label
_atom_site_fract_x
_atom_site_fract_y
_atom_site_fract_z
Si Si1 0.273316 0.818187 0.315747
Si Si2 0.223301 0.467045 0.103650
Si Si3 0.139858 0.287733 0.459552
Si Si4 0.425611 0.244453 0.070251
Si Si5 0.361995 0.020791 0.025241
Si Si6 0.146209 0.618377 0.444125
Si Si7 0.500000 0.436719 0.750000
Si Si8 0.110757 0.095545 0.312239
O O1 0.282354 0.938346 0.248121
O O2 0.227125 0.728145 0.286797
O O3 0.143065 0.824814 0.634483
O O4 0.428399 0.782810 0.100221
O O5 0.196169 0.359253 0.239815
O O6 0.130253 0.554925 0.331136
O O7 0.217250 0.446073 0.953652
O O8 0.374616 0.503510 0.900332
O O9 0.262168 0.270212 0.366539
O O10 0.098703 0.172708 0.462372
O O11 0.000000 0.336749 0.750000
O O12 0.403776 0.133683 0.021994
O O13 0.463060 0.353250 0.929495
O O14 0.261455 0.043239 0.070485
O O15 0.500000 0.964671 0.750000
O O16 0.000000 0.637176 0.750000
O O17 0.000000 0.000000 0.500000
#
# Coordination Sequence:
#
# PCOD9227788 Si02
#       8
#     4   4   4   4   4   4   2   4
#     4  12  24  44  68  97 146 191 235 304 368 428
#     4  11  24  48  76 105 139 192 246 304 378 436
#     4  10  22  40  69 102 133 178 244 296 359 438
#     4  10  18  40  67  95 136 186 229 286 364 441
#     4  11  23  38  65  98 131 188 236 278 355 455
#     4  12  27  48  74 102 148 194 244 309 375 436
#     4  10  18  42  76 100 134 180 246 304 366 440
#     4  11  25  39  64  97 141 180 237 291 365 428
#
# _framework density 24.977208000000001
#
# number of rings (size 3 to 8) (size 9 to 14) (size 15 to 20)
#    0.000    1.067    4.667    2.000    5.600    0.533 
#    1.200    0.000    0.000    0.000    0.000    0.000 
#    0.000    0.000    0.000    0.000    0.000    0.000 
#
# Total GULP energy -167252.079894 kJ/mol
# GULP energy per Si atom -5575.069330 kJ/mol
# Density = 2.492036 g / cm^3
# Si number density = 24.977208 Si / 1000 Ang^3
#
#
#
# Elastic Constant Matrix: (Units=GPa)
#
#
# Indices 1 2 3 4 5 6 
#
# 1 47.5510 14.0060 -4.9205 0.0000 -4.1194 0.0000
# 2 14.0060 57.8175 13.9518 0.0000 -5.4196 0.0000
# 3 -4.9205 13.9518 56.8226 0.0000 -7.8745 0.0000
# 4 0.0000 0.0000 0.0000 -28.3053 0.0000 9.1846
# 5 -4.1194 -5.4196 -7.8745 0.0000 40.6773 0.0000
# 6 0.0000 0.0000 0.0000 9.1846 0.0000 17.3353
#
#
#
# Elastic Compliance Matrix: (Units=1/GPa)
#
#
# Indices 1 2 3 4 5 6 
#
# 1 0.023531 -0.006435 0.003935 0.000000 0.002287 0.000000
# 2 -0.006435 0.020249 -0.005390 0.000000 0.001003 0.000000
# 3 0.003935 -0.005390 0.019748 0.000000 0.003503 0.000000
# 4 0.000000 0.000000 0.000000 -0.030146 0.000000 0.015972
# 5 0.002287 0.001003 0.003503 0.000000 0.025627 0.000000
# 6 0.000000 0.000000 0.000000 0.015972 0.000000 0.049223
#
#
# Mechanical properties :
#
#
# Convention : Reuss Voigt Hill
#
# Bulk Modulus (GPa) = 20.94375 23.14063 22.04219
# Shear Modulus (GPa) = 35.73218 15.21838 25.47528
#
# Velocity S-wave (km/s) = 3.78642 2.47106 3.19712
# Velocity P-wave (km/s) = 5.24588 4.17448 4.74055
#
# Compressibility (1/GPa) = 0.04774694
#
# Stress axis : x y z
#
# Youngs Moduli (GPa) = 42.49742 49.38425 50.63734
#
# Poissons Ratio (x) = 0.31780 -0.19924
# Poissons Ratio (y) = 0.27348 0.27294
# Poissons Ratio (z) = -0.16721 0.26619
#
# Static dielectric constant tensor:
#      x y z
#    x 1.807010 0.000000 -0.053950 
#    y 0.000000 1.948750 0.000000 
#    z -0.053950 0.000000 2.065440 
# 
# From -- ./inp_files/40870.got.cif
#   From: 2010.05.17/outbox.cif.g08.bks.cpg/sg13_21_cif.got.tgz:40870.got - 2010.06.03 16:44:36.
