data_PCOD9227261
_publ_section_title
;
Structure prediction by ZEFSAII (Michael W. Deem and Ramdas Pophale) SiO2 
 PCOD9227261
Probable space group: P 2/C
;
_chemical_formula_sum "Si O2"
_cell_formula_units_Z 32
_cell_length_a 26.949047
_cell_length_b 10.767090
_cell_length_c 18.224615
_cell_angle_alpha 90.000000
_cell_angle_beta 163.710158
_cell_angle_gamma 90.000000
_cell_volume 1483.295319
_symmetry_space_group_name_H-M "P 2/C"
_symmetry_group_IT_number 13
_symmetry_cell_setting 'monoclinic'
loop_
_space_group_symop_operation_xyz
x,y,z
-x,y,1/2-z
-x,-y,-z
x,-y,1/2+z
loop_
_atom_site_type_symbol
_atom_site_label
_atom_site_fract_x
_atom_site_fract_y
_atom_site_fract_z
Si Si1 0.311226 0.346450 0.137715
Si Si2 0.685251 0.697627 0.170388
Si Si3 0.828610 0.440156 0.413425
Si Si4 0.783344 0.754621 0.154937
Si Si5 0.033782 0.832733 0.718457
Si Si6 0.190535 0.030036 0.306043
Si Si7 0.203915 0.286594 0.272712
Si Si8 0.201264 0.579030 0.920748
O O1 0.485929 0.271172 0.407860
O O2 0.191043 0.366579 0.038642
O O3 0.241796 0.284043 0.964673
O O4 0.346981 0.489672 0.162374
O O5 0.725075 0.569499 0.267968
O O6 0.688985 0.680673 0.086922
O O7 0.844186 0.792141 0.414820
O O8 0.755724 0.354614 0.245038
O O9 0.025095 0.491822 0.672627
O O10 0.990996 0.735520 0.468464
O O11 0.719366 0.896975 0.069670
O O12 0.000000 0.887517 0.750000
O O13 0.141389 0.921515 0.817312
O O14 0.144995 0.704002 0.883474
O O15 0.278880 0.148107 0.391445
O O16 0.000000 0.000000 0.000000
O O17 0.241528 0.373574 0.396092
#
# Coordination Sequence:
#
# PCOD9227261 Si02
#       8
#     4   4   4   4   4   4   4   4
#     4  12  24  33  56  90 125 155 179 239 302 358
#     4  11  22  39  58  83 124 158 187 228 301 365
#     4  11  20  35  54  86 118 147 192 241 287 339
#     4  11  20  38  58  86 113 153 200 239 285 344
#     4  10  19  36  63  89 111 154 200 251 282 336
#     4   9  18  37  59  85 106 142 202 249 278 320
#     4  10  18  34  62  80 108 151 201 251 273 328
#     4  10  18  34  56  84 116 153 198 233 284 349
#
# _framework density 21.573585999999999
#
# number of rings (size 3 to 8) (size 9 to 14) (size 15 to 20)
#    0.000    1.500    6.250    3.750    0.000    0.000 
#    4.500    0.000    0.000   10.500    0.000    0.000 
#    0.000    0.000    0.000    0.000    0.000    0.000 
#
# Total GULP energy -178465.773508 kJ/mol
# GULP energy per Si atom -5577.055422 kJ/mol
# Density = 2.152448 g / cm^3
# Si number density = 21.573586 Si / 1000 Ang^3
#
#
#
# Elastic Constant Matrix: (Units=GPa)
#
#
# Indices 1 2 3 4 5 6 
#
# 1 94.7349 22.0454 -5.5646 0.0000 -30.2413 0.0000
# 2 22.0454 49.0801 -3.3493 0.0000 -2.1413 0.0000
# 3 -5.5646 -3.3493 34.2016 0.0000 1.7357 0.0000
# 4 0.0000 0.0000 0.0000 5.6234 0.0000 -4.6980
# 5 -30.2413 -2.1413 1.7357 0.0000 15.3491 0.0000
# 6 0.0000 0.0000 0.0000 -4.6980 0.0000 16.7452
#
#
#
# Elastic Compliance Matrix: (Units=1/GPa)
#
#
# Indices 1 2 3 4 5 6 
#
# 1 0.034955 -0.012707 0.001044 0.000000 0.066979 0.000000
# 2 -0.012707 0.025239 0.001505 0.000000 -0.021686 0.000000
# 3 0.001044 0.001505 0.029610 0.000000 -0.001082 0.000000
# 4 0.000000 0.000000 0.000000 0.232270 0.000000 0.065166
# 5 0.066979 -0.021686 -0.001082 0.000000 0.194212 0.000000
# 6 0.000000 0.000000 0.000000 0.065166 0.000000 0.078002
#
#
# Mechanical properties :
#
#
# Convention : Reuss Voigt Hill
#
# Bulk Modulus (GPa) = 14.39124 22.69773 18.54448
# Shear Modulus (GPa) = 7.83982 18.53588 13.18785
#
# Velocity S-wave (km/s) = 1.90837 2.93438 2.47512
# Velocity P-wave (km/s) = 3.39722 4.69305 4.09669
#
# Compressibility (1/GPa) = 0.06948671
#
# Stress axis : x y z
#
# Youngs Moduli (GPa) = 28.60795 39.62083 33.77183
#
# Poissons Ratio (x) = 0.50348 -0.03524
# Poissons Ratio (y) = 0.36353 -0.05082
# Poissons Ratio (z) = -0.02986 -0.05962
#
# Static dielectric constant tensor:
#      x y z
#    x 1.783460 0.000000 -0.004810 
#    y 0.000000 1.810690 0.000000 
#    z -0.004810 0.000000 1.892010 
# 
# From -- ./inp_files/71952.got.cif
#   From: 2010.05.17/outbox.cif.g08.bks.cpg/sg13_36_cif.got.tgz:71952.got - 2010.06.03 16:44:36.
