data_PCOD9227984
_publ_section_title
;
Structure prediction by ZEFSAII (Michael W. Deem and Ramdas Pophale) SiO2 
 PCOD9227984
Probable space group: P 2/C
;
_chemical_formula_sum "Si O2"
_cell_formula_units_Z 22
_cell_length_a 29.785536
_cell_length_b 7.653715
_cell_length_c 5.142710
_cell_angle_alpha 90.000000
_cell_angle_beta 80.209326
_cell_angle_gamma 90.000000
_cell_volume 1155.308542
_symmetry_space_group_name_H-M "P 2/C"
_symmetry_group_IT_number 13
_symmetry_cell_setting 'monoclinic'
loop_
_space_group_symop_operation_xyz
x,y,z
-x,y,1/2-z
-x,-y,-z
x,-y,1/2+z
loop_
_atom_site_type_symbol
_atom_site_label
_atom_site_fract_x
_atom_site_fract_y
_atom_site_fract_z
Si Si1 0.355115 0.616574 0.840287
Si Si2 0.272661 0.878424 0.963096
Si Si3 0.000000 0.875986 0.250000
Si Si4 0.085628 0.618839 0.210220
Si Si5 0.168682 0.122172 0.557150
Si Si6 0.547882 0.380061 0.143837
O O1 0.354454 0.541489 0.549466
O O2 0.311327 0.733501 0.933035
O O3 0.403779 0.710109 0.847385
O O4 0.277769 0.990269 0.697443
O O5 0.220674 0.809589 0.021263
O O6 0.955814 0.752754 0.288516
O O7 0.000000 0.000000 0.500000
O O8 0.082941 0.531579 0.495633
O O9 0.132196 0.726041 0.128076
O O10 0.162654 0.020801 0.291328
O O11 0.500000 0.285591 0.250000
O O12 0.547673 0.540931 0.353615
#
# Coordination Sequence:
#
# PCOD9227984 Si02
#       6
#     4   4   2   4   4   4
#     4  10  19  31  51  76 100 129 172 219 259 306
#     4  10  21  36  54  75 106 142 174 212 261 318
#     4  12  24  42  64  84 114 156 188 212 256 326
#     4  12  24  39  60  89 117 140 177 232 274 299
#     4  10  21  39  58  78 106 146 184 210 256 326
#     4   8  14  25  42  66  94 124 161 207 255 303
#
# _framework density 19.042531
#
# number of rings (size 3 to 8) (size 9 to 14) (size 15 to 20)
#    0.000    1.818    0.000    4.909    0.000    1.455 
#    0.000    0.000    0.000    1.091    0.000    0.000 
#    0.000    0.000    0.000    0.000    0.000    0.000 
#
# Total GULP energy -122823.001190 kJ/mol
# GULP energy per Si atom -5582.863690 kJ/mol
# Density = 1.899919 g / cm^3
# Si number density = 19.042531 Si / 1000 Ang^3
#
#
#
# Elastic Constant Matrix: (Units=GPa)
#
#
# Indices 1 2 3 4 5 6 
#
# 1 147.8051 48.0558 3.7340 0.0000 -20.0386 0.0000
# 2 48.0558 32.1853 -6.5126 0.0000 -10.7324 0.0000
# 3 3.7340 -6.5126 86.6167 0.0000 -0.5961 0.0000
# 4 0.0000 0.0000 0.0000 25.7365 0.0000 -10.0069
# 5 -20.0386 -10.7324 -0.5961 0.0000 29.5952 0.0000
# 6 0.0000 0.0000 0.0000 -10.0069 0.0000 58.8738
#
#
#
# Elastic Compliance Matrix: (Units=1/GPa)
#
#
# Indices 1 2 3 4 5 6 
#
# 1 0.013617 -0.020128 -0.002087 0.000000 0.001879 0.000000
# 2 -0.020128 0.065760 0.005883 0.000000 0.010338 0.000000
# 3 -0.002087 0.005883 0.012084 0.000000 0.000964 0.000000
# 4 0.000000 0.000000 0.000000 0.041605 0.000000 0.007072
# 5 0.001879 0.010338 0.000964 0.000000 0.038830 0.000000
# 6 0.000000 0.000000 0.000000 0.007072 0.000000 0.018187
#
#
# Mechanical properties :
#
#
# Convention : Reuss Voigt Hill
#
# Bulk Modulus (GPa) = 17.00745 39.68462 28.34603
# Shear Modulus (GPa) = 20.63159 37.59641 29.11400
#
# Velocity S-wave (km/s) = 3.29515 4.44817 3.91435
# Velocity P-wave (km/s) = 4.84025 6.87509 5.94537
#
# Compressibility (1/GPa) = 0.05879778
#
# Stress axis : x y z
#
# Youngs Moduli (GPa) = 73.43629 15.20676 82.75341
#
# Poissons Ratio (x) = 0.30608 0.17275
# Poissons Ratio (y) = 1.47810 -0.48686
# Poissons Ratio (z) = 0.15330 -0.08947
#
# Static dielectric constant tensor:
#      x y z
#    x 1.704530 0.000000 -0.011190 
#    y 0.000000 1.612050 0.000000 
#    z -0.011190 0.000000 1.641200 
# 
# From -- ./inp_files/7940.got.cif
#   From: 2010.05.17/outbox.cif.g08.bks.cpg/sg13_4_cif.got.tgz:7940.got - 2010.06.03 16:44:36.
