data_PCOD9227228
_publ_section_title
;
Structure prediction by ZEFSAII (Michael W. Deem and Ramdas Pophale) SiO2 
 PCOD9227228
Probable space group: P 2/C
;
_chemical_formula_sum "Si O2"
_cell_formula_units_Z 24
_cell_length_a 6.352599
_cell_length_b 8.807666
_cell_length_c 18.735500
_cell_angle_alpha 90.000000
_cell_angle_beta 95.593252
_cell_angle_gamma 90.000000
_cell_volume 1043.289660
_symmetry_space_group_name_H-M "P 2/C"
_symmetry_group_IT_number 13
_symmetry_cell_setting 'monoclinic'
loop_
_space_group_symop_operation_xyz
x,y,z
-x,y,1/2-z
-x,-y,-z
x,-y,1/2+z
loop_
_atom_site_type_symbol
_atom_site_label
_atom_site_fract_x
_atom_site_fract_y
_atom_site_fract_z
Si Si1 0.133929 0.946522 0.139739
Si Si2 0.866151 0.766125 0.678491
Si Si3 0.500000 0.064028 0.250000
Si Si4 0.000000 0.300576 0.750000
Si Si5 0.048770 0.277826 0.965833
Si Si6 0.700800 0.458466 0.643443
Si Si7 0.680802 0.473828 0.445525
O O1 0.363674 0.977329 0.183684
O O2 0.055699 0.811677 0.188158
O O3 0.070359 0.877168 0.060261
O O4 0.995259 0.097292 0.147124
O O5 0.807911 0.621198 0.629816
O O6 0.000000 0.709464 0.750000
O O7 0.660001 0.837216 0.708428
O O8 0.798445 0.399253 0.720145
O O9 0.859201 0.399324 0.958989
O O10 0.215940 0.334450 0.910633
O O11 0.198980 0.312779 0.039609
O O12 0.452632 0.492845 0.630037
O O13 0.500000 0.500000 0.500000
#
# Coordination Sequence:
#
# PCOD9227228 Si02
#       7
#     4   4   2   2   4   4   4
#     4  10  20  34  54  77 110 141 181 218 264 321
#     4  10  20  37  50  76 117 145 174 220 262 323
#     4  10  20  32  54  72 112 152 176 204 276 318
#     4  10  18  34  52  82 110 134 176 228 260 318
#     4   9  20  36  58  81 106 141 182 229 264 314
#     4  10  20  34  57  80 111 141 177 222 270 318
#     4   9  19  36  56  81 109 138 179 227 276 312
#
# _framework density 23.004156999999999
#
# number of rings (size 3 to 8) (size 9 to 14) (size 15 to 20)
#    0.000    2.333    3.333    0.000    2.333    4.000 
#    0.000    0.833    0.000   10.000    0.000    0.000 
#    0.000    0.000    0.000    0.000    0.000    0.000 
#
# Total GULP energy -133643.550025 kJ/mol
# GULP energy per Si atom -5568.481251 kJ/mol
# Density = 2.295180 g / cm^3
# Si number density = 23.004157 Si / 1000 Ang^3
#
#
#
# Elastic Constant Matrix: (Units=GPa)
#
#
# Indices 1 2 3 4 5 6 
#
# 1 70.8350 10.9783 31.6821 0.0000 31.7928 0.0000
# 2 10.9783 70.6408 31.9407 0.0000 18.2513 0.0000
# 3 31.6821 31.9407 71.4964 0.0000 30.9914 0.0000
# 4 0.0000 0.0000 0.0000 35.8523 0.0000 4.0596
# 5 31.7928 18.2513 30.9914 0.0000 43.2998 0.0000
# 6 0.0000 0.0000 0.0000 4.0596 0.0000 0.7871
#
#
#
# Elastic Compliance Matrix: (Units=1/GPa)
#
#
# Indices 1 2 3 4 5 6 
#
# 1 0.022093 0.002315 -0.004886 0.000000 -0.013701 0.000000
# 2 0.002315 0.018189 -0.007382 0.000000 -0.004083 0.000000
# 3 -0.004886 -0.007382 0.023988 0.000000 -0.010470 0.000000
# 4 0.000000 0.000000 0.000000 0.067052 0.000000 -0.345844
# 5 -0.013701 -0.004083 -0.010470 0.000000 0.042370 0.000000
# 6 0.000000 0.000000 0.000000 -0.345844 0.000000 3.054335
#
#
# Mechanical properties :
#
#
# Convention : Reuss Voigt Hill
#
# Bulk Modulus (GPa) = 22.53970 40.24161 31.39065
# Shear Modulus (GPa) = 1.53246 25.21259 13.37253
#
# Velocity S-wave (km/s) = 0.81708 3.31418 2.41365
# Velocity P-wave (km/s) = 3.27254 5.67241 4.63065
#
# Compressibility (1/GPa) = 0.04436617
#
# Stress axis : x y z
#
# Youngs Moduli (GPa) = 45.26330 54.97800 41.68743
#
# Poissons Ratio (x) = -0.12730 0.20366
# Poissons Ratio (y) = -0.10480 0.30773
# Poissons Ratio (z) = 0.22113 0.40584
#
# Static dielectric constant tensor:
#      x y z
#    x 1.868830 0.000000 -0.009920 
#    y 0.000000 1.852850 0.000000 
#    z -0.009920 0.000000 2.281710 
# 
# From -- ./inp_files/81748.got.cif
#   From: 2010.05.17/outbox.cif.g08.bks.cpg/sg13_41_cif.got.tgz:81748.got - 2010.06.03 16:44:36.
