data_PCOD9227042
_publ_section_title
;
Structure prediction by ZEFSAII (Michael W. Deem and Ramdas Pophale) SiO2 
 PCOD9227042
Probable space group: P 2/C
;
_chemical_formula_sum "Si O2"
_cell_formula_units_Z 32
_cell_length_a 8.875236
_cell_length_b 22.835518
_cell_length_c 14.357159
_cell_angle_alpha 90.000000
_cell_angle_beta 150.124390
_cell_angle_gamma 90.000000
_cell_volume 1449.412848
_symmetry_space_group_name_H-M "P 2/C"
_symmetry_group_IT_number 13
_symmetry_cell_setting 'monoclinic'
loop_
_space_group_symop_operation_xyz
x,y,z
-x,y,1/2-z
-x,-y,-z
x,-y,1/2+z
loop_
_atom_site_type_symbol
_atom_site_label
_atom_site_fract_x
_atom_site_fract_y
_atom_site_fract_z
Si Si1 0.907748 0.246238 0.305802
Si Si2 0.338206 0.860116 0.064283
Si Si3 0.156925 0.342133 0.091853
Si Si4 0.239439 0.550264 0.528571
Si Si5 0.024479 0.979136 0.655606
Si Si6 0.179015 0.554789 0.751170
Si Si7 0.318991 0.190141 0.931198
Si Si8 0.635532 0.919539 0.916558
O O1 0.993743 0.285819 0.441106
O O2 0.000000 0.266920 0.250000
O O3 0.053774 0.183069 0.402155
O O4 0.553715 0.233765 0.104978
O O5 0.500000 0.855754 0.250000
O O6 0.550249 0.835873 0.095154
O O7 0.207449 0.925149 0.980619
O O8 0.500000 0.324972 0.250000
O O9 0.083042 0.386922 0.967004
O O10 0.138848 0.387188 0.168284
O O11 0.500000 0.541649 0.750000
O O12 0.455919 0.547982 0.553718
O O13 0.991557 0.500105 0.388283
O O14 0.000000 0.997450 0.750000
O O15 0.360935 0.957279 0.813646
O O16 0.907943 0.036231 0.538939
O O17 0.000000 0.563085 0.750000
O O18 0.000000 0.221018 0.750000
O O19 0.270354 0.132944 0.967935
O O20 0.500000 0.893724 0.750000
#
# Coordination Sequence:
#
# PCOD9227042 Si02
#       8
#     4   4   4   4   4   4   4   4
#     4  10  21  44  64  85 118 161 210 261 318 369
#     4  11  24  43  65  89 124 163 204 259 315 381
#     4   9  19  34  60  86 116 160 208 252 299 369
#     4   9  18  33  53  85 121 158 201 242 295 356
#     4  12  23  44  62  91 131 163 204 257 311 379
#     4  10  18  32  56  89 123 166 202 244 304 357
#     4  11  25  42  65  94 121 156 211 263 318 382
#     4  12  26  40  64  95 127 166 201 252 319 385
#
# _framework density 22.077905999999999
#
# number of rings (size 3 to 8) (size 9 to 14) (size 15 to 20)
#    0.000    1.750    2.500    4.125    3.500    1.500 
#    0.000    1.875    0.000   24.750    0.000    0.000 
#    0.000    0.000    0.000    0.000    0.000    0.000 
#
# Total GULP energy -178542.327666 kJ/mol
# GULP energy per Si atom -5579.447740 kJ/mol
# Density = 2.202766 g / cm^3
# Si number density = 22.077906 Si / 1000 Ang^3
#
#
#
# Elastic Constant Matrix: (Units=GPa)
#
#
# Indices 1 2 3 4 5 6 
#
# 1 83.1104 21.4264 10.5964 0.0000 -2.6782 0.0000
# 2 21.4264 56.1323 3.3535 0.0000 -0.7792 0.0000
# 3 10.5964 3.3535 68.3745 0.0000 6.3706 0.0000
# 4 0.0000 0.0000 0.0000 8.2767 0.0000 -1.0485
# 5 -2.6782 -0.7792 6.3706 0.0000 33.8722 0.0000
# 6 0.0000 0.0000 0.0000 -1.0485 0.0000 7.6771
#
#
#
# Elastic Compliance Matrix: (Units=1/GPa)
#
#
# Indices 1 2 3 4 5 6 
#
# 1 0.013635 -0.005067 -0.001989 0.000000 0.001336 0.000000
# 2 -0.005067 0.019762 -0.000192 0.000000 0.000090 0.000000
# 3 -0.001989 -0.000192 0.015225 0.000000 -0.003025 0.000000
# 4 0.000000 0.000000 0.000000 0.122948 0.000000 0.016792
# 5 0.001336 0.000090 -0.003025 0.000000 0.030199 0.000000
# 6 0.000000 0.000000 0.000000 0.016792 0.000000 0.132551
#
#
# Mechanical properties :
#
#
# Convention : Reuss Voigt Hill
#
# Bulk Modulus (GPa) = 29.30428 30.92997 30.11713
# Shear Modulus (GPa) = 13.88146 21.44793 17.66470
#
# Velocity S-wave (km/s) = 2.51021 3.12022 2.83169
# Velocity P-wave (km/s) = 4.65870 5.19816 4.93580
#
# Compressibility (1/GPa) = 0.03412471
#
# Stress axis : x y z
#
# Youngs Moduli (GPa) = 73.33938 50.60200 65.68202
#
# Poissons Ratio (x) = 0.25642 0.13064
# Poissons Ratio (y) = 0.37164 0.01263
# Poissons Ratio (z) = 0.14587 0.00973
#
# Static dielectric constant tensor:
#      x y z
#    x 1.883980 0.000000 0.039190 
#    y 0.000000 1.778330 0.000000 
#    z 0.039190 0.000000 1.626380 
# 
# From -- ./inp_files/48313.got.cif
#   From: 2010.05.17/outbox.cif.g08.bks.cpg/sg13_25_cif.got.tgz:48313.got - 2010.06.03 16:44:36.
