data_PCOD9227522
_publ_section_title
;
Structure prediction by ZEFSAII (Michael W. Deem and Ramdas Pophale) SiO2 
 PCOD9227522
Probable space group: P 2/C
;
_chemical_formula_sum "Si O2"
_cell_formula_units_Z 30
_cell_length_a 12.123205
_cell_length_b 8.889672
_cell_length_c 15.708360
_cell_angle_alpha 90.000000
_cell_angle_beta 118.897337
_cell_angle_gamma 90.000000
_cell_volume 1482.121229
_symmetry_space_group_name_H-M "P 2/C"
_symmetry_group_IT_number 13
_symmetry_cell_setting 'monoclinic'
loop_
_space_group_symop_operation_xyz
x,y,z
-x,y,1/2-z
-x,-y,-z
x,-y,1/2+z
loop_
_atom_site_type_symbol
_atom_site_label
_atom_site_fract_x
_atom_site_fract_y
_atom_site_fract_z
Si Si1 0.505624 0.672435 0.531727
Si Si2 0.267735 0.705779 0.246190
Si Si3 0.500000 0.110438 0.750000
Si Si4 0.851872 0.679202 0.951477
Si Si5 0.752642 0.184904 0.572870
Si Si6 0.369563 0.373346 0.252875
Si Si7 0.869246 0.323786 0.972900
Si Si8 0.347873 0.887665 0.034245
O O1 0.500000 0.500000 0.500000
O O2 0.364197 0.713668 0.501400
O O3 0.593184 0.704074 0.645200
O O4 0.552489 0.779652 0.474280
O O5 0.389393 0.794106 0.254721
O O6 0.225216 0.765131 0.322131
O O7 0.312090 0.532821 0.261213
O O8 0.156907 0.712704 0.135908
O O9 0.579565 0.037829 0.857420
O O10 0.734252 0.706318 0.844702
O O11 0.843514 0.502211 0.974723
O O12 0.852459 0.780309 0.036445
O O13 0.984552 0.701586 0.952991
O O14 0.704971 0.015084 0.547017
O O15 0.500000 0.397673 0.250000
O O16 0.767817 0.220118 0.982219
#
# Coordination Sequence:
#
# PCOD9227522 Si02
#       8
#     4   4   2   4   4   4   4   4
#     4  12  22  37  60  92 125 159 202 259 309 360
#     4  10  20  35  62  91 119 163 202 246 306 369
#     4  10  18  36  58  84 124 164 196 240 302 374
#     4  10  22  41  66  89 120 157 215 259 303 363
#     4  12  23  37  60  95 126 161 200 258 313 367
#     4  11  20  35  62  97 120 156 200 255 314 357
#     4   9  22  44  64  87 117 167 214 254 301 365
#     4  11  24  38  61  90 130 163 204 255 315 374
#
# _framework density 20.241258999999999
#
# number of rings (size 3 to 8) (size 9 to 14) (size 15 to 20)
#    0.000    1.333    4.667    1.200    1.867    2.133 
#    2.400    0.667    2.933    0.000    0.000    0.000 
#    0.000    0.000    0.000    0.000    0.000    0.000 
#
# Total GULP energy -167386.844608 kJ/mol
# GULP energy per Si atom -5579.561487 kJ/mol
# Density = 2.019519 g / cm^3
# Si number density = 20.241259 Si / 1000 Ang^3
#
#
#
# Elastic Constant Matrix: (Units=GPa)
#
#
# Indices 1 2 3 4 5 6 
#
# 1 54.0214 -0.3181 6.8109 0.0000 9.0747 0.0000
# 2 -0.3181 37.1222 8.8591 0.0000 -3.9355 0.0000
# 3 6.8109 8.8591 97.7145 0.0000 -8.2861 0.0000
# 4 0.0000 0.0000 0.0000 15.8993 0.0000 -2.5836
# 5 9.0747 -3.9355 -8.2861 0.0000 29.6841 0.0000
# 6 0.0000 0.0000 0.0000 -2.5836 0.0000 15.5174
#
#
#
# Elastic Compliance Matrix: (Units=1/GPa)
#
#
# Indices 1 2 3 4 5 6 
#
# 1 0.019868 -0.000069 -0.001940 0.000000 -0.006625 0.000000
# 2 -0.000069 0.027802 -0.002255 0.000000 0.003078 0.000000
# 3 -0.001940 -0.002255 0.010855 0.000000 0.003324 0.000000
# 4 0.000000 0.000000 0.000000 0.064645 0.000000 0.010763
# 5 -0.006625 0.003078 0.003324 0.000000 0.037049 0.000000
# 6 0.000000 0.000000 0.000000 0.010763 0.000000 0.066236
#
#
# Mechanical properties :
#
#
# Convention : Reuss Voigt Hill
#
# Bulk Modulus (GPa) = 20.00111 24.39578 22.19844
# Shear Modulus (GPa) = 19.86889 23.78724 21.82807
#
# Velocity S-wave (km/s) = 3.13645 3.43182 3.28745
# Velocity P-wave (km/s) = 4.79784 5.27085 5.03990
#
# Compressibility (1/GPa) = 0.04999723
#
# Stress axis : x y z
#
# Youngs Moduli (GPa) = 50.33156 35.96879 92.11928
#
# Poissons Ratio (x) = 0.00248 0.17875
# Poissons Ratio (y) = 0.00347 0.20771
# Poissons Ratio (z) = 0.09766 0.08110
#
# Static dielectric constant tensor:
#      x y z
#    x 1.699040 0.000000 0.002370 
#    y 0.000000 1.719000 0.000000 
#    z 0.002370 0.000000 1.760390 
# 
# From -- ./inp_files/50416.got.cif
#   From: 2010.05.17/outbox.cif.g08.bks.cpg/sg13_26_cif.got.tgz:50416.got - 2010.06.03 16:44:36.
