data_PCOD9227732
_publ_section_title
;
Structure prediction by ZEFSAII (Michael W. Deem and Ramdas Pophale) SiO2 
 PCOD9227732
Probable space group: P 2/C
;
_chemical_formula_sum "Si O2"
_cell_formula_units_Z 24
_cell_length_a 8.582625
_cell_length_b 11.974689
_cell_length_c 12.744173
_cell_angle_alpha 90.000000
_cell_angle_beta 108.418905
_cell_angle_gamma 90.000000
_cell_volume 1242.675715
_symmetry_space_group_name_H-M "P 2/C"
_symmetry_group_IT_number 13
_symmetry_cell_setting 'monoclinic'
loop_
_space_group_symop_operation_xyz
x,y,z
-x,y,1/2-z
-x,-y,-z
x,-y,1/2+z
loop_
_atom_site_type_symbol
_atom_site_label
_atom_site_fract_x
_atom_site_fract_y
_atom_site_fract_z
Si Si1 0.650684 0.553103 0.966983
Si Si2 0.633734 0.161241 0.098106
Si Si3 0.681726 0.089390 0.594802
Si Si4 0.500000 0.195215 0.750000
Si Si5 0.500000 0.295862 0.250000
Si Si6 0.771837 0.685179 0.443667
Si Si7 0.085806 0.711687 0.376453
O O1 0.585729 0.625842 0.855363
O O2 0.754862 0.446980 0.952406
O O3 0.500000 0.500000 0.000000
O O4 0.762062 0.631941 0.063092
O O5 0.622094 0.216246 0.209902
O O6 0.719177 0.041455 0.103318
O O7 0.446521 0.129901 0.022368
O O8 0.716234 0.250035 0.036984
O O9 0.583366 0.119420 0.679659
O O10 0.840912 0.165380 0.622665
O O11 0.359966 0.271714 0.669513
O O12 0.952257 0.711705 0.440204
O O13 0.000000 0.675523 0.250000
#
# Coordination Sequence:
#
# PCOD9227732 Si02
#       7
#     4   4   4   2   2   4   4
#     4  12  25  45  69 101 136 179 231 280 343 410
#     4  10  22  40  68  94 129 178 230 283 329 406
#     4  10  20  41  64  97 131 174 230 280 336 403
#     4  10  18  38  66  94 128 174 230 260 336 412
#     4  12  22  42  72 100 134 178 240 286 332 410
#     4  11  23  40  63 100 135 176 223 277 342 410
#     4  12  25  43  66 101 141 177 223 282 349 411
#
# _framework density 19.313164
#
# number of rings (size 3 to 8) (size 9 to 14) (size 15 to 20)
#    0.000    1.000    5.000    2.500    2.333    0.667 
#    0.000    2.500    0.000    0.000    0.000    0.000 
#    0.000    0.000    0.000    0.000    0.000    0.000 
#
# Total GULP energy -134100.592716 kJ/mol
# GULP energy per Si atom -5587.524697 kJ/mol
# Density = 1.926921 g / cm^3
# Si number density = 19.313164 Si / 1000 Ang^3
#
#
#
# Elastic Constant Matrix: (Units=GPa)
#
#
# Indices 1 2 3 4 5 6 
#
# 1 93.8821 26.7406 26.4342 0.0000 -2.7607 0.0000
# 2 26.7406 123.3483 40.8888 0.0000 10.1936 0.0000
# 3 26.4342 40.8888 102.5055 0.0000 4.2346 0.0000
# 4 0.0000 0.0000 0.0000 18.8076 0.0000 10.1896
# 5 -2.7607 10.1936 4.2346 0.0000 23.8949 0.0000
# 6 0.0000 0.0000 0.0000 10.1896 0.0000 4.5435
#
#
#
# Elastic Compliance Matrix: (Units=1/GPa)
#
#
# Indices 1 2 3 4 5 6 
#
# 1 0.011981 -0.002025 -0.002392 0.000000 0.002672 0.000000
# 2 -0.002025 0.009959 -0.003289 0.000000 -0.003899 0.000000
# 3 -0.002392 -0.003289 0.011724 0.000000 -0.000951 0.000000
# 4 0.000000 0.000000 0.000000 -0.247242 0.000000 0.554487
# 5 0.002672 -0.003899 -0.000951 0.000000 0.043991 0.000000
# 6 0.000000 0.000000 0.000000 0.554487 0.000000 -1.023449
#
#
# Mechanical properties :
#
#
# Convention : Reuss Voigt Hill
#
# Bulk Modulus (GPa) = 54.79369 56.42925 55.61147
# Shear Modulus (GPa) = -4.26788 24.49401 10.11306
#
# Velocity S-wave (km/s) = -1.48816 3.56512 2.29079
# Velocity P-wave (km/s) = 5.04776 6.79913 5.98783
#
# Compressibility (1/GPa) = 0.01825028
#
# Stress axis : x y z
#
# Youngs Moduli (GPa) = 83.46826 100.41441 85.29683
#
# Poissons Ratio (x) = 0.20335 0.20404
# Poissons Ratio (y) = 0.16903 0.28055
# Poissons Ratio (z) = 0.19967 0.33028
#
# Static dielectric constant tensor:
#      x y z
#    x 1.668160 0.000000 0.010720 
#    y 0.000000 1.677020 0.000000 
#    z 0.010720 0.000000 1.696300 
# 
# From -- ./inp_files/29583.got.cif
#   From: 2010.05.17/outbox.cif.g08.bks.cpg/sg13_15_cif.got.tgz:29583.got - 2010.06.03 16:44:36.
