data_PCOD9227101
_publ_section_title
;
Structure prediction by ZEFSAII (Michael W. Deem and Ramdas Pophale) SiO2 
 PCOD9227101
Probable space group: P 2/C
;
_chemical_formula_sum "Si O2"
_cell_formula_units_Z 28
_cell_length_a 21.661830
_cell_length_b 11.130990
_cell_length_c 25.015031
_cell_angle_alpha 90.000000
_cell_angle_beta 15.177283
_cell_angle_gamma 90.000000
_cell_volume 1579.103063
_symmetry_space_group_name_H-M "P 2/C"
_symmetry_group_IT_number 13
_symmetry_cell_setting 'monoclinic'
loop_
_space_group_symop_operation_xyz
x,y,z
-x,y,1/2-z
-x,-y,-z
x,-y,1/2+z
loop_
_atom_site_type_symbol
_atom_site_label
_atom_site_fract_x
_atom_site_fract_y
_atom_site_fract_z
Si Si1 0.201124 0.833974 0.323517
Si Si2 0.361987 0.476437 0.310657
Si Si3 0.176439 0.494631 0.252287
Si Si4 0.283851 0.805933 0.893890
Si Si5 0.578147 0.585130 0.350059
Si Si6 0.229366 0.767246 0.175170
Si Si7 0.320471 0.901466 0.747599
O O1 0.311042 0.713949 0.256039
O O2 0.213556 0.810692 0.249655
O O3 0.927785 0.852232 0.568540
O O4 0.335125 0.957868 0.222492
O O5 0.500000 0.507683 0.250000
O O6 0.329703 0.332247 0.337724
O O7 0.477599 0.517604 0.158438
O O8 0.096990 0.528434 0.528887
O O9 0.244004 0.513023 0.258330
O O10 0.237260 0.622936 0.173309
O O11 0.348094 0.401501 0.079812
O O12 0.500000 0.841522 0.750000
O O13 0.290328 0.885851 0.835952
O O14 0.024346 0.804716 0.137189
O O15 0.455450 0.825855 0.959085
#
# Coordination Sequence:
#
# PCOD9227101 Si02
#       7
#     4   4   4   4   4   4   4
#     4   9  20  32  49  75  98 124 164 202 241 294
#     4  10  20  34  52  74 103 135 164 203 252 298
#     4   9  19  32  52  78  99 128 168 206 250 298
#     4   9  19  33  49  73  98 123 164 203 236 292
#     4  10  19  33  51  75 103 130 165 208 248 297
#     4   9  17  31  51  74  96 122 158 202 248 289
#     4  10  18  33  52  71  98 129 158 202 250 284
#
# _framework density 17.731586
#
# number of rings (size 3 to 8) (size 9 to 14) (size 15 to 20)
#    0.000    2.571    0.000    2.571    0.000    4.571 
#    0.000    5.000    0.000    1.714    0.000    0.000 
#    0.000    0.000    0.000    0.000    0.000    0.000 
#
# Total GULP energy -156054.883624 kJ/mol
# GULP energy per Si atom -5573.388701 kJ/mol
# Density = 1.769123 g / cm^3
# Si number density = 17.731586 Si / 1000 Ang^3
#
#
#
# Elastic Constant Matrix: (Units=GPa)
#
#
# Indices 1 2 3 4 5 6 
#
# 1 59.5358 13.6535 8.1565 0.0000 -8.0446 0.0000
# 2 13.6535 51.1000 11.4096 0.0000 6.7373 0.0000
# 3 8.1565 11.4096 61.2822 0.0000 5.1458 0.0000
# 4 0.0000 0.0000 0.0000 20.1514 0.0000 0.5106
# 5 -8.0446 6.7373 5.1458 0.0000 21.2378 0.0000
# 6 0.0000 0.0000 0.0000 0.5106 0.0000 15.8997
#
#
#
# Elastic Compliance Matrix: (Units=1/GPa)
#
#
# Indices 1 2 3 4 5 6 
#
# 1 0.019876 -0.006109 -0.002351 0.000000 0.010036 0.000000
# 2 -0.006109 0.022988 -0.002715 0.000000 -0.008949 0.000000
# 3 -0.002351 -0.002715 0.017495 0.000000 -0.004268 0.000000
# 4 0.000000 0.000000 0.000000 0.049665 0.000000 -0.001595
# 5 0.010036 -0.008949 -0.004268 0.000000 0.054760 0.000000
# 6 0.000000 0.000000 0.000000 -0.001595 0.000000 0.062945
#
#
# Mechanical properties :
#
#
# Convention : Reuss Voigt Hill
#
# Bulk Modulus (GPa) = 26.31021 26.48413 26.39717
# Shear Modulus (GPa) = 19.02959 20.70433 19.86696
#
# Velocity S-wave (km/s) = 3.27953 3.42080 3.35091
# Velocity P-wave (km/s) = 5.40469 5.52911 5.46725
#
# Compressibility (1/GPa) = 0.03800806
#
# Stress axis : x y z
#
# Youngs Moduli (GPa) = 50.31244 43.50123 57.15992
#
# Poissons Ratio (x) = 0.26575 0.13437
# Poissons Ratio (y) = 0.30736 0.15521
# Poissons Ratio (z) = 0.11827 0.11812
#
# Static dielectric constant tensor:
#      x y z
#    x 1.602580 0.000000 -0.020890 
#    y 0.000000 1.606620 0.000000 
#    z -0.020890 0.000000 1.651840 
# 
# From -- ./inp_files/81026.got.cif
#   From: 2010.05.17/outbox.cif.g08.bks.cpg/sg13_41_cif.got.tgz:81026.got - 2010.06.03 16:44:36.
