data_PCOD9227794
_publ_section_title
;
Structure prediction by ZEFSAII (Michael W. Deem and Ramdas Pophale) SiO2 
 PCOD9227794
Probable space group: P 2/C
;
_chemical_formula_sum "Si O2"
_cell_formula_units_Z 30
_cell_length_a 14.399816
_cell_length_b 8.797770
_cell_length_c 19.334449
_cell_angle_alpha 90.000000
_cell_angle_beta 36.558793
_cell_angle_gamma 90.000000
_cell_volume 1458.984072
_symmetry_space_group_name_H-M "P 2/C"
_symmetry_group_IT_number 13
_symmetry_cell_setting 'monoclinic'
loop_
_space_group_symop_operation_xyz
x,y,z
-x,y,1/2-z
-x,-y,-z
x,-y,1/2+z
loop_
_atom_site_type_symbol
_atom_site_label
_atom_site_fract_x
_atom_site_fract_y
_atom_site_fract_z
Si Si1 0.561843 0.628947 0.290910
Si Si2 0.114092 0.804370 0.829043
Si Si3 0.952191 0.855740 0.176015
Si Si4 0.000000 0.288405 0.250000
Si Si5 0.069915 0.335430 0.940796
Si Si6 0.642104 0.211476 0.478975
Si Si7 0.445132 0.680737 0.619767
Si Si8 0.734883 0.870365 0.424856
O O1 0.500000 0.603667 0.250000
O O2 0.744161 0.664236 0.174733
O O3 0.464068 0.756251 0.390909
O O4 0.546103 0.482676 0.350235
O O5 0.290325 0.759954 0.742723
O O6 0.066743 0.703273 0.790500
O O7 0.106759 0.981523 0.814966
O O8 0.994514 0.773053 0.961313
O O9 0.986323 0.731629 0.098285
O O10 0.814275 0.798491 0.309086
O O11 0.111779 0.893858 0.120459
O O12 0.821364 0.257603 0.384311
O O13 0.000000 0.500000 0.000000
O O14 0.577585 0.300468 0.449977
O O15 0.655507 0.031593 0.455439
O O16 0.607031 0.765951 0.536415
#
# Coordination Sequence:
#
# PCOD9227794 Si02
#       8
#     4   4   4   2   4   4   4   4
#     4  12  28  46  65  99 144 188 233 277 340 424
#     4  11  21  44  68  98 128 179 223 285 339 406
#     4  11  23  44  71 101 133 175 230 285 345 419
#     4  10  18  40  72  96 130 168 226 282 336 394
#     4  12  27  46  66  92 140 190 227 275 343 415
#     4  11  21  43  73 102 136 175 232 287 348 413
#     4  11  24  40  70  97 140 178 223 291 351 404
#     4  11  22  43  71 107 132 168 230 299 347 400
#
# _framework density 20.562253999999999
#
# number of rings (size 3 to 8) (size 9 to 14) (size 15 to 20)
#    0.000    0.800    5.333    2.800    3.733    0.000 
#    0.000    0.667    0.000    0.000    0.000    0.000 
#    0.000    0.000    0.000    0.000    0.000    0.000 
#
# Total GULP energy -167088.010650 kJ/mol
# GULP energy per Si atom -5569.600355 kJ/mol
# Density = 2.051545 g / cm^3
# Si number density = 20.562254 Si / 1000 Ang^3
#
#
#
# Elastic Constant Matrix: (Units=GPa)
#
#
# Indices 1 2 3 4 5 6 
#
# 1 55.6597 20.8328 26.4850 0.0000 9.2954 0.0000
# 2 20.8328 43.7731 34.4859 0.0000 10.6801 0.0000
# 3 26.4850 34.4859 165.7884 0.0000 0.1056 0.0000
# 4 0.0000 0.0000 0.0000 43.5970 0.0000 -15.4531
# 5 9.2954 10.6801 0.1056 0.0000 41.4118 0.0000
# 6 0.0000 0.0000 0.0000 -15.4531 0.0000 41.2383
#
#
#
# Elastic Compliance Matrix: (Units=1/GPa)
#
#
# Indices 1 2 3 4 5 6 
#
# 1 0.022519 -0.008604 -0.001806 0.000000 -0.002831 0.000000
# 2 -0.008604 0.032824 -0.005449 0.000000 -0.006520 0.000000
# 3 -0.001806 -0.005449 0.007453 0.000000 0.001792 0.000000
# 4 0.000000 0.000000 0.000000 0.026451 0.000000 0.009912
# 5 -0.002831 -0.006520 0.001792 0.000000 0.026460 0.000000
# 6 0.000000 0.000000 0.000000 0.009912 0.000000 0.027964
#
#
# Mechanical properties :
#
#
# Convention : Reuss Voigt Hill
#
# Bulk Modulus (GPa) = 32.17764 47.64761 39.91262
# Shear Modulus (GPa) = 26.91849 37.47725 32.19787
#
# Velocity S-wave (km/s) = 3.62210 4.27385 3.96140
# Velocity P-wave (km/s) = 5.75984 6.89761 6.35424
#
# Compressibility (1/GPa) = 0.03107748
#
# Stress axis : x y z
#
# Youngs Moduli (GPa) = 44.40744 30.46584 134.18123
#
# Poissons Ratio (x) = 0.26212 0.24232
# Poissons Ratio (y) = 0.38207 0.73116
# Poissons Ratio (z) = 0.08020 0.16601
#
# Static dielectric constant tensor:
#      x y z
#    x 1.767110 0.000000 0.023210 
#    y 0.000000 1.738330 0.000000 
#    z 0.023210 0.000000 1.707300 
# 
# From -- ./inp_files/79972.got.cif
#   From: 2010.05.17/outbox.cif.g08.bks.cpg/sg13_40_cif.got.tgz:79972.got - 2010.06.03 16:44:36.
