data_PCOD9227505
_publ_section_title
;
Structure prediction by ZEFSAII (Michael W. Deem and Ramdas Pophale) SiO2 
 PCOD9227505
Probable space group: P 2/C
;
_chemical_formula_sum "Si O2"
_cell_formula_units_Z 22
_cell_length_a 10.343422
_cell_length_b 11.588121
_cell_length_c 8.647492
_cell_angle_alpha 90.000000
_cell_angle_beta 107.595078
_cell_angle_gamma 90.000000
_cell_volume 988.004787
_symmetry_space_group_name_H-M "P 2/C"
_symmetry_group_IT_number 13
_symmetry_cell_setting 'monoclinic'
loop_
_space_group_symop_operation_xyz
x,y,z
-x,y,1/2-z
-x,-y,-z
x,-y,1/2+z
loop_
_atom_site_type_symbol
_atom_site_label
_atom_site_fract_x
_atom_site_fract_y
_atom_site_fract_z
Si Si1 0.844766 0.414584 0.208256
Si Si2 0.621236 0.063849 0.167087
Si Si3 0.415146 0.802708 0.429291
Si Si4 0.000000 0.224690 0.750000
Si Si5 0.190383 0.202593 0.081876
Si Si6 0.243686 0.640533 0.170811
O O1 0.857066 0.308040 0.330672
O O2 0.752590 0.514387 0.249496
O O3 0.000000 0.459037 0.250000
O O4 0.784629 0.376742 0.021006
O O5 0.500000 0.056856 0.250000
O O6 0.760574 0.100451 0.292445
O O7 0.635080 0.935062 0.110418
O O8 0.569293 0.165335 0.032755
O O9 0.327506 0.756366 0.542067
O O10 0.368145 0.721343 0.272415
O O11 0.917015 0.163579 0.584422
O O12 0.887142 0.298586 0.799328
#
# Coordination Sequence:
#
# PCOD9227505 Si02
#       6
#     4   4   4   2   4   4
#     4  12  22  37  60  91 127 168 204 244 306 371
#     4   9  19  40  67  89 116 160 205 254 308 364
#     4   9  20  38  64  90 118 158 208 255 303 365
#     4  10  18  36  56  86 120 154 200 246 296 356
#     4  10  21  36  61  89 122 159 204 250 301 366
#     4  11  21  35  60  90 121 159 206 249 298 363
#
# _framework density 22.267097
#
# number of rings (size 3 to 8) (size 9 to 14) (size 15 to 20)
#    0.000    1.818    2.727    2.727    0.000    4.364 
#    0.000    4.545   10.000    5.455    0.000    0.000 
#    0.000    0.000    0.000    0.000    0.000    0.000 
#
# Total GULP energy -122733.538361 kJ/mol
# GULP energy per Si atom -5578.797198 kJ/mol
# Density = 2.221642 g / cm^3
# Si number density = 22.267097 Si / 1000 Ang^3
#
#
#
# Elastic Constant Matrix: (Units=GPa)
#
#
# Indices 1 2 3 4 5 6 
#
# 1 59.7131 30.9587 33.2873 0.0000 3.4108 0.0000
# 2 30.9587 60.2490 61.3954 0.0000 13.8304 0.0000
# 3 33.2873 61.3954 186.9216 0.0000 29.8520 0.0000
# 4 0.0000 0.0000 0.0000 29.0283 0.0000 6.9200
# 5 3.4108 13.8304 29.8520 0.0000 28.6872 0.0000
# 6 0.0000 0.0000 0.0000 6.9200 0.0000 28.3738
#
#
#
# Elastic Compliance Matrix: (Units=1/GPa)
#
#
# Indices 1 2 3 4 5 6 
#
# 1 0.023186 -0.011972 -0.000814 0.000000 0.003862 0.000000
# 2 -0.011972 0.031558 -0.007233 0.000000 -0.006264 0.000000
# 3 -0.000814 -0.007233 0.008753 0.000000 -0.005524 0.000000
# 4 0.000000 0.000000 0.000000 0.036576 0.000000 -0.008920
# 5 0.003862 -0.006264 -0.005524 0.000000 0.043168 0.000000
# 6 0.000000 0.000000 0.000000 -0.008920 0.000000 0.037419
#
#
# Mechanical properties :
#
#
# Convention : Reuss Voigt Hill
#
# Bulk Modulus (GPa) = 42.62457 62.01850 52.32154
# Shear Modulus (GPa) = 21.88020 29.30070 25.59045
#
# Velocity S-wave (km/s) = 3.13809 3.63143 3.39374
# Velocity P-wave (km/s) = 5.68455 6.74504 6.23737
#
# Compressibility (1/GPa) = 0.02346065
#
# Stress axis : x y z
#
# Youngs Moduli (GPa) = 43.12858 31.68771 114.25055
#
# Poissons Ratio (x) = 0.37935 0.09296
# Poissons Ratio (y) = 0.51632 0.82638
# Poissons Ratio (z) = 0.03509 0.22920
#
# Static dielectric constant tensor:
#      x y z
#    x 1.890840 0.000000 0.012160 
#    y 0.000000 1.804570 0.000000 
#    z 0.012160 0.000000 1.910780 
# 
# From -- ./inp_files/15967.got.cif
#   From: 2010.05.17/outbox.cif.g08.bks.cpg/sg13_8_cif.got.tgz:15967.got - 2010.06.03 16:44:36.
