data_PCOD9227239
_publ_section_title
;
Structure prediction by ZEFSAII (Michael W. Deem and Ramdas Pophale) SiO2 
 PCOD9227239
Probable space group: P 2/C
;
_chemical_formula_sum "Si O2"
_cell_formula_units_Z 18
_cell_length_a 6.949918
_cell_length_b 7.242580
_cell_length_c 22.987056
_cell_angle_alpha 90.000000
_cell_angle_beta 136.149689
_cell_angle_gamma 90.000000
_cell_volume 801.585025
_symmetry_space_group_name_H-M "P 2/C"
_symmetry_group_IT_number 13
_symmetry_cell_setting 'monoclinic'
loop_
_space_group_symop_operation_xyz
x,y,z
-x,y,1/2-z
-x,-y,-z
x,-y,1/2+z
loop_
_atom_site_type_symbol
_atom_site_label
_atom_site_fract_x
_atom_site_fract_y
_atom_site_fract_z
Si Si1 0.742407 0.469632 0.488282
Si Si2 0.384481 0.125235 0.552384
Si Si3 0.970306 0.148841 0.904864
Si Si4 0.500000 0.056471 0.250000
Si Si5 0.320419 0.802973 0.831190
O O1 0.615920 0.669620 0.473360
O O2 0.893528 0.349152 0.571028
O O3 0.503608 0.343310 0.407201
O O4 0.000000 0.500000 0.500000
O O5 0.213483 0.145269 0.575824
O O6 0.209599 0.998070 0.470680
O O7 0.646532 0.002195 0.629319
O O8 0.767553 0.074892 0.811748
O O9 0.527602 0.176446 0.198100
O O10 0.000000 0.755734 0.750000
#
# Coordination Sequence:
#
# PCOD9227239 Si02
#       5
#     4   4   4   2   4
#     4   9  16  32  56  76 103 144 177 207 260 318
#     4   8  15  31  51  71 102 138 170 206 255 310
#     4   8  15  28  50  75  99 135 172 207 256 308
#     4  10  18  34  54  76 108 134 170 224 264 300
#     4  10  21  35  54  79 105 137 175 216 262 309
#
# _framework density 22.455508999999999
#
# number of rings (size 3 to 8) (size 9 to 14) (size 15 to 20)
#    0.000    3.111    0.000    4.000    0.000    0.889 
#    0.000   22.222    0.000    6.667    0.000    0.000 
#    0.000    0.000    0.000    0.000    0.000    0.000 
#
# Total GULP energy -100451.646150 kJ/mol
# GULP energy per Si atom -5580.647008 kJ/mol
# Density = 2.240440 g / cm^3
# Si number density = 22.455509 Si / 1000 Ang^3
#
#
#
# Elastic Constant Matrix: (Units=GPa)
#
#
# Indices 1 2 3 4 5 6 
#
# 1 74.5445 -15.9489 -10.3190 0.0000 19.0099 0.0000
# 2 -15.9489 122.5560 22.6974 0.0000 9.8899 0.0000
# 3 -10.3190 22.6974 103.9560 0.0000 24.9092 0.0000
# 4 0.0000 0.0000 0.0000 18.7139 0.0000 10.1022
# 5 19.0099 9.8899 24.9092 0.0000 37.6047 0.0000
# 6 0.0000 0.0000 0.0000 10.1022 0.0000 -16.6470
#
#
#
# Elastic Compliance Matrix: (Units=1/GPa)
#
#
# Indices 1 2 3 4 5 6 
#
# 1 0.017686 0.002528 0.004166 0.000000 -0.012365 0.000000
# 2 0.002528 0.008910 -0.000983 0.000000 -0.002970 0.000000
# 3 0.004166 -0.000983 0.012707 0.000000 -0.010265 0.000000
# 4 0.000000 0.000000 0.000000 0.040251 0.000000 0.024426
# 5 -0.012365 -0.002970 -0.010265 0.000000 0.040424 0.000000
# 6 0.000000 0.000000 0.000000 0.024426 0.000000 -0.045248
#
#
# Mechanical properties :
#
#
# Convention : Reuss Voigt Hill
#
# Bulk Modulus (GPa) = 19.71382 32.65727 26.18554
# Shear Modulus (GPa) = 62.33223 28.24277 45.28750
#
# Velocity S-wave (km/s) = 5.27431 3.55028 4.49571
# Velocity P-wave (km/s) = 6.77416 5.60185 6.21570
#
# Compressibility (1/GPa) = 0.05072584
#
# Stress axis : x y z
#
# Youngs Moduli (GPa) = 56.54305 112.23109 78.69522
#
# Poissons Ratio (x) = -0.28369 -0.32788
# Poissons Ratio (y) = -0.14293 0.07734
# Poissons Ratio (z) = -0.23559 0.11030
#
# Static dielectric constant tensor:
#      x y z
#    x 1.912200 0.000000 0.002000 
#    y 0.000000 1.850940 0.000000 
#    z 0.002000 0.000000 1.810160 
# 
# From -- ./inp_files/74784.got.cif
#   From: 2010.05.17/outbox.cif.g08.bks.cpg/sg13_38_cif.got.tgz:74784.got - 2010.06.03 16:44:36.
