data_PCOD9227607
_publ_section_title
;
Structure prediction by ZEFSAII (Michael W. Deem and Ramdas Pophale) SiO2 
 PCOD9227607
Probable space group: P 2/C
;
_chemical_formula_sum "Si O2"
_cell_formula_units_Z 30
_cell_length_a 8.077863
_cell_length_b 17.528681
_cell_length_c 18.799224
_cell_angle_alpha 90.000000
_cell_angle_beta 32.933932
_cell_angle_gamma 90.000000
_cell_volume 1447.179126
_symmetry_space_group_name_H-M "P 2/C"
_symmetry_group_IT_number 13
_symmetry_cell_setting 'monoclinic'
loop_
_space_group_symop_operation_xyz
x,y,z
-x,y,1/2-z
-x,-y,-z
x,-y,1/2+z
loop_
_atom_site_type_symbol
_atom_site_label
_atom_site_fract_x
_atom_site_fract_y
_atom_site_fract_z
Si Si1 0.639629 0.991967 0.122889
Si Si2 0.000000 0.837862 0.250000
Si Si3 0.359462 0.281911 0.117801
Si Si4 0.380153 0.431436 0.872808
Si Si5 0.738811 0.177903 0.606564
Si Si6 0.666382 0.600974 0.614170
Si Si7 0.315930 0.874600 0.992225
Si Si8 0.493229 0.284947 0.597354
O O1 0.500000 0.013669 0.250000
O O2 0.592013 0.901568 0.130662
O O3 0.554797 0.047780 0.089095
O O4 0.000000 0.000000 0.000000
O O5 0.827884 0.881712 0.376358
O O6 0.767235 0.777873 0.298399
O O7 0.549169 0.332456 0.105107
O O8 0.000000 0.296367 0.250000
O O9 0.436757 0.192374 0.098615
O O10 0.465510 0.299709 0.999987
O O11 0.500000 0.435651 0.750000
O O12 0.409951 0.517260 0.891255
O O13 0.562103 0.365204 0.846255
O O14 0.027601 0.405221 0.998117
O O15 0.500000 0.210843 0.750000
O O16 0.777457 0.239979 0.531052
O O17 0.042900 0.154785 0.538957
O O18 0.500000 0.609198 0.750000
#
# Coordination Sequence:
#
# PCOD9227607 Si02
#       8
#     4   2   4   4   4   4   4   4
#     4   9  20  36  63  94 119 157 215 263 309 368
#     4  10  22  36  54  92 126 160 196 260 328 366
#     4  11  25  40  57  87 128 168 204 247 319 380
#     4  10  22  38  66  95 117 156 219 258 297 372
#     4  10  18  36  65  89 118 157 204 260 309 360
#     4  10  22  43  62  88 125 166 205 256 312 367
#     4  10  21  39  63  89 124 164 213 262 306 382
#     4  11  22  36  60  89 123 155 202 250 311 369
#
# _framework density 20.729983000000001
#
# number of rings (size 3 to 8) (size 9 to 14) (size 15 to 20)
#    0.000    1.867    1.333    2.000    3.733    3.200 
#    1.200    2.667    2.933    0.000    0.000    0.000 
#    0.000    0.000    0.000    0.000    0.000    0.000 
#
# Total GULP energy -167411.005667 kJ/mol
# GULP energy per Si atom -5580.366856 kJ/mol
# Density = 2.068280 g / cm^3
# Si number density = 20.729983 Si / 1000 Ang^3
#
#
#
# Elastic Constant Matrix: (Units=GPa)
#
#
# Indices 1 2 3 4 5 6 
#
# 1 61.7627 38.2843 7.9468 0.0000 22.5795 0.0000
# 2 38.2843 107.7895 17.1807 0.0000 31.8483 0.0000
# 3 7.9468 17.1807 87.9664 0.0000 13.7285 0.0000
# 4 0.0000 0.0000 0.0000 11.8069 0.0000 5.8142
# 5 22.5795 31.8483 13.7285 0.0000 30.6072 0.0000
# 6 0.0000 0.0000 0.0000 5.8142 0.0000 17.3476
#
#
#
# Elastic Compliance Matrix: (Units=1/GPa)
#
#
# Indices 1 2 3 4 5 6 
#
# 1 0.023763 -0.004739 0.000801 0.000000 -0.012959 0.000000
# 2 -0.004739 0.014359 -0.000635 0.000000 -0.011161 0.000000
# 3 0.000801 -0.000635 0.012267 0.000000 -0.005433 0.000000
# 4 0.000000 0.000000 0.000000 0.101439 0.000000 -0.033998
# 5 -0.012959 -0.011161 -0.005433 0.000000 0.056282 0.000000
# 6 0.000000 0.000000 0.000000 -0.033998 0.000000 0.069040
#
#
# Mechanical properties :
#
#
# Convention : Reuss Voigt Hill
#
# Bulk Modulus (GPa) = 24.24526 42.70471 33.47498
# Shear Modulus (GPa) = 16.66423 24.89277 20.77850
#
# Velocity S-wave (km/s) = 2.83834 3.46903 3.16941
# Velocity P-wave (km/s) = 4.73948 6.05729 5.43845
#
# Compressibility (1/GPa) = 0.04124518
#
# Stress axis : x y z
#
# Youngs Moduli (GPa) = 42.08255 69.64102 81.51644
#
# Poissons Ratio (x) = 0.33002 -0.06531
# Poissons Ratio (y) = 0.19942 0.05173
# Poissons Ratio (z) = -0.03372 0.04419
#
# Static dielectric constant tensor:
#      x y z
#    x 1.791690 0.000000 -0.035210 
#    y 0.000000 1.786950 0.000000 
#    z -0.035210 0.000000 1.744720 
# 
# From -- ./inp_files/76814.got.cif
#   From: 2010.05.17/outbox.cif.g08.bks.cpg/sg13_39_cif.got.tgz:76814.got - 2010.06.03 16:44:36.
