data_PCOD9227400
_publ_section_title
;
Structure prediction by ZEFSAII (Michael W. Deem and Ramdas Pophale) SiO2 
 PCOD9227400
Probable space group: P 2/C
;
_chemical_formula_sum "Si O2"
_cell_formula_units_Z 32
_cell_length_a 28.372990
_cell_length_b 9.600997
_cell_length_c 20.287645
_cell_angle_alpha 90.000000
_cell_angle_beta 163.379945
_cell_angle_gamma 90.000000
_cell_volume 1580.721022
_symmetry_space_group_name_H-M "P 2/C"
_symmetry_group_IT_number 13
_symmetry_cell_setting 'monoclinic'
loop_
_space_group_symop_operation_xyz
x,y,z
-x,y,1/2-z
-x,-y,-z
x,-y,1/2+z
loop_
_atom_site_type_symbol
_atom_site_label
_atom_site_fract_x
_atom_site_fract_y
_atom_site_fract_z
Si Si1 0.364991 0.121287 0.339130
Si Si2 0.253554 0.685709 0.282504
Si Si3 0.431187 0.569972 0.974860
Si Si4 0.236077 0.900574 0.016467
Si Si5 0.116144 0.091965 0.505214
Si Si6 0.365652 0.373930 0.625878
Si Si7 0.702236 0.648487 0.012251
Si Si8 0.382601 0.177533 0.221440
O O1 0.415488 0.262581 0.443998
O O2 0.298688 0.179618 0.180322
O O3 0.500000 0.000000 0.500000
O O4 0.219983 0.032698 0.176998
O O5 0.276385 0.526954 0.287952
O O6 0.136056 0.774374 0.078169
O O7 0.216985 0.692793 0.311178
O O8 0.436790 0.757744 0.524476
O O9 0.500000 0.500000 0.000000
O O10 0.549353 0.554802 0.196496
O O11 0.067598 0.953066 0.757935
O O12 0.198854 0.875887 0.044214
O O13 0.278651 0.760241 0.036811
O O14 0.380004 0.013871 0.200335
O O15 0.500000 0.337793 0.750000
O O16 0.249441 0.490922 0.439078
O O17 0.500000 0.645787 0.750000
O O18 0.717794 0.744992 0.969688
#
# Coordination Sequence:
#
# PCOD9227400 Si02
#       8
#     4   4   4   4   4   4   4   4
#     4  11  19  33  58  88 113 146 197 257 293 345
#     4  11  19  35  60  87 116 156 203 249 298 357
#     4  12  19  32  60  94 115 147 203 258 299 349
#     4  10  23  38  61  85 124 164 192 253 311 359
#     4  10  22  41  57  89 125 156 202 247 311 363
#     4  11  20  36  57  89 122 150 203 252 298 358
#     4   9  18  35  53  82 118 152 194 250 294 350
#     4  10  18  35  56  83 112 152 201 234 305 354
#
# _framework density 20.243926999999999
#
# number of rings (size 3 to 8) (size 9 to 14) (size 15 to 20)
#    0.000    1.500    6.250    2.250    0.000    1.500 
#    0.000    2.500    0.000    3.000    0.000    0.000 
#    0.000    0.000    0.000    0.000    0.000    0.000 
#
# Total GULP energy -178288.390866 kJ/mol
# GULP energy per Si atom -5571.512215 kJ/mol
# Density = 2.019785 g / cm^3
# Si number density = 20.243927 Si / 1000 Ang^3
#
#
#
# Elastic Constant Matrix: (Units=GPa)
#
#
# Indices 1 2 3 4 5 6 
#
# 1 64.7482 19.7485 10.6042 0.0000 -20.8715 0.0000
# 2 19.7485 107.7232 18.7917 0.0000 -7.3477 0.0000
# 3 10.6042 18.7917 48.6720 0.0000 -15.7007 0.0000
# 4 0.0000 0.0000 0.0000 8.1761 0.0000 6.1722
# 5 -20.8715 -7.3477 -15.7007 0.0000 19.9323 0.0000
# 6 0.0000 0.0000 0.0000 6.1722 0.0000 10.3658
#
#
#
# Elastic Compliance Matrix: (Units=1/GPa)
#
#
# Indices 1 2 3 4 5 6 
#
# 1 0.025024 -0.003527 0.005286 0.000000 0.029067 0.000000
# 2 -0.003527 0.010462 -0.004314 0.000000 -0.003235 0.000000
# 3 0.005286 -0.004314 0.029940 0.000000 0.027529 0.000000
# 4 0.000000 0.000000 0.000000 0.222176 0.000000 -0.132293
# 5 0.029067 -0.003235 0.027529 0.000000 0.101099 0.000000
# 6 0.000000 0.000000 0.000000 -0.132293 0.000000 0.175244
#
#
# Mechanical properties :
#
#
# Convention : Reuss Voigt Hill
#
# Bulk Modulus (GPa) = 16.57940 35.49246 26.03593
# Shear Modulus (GPa) = 8.48666 19.16142 13.82404
#
# Velocity S-wave (km/s) = 2.04971 3.07991 2.61602
# Velocity P-wave (km/s) = 3.71609 5.49711 4.69188
#
# Compressibility (1/GPa) = 0.06031582
#
# Stress axis : x y z
#
# Youngs Moduli (GPa) = 39.96110 95.58767 33.40014
#
# Poissons Ratio (x) = 0.33715 -0.17656
# Poissons Ratio (y) = 0.14095 0.14410
# Poissons Ratio (z) = -0.21125 0.41239
#
# Static dielectric constant tensor:
#      x y z
#    x 1.731600 0.000000 0.001200 
#    y 0.000000 1.777180 0.000000 
#    z 0.001200 0.000000 1.764970 
# 
# From -- ./inp_files/82794.got.cif
#   From: 2010.05.17/outbox.cif.g08.bks.cpg/sg13_42_cif.got.tgz:82794.got - 2010.06.03 16:44:36.
