data_PCOD9227491
_publ_section_title
;
Structure prediction by ZEFSAII (Michael W. Deem and Ramdas Pophale) SiO2 
 PCOD9227491
Probable space group: P 2/C
;
_chemical_formula_sum "Si O2"
_cell_formula_units_Z 26
_cell_length_a 8.611317
_cell_length_b 8.650015
_cell_length_c 12.784158
_cell_angle_alpha 90.000000
_cell_angle_beta 76.003552
_cell_angle_gamma 90.000000
_cell_volume 923.994524
_symmetry_space_group_name_H-M "P 2/C"
_symmetry_group_IT_number 13
_symmetry_cell_setting 'monoclinic'
loop_
_space_group_symop_operation_xyz
x,y,z
-x,y,1/2-z
-x,-y,-z
x,-y,1/2+z
loop_
_atom_site_type_symbol
_atom_site_label
_atom_site_fract_x
_atom_site_fract_y
_atom_site_fract_z
Si Si1 0.285153 0.397386 0.852539
Si Si2 0.647323 0.118507 0.796454
Si Si3 0.073137 0.912613 0.836783
Si Si4 0.204209 0.883190 0.028251
Si Si5 0.500000 0.676798 0.750000
Si Si6 0.934845 0.441443 0.877156
Si Si7 0.378826 0.357801 0.050890
O O1 0.325914 0.295001 0.744746
O O2 0.368116 0.558994 0.816554
O O3 0.104889 0.445621 0.908921
O O4 0.349602 0.291419 0.938649
O O5 0.500000 0.057372 0.750000
O O6 0.642059 0.096957 0.922438
O O7 0.816930 0.043216 0.734507
O O8 0.000000 0.819374 0.750000
O O9 0.196421 0.857579 0.905390
O O10 0.918146 0.978017 0.923065
O O11 0.133958 0.723809 0.081312
O O12 0.571016 0.735778 0.851848
O O13 0.792914 0.564605 0.899798
O O14 0.000000 0.436065 0.750000
O O15 0.500000 0.500000 0.000000
#
# Coordination Sequence:
#
# PCOD9227491 Si02
#       7
#     4   4   4   4   2   4   4
#     4  11  20  34  58  88 114 149 197 246 287 346
#     4  11  20  33  59  91 116 149 195 243 293 356
#     4   9  19  37  58  88 117 152 189 243 303 353
#     4  10  19  34  62  86 115 150 193 244 293 351
#     4  10  18  36  54  80 116 154 184 230 298 346
#     4  12  19  36  62  89 111 150 207 243 282 358
#     4  10  23  35  57  85 119 154 190 245 299 342
#
# _framework density 28.138694999999998
#
# number of rings (size 3 to 8) (size 9 to 14) (size 15 to 20)
#    0.000    1.538    5.385    0.923    2.154    0.615 
#    0.000    0.000    6.769    0.000    2.000    0.000 
#    0.000    0.000    0.000    0.000    0.000    0.000 
#
# Total GULP energy -145216.419022 kJ/mol
# GULP energy per Si atom -5585.246885 kJ/mol
# Density = 2.807465 g / cm^3
# Si number density = 28.138695 Si / 1000 Ang^3
#
#
#
# Elastic Constant Matrix: (Units=GPa)
#
#
# Indices 1 2 3 4 5 6 
#
# 1 162.0426 11.8718 51.4698 0.0000 34.9700 0.0000
# 2 11.8718 42.5869 22.9148 0.0000 -5.0167 0.0000
# 3 51.4698 22.9148 188.9084 0.0000 68.5217 0.0000
# 4 0.0000 0.0000 0.0000 12.3701 0.0000 -1.8795
# 5 34.9700 -5.0167 68.5217 0.0000 68.3009 0.0000
# 6 0.0000 0.0000 0.0000 -1.8795 0.0000 32.3372
#
#
#
# Elastic Compliance Matrix: (Units=1/GPa)
#
#
# Indices 1 2 3 4 5 6 
#
# 1 0.007208 -0.002145 -0.000484 0.000000 -0.003362 0.000000
# 2 -0.002145 0.028635 -0.006367 0.000000 0.009589 0.000000
# 3 -0.000484 -0.006367 0.009869 0.000000 -0.010121 0.000000
# 4 0.000000 0.000000 0.000000 0.081560 0.000000 0.004741
# 5 -0.003362 0.009589 -0.010121 0.000000 0.027220 0.000000
# 6 0.000000 0.000000 0.000000 0.004741 0.000000 0.031200
#
#
# Mechanical properties :
#
#
# Convention : Reuss Voigt Hill
#
# Bulk Modulus (GPa) = 36.07643 62.89451 49.48547
# Shear Modulus (GPa) = 23.48258 43.08707 33.28482
#
# Velocity S-wave (km/s) = 2.89196 3.91735 3.44304
# Velocity P-wave (km/s) = 4.89898 6.54683 5.78191
#
# Compressibility (1/GPa) = 0.02771893
#
# Stress axis : x y z
#
# Youngs Moduli (GPa) = 138.74032 34.92222 101.32935
#
# Poissons Ratio (x) = 0.07490 0.04905
# Poissons Ratio (y) = 0.29758 0.64520
# Poissons Ratio (z) = 0.06716 0.22236
#
# Static dielectric constant tensor:
#      x y z
#    x 2.339970 0.000000 0.193900 
#    y 0.000000 2.126880 0.000000 
#    z 0.193900 0.000000 2.346640 
# 
# From -- ./inp_files/29874.got.cif
#   From: 2010.05.17/outbox.cif.g08.bks.cpg/sg13_15_cif.got.tgz:29874.got - 2010.06.03 16:44:36.
