data_PCOD9227379
_publ_section_title
;
Structure prediction by ZEFSAII (Michael W. Deem and Ramdas Pophale) SiO2 
 PCOD9227379
Probable space group: P 2/C
;
_chemical_formula_sum "Si O2"
_cell_formula_units_Z 18
_cell_length_a 22.261193
_cell_length_b 7.226363
_cell_length_c 17.532711
_cell_angle_alpha 90.000000
_cell_angle_beta 15.152147
_cell_angle_gamma 90.000000
_cell_volume 737.216095
_symmetry_space_group_name_H-M "P 2/C"
_symmetry_group_IT_number 13
_symmetry_cell_setting 'monoclinic'
loop_
_space_group_symop_operation_xyz
x,y,z
-x,y,1/2-z
-x,-y,-z
x,-y,1/2+z
loop_
_atom_site_type_symbol
_atom_site_label
_atom_site_fract_x
_atom_site_fract_y
_atom_site_fract_z
Si Si1 0.000000 0.145183 0.250000
Si Si2 0.523944 0.338837 0.809319
Si Si3 0.084477 0.797186 0.242050
Si Si4 0.732804 0.959689 0.340349
Si Si5 0.622538 0.311551 0.267409
O O1 0.781882 0.272001 0.508361
O O2 0.999587 0.004015 0.179109
O O3 0.500000 0.396362 0.750000
O O4 0.489380 0.499719 0.913595
O O5 0.376004 0.154899 0.003522
O O6 0.251170 0.818405 0.108399
O O7 0.846418 0.687707 0.547982
O O8 0.236327 0.728922 0.984757
O O9 0.561235 0.851840 0.493434
O O10 0.000000 0.000000 0.000000
#
# Coordination Sequence:
#
# PCOD9227379 Si02
#       5
#     2   4   4   4   4
#     4  10  18  34  66  88 108 148 200 258 300 336
#     4  12  21  38  66  92 116 152 208 256 304 353
#     4  10  19  41  62  86 119 149 203 256 300 347
#     4  12  24  39  58  86 127 167 194 237 304 373
#     4  10  22  39  63  89 114 152 202 259 301 343
#
# _framework density 24.416179
#
# number of rings (size 3 to 8) (size 9 to 14) (size 15 to 20)
#    0.000    1.333    6.667    3.333    0.000    1.778 
#    0.000    1.111    0.000    0.000    0.000    0.000 
#    0.000    0.000    0.000    0.000    0.000    0.000 
#
# Total GULP energy -100577.289828 kJ/mol
# GULP energy per Si atom -5587.627213 kJ/mol
# Density = 2.436061 g / cm^3
# Si number density = 24.416179 Si / 1000 Ang^3
#
#
#
# Elastic Constant Matrix: (Units=GPa)
#
#
# Indices 1 2 3 4 5 6 
#
# 1 36.3022 15.8694 18.2368 0.0000 -21.6415 0.0000
# 2 15.8694 110.2019 35.8634 0.0000 -13.5170 0.0000
# 3 18.2368 35.8634 164.2427 0.0000 -21.6170 0.0000
# 4 0.0000 0.0000 0.0000 23.7984 0.0000 -12.8349
# 5 -21.6415 -13.5170 -21.6170 0.0000 32.3813 0.0000
# 6 0.0000 0.0000 0.0000 -12.8349 0.0000 15.6503
#
#
#
# Elastic Compliance Matrix: (Units=1/GPa)
#
#
# Indices 1 2 3 4 5 6 
#
# 1 0.046811 -0.002889 -0.000666 0.000000 0.029634 0.000000
# 2 -0.002889 0.010203 -0.001755 0.000000 0.001157 0.000000
# 3 -0.000666 -0.001755 0.007006 0.000000 0.003499 0.000000
# 4 0.000000 0.000000 0.000000 0.075345 0.000000 0.061791
# 5 0.029634 0.001157 0.003499 0.000000 0.053507 0.000000
# 6 0.000000 0.000000 0.000000 0.061791 0.000000 0.114572
#
#
# Mechanical properties :
#
#
# Convention : Reuss Voigt Hill
#
# Bulk Modulus (GPa) = 18.72683 50.07622 34.40152
# Shear Modulus (GPa) = 14.88698 30.41780 22.65239
#
# Velocity S-wave (km/s) = 2.47193 3.53343 3.04922
# Velocity P-wave (km/s) = 3.97916 6.09924 5.14949
#
# Compressibility (1/GPa) = 0.05339933
#
# Stress axis : x y z
#
# Youngs Moduli (GPa) = 21.36260 98.00765 142.72859
#
# Poissons Ratio (x) = 0.28316 0.09512
# Poissons Ratio (y) = 0.06172 0.25048
# Poissons Ratio (z) = 0.01424 0.17199
#
# Static dielectric constant tensor:
#      x y z
#    x 2.027440 0.000000 0.024630 
#    y 0.000000 1.986080 0.000000 
#    z 0.024630 0.000000 1.925970 
# 
# From -- ./inp_files/89665.got.cif
#   From: 2010.05.17/outbox.cif.g08.bks.cpg/sg13_45_cif.got.tgz:89665.got - 2010.06.03 16:44:36.
