data_PCOD9227513
_publ_section_title
;
Structure prediction by ZEFSAII (Michael W. Deem and Ramdas Pophale) SiO2 
 PCOD9227513
Probable space group: P 2/C
;
_chemical_formula_sum "Si O2"
_cell_formula_units_Z 32
_cell_length_a 13.681126
_cell_length_b 9.951408
_cell_length_c 19.472547
_cell_angle_alpha 90.000000
_cell_angle_beta 142.626179
_cell_angle_gamma 90.000000
_cell_volume 1609.262848
_symmetry_space_group_name_H-M "P 2/C"
_symmetry_group_IT_number 13
_symmetry_cell_setting 'monoclinic'
loop_
_space_group_symop_operation_xyz
x,y,z
-x,y,1/2-z
-x,-y,-z
x,-y,1/2+z
loop_
_atom_site_type_symbol
_atom_site_label
_atom_site_fract_x
_atom_site_fract_y
_atom_site_fract_z
Si Si1 0.807356 0.875875 0.818342
Si Si2 0.805177 0.121986 0.723044
Si Si3 0.345719 0.380314 0.210817
Si Si4 0.876429 0.451900 0.539948
Si Si5 0.675681 0.008605 0.379948
Si Si6 0.184999 0.813277 0.427376
Si Si7 0.769764 0.363504 0.796099
Si Si8 0.157883 0.746887 0.011745
O O1 0.691289 0.748303 0.763808
O O2 0.983963 0.814655 0.905831
O O3 0.763944 0.980230 0.734427
O O4 0.795935 0.956963 0.884004
O O5 0.771644 0.138216 0.624098
O O6 0.725085 0.244063 0.720130
O O7 0.999729 0.142221 0.839301
O O8 0.500000 0.360381 0.250000
O O9 0.356486 0.518615 0.259151
O O10 0.197908 0.402190 0.074529
O O11 0.814227 0.347344 0.561898
O O12 0.831415 0.607243 0.523205
O O13 0.068541 0.435744 0.641432
O O14 0.500000 0.012655 0.250000
O O15 0.713922 0.862529 0.431744
O O16 0.704471 0.118484 0.454055
O O17 0.815518 0.295298 0.894135
#
# Coordination Sequence:
#
# PCOD9227513 Si02
#       8
#     4   4   4   4   4   4   4   4
#     4  12  19  37  60  92 119 164 202 255 307 370
#     4  10  21  37  64  89 123 169 204 251 311 377
#     4  11  21  33  58  91 123 153 205 262 307 362
#     4  10  19  35  59  86 116 158 201 258 309 360
#     4  12  24  37  59  93 126 158 206 264 313 357
#     4  10  21  39  62  91 123 161 211 255 311 370
#     4  10  18  36  57  87 117 156 203 254 313 360
#     4  11  19  34  61  88 118 153 211 258 299 361
#
# _framework density 19.884881
#
# number of rings (size 3 to 8) (size 9 to 14) (size 15 to 20)
#    0.000    1.250    6.250    2.250    0.000    2.000 
#    0.000    1.875    2.750    0.750    0.000    0.000 
#    0.000    0.000    0.000    0.000    0.000    0.000 
#
# Total GULP energy -178811.277803 kJ/mol
# GULP energy per Si atom -5587.852431 kJ/mol
# Density = 1.983962 g / cm^3
# Si number density = 19.884881 Si / 1000 Ang^3
#
#
#
# Elastic Constant Matrix: (Units=GPa)
#
#
# Indices 1 2 3 4 5 6 
#
# 1 67.6107 58.2834 36.4710 0.0000 -13.4278 0.0000
# 2 58.2834 172.9998 43.3016 0.0000 -8.3403 0.0000
# 3 36.4710 43.3016 56.2627 0.0000 2.1524 0.0000
# 4 0.0000 0.0000 0.0000 13.2858 0.0000 -6.4937
# 5 -13.4278 -8.3403 2.1524 0.0000 21.0370 0.0000
# 6 0.0000 0.0000 0.0000 -6.4937 0.0000 24.0347
#
#
#
# Elastic Compliance Matrix: (Units=1/GPa)
#
#
# Indices 1 2 3 4 5 6 
#
# 1 0.033883 -0.005812 -0.018301 0.000000 0.021195 0.000000
# 2 -0.005812 0.008410 -0.002701 0.000000 -0.000100 0.000000
# 3 -0.018301 -0.002701 0.032330 0.000000 -0.016060 0.000000
# 4 0.000000 0.000000 0.000000 0.086720 0.000000 0.023430
# 5 0.021195 -0.000100 -0.016060 0.000000 0.062668 0.000000
# 6 0.000000 0.000000 0.000000 0.023430 0.000000 0.047937
#
#
# Mechanical properties :
#
#
# Convention : Reuss Voigt Hill
#
# Bulk Modulus (GPa) = 47.63311 63.66500 55.64906
# Shear Modulus (GPa) = 15.03425 22.25932 18.64679
#
# Velocity S-wave (km/s) = 2.75265 3.34939 3.06557
# Velocity P-wave (km/s) = 5.84031 6.85887 6.36998
#
# Compressibility (1/GPa) = 0.02099380
#
# Stress axis : x y z
#
# Youngs Moduli (GPa) = 29.51362 118.90917 30.93101
#
# Poissons Ratio (x) = 0.69116 0.56607
# Poissons Ratio (y) = 0.17155 0.08354
# Poissons Ratio (z) = 0.54013 0.32115
#
# Static dielectric constant tensor:
#      x y z
#    x 1.692940 0.000000 0.030840 
#    y 0.000000 1.735480 0.000000 
#    z 0.030840 0.000000 1.697510 
# 
# From -- ./inp_files/79837.got.cif
#   From: 2010.05.17/outbox.cif.g08.bks.cpg/sg13_40_cif.got.tgz:79837.got - 2010.06.03 16:44:36.
