data_PCOD9227806
_publ_section_title
;
Structure prediction by ZEFSAII (Michael W. Deem and Ramdas Pophale) SiO2 
 PCOD9227806
Probable space group: P 2/C
;
_chemical_formula_sum "Si O2"
_cell_formula_units_Z 28
_cell_length_a 7.354335
_cell_length_b 16.558654
_cell_length_c 11.889518
_cell_angle_alpha 90.000000
_cell_angle_beta 78.850451
_cell_angle_gamma 90.000000
_cell_volume 1420.552823
_symmetry_space_group_name_H-M "P 2/C"
_symmetry_group_IT_number 13
_symmetry_cell_setting 'monoclinic'
loop_
_space_group_symop_operation_xyz
x,y,z
-x,y,1/2-z
-x,-y,-z
x,-y,1/2+z
loop_
_atom_site_type_symbol
_atom_site_label
_atom_site_fract_x
_atom_site_fract_y
_atom_site_fract_z
Si Si1 0.705813 0.365680 0.773792
Si Si2 0.500000 0.244151 0.250000
Si Si3 0.509508 0.927550 0.376032
Si Si4 0.635620 0.898008 0.888433
Si Si5 0.026170 0.584981 0.058832
Si Si6 0.818931 0.806223 0.346790
Si Si7 0.132083 0.731092 0.913185
Si Si8 0.000000 0.859417 0.750000
O O1 0.500000 0.385716 0.750000
O O2 0.790156 0.404969 0.880969
O O3 0.716717 0.268795 0.795547
O O4 0.855935 0.391413 0.661378
O O5 0.437387 0.183675 0.157803
O O6 0.675743 0.288392 0.175555
O O7 0.500000 0.902025 0.250000
O O8 0.356200 0.892527 0.478281
O O9 0.702809 0.886788 0.386384
O O10 0.506851 0.024441 0.382957
O O11 0.826637 0.913287 0.803069
O O12 0.031704 0.648648 0.955463
O O13 0.000000 0.500000 0.000000
O O14 0.851587 0.770690 0.466373
O O15 0.000000 0.822775 0.250000
O O16 0.035998 0.798420 0.848144
#
# Coordination Sequence:
#
# PCOD9227806 Si02
#       8
#     4   2   4   4   4   4   4   2
#     4  10  21  41  66  95 128 166 208 261 326 380
#     4  10  18  42  60  78 130 160 208 246 306 376
#     4  11  23  36  59  86 117 160 211 258 320 365
#     4  10  22  39  53  86 118 161 200 266 308 361
#     4  10  22  43  66  94 134 161 203 271 318 379
#     4  11  21  38  63  90 124 159 212 265 312 371
#     4  10  21  41  61  89 118 168 199 256 313 375
#     4  10  24  36  60  80 120 164 208 248 310 384
#
# _framework density 19.710636999999998
#
# number of rings (size 3 to 8) (size 9 to 14) (size 15 to 20)
#    0.000    1.714    5.000    0.429    3.000    2.857 
#    3.857    1.429    0.000    0.000    0.000    0.000 
#    0.000    0.000    0.000    0.000    0.000    0.000 
#
# Total GULP energy -155900.398092 kJ/mol
# GULP energy per Si atom -5567.871360 kJ/mol
# Density = 1.966577 g / cm^3
# Si number density = 19.710637 Si / 1000 Ang^3
#
#
#
# Elastic Constant Matrix: (Units=GPa)
#
#
# Indices 1 2 3 4 5 6 
#
# 1 61.4724 2.8350 12.9061 0.0000 -3.9620 0.0000
# 2 2.8350 60.7781 32.1496 0.0000 -6.4174 0.0000
# 3 12.9061 32.1496 121.5098 0.0000 -4.8934 0.0000
# 4 0.0000 0.0000 0.0000 14.5909 0.0000 4.7714
# 5 -3.9620 -6.4174 -4.8934 0.0000 22.1915 0.0000
# 6 0.0000 0.0000 0.0000 4.7714 0.0000 8.2404
#
#
#
# Elastic Compliance Matrix: (Units=1/GPa)
#
#
# Indices 1 2 3 4 5 6 
#
# 1 0.016800 0.000454 -0.001794 0.000000 0.002735 0.000000
# 2 0.000454 0.019590 -0.005045 0.000000 0.004634 0.000000
# 3 -0.001794 -0.005045 0.009770 0.000000 0.000375 0.000000
# 4 0.000000 0.000000 0.000000 0.084544 0.000000 -0.048954
# 5 0.002735 0.004634 0.000375 0.000000 0.046973 0.000000
# 6 0.000000 0.000000 0.000000 -0.048954 0.000000 0.149700
#
#
# Mechanical properties :
#
#
# Convention : Reuss Voigt Hill
#
# Bulk Modulus (GPa) = 29.94914 37.72685 33.83800
# Shear Modulus (GPa) = 14.23377 22.06253 18.14815
#
# Velocity S-wave (km/s) = 2.69017 3.34925 3.03764
# Velocity P-wave (km/s) = 4.98766 5.84282 5.43210
#
# Compressibility (1/GPa) = 0.03338994
#
# Stress axis : x y z
#
# Youngs Moduli (GPa) = 59.52553 51.04665 102.35121
#
# Poissons Ratio (x) = -0.02319 0.18366
# Poissons Ratio (y) = -0.02705 0.51635
# Poissons Ratio (z) = 0.10681 0.25752
#
# Static dielectric constant tensor:
#      x y z
#    x 1.759710 0.000000 -0.027960 
#    y 0.000000 1.683840 0.000000 
#    z -0.027960 0.000000 1.520520 
# 
# From -- ./inp_files/30111.got.cif
#   From: 2010.05.17/outbox.cif.g08.bks.cpg/sg13_16_cif.got.tgz:30111.got - 2010.06.03 16:44:36.
