data_PCOD9227072
_publ_section_title
;
Structure prediction by ZEFSAII (Michael W. Deem and Ramdas Pophale) SiO2 
 PCOD9227072
Probable space group: P 2/C
;
_chemical_formula_sum "Si O2"
_cell_formula_units_Z 32
_cell_length_a 9.805715
_cell_length_b 17.804728
_cell_length_c 13.781769
_cell_angle_alpha 90.000000
_cell_angle_beta 146.616069
_cell_angle_gamma 90.000000
_cell_volume 1323.966291
_symmetry_space_group_name_H-M "P 2/C"
_symmetry_group_IT_number 13
_symmetry_cell_setting 'monoclinic'
loop_
_space_group_symop_operation_xyz
x,y,z
-x,y,1/2-z
-x,-y,-z
x,-y,1/2+z
loop_
_atom_site_type_symbol
_atom_site_label
_atom_site_fract_x
_atom_site_fract_y
_atom_site_fract_z
Si Si1 0.724534 0.022896 0.301652
Si Si2 0.282537 0.119214 0.826636
Si Si3 0.630424 0.322817 0.225277
Si Si4 0.287557 0.487460 0.209042
Si Si5 0.251507 0.779913 0.955561
Si Si6 0.454794 0.357026 0.839546
Si Si7 0.487310 0.831573 0.625682
Si Si8 0.099319 0.232142 0.576856
O O1 0.500000 0.017005 0.250000
O O2 0.679021 0.963508 0.189700
O O3 0.711338 0.107645 0.251547
O O4 0.000000 0.000000 0.500000
O O5 0.085172 0.163389 0.641991
O O6 0.534683 0.165921 0.954879
O O7 0.274688 0.125918 0.938086
O O8 0.500000 0.337576 0.250000
O O9 0.693286 0.406449 0.226641
O O10 0.477560 0.255631 0.083953
O O11 0.872920 0.275491 0.394383
O O12 0.500000 0.486651 0.250000
O O13 0.369248 0.560483 0.319720
O O14 0.000000 0.500000 0.000000
O O15 0.000000 0.794463 0.750000
O O16 0.317084 0.690644 0.982995
O O17 0.240158 0.793719 0.063968
O O18 0.500000 0.361595 0.750000
O O19 0.232217 0.298169 0.715726
O O20 0.500000 0.822494 0.750000
#
# Coordination Sequence:
#
# PCOD9227072 Si02
#       8
#     4   4   4   4   4   4   4   4
#     4  11  24  45  71 102 139 177 227 286 343 405
#     4  11  22  40  67  98 128 173 229 286 337 407
#     4  10  20  35  57  84 125 175 228 271 329 410
#     4  10  18  32  58  92 125 174 230 282 342 399
#     4  10  20  34  61  96 132 167 210 281 357 406
#     4   8  16  30  51  84 120 160 211 264 336 402
#     4  10  23  43  63  93 136 182 225 272 342 413
#     4  10  18  34  58  88 125 159 214 279 340 400
#
# _framework density 24.169801
#
# number of rings (size 3 to 8) (size 9 to 14) (size 15 to 20)
#    0.000    2.000    1.250    3.750    0.000    1.000 
#    0.000   12.500    0.000   12.750    0.000    0.000 
#    0.000    0.000    0.000    0.000    0.000    0.000 
#
# Total GULP energy -178214.269740 kJ/mol
# GULP energy per Si atom -5569.195929 kJ/mol
# Density = 2.411479 g / cm^3
# Si number density = 24.169801 Si / 1000 Ang^3
#
#
#
# Elastic Constant Matrix: (Units=GPa)
#
#
# Indices 1 2 3 4 5 6 
#
# 1 92.2416 34.0611 29.3703 0.0000 -4.9013 0.0000
# 2 34.0611 199.6159 11.7686 0.0000 -15.4686 0.0000
# 3 29.3703 11.7686 77.6984 0.0000 -13.0116 0.0000
# 4 0.0000 0.0000 0.0000 35.0657 0.0000 1.1807
# 5 -4.9013 -15.4686 -13.0116 0.0000 34.0757 0.0000
# 6 0.0000 0.0000 0.0000 1.1807 0.0000 25.9013
#
#
#
# Elastic Compliance Matrix: (Units=1/GPa)
#
#
# Indices 1 2 3 4 5 6 
#
# 1 0.013059 -0.002013 -0.004775 0.000000 -0.000859 0.000000
# 2 -0.002013 0.005515 0.000317 0.000000 0.002335 0.000000
# 3 -0.004775 0.000317 0.015530 0.000000 0.005387 0.000000
# 4 0.000000 0.000000 0.000000 0.028562 0.000000 -0.001302
# 5 -0.000859 0.002335 0.005387 0.000000 0.032340 0.000000
# 6 0.000000 0.000000 0.000000 -0.001302 0.000000 0.038667
#
#
# Mechanical properties :
#
#
# Convention : Reuss Voigt Hill
#
# Bulk Modulus (GPa) = 47.25852 57.77287 52.51570
# Shear Modulus (GPa) = 32.53707 38.63228 35.58467
#
# Velocity S-wave (km/s) = 3.67302 4.00230 3.84119
# Velocity P-wave (km/s) = 6.13052 6.73147 6.43801
#
# Compressibility (1/GPa) = 0.02116021
#
# Stress axis : x y z
#
# Youngs Moduli (GPa) = 76.57298 181.30891 64.39346
#
# Poissons Ratio (x) = 0.36505 0.30751
# Poissons Ratio (y) = 0.15417 -0.02039
# Poissons Ratio (z) = 0.36567 -0.05742
#
# Static dielectric constant tensor:
#      x y z
#    x 2.053020 0.000000 0.079890 
#    y 0.000000 1.953050 0.000000 
#    z 0.079890 0.000000 2.021740 
# 
# From -- ./inp_files/51682.got.cif
#   From: 2010.05.17/outbox.cif.g08.bks.cpg/sg13_26_cif.got.tgz:51682.got - 2010.06.03 16:44:36.
