data_PCOD9227898
_publ_section_title
;
Structure prediction by ZEFSAII (Michael W. Deem and Ramdas Pophale) SiO2 
 PCOD9227898
Probable space group: P 2/C
;
_chemical_formula_sum "Si O2"
_cell_formula_units_Z 26
_cell_length_a 14.712285
_cell_length_b 20.715702
_cell_length_c 5.268410
_cell_angle_alpha 90.000000
_cell_angle_beta 114.143622
_cell_angle_gamma 90.000000
_cell_volume 1465.221168
_symmetry_space_group_name_H-M "P 2/C"
_symmetry_group_IT_number 13
_symmetry_cell_setting 'monoclinic'
loop_
_space_group_symop_operation_xyz
x,y,z
-x,y,1/2-z
-x,-y,-z
x,-y,1/2+z
loop_
_atom_site_type_symbol
_atom_site_label
_atom_site_fract_x
_atom_site_fract_y
_atom_site_fract_z
Si Si1 0.223409 0.752720 0.524218
Si Si2 0.000000 0.223357 0.750000
Si Si3 0.705703 0.828104 0.385213
Si Si4 0.500000 0.774875 0.250000
Si Si5 0.000000 0.133493 0.250000
Si Si6 0.595415 0.665099 0.693445
Si Si7 0.387076 0.526939 0.914059
Si Si8 0.192684 0.042983 0.423099
O O1 0.105096 0.738580 0.385440
O O2 0.244696 0.801519 0.315497
O O3 0.300437 0.692461 0.576360
O O4 0.249757 0.788358 0.821811
O O5 0.004535 0.177979 0.505306
O O6 0.588655 0.814620 0.230684
O O7 0.722513 0.903361 0.449159
O O8 0.550925 0.727236 0.506583
O O9 0.905899 0.086572 0.164388
O O10 0.500000 0.642341 0.750000
O O11 0.614857 0.603194 0.538922
O O12 0.339446 0.512341 0.588008
O O13 0.500000 0.500000 0.000000
O O14 0.195305 0.992270 0.655958
#
# Coordination Sequence:
#
# PCOD9227898 Si02
#       8
#     4   2   4   2   2   4   4   4
#     4  11  22  36  57  82 111 147 177 231 274 331
#     4  12  20  39  58  82 114 139 180 222 288 328
#     4  11  22  39  56  81 106 143 180 226 286 318
#     4  10  22  36  58  80 112 144 186 232 266 338
#     4  12  22  37  60  80 106 137 174 230 286 340
#     4  11  20  33  56  85 113 146 187 221 270 328
#     4  10  19  30  49  77 117 147 171 219 269 310
#     4  12  23  38  55  80 107 135 181 226 275 345
#
# _framework density 17.744762000000001
#
# number of rings (size 3 to 8) (size 9 to 14) (size 15 to 20)
#    0.000    0.923    6.154    3.231    0.000    0.000 
#    0.000    0.769    0.000    0.000    0.000    1.077 
#    0.000    0.000    0.000    0.000    0.000    0.000 
#
# Total GULP energy -144944.341526 kJ/mol
# GULP energy per Si atom -5574.782366 kJ/mol
# Density = 1.770437 g / cm^3
# Si number density = 17.744762 Si / 1000 Ang^3
#
#
#
# Elastic Constant Matrix: (Units=GPa)
#
#
# Indices 1 2 3 4 5 6 
#
# 1 75.7700 16.6540 23.2090 0.0000 25.0322 0.0000
# 2 16.6540 59.9168 11.0867 0.0000 20.7533 0.0000
# 3 23.2090 11.0867 75.8163 0.0000 -4.0493 0.0000
# 4 0.0000 0.0000 0.0000 23.0134 0.0000 -5.8377
# 5 25.0322 20.7533 -4.0493 0.0000 37.9025 0.0000
# 6 0.0000 0.0000 0.0000 -5.8377 0.0000 11.9464
#
#
#
# Elastic Compliance Matrix: (Units=1/GPa)
#
#
# Indices 1 2 3 4 5 6 
#
# 1 0.019883 0.000697 -0.006950 0.000000 -0.014256 0.000000
# 2 0.000697 0.021667 -0.004063 0.000000 -0.012758 0.000000
# 3 -0.006950 -0.004063 0.016369 0.000000 0.008564 0.000000
# 4 0.000000 0.000000 0.000000 0.049601 0.000000 0.024238
# 5 -0.014256 -0.012758 0.008564 0.000000 0.043699 0.000000
# 6 0.000000 0.000000 0.000000 0.024238 0.000000 0.095552
#
#
# Mechanical properties :
#
#
# Convention : Reuss Voigt Hill
#
# Bulk Modulus (GPa) = 26.81913 34.82250 30.82081
# Shear Modulus (GPa) = 17.86788 25.27602 21.57195
#
# Velocity S-wave (km/s) = 3.17667 3.77825 3.49044
# Velocity P-wave (km/s) = 5.34805 6.22095 5.80094
#
# Compressibility (1/GPa) = 0.03728682
#
# Stress axis : x y z
#
# Youngs Moduli (GPa) = 50.29390 46.15350 61.09168
#
# Poissons Ratio (x) = -0.03218 0.42459
# Poissons Ratio (y) = -0.03506 0.24823
# Poissons Ratio (z) = 0.34954 0.18753
#
# Static dielectric constant tensor:
#      x y z
#    x 1.672810 0.000000 0.013260 
#    y 0.000000 1.590190 0.000000 
#    z 0.013260 0.000000 1.760110 
# 
# From -- ./inp_files/5166.got.cif
#   From: 2010.05.17/outbox.cif.g08.bks.cpg/sg13_3_cif.got.tgz:5166.got - 2010.06.03 16:44:36.
