data_PCOD9227890
_publ_section_title
;
Structure prediction by ZEFSAII (Michael W. Deem and Ramdas Pophale) SiO2 
 PCOD9227890
Probable space group: P 2/C
;
_chemical_formula_sum "Si O2"
_cell_formula_units_Z 28
_cell_length_a 33.865291
_cell_length_b 5.347102
_cell_length_c 26.416499
_cell_angle_alpha 90.000000
_cell_angle_beta 21.283813
_cell_angle_gamma 90.000000
_cell_volume 1736.364130
_symmetry_space_group_name_H-M "P 2/C"
_symmetry_group_IT_number 13
_symmetry_cell_setting 'monoclinic'
loop_
_space_group_symop_operation_xyz
x,y,z
-x,y,1/2-z
-x,-y,-z
x,-y,1/2+z
loop_
_atom_site_type_symbol
_atom_site_label
_atom_site_fract_x
_atom_site_fract_y
_atom_site_fract_z
Si Si1 0.453898 0.087998 0.408107
Si Si2 0.369915 0.483255 0.166350
Si Si3 0.679983 0.324691 0.160592
Si Si4 0.404921 0.581971 0.405212
Si Si5 0.780839 0.392270 0.452833
Si Si6 0.878956 0.118782 0.873728
Si Si7 0.614219 0.983117 0.394829
O O1 0.582129 0.150268 0.258599
O O2 0.404148 0.332516 0.440295
O O3 0.411615 0.060540 0.515882
O O4 0.430504 0.832816 0.406192
O O5 0.349087 0.429105 0.249864
O O6 0.324554 0.746847 0.201976
O O7 0.329332 0.246760 0.182966
O O8 0.500000 0.500000 0.000000
O O9 0.699017 0.547622 0.097653
O O10 0.792311 0.171178 0.022564
O O11 0.500000 0.548691 0.250000
O O12 0.292216 0.613332 0.509715
O O13 0.842939 0.135328 0.389251
O O14 0.859053 0.635934 0.362456
O O15 0.000000 0.104995 0.750000
O O16 0.500000 0.000000 0.500000
#
# Coordination Sequence:
#
# PCOD9227890 Si02
#       7
#     4   4   4   4   4   4   4
#     4  12  22  32  50  73 112 147 177 201 247 317
#     4  10  19  30  49  70 104 140 169 206 258 311
#     4  10  22  32  55  75 109 144 173 208 267 306
#     4  12  22  33  48  74 106 147 184 200 242 317
#     4  10  22  36  53  75 109 140 175 219 262 308
#     4  10  21  37  56  76 104 135 178 227 274 309
#     4  10  20  31  47  68 103 143 171 209 252 288
#
# _framework density 16.12565
#
# number of rings (size 3 to 8) (size 9 to 14) (size 15 to 20)
#    0.857    0.571    4.286    3.429    4.000    0.000 
#    0.000    0.000    0.000    0.000    0.000    0.000 
#    0.000   22.857    0.000    0.000    0.000    0.000 
#
# Total GULP energy -156000.554024 kJ/mol
# GULP energy per Si atom -5571.448358 kJ/mol
# Density = 1.608895 g / cm^3
# Si number density = 16.125650 Si / 1000 Ang^3
#
#
#
# Elastic Constant Matrix: (Units=GPa)
#
#
# Indices 1 2 3 4 5 6 
#
# 1 119.7909 65.8829 50.0774 0.0000 4.7447 0.0000
# 2 65.8829 163.4806 27.2756 0.0000 5.2064 0.0000
# 3 50.0774 27.2756 47.2072 0.0000 -6.2276 0.0000
# 4 0.0000 0.0000 0.0000 10.8916 0.0000 -0.5435
# 5 4.7447 5.2064 -6.2276 0.0000 23.0043 0.0000
# 6 0.0000 0.0000 0.0000 -0.5435 0.0000 32.8085
#
#
#
# Elastic Compliance Matrix: (Units=1/GPa)
#
#
# Indices 1 2 3 4 5 6 
#
# 1 0.018670 -0.004200 -0.018419 0.000000 -0.007886 0.000000
# 2 -0.004200 0.007878 -0.000226 0.000000 -0.000978 0.000000
# 3 -0.018419 -0.000226 0.042892 0.000000 0.015462 0.000000
# 4 0.000000 0.000000 0.000000 0.091890 0.000000 0.001522
# 5 -0.007886 -0.000978 0.015462 0.000000 0.049504 0.000000
# 6 0.000000 0.000000 0.000000 0.001522 0.000000 0.030505
#
#
# Mechanical properties :
#
#
# Convention : Reuss Voigt Hill
#
# Bulk Modulus (GPa) = 42.10285 68.55006 55.32645
# Shear Modulus (GPa) = 16.95234 25.82373 21.38804
#
# Velocity S-wave (km/s) = 3.24584 4.00610 3.64584
# Velocity P-wave (km/s) = 6.34139 8.00004 7.21851
#
# Compressibility (1/GPa) = 0.02375136
#
# Stress axis : x y z
#
# Youngs Moduli (GPa) = 53.56239 126.93142 23.31433
#
# Poissons Ratio (x) = 0.53308 0.42942
# Poissons Ratio (y) = 0.22495 0.00527
# Poissons Ratio (z) = 0.98655 0.02867
#
# Static dielectric constant tensor:
#      x y z
#    x 1.520700 0.000000 0.017950 
#    y 0.000000 1.612630 0.000000 
#    z 0.017950 0.000000 1.507110 
# 
# From -- ./inp_files/82318.got.cif
#   From: 2010.05.17/outbox.cif.g08.bks.cpg/sg13_42_cif.got.tgz:82318.got - 2010.06.03 16:44:36.
