data_PCOD9227199
_publ_section_title
;
Structure prediction by ZEFSAII (Michael W. Deem and Ramdas Pophale) SiO2 
 PCOD9227199
Probable space group: P 2/C
;
_chemical_formula_sum "Si O2"
_cell_formula_units_Z 26
_cell_length_a 8.020918
_cell_length_b 9.050456
_cell_length_c 18.599080
_cell_angle_alpha 90.000000
_cell_angle_beta 58.221550
_cell_angle_gamma 90.000000
_cell_volume 1147.760652
_symmetry_space_group_name_H-M "P 2/C"
_symmetry_group_IT_number 13
_symmetry_cell_setting 'monoclinic'
loop_
_space_group_symop_operation_xyz
x,y,z
-x,y,1/2-z
-x,-y,-z
x,-y,1/2+z
loop_
_atom_site_type_symbol
_atom_site_label
_atom_site_fract_x
_atom_site_fract_y
_atom_site_fract_z
Si Si1 0.726317 0.029838 0.216898
Si Si2 0.638139 0.537400 0.578738
Si Si3 0.000000 0.784582 0.750000
Si Si4 0.247311 0.617468 0.586392
Si Si5 0.358844 0.083638 0.980076
Si Si6 0.722663 0.757972 0.129215
Si Si7 0.871246 0.170608 0.042072
O O1 0.500000 0.071195 0.250000
O O2 0.861947 0.099013 0.122880
O O3 0.820178 0.107428 0.266025
O O4 0.741944 0.851779 0.197950
O O5 0.416012 0.554391 0.600570
O O6 0.765235 0.491096 0.478848
O O7 0.661076 0.411765 0.634608
O O8 0.721470 0.694327 0.581488
O O9 0.938170 0.670999 0.826800
O O10 0.313147 0.769409 0.534362
O O11 0.426689 0.146082 0.887124
O O12 0.205094 0.957564 0.993006
O O13 0.500000 0.000000 0.000000
O O14 0.925743 0.772936 0.037856
#
# Coordination Sequence:
#
# PCOD9227199 Si02
#       7
#     4   4   2   4   4   4   4
#     4  11  24  42  63  92 127 168 214 267 327 382
#     4  10  20  38  65  90 128 165 209 261 319 378
#     4  12  24  42  66  94 132 166 224 268 326 388
#     4  10  21  38  61 101 122 165 210 261 317 386
#     4  10  18  33  61  88 117 152 207 254 300 355
#     4  10  22  38  57  90 124 156 208 261 310 375
#     4  11  20  39  64  93 121 163 214 264 316 374
#
# _framework density 22.652805000000001
#
# number of rings (size 3 to 8) (size 9 to 14) (size 15 to 20)
#    0.000    1.538    1.538    6.000    2.154    0.000 
#    0.000    3.846    0.000    1.846    0.000    0.000 
#    0.000    0.000    0.000    0.000    0.000    0.000 
#
# Total GULP energy -144967.593171 kJ/mol
# GULP energy per Si atom -5575.676660 kJ/mol
# Density = 2.260125 g / cm^3
# Si number density = 22.652805 Si / 1000 Ang^3
#
#
#
# Elastic Constant Matrix: (Units=GPa)
#
#
# Indices 1 2 3 4 5 6 
#
# 1 58.8666 13.0874 -4.6252 0.0000 -3.9766 0.0000
# 2 13.0874 125.2008 2.2521 0.0000 0.7954 0.0000
# 3 -4.6252 2.2521 57.7088 0.0000 -3.3914 0.0000
# 4 0.0000 0.0000 0.0000 10.0781 0.0000 4.2158
# 5 -3.9766 0.7954 -3.3914 0.0000 14.8922 0.0000
# 6 0.0000 0.0000 0.0000 4.2158 0.0000 49.2724
#
#
#
# Elastic Compliance Matrix: (Units=1/GPa)
#
#
# Indices 1 2 3 4 5 6 
#
# 1 0.017920 -0.001940 0.001824 0.000000 0.005304 0.000000
# 2 -0.001940 0.008206 -0.000539 0.000000 -0.001079 0.000000
# 3 0.001824 -0.000539 0.017764 0.000000 0.004561 0.000000
# 4 0.000000 0.000000 0.000000 0.102908 0.000000 -0.008805
# 5 0.005304 -0.001079 0.004561 0.000000 0.069662 0.000000
# 6 0.000000 0.000000 0.000000 -0.008805 0.000000 0.021049
#
#
# Mechanical properties :
#
#
# Convention : Reuss Voigt Hill
#
# Bulk Modulus (GPa) = 23.48513 29.24496 26.36504
# Shear Modulus (GPa) = 19.76181 30.25267 25.00724
#
# Velocity S-wave (km/s) = 2.95681 3.65840 3.32616
# Velocity P-wave (km/s) = 4.69541 5.54827 5.13956
#
# Compressibility (1/GPa) = 0.04258014
#
# Stress axis : x y z
#
# Youngs Moduli (GPa) = 55.80229 121.85487 56.29479
#
# Poissons Ratio (x) = 0.23637 -0.10266
# Poissons Ratio (y) = 0.10824 0.03035
# Poissons Ratio (z) = -0.10177 0.06570
#
# Static dielectric constant tensor:
#      x y z
#    x 1.961350 0.000000 0.005120 
#    y 0.000000 1.863670 0.000000 
#    z 0.005120 0.000000 1.946850 
# 
# From -- ./inp_files/75930.got.cif
#   From: 2010.05.17/outbox.cif.g08.bks.cpg/sg13_38_cif.got.tgz:75930.got - 2010.06.03 16:44:36.
