data_PCOD9227564
_publ_section_title
;
Structure prediction by ZEFSAII (Michael W. Deem and Ramdas Pophale) SiO2 
 PCOD9227564
Probable space group: P 2/C
;
_chemical_formula_sum "Si O2"
_cell_formula_units_Z 24
_cell_length_a 18.280472
_cell_length_b 6.577846
_cell_length_c 15.632257
_cell_angle_alpha 90.000000
_cell_angle_beta 146.330776
_cell_angle_gamma 90.000000
_cell_volume 1042.111125
_symmetry_space_group_name_H-M "P 2/C"
_symmetry_group_IT_number 13
_symmetry_cell_setting 'monoclinic'
loop_
_space_group_symop_operation_xyz
x,y,z
-x,y,1/2-z
-x,-y,-z
x,-y,1/2+z
loop_
_atom_site_type_symbol
_atom_site_label
_atom_site_fract_x
_atom_site_fract_y
_atom_site_fract_z
Si Si1 0.030139 0.335777 0.600238
Si Si2 0.000000 0.653489 0.250000
Si Si3 0.500000 0.443120 0.750000
Si Si4 0.252655 0.240893 0.188005
Si Si5 0.703801 0.803336 0.952589
Si Si6 0.705847 0.939123 0.137382
Si Si7 0.411936 0.367888 0.849547
O O1 0.020752 0.457334 0.681041
O O2 0.901672 0.193455 0.472180
O O3 0.000000 0.500000 0.500000
O O4 0.159891 0.197476 0.724836
O O5 0.137603 0.775820 0.390350
O O6 0.624597 0.592858 0.889262
O O7 0.468585 0.334356 0.809442
O O8 0.323914 0.142559 0.173884
O O9 0.286180 0.480223 0.213841
O O10 0.284768 0.161388 0.313336
O O11 0.667217 0.934650 0.000146
O O12 0.616397 0.826619 0.120604
O O13 0.500000 0.500000 0.000000
#
# Coordination Sequence:
#
# PCOD9227564 Si02
#       7
#     4   2   2   4   4   4   4
#     4  10  18  36  61  87 115 153 190 238 293 346
#     4   8  18  32  58  82 116 154 188 232 300 342
#     4  10  20  38  60  82 124 154 192 244 294 348
#     4  10  22  39  59  89 119 152 196 240 290 351
#     4   9  19  38  58  83 121 157 184 244 301 336
#     4  11  21  39  63  87 116 155 196 240 292 350
#     4  11  22  40  59  85 116 158 197 237 292 347
#
# _framework density 23.030172
#
# number of rings (size 3 to 8) (size 9 to 14) (size 15 to 20)
#    0.000    2.000    3.333    0.500    0.000    0.667 
#    3.000    2.500    0.000    0.000    0.000    0.000 
#    0.000    0.000    0.000    0.000    0.000    0.000 
#
# Total GULP energy -133608.271878 kJ/mol
# GULP energy per Si atom -5567.011328 kJ/mol
# Density = 2.297775 g / cm^3
# Si number density = 23.030172 Si / 1000 Ang^3
#
#
#
# Elastic Constant Matrix: (Units=GPa)
#
#
# Indices 1 2 3 4 5 6 
#
# 1 185.1739 25.6091 11.1465 0.0000 -30.5646 0.0000
# 2 25.6091 29.6984 -2.7657 0.0000 3.4451 0.0000
# 3 11.1465 -2.7657 56.5950 0.0000 13.4187 0.0000
# 4 0.0000 0.0000 0.0000 19.1538 0.0000 -10.9544
# 5 -30.5646 3.4451 13.4187 0.0000 49.4214 0.0000
# 6 0.0000 0.0000 0.0000 -10.9544 0.0000 25.5849
#
#
#
# Elastic Compliance Matrix: (Units=1/GPa)
#
#
# Indices 1 2 3 4 5 6 
#
# 1 0.007684 -0.007658 -0.003357 0.000000 0.006198 0.000000
# 2 -0.007658 0.041879 0.005739 0.000000 -0.009214 0.000000
# 3 -0.003357 0.005739 0.020519 0.000000 -0.008048 0.000000
# 4 0.000000 0.000000 0.000000 0.069139 0.000000 0.029603
# 5 0.006198 -0.009214 -0.008048 0.000000 0.026894 0.000000
# 6 0.000000 0.000000 0.000000 0.029603 0.000000 0.051760
#
#
# Mechanical properties :
#
#
# Convention : Reuss Voigt Hill
#
# Bulk Modulus (GPa) = 16.79811 37.71635 27.25723
# Shear Modulus (GPa) = 20.13926 34.66386 27.40156
#
# Velocity S-wave (km/s) = 2.96036 3.88384 3.45311
# Velocity P-wave (km/s) = 4.35830 6.04357 5.26875
#
# Compressibility (1/GPa) = 0.05953050
#
# Stress axis : x y z
#
# Youngs Moduli (GPa) = 130.13219 23.87857 48.73494
#
# Poissons Ratio (x) = 0.18286 0.16361
# Poissons Ratio (y) = 0.99655 -0.27971
# Poissons Ratio (z) = 0.43688 -0.13705
#
# Static dielectric constant tensor:
#      x y z
#    x 1.911410 0.000000 0.019490 
#    y 0.000000 1.903790 0.000000 
#    z 0.019490 0.000000 1.996180 
# 
# From -- ./inp_files/69544.got.cif
#   From: 2010.05.17/outbox.cif.g08.bks.cpg/sg13_35_cif.got.tgz:69544.got - 2010.06.03 16:44:36.
