data_PCOD9227022
_publ_section_title
;
Structure prediction by ZEFSAII (Michael W. Deem and Ramdas Pophale) SiO2 
 PCOD9227022
Probable space group: P 2/C
;
_chemical_formula_sum "Si O2"
_cell_formula_units_Z 16
_cell_length_a 10.424060
_cell_length_b 7.709442
_cell_length_c 8.038493
_cell_angle_alpha 90.000000
_cell_angle_beta 103.697441
_cell_angle_gamma 90.000000
_cell_volume 627.630408
_symmetry_space_group_name_H-M "P 2/C"
_symmetry_group_IT_number 13
_symmetry_cell_setting 'monoclinic'
loop_
_space_group_symop_operation_xyz
x,y,z
-x,y,1/2-z
-x,-y,-z
x,-y,1/2+z
loop_
_atom_site_type_symbol
_atom_site_label
_atom_site_fract_x
_atom_site_fract_y
_atom_site_fract_z
Si Si1 0.354644 0.110580 0.145660
Si Si2 0.403024 0.629663 0.366578
Si Si3 0.878789 0.264027 0.812017
Si Si4 0.179790 0.890133 0.884991
O O1 0.500000 0.076543 0.250000
O O2 0.259617 0.191771 0.256782
O O3 0.371779 0.230829 0.995168
O O4 0.289016 0.938190 0.056313
O O5 0.500000 0.681587 0.250000
O O6 0.500000 0.500000 0.500000
O O7 0.253366 0.616133 0.243414
O O8 0.000000 0.349823 0.750000
O O9 0.864967 0.076515 0.705801
O O10 0.913577 0.217300 0.018093
#
# Coordination Sequence:
#
# PCOD9227022 Si02
#       4
#     4   4   4   4
#     4  10  18  32  55  87 121 156 191 239 300 361
#     4  11  24  41  60  82 113 159 211 257 295 343
#     4  10  20  37  61  92 125 160 195 240 302 367
#     4   9  19  32  56  93 127 153 186 238 303 373
#
# _framework density 25.492711
#
# number of rings (size 3 to 8) (size 9 to 14) (size 15 to 20)
#    0.000    2.000    0.000    3.750    0.000    7.000 
#    0.000    1.250    0.000    0.000    0.000    0.000 
#    0.000    0.000    0.000    2.750    0.000    0.000 
#
# Total GULP energy -89125.754550 kJ/mol
# GULP energy per Si atom -5570.359659 kJ/mol
# Density = 2.543469 g / cm^3
# Si number density = 25.492711 Si / 1000 Ang^3
#
#
#
# Elastic Constant Matrix: (Units=GPa)
#
#
# Indices 1 2 3 4 5 6 
#
# 1 183.7024 20.5350 57.8199 0.0000 -42.8434 0.0000
# 2 20.5350 47.8293 17.6155 0.0000 -8.3052 0.0000
# 3 57.8199 17.6155 154.8521 0.0000 -60.2292 0.0000
# 4 0.0000 0.0000 0.0000 18.9170 0.0000 7.9420
# 5 -42.8434 -8.3052 -60.2292 0.0000 54.5509 0.0000
# 6 0.0000 0.0000 0.0000 7.9420 0.0000 8.4925
#
#
#
# Elastic Compliance Matrix: (Units=1/GPa)
#
#
# Indices 1 2 3 4 5 6 
#
# 1 0.006892 -0.001959 -0.000633 0.000000 0.004415 0.000000
# 2 -0.001959 0.022411 -0.001909 0.000000 -0.000234 0.000000
# 3 -0.000633 -0.001909 0.011576 0.000000 0.011993 0.000000
# 4 0.000000 0.000000 0.000000 0.087033 0.000000 -0.081391
# 5 0.004415 -0.000234 0.011993 0.000000 0.035005 0.000000
# 6 0.000000 0.000000 0.000000 -0.081391 0.000000 0.193867
#
#
# Mechanical properties :
#
#
# Convention : Reuss Voigt Hill
#
# Bulk Modulus (GPa) = 31.37116 64.25829 47.81473
# Shear Modulus (GPa) = 13.28334 35.75299 24.51816
#
# Velocity S-wave (km/s) = 2.28516 3.74903 3.10461
# Velocity P-wave (km/s) = 4.39264 6.63337 5.62569
#
# Compressibility (1/GPa) = 0.03187641
#
# Stress axis : x y z
#
# Youngs Moduli (GPa) = 145.10471 44.62060 86.38556
#
# Poissons Ratio (x) = 0.08741 0.05469
# Poissons Ratio (y) = 0.28426 0.16492
# Poissons Ratio (z) = 0.09186 0.08519
#
# Static dielectric constant tensor:
#      x y z
#    x 1.405770 0.000000 0.301150 
#    y 0.000000 1.966420 0.000000 
#    z 0.301150 0.000000 2.093620 
# 
# From -- ./inp_files/10855.got.cif
#   From: 2010.05.17/outbox.cif.g08.bks.cpg/sg13_6_cif.got.tgz:10855.got - 2010.06.03 16:44:36.
