data_PCOD9227122
_publ_section_title
;
Structure prediction by ZEFSAII (Michael W. Deem and Ramdas Pophale) SiO2 
 PCOD9227122
Probable space group: P 2/C
;
_chemical_formula_sum "Si O2"
_cell_formula_units_Z 26
_cell_length_a 10.034529
_cell_length_b 10.879033
_cell_length_c 19.867531
_cell_angle_alpha 90.000000
_cell_angle_beta 37.679210
_cell_angle_gamma 90.000000
_cell_volume 1325.692755
_symmetry_space_group_name_H-M "P 2/C"
_symmetry_group_IT_number 13
_symmetry_cell_setting 'monoclinic'
loop_
_space_group_symop_operation_xyz
x,y,z
-x,y,1/2-z
-x,-y,-z
x,-y,1/2+z
loop_
_atom_site_type_symbol
_atom_site_label
_atom_site_fract_x
_atom_site_fract_y
_atom_site_fract_z
Si Si1 0.204825 0.781758 0.040712
Si Si2 0.738459 0.497663 0.159704
Si Si3 0.305738 0.139393 0.154025
Si Si4 0.895563 0.750621 0.890848
Si Si5 0.057585 0.716578 0.480635
Si Si6 0.939484 0.528146 0.351726
Si Si7 0.000000 0.919874 0.250000
O O1 0.208479 0.636515 0.058666
O O2 0.099651 0.844392 0.148377
O O3 0.443225 0.836991 0.930131
O O4 0.046292 0.790952 0.039271
O O5 0.500000 0.446804 0.250000
O O6 0.885798 0.391574 0.068174
O O7 0.840025 0.524730 0.191934
O O8 0.743626 0.629766 0.121000
O O9 0.267246 0.174934 0.091248
O O10 0.138918 0.224792 0.263760
O O11 0.194016 0.005757 0.202459
O O12 0.841485 0.607037 0.902626
O O13 0.893046 0.785397 0.969938
O O14 0.000000 0.547076 0.250000
#
# Coordination Sequence:
#
# PCOD9227122 Si02
#       7
#     4   4   4   4   4   4   2
#     4  11  22  36  62  86 108 153 196 235 288 340
#     4   9  19  32  51  78 126 160 175 218 283 343
#     4  10  22  38  62  82 106 161 189 236 295 335
#     4   9  19  38  53  86 129 143 183 230 280 352
#     4   9  20  34  52  87 115 150 188 228 274 342
#     4  10  18  33  53  87 121 145 184 231 271 342
#     4  10  22  44  58  78 120 138 202 260 284 326
#
# _framework density 19.612386000000001
#
# number of rings (size 3 to 8) (size 9 to 14) (size 15 to 20)
#    0.000    2.462    2.308    1.385    4.308    1.846 
#    0.000    3.077    0.000    3.692    0.000    0.000 
#    0.000    0.000    0.000    0.000    0.000    0.000 
#
# Total GULP energy -144896.836526 kJ/mol
# GULP energy per Si atom -5572.955251 kJ/mol
# Density = 1.956775 g / cm^3
# Si number density = 19.612386 Si / 1000 Ang^3
#
#
#
# Elastic Constant Matrix: (Units=GPa)
#
#
# Indices 1 2 3 4 5 6 
#
# 1 41.5529 8.8314 7.6337 0.0000 26.4761 0.0000
# 2 8.8314 54.4299 4.7160 0.0000 1.7114 0.0000
# 3 7.6337 4.7160 22.8512 0.0000 4.5823 0.0000
# 4 0.0000 0.0000 0.0000 1.3347 0.0000 -5.5955
# 5 26.4761 1.7114 4.5823 0.0000 31.8580 0.0000
# 6 0.0000 0.0000 0.0000 -5.5955 0.0000 20.2880
#
#
#
# Elastic Compliance Matrix: (Units=1/GPa)
#
#
# Indices 1 2 3 4 5 6 
#
# 1 0.055355 -0.006877 -0.008157 0.000000 -0.044460 0.000000
# 2 -0.006877 0.019568 -0.002756 0.000000 0.005060 0.000000
# 3 -0.008157 -0.002756 0.047022 0.000000 0.000164 0.000000
# 4 0.000000 0.000000 0.000000 -4.794980 0.000000 -1.322465
# 5 -0.044460 0.005060 0.000164 0.000000 0.068043 0.000000
# 6 0.000000 0.000000 0.000000 -1.322465 0.000000 -0.315448
#
#
# Mechanical properties :
#
#
# Convention : Reuss Voigt Hill
#
# Bulk Modulus (GPa) = 11.57874 17.91067 14.74471
# Shear Modulus (GPa) = -1.02964 17.20635 8.08835
#
# Velocity S-wave (km/s) = -0.72535 2.96517 2.03299
# Velocity P-wave (km/s) = 2.28366 4.56893 3.61180
#
# Compressibility (1/GPa) = 0.08636519
#
# Stress axis : x y z
#
# Youngs Moduli (GPa) = 18.06537 51.10462 21.26657
#
# Poissons Ratio (x) = 0.35143 0.17347
# Poissons Ratio (y) = 0.12423 0.05861
# Poissons Ratio (z) = 0.14736 0.14083
#
# Static dielectric constant tensor:
#      x y z
#    x 1.700150 0.000000 0.049970 
#    y 0.000000 1.713140 0.000000 
#    z 0.049970 0.000000 1.793130 
# 
# From -- ./inp_files/76360.got.cif
#   From: 2010.05.17/outbox.cif.g08.bks.cpg/sg13_39_cif.got.tgz:76360.got - 2010.06.03 16:44:36.
