data_PCOD9227756
_publ_section_title
;
Structure prediction by ZEFSAII (Michael W. Deem and Ramdas Pophale) SiO2 
 PCOD9227756
Probable space group: P 2/C
;
_chemical_formula_sum "Si O2"
_cell_formula_units_Z 32
_cell_length_a 8.034039
_cell_length_b 14.143209
_cell_length_c 22.771219
_cell_angle_alpha 90.000000
_cell_angle_beta 149.272657
_cell_angle_gamma 90.000000
_cell_volume 1322.054324
_symmetry_space_group_name_H-M "P 2/C"
_symmetry_group_IT_number 13
_symmetry_cell_setting 'monoclinic'
loop_
_space_group_symop_operation_xyz
x,y,z
-x,y,1/2-z
-x,-y,-z
x,-y,1/2+z
loop_
_atom_site_type_symbol
_atom_site_label
_atom_site_fract_x
_atom_site_fract_y
_atom_site_fract_z
Si Si1 0.508575 0.589093 0.874278
Si Si2 0.066416 0.875253 0.432178
Si Si3 0.680047 0.788370 0.690627
Si Si4 0.336439 0.601587 0.952675
Si Si5 0.295795 0.822057 0.068667
Si Si6 0.220587 0.397622 0.548404
Si Si7 0.861186 0.074432 0.349372
Si Si8 0.203453 0.766149 0.362485
O O1 0.414369 0.684996 0.810697
O O2 0.309541 0.607304 0.873880
O O3 0.498609 0.477204 0.854104
O O4 0.905900 0.592536 0.995072
O O5 0.381799 0.829902 0.560916
O O6 0.010858 0.815665 0.356288
O O7 0.775051 0.868911 0.390843
O O8 0.099372 0.984712 0.424131
O O9 0.807173 0.864162 0.775680
O O10 0.000000 0.775623 0.750000
O O11 0.500000 0.500000 0.000000
O O12 0.124309 0.595325 0.948983
O O13 0.558472 0.691238 0.035667
O O14 0.324027 0.710288 0.087986
O O15 0.593250 0.842567 0.114494
O O16 0.981813 0.852522 0.935382
O O17 0.500000 0.036689 0.250000
O O18 0.000000 0.715457 0.250000
#
# Coordination Sequence:
#
# PCOD9227756 Si02
#       8
#     4   4   4   4   4   4   4   4
#     4  10  18  39  66 100 136 187 232 285 363 421
#     4  12  26  48  72 102 147 193 242 310 375 431
#     4  12  26  45  72 108 150 197 247 306 375 444
#     4   9  18  36  65  97 139 188 233 288 357 425
#     4  11  23  46  73 102 148 189 235 306 367 432
#     4   9  18  34  71  98 131 187 232 281 354 429
#     4  12  27  45  75 109 138 188 258 305 372 449
#     4  11  25  41  70 106 143 190 241 297 364 437
#
# _framework density 24.204754000000001
#
# number of rings (size 3 to 8) (size 9 to 14) (size 15 to 20)
#    0.000    1.250    3.750    1.125    3.500    2.500 
#    0.000    5.625    0.000    0.000    3.250    0.000 
#    0.000    0.000    0.000    0.000    0.000    0.000 
#
# Total GULP energy -178138.353300 kJ/mol
# GULP energy per Si atom -5566.823541 kJ/mol
# Density = 2.414966 g / cm^3
# Si number density = 24.204754 Si / 1000 Ang^3
#
#
#
# Elastic Constant Matrix: (Units=GPa)
#
#
# Indices 1 2 3 4 5 6 
#
# 1 104.0345 25.8043 39.6396 0.0000 -12.7895 0.0000
# 2 25.8043 162.9409 39.5202 0.0000 -13.8743 0.0000
# 3 39.6396 39.5202 68.5989 0.0000 -7.4660 0.0000
# 4 0.0000 0.0000 0.0000 -29.1487 0.0000 -41.2865
# 5 -12.7895 -13.8743 -7.4660 0.0000 27.7485 0.0000
# 6 0.0000 0.0000 0.0000 -41.2865 0.0000 1.1255
#
#
#
# Elastic Compliance Matrix: (Units=1/GPa)
#
#
# Indices 1 2 3 4 5 6 
#
# 1 0.012745 0.000004 -0.006930 0.000000 0.004012 0.000000
# 2 0.000004 0.007311 -0.003932 0.000000 0.002600 0.000000
# 3 -0.006930 -0.003932 0.020898 0.000000 0.000463 0.000000
# 4 0.000000 0.000000 0.000000 -0.000648 0.000000 -0.023764
# 5 0.004012 0.002600 0.000463 0.000000 0.039311 0.000000
# 6 0.000000 0.000000 0.000000 -0.023764 0.000000 0.016777
#
#
# Mechanical properties :
#
#
# Convention : Reuss Voigt Hill
#
# Bulk Modulus (GPa) = 51.97978 60.61140 56.29559
# Shear Modulus (GPa) = 40.15303 15.31905 27.73604
#
# Velocity S-wave (km/s) = 4.07737 2.51847 3.38878
# Velocity P-wave (km/s) = 6.60971 5.79244 6.21452
#
# Compressibility (1/GPa) = 0.01923825
#
# Stress axis : x y z
#
# Youngs Moduli (GPa) = 78.46222 136.77085 47.85246
#
# Poissons Ratio (x) = -0.00057 0.33164
# Poissons Ratio (y) = -0.00032 0.18814
# Poissons Ratio (z) = 0.54378 0.53773
#
# Static dielectric constant tensor:
#      x y z
#    x 1.992830 0.000000 -0.022670 
#    y 0.000000 1.975980 0.000000 
#    z -0.022670 0.000000 2.060500 
# 
# From -- ./inp_files/85354.got.cif
#   From: 2010.05.17/outbox.cif.g08.bks.cpg/sg13_43_cif.got.tgz:85354.got - 2010.06.03 16:44:36.
