data_PCOD9227183
_publ_section_title
;
Structure prediction by ZEFSAII (Michael W. Deem and Ramdas Pophale) SiO2 
 PCOD9227183
Probable space group: P 2/C
;
_chemical_formula_sum "Si O2"
_cell_formula_units_Z 22
_cell_length_a 7.752273
_cell_length_b 8.550454
_cell_length_c 16.453172
_cell_angle_alpha 90.000000
_cell_angle_beta 59.672421
_cell_angle_gamma 90.000000
_cell_volume 941.359378
_symmetry_space_group_name_H-M "P 2/C"
_symmetry_group_IT_number 13
_symmetry_cell_setting 'monoclinic'
loop_
_space_group_symop_operation_xyz
x,y,z
-x,y,1/2-z
-x,-y,-z
x,-y,1/2+z
loop_
_atom_site_type_symbol
_atom_site_label
_atom_site_fract_x
_atom_site_fract_y
_atom_site_fract_z
Si Si1 0.168471 0.568689 0.578037
Si Si2 0.434467 0.037232 0.380223
Si Si3 0.771469 0.076015 0.407304
Si Si4 0.183819 0.325560 0.442924
Si Si5 0.000000 0.634412 0.250000
Si Si6 0.883079 0.858926 0.137286
O O1 0.254274 0.739826 0.572451
O O2 0.261763 0.459814 0.485631
O O3 0.154047 0.471425 0.663586
O O4 0.941281 0.597396 0.599738
O O5 0.666496 0.030860 0.347470
O O6 0.355780 0.208085 0.374229
O O7 0.335126 0.009897 0.492288
O O8 0.327849 0.911692 0.348457
O O9 0.995221 0.013492 0.363813
O O10 0.015111 0.226136 0.534450
O O11 0.888680 0.741130 0.210654
#
# Coordination Sequence:
#
# PCOD9227183 Si02
#       6
#     4   4   4   4   2   4
#     4  10  18  34  55  86 109 146 185 226 281 338
#     4  10  18  33  58  89 105 142 178 236 286 321
#     4  10  19  32  61  85 110 136 188 231 279 336
#     4   9  17  32  59  81 111 139 180 232 282 325
#     4  10  24  34  60  74 112 164 186 222 292 322
#     4  10  18  38  55  80 108 149 187 230 268 336
#
# _framework density 23.370456999999998
#
# number of rings (size 3 to 8) (size 9 to 14) (size 15 to 20)
#    0.000    2.182    3.636    1.091    0.000    1.455 
#    0.000    0.909    4.000    0.000    0.000    0.000 
#    0.000    0.000    0.000    0.000    0.000    0.000 
#
# Total GULP energy -122942.329606 kJ/mol
# GULP energy per Si atom -5588.287709 kJ/mol
# Density = 2.331727 g / cm^3
# Si number density = 23.370457 Si / 1000 Ang^3
#
#
#
# Elastic Constant Matrix: (Units=GPa)
#
#
# Indices 1 2 3 4 5 6 
#
# 1 93.3558 7.7923 22.5230 0.0000 27.1075 0.0000
# 2 7.7923 92.6903 -5.2879 0.0000 7.1918 0.0000
# 3 22.5230 -5.2879 46.5342 0.0000 9.0815 0.0000
# 4 0.0000 0.0000 0.0000 24.0898 0.0000 16.4241
# 5 27.1075 7.1918 9.0815 0.0000 28.6424 0.0000
# 6 0.0000 0.0000 0.0000 16.4241 0.0000 7.8174
#
#
#
# Elastic Compliance Matrix: (Units=1/GPa)
#
#
# Indices 1 2 3 4 5 6 
#
# 1 0.015841 -0.000601 -0.005158 0.000000 -0.013205 0.000000
# 2 -0.000601 0.011187 0.002131 0.000000 -0.002916 0.000000
# 3 -0.005158 0.002131 0.024922 0.000000 -0.003555 0.000000
# 4 0.000000 0.000000 0.000000 -0.096002 0.000000 0.201696
# 5 -0.013205 -0.002916 -0.003555 0.000000 0.049270 0.000000
# 6 0.000000 0.000000 0.000000 0.201696 0.000000 -0.295834
#
#
# Mechanical properties :
#
#
# Convention : Reuss Voigt Hill
#
# Bulk Modulus (GPa) = 22.37475 31.40391 26.88933
# Shear Modulus (GPa) = -18.62466 25.94678 3.66106
#
# Velocity S-wave (km/s) = -2.82606 3.33564 1.25297
# Velocity P-wave (km/s) = 1.02669 5.31996 3.69106
#
# Compressibility (1/GPa) = 0.04469323
#
# Stress axis : x y z
#
# Youngs Moduli (GPa) = 63.12806 89.38965 40.12478
#
# Poissons Ratio (x) = 0.05376 0.20698
# Poissons Ratio (y) = 0.03796 -0.08552
# Poissons Ratio (z) = 0.32563 -0.19051
#
# Static dielectric constant tensor:
#      x y z
#    x 1.901380 0.000000 -0.009680 
#    y 0.000000 1.873740 0.000000 
#    z -0.009680 0.000000 1.921880 
# 
# From -- ./inp_files/62865.got.cif
#   From: 2010.05.17/outbox.cif.g08.bks.cpg/sg13_32_cif.got.tgz:62865.got - 2010.06.03 16:44:36.
