data_PCOD9227930
_publ_section_title
;
Structure prediction by ZEFSAII (Michael W. Deem and Ramdas Pophale) SiO2 
 PCOD9227930
Probable space group: P 2/C
;
_chemical_formula_sum "Si O2"
_cell_formula_units_Z 28
_cell_length_a 15.024646
_cell_length_b 7.285238
_cell_length_c 10.355213
_cell_angle_alpha 90.000000
_cell_angle_beta 118.414773
_cell_angle_gamma 90.000000
_cell_volume 996.909344
_symmetry_space_group_name_H-M "P 2/C"
_symmetry_group_IT_number 13
_symmetry_cell_setting 'monoclinic'
loop_
_space_group_symop_operation_xyz
x,y,z
-x,y,1/2-z
-x,-y,-z
x,-y,1/2+z
loop_
_atom_site_type_symbol
_atom_site_label
_atom_site_fract_x
_atom_site_fract_y
_atom_site_fract_z
Si Si1 0.409707 0.462593 0.097963
Si Si2 0.063224 0.224584 0.617946
Si Si3 0.775579 0.729042 0.082280
Si Si4 0.926336 0.210395 0.314103
Si Si5 0.442620 0.225145 0.437568
Si Si6 0.630432 0.878220 0.209008
Si Si7 0.785044 0.146493 0.010646
O O1 0.500000 0.543451 0.250000
O O2 0.401052 0.585095 0.963449
O O3 0.294350 0.406087 0.051990
O O4 0.469273 0.276806 0.101441
O O5 0.118985 0.327405 0.774602
O O6 0.959029 0.287880 0.476420
O O7 0.055762 0.011153 0.657733
O O8 0.139343 0.214945 0.548315
O O9 0.702238 0.778125 0.154184
O O10 0.793765 0.925223 0.027086
O O11 0.000000 0.273427 0.250000
O O12 0.818158 0.228195 0.170619
O O13 0.512181 0.142064 0.598844
O O14 0.361366 0.093650 0.318070
O O15 0.673611 0.821094 0.377204
#
# Coordination Sequence:
#
# PCOD9227930 Si02
#       7
#     4   4   4   4   4   4   4
#     4  10  19  31  45  62  87 121 160 196 234 283
#     4   8  14  24  38  61  94 122 150 190 239 284
#     4   9  17  27  42  63  89 121 154 191 237 282
#     4   8  13  22  38  62  94 122 147 187 242 284
#     4   9  19  32  45  62  87 119 154 196 241 281
#     4   9  17  30  45  63  88 116 152 198 242 280
#     4   9  15  24  41  64  91 118 152 192 240 287
#
# _framework density 28.086808000000001
#
# number of rings (size 3 to 8) (size 9 to 14) (size 15 to 20)
#    0.000    3.143    0.000    0.857    0.000    1.143 
#    0.000    1.429    0.000    0.000    0.000    0.000 
#    0.000  189.714    0.000   13.286    0.000    7.571 
#
# Total GULP energy -156238.067825 kJ/mol
# GULP energy per Si atom -5579.930994 kJ/mol
# Density = 2.802288 g / cm^3
# Si number density = 28.086808 Si / 1000 Ang^3
#
#
#
# Elastic Constant Matrix: (Units=GPa)
#
#
# Indices 1 2 3 4 5 6 
#
# 1 74.5972 -3.6758 24.8854 0.0000 12.4413 0.0000
# 2 -3.6758 60.4047 37.0912 0.0000 8.6665 0.0000
# 3 24.8854 37.0912 225.3321 0.0000 33.2596 0.0000
# 4 0.0000 0.0000 0.0000 28.7531 0.0000 4.4371
# 5 12.4413 8.6665 33.2596 0.0000 27.7359 0.0000
# 6 0.0000 0.0000 0.0000 4.4371 0.0000 23.6368
#
#
#
# Elastic Compliance Matrix: (Units=1/GPa)
#
#
# Indices 1 2 3 4 5 6 
#
# 1 0.014930 0.002495 -0.001162 0.000000 -0.006084 0.000000
# 2 0.002495 0.018986 -0.002867 0.000000 -0.003613 0.000000
# 3 -0.001162 -0.002867 0.005868 0.000000 -0.005619 0.000000
# 4 0.000000 0.000000 0.000000 0.035816 0.000000 -0.006723
# 5 -0.006084 -0.003613 -0.005619 0.000000 0.046650 0.000000
# 6 0.000000 0.000000 0.000000 -0.006723 0.000000 0.043569
#
#
# Mechanical properties :
#
#
# Convention : Reuss Voigt Hill
#
# Bulk Modulus (GPa) = 27.23660 52.99283 40.11471
# Shear Modulus (GPa) = 27.60496 36.16070 31.88283
#
# Velocity S-wave (km/s) = 3.13844 3.59201 3.37286
# Velocity P-wave (km/s) = 4.78031 6.00932 5.42970
#
# Compressibility (1/GPa) = 0.03671530
#
# Stress axis : x y z
#
# Youngs Moduli (GPa) = 66.97736 52.67062 170.42837
#
# Poissons Ratio (x) = -0.13140 0.19796
# Poissons Ratio (y) = -0.16709 0.48869
# Poissons Ratio (z) = 0.07780 0.15103
#
# Static dielectric constant tensor:
#      x y z
#    x 2.246960 0.000000 0.012570 
#    y 0.000000 2.249850 0.000000 
#    z 0.012570 0.000000 2.384430 
# 
# From -- ./inp_files/40428.got.cif
#   From: 2010.05.17/outbox.cif.g08.bks.cpg/sg13_21_cif.got.tgz:40428.got - 2010.06.03 16:44:36.
