data_PCOD9227787
_publ_section_title
;
Structure prediction by ZEFSAII (Michael W. Deem and Ramdas Pophale) SiO2 
 PCOD9227787
Probable space group: P 2/C
;
_chemical_formula_sum "Si O2"
_cell_formula_units_Z 30
_cell_length_a 8.939169
_cell_length_b 14.490330
_cell_length_c 11.845658
_cell_angle_alpha 90.000000
_cell_angle_beta 70.811834
_cell_angle_gamma 90.000000
_cell_volume 1449.142029
_symmetry_space_group_name_H-M "P 2/C"
_symmetry_group_IT_number 13
_symmetry_cell_setting 'monoclinic'
loop_
_space_group_symop_operation_xyz
x,y,z
-x,y,1/2-z
-x,-y,-z
x,-y,1/2+z
loop_
_atom_site_type_symbol
_atom_site_label
_atom_site_fract_x
_atom_site_fract_y
_atom_site_fract_z
Si Si1 0.540709 0.893479 0.999377
Si Si2 0.767210 0.630582 0.692355
Si Si3 0.147642 0.792878 0.650239
Si Si4 0.366409 0.428636 0.061348
Si Si5 0.914109 0.367044 0.507572
Si Si6 0.617368 0.284465 0.016730
Si Si7 0.829726 0.286872 0.757770
Si Si8 0.500000 0.807959 0.250000
O O1 0.707815 0.861919 0.905061
O O2 0.408156 0.825069 0.978261
O O3 0.541514 0.866920 0.130351
O O4 0.500000 0.000000 0.000000
O O5 0.813601 0.710947 0.769988
O O6 0.688932 0.558230 0.796178
O O7 0.651492 0.674432 0.629998
O O8 0.920385 0.599914 0.585293
O O9 0.105499 0.736329 0.545462
O O10 0.000000 0.840667 0.750000
O O11 0.220533 0.429897 0.013896
O O12 0.500000 0.500000 0.000000
O O13 0.451892 0.329710 0.020515
O O14 0.888961 0.357460 0.646944
O O15 0.754504 0.314944 0.896731
O O16 0.666623 0.243691 0.742271
O O17 0.000000 0.237834 0.750000
#
# Coordination Sequence:
#
# PCOD9227787 Si02
#       8
#     4   4   4   4   4   4   4   2
#     4  11  22  38  64  99 135 186 228 281 354 414
#     4  10  20  38  69  93 128 169 224 286 336 409
#     4   9  18  35  64  92 125 171 225 280 343 392
#     4  11  23  41  64  95 126 170 220 279 353 402
#     4  10  18  40  67  94 123 174 224 282 338 411
#     4  11  22  40  61  96 131 169 226 280 338 415
#     4  11  20  38  69  96 129 181 225 273 350 414
#     4  10  22  40  60  94 144 172 232 292 336 414
#
# _framework density 20.701906000000001
#
# number of rings (size 3 to 8) (size 9 to 14) (size 15 to 20)
#    0.000    1.600    5.333    2.400    0.000    1.067 
#    4.800    4.667    0.000    5.600    0.000    0.000 
#    0.000    0.000    0.000    0.000    0.000    0.000 
#
# Total GULP energy -167252.690092 kJ/mol
# GULP energy per Si atom -5575.089670 kJ/mol
# Density = 2.065479 g / cm^3
# Si number density = 20.701906 Si / 1000 Ang^3
#
#
#
# Elastic Constant Matrix: (Units=GPa)
#
#
# Indices 1 2 3 4 5 6 
#
# 1 119.1035 33.2656 52.0708 0.0000 -20.6664 0.0000
# 2 33.2656 66.8285 28.7286 0.0000 -12.0116 0.0000
# 3 52.0708 28.7286 150.9956 0.0000 -35.2833 0.0000
# 4 0.0000 0.0000 0.0000 17.7840 0.0000 -5.7822
# 5 -20.6664 -12.0116 -35.2833 0.0000 46.9972 0.0000
# 6 0.0000 0.0000 0.0000 -5.7822 0.0000 22.3617
#
#
#
# Elastic Compliance Matrix: (Units=1/GPa)
#
#
# Indices 1 2 3 4 5 6 
#
# 1 0.010970 -0.004016 -0.002585 0.000000 0.001857 0.000000
# 2 -0.004016 0.017961 -0.001664 0.000000 0.001575 0.000000
# 3 -0.002585 -0.001664 0.009054 0.000000 0.005235 0.000000
# 4 0.000000 0.000000 0.000000 0.061392 0.000000 0.015874
# 5 0.001857 0.001575 0.005235 0.000000 0.026427 0.000000
# 6 0.000000 0.000000 0.000000 0.015874 0.000000 0.048824
#
#
# Mechanical properties :
#
#
# Convention : Reuss Voigt Hill
#
# Bulk Modulus (GPa) = 46.60905 62.78418 54.69661
# Shear Modulus (GPa) = 25.21301 32.28608 28.74955
#
# Velocity S-wave (km/s) = 3.49364 3.95342 3.73062
# Velocity P-wave (km/s) = 6.23196 7.15772 6.71082
#
# Compressibility (1/GPa) = 0.02145506
#
# Stress axis : x y z
#
# Youngs Moduli (GPa) = 91.15796 55.67574 110.44587
#
# Poissons Ratio (x) = 0.22357 0.28551
# Poissons Ratio (y) = 0.36605 0.18384
# Poissons Ratio (z) = 0.23565 0.09267
#
# Static dielectric constant tensor:
#      x y z
#    x 1.822230 0.000000 -0.011940 
#    y 0.000000 1.785580 0.000000 
#    z -0.011940 0.000000 1.768650 
# 
# From -- ./inp_files/30380.got.cif
#   From: 2010.05.17/outbox.cif.g08.bks.cpg/sg13_16_cif.got.tgz:30380.got - 2010.06.03 16:44:36.
