data_PCOD9227596
_publ_section_title
;
Structure prediction by ZEFSAII (Michael W. Deem and Ramdas Pophale) SiO2 
 PCOD9227596
Probable space group: P 2/C
;
_chemical_formula_sum "Si O2"
_cell_formula_units_Z 32
_cell_length_a 18.095282
_cell_length_b 14.621142
_cell_length_c 12.208849
_cell_angle_alpha 90.000000
_cell_angle_beta 25.982144
_cell_angle_gamma 90.000000
_cell_volume 1415.095416
_symmetry_space_group_name_H-M "P 2/C"
_symmetry_group_IT_number 13
_symmetry_cell_setting 'monoclinic'
loop_
_space_group_symop_operation_xyz
x,y,z
-x,y,1/2-z
-x,-y,-z
x,-y,1/2+z
loop_
_atom_site_type_symbol
_atom_site_label
_atom_site_fract_x
_atom_site_fract_y
_atom_site_fract_z
Si Si1 0.797606 0.051607 0.045629
Si Si2 0.841766 0.161221 0.200784
Si Si3 0.865388 0.624553 0.634920
Si Si4 0.200723 0.148992 0.997368
Si Si5 0.242597 0.332667 0.450782
Si Si6 0.211515 0.167432 0.638641
Si Si7 0.246522 0.437258 0.659095
Si Si8 0.396727 0.275607 0.581224
O O1 0.720242 0.092761 0.036988
O O2 0.000000 0.054652 0.750000
O O3 0.753964 0.946219 0.121891
O O4 0.765487 0.111468 0.196352
O O5 0.829160 0.271312 0.214996
O O6 0.771209 0.132164 0.411500
O O7 0.042484 0.137269 0.926748
O O8 0.856033 0.620684 0.515772
O O9 0.742777 0.545488 0.842063
O O10 0.050975 0.595255 0.426568
O O11 0.000000 0.168041 0.250000
O O12 0.308599 0.230752 0.802877
O O13 0.152653 0.250622 0.636605
O O14 0.301508 0.402919 0.465854
O O15 0.404120 0.284359 0.181617
O O16 0.338185 0.212977 0.555811
O O17 0.334781 0.377541 0.634661
#
# Coordination Sequence:
#
# PCOD9227596 Si02
#       8
#     4   4   4   4   4   4   4   4
#     4   9  21  32  62  98 122 168 219 279 333 385
#     4  11  20  37  64  96 127 163 221 273 336 379
#     4  11  21  38  66  97 124 168 217 271 322 383
#     4  11  22  38  60  94 137 169 217 284 332 395
#     4  11  22  40  65  94 132 169 217 262 327 398
#     4  10  18  36  64  88 124 165 214 264 319 392
#     4  10  22  38  64  98 128 166 220 269 322 390
#     4  11  23  40  63  93 132 175 212 263 339 388
#
# _framework density 22.613316000000001
#
# number of rings (size 3 to 8) (size 9 to 14) (size 15 to 20)
#    0.000    1.500    5.000    1.875    1.750    3.000 
#    0.000    3.750    0.000    0.000    0.000    0.000 
#    0.000    0.000    0.000    0.000    0.000    0.000 
#
# Total GULP energy -178872.137351 kJ/mol
# GULP energy per Si atom -5589.754292 kJ/mol
# Density = 2.256185 g / cm^3
# Si number density = 22.613316 Si / 1000 Ang^3
#
#
#
# Elastic Constant Matrix: (Units=GPa)
#
#
# Indices 1 2 3 4 5 6 
#
# 1 55.0100 8.5530 12.0438 0.0000 17.2797 0.0000
# 2 8.5530 109.9482 27.1603 0.0000 13.9049 0.0000
# 3 12.0438 27.1603 54.9310 0.0000 15.2128 0.0000
# 4 0.0000 0.0000 0.0000 19.5685 0.0000 8.5980
# 5 17.2797 13.9049 15.2128 0.0000 27.6902 0.0000
# 6 0.0000 0.0000 0.0000 8.5980 0.0000 18.7145
#
#
#
# Elastic Compliance Matrix: (Units=1/GPa)
#
#
# Indices 1 2 3 4 5 6 
#
# 1 0.022690 0.000286 -0.001362 0.000000 -0.013554 0.000000
# 2 0.000286 0.010554 -0.004439 0.000000 -0.003039 0.000000
# 3 -0.001362 -0.004439 0.023407 0.000000 -0.009780 0.000000
# 4 0.000000 0.000000 0.000000 0.064027 0.000000 -0.029416
# 5 -0.013554 -0.003039 -0.009780 0.000000 0.051472 0.000000
# 6 0.000000 0.000000 0.000000 -0.029416 0.000000 0.066949
#
#
# Mechanical properties :
#
#
# Convention : Reuss Voigt Hill
#
# Bulk Modulus (GPa) = 21.92063 35.04481 28.48272
# Shear Modulus (GPa) = 18.84392 24.67011 21.75701
#
# Velocity S-wave (km/s) = 2.88984 3.30654 3.10519
# Velocity P-wave (km/s) = 4.56614 5.48714 5.04769
#
# Compressibility (1/GPa) = 0.04561914
#
# Stress axis : x y z
#
# Youngs Moduli (GPa) = 44.07210 94.75124 42.72241
#
# Poissons Ratio (x) = -0.02706 0.05820
# Poissons Ratio (y) = -0.01259 0.18966
# Poissons Ratio (z) = 0.06004 0.42063
#
# Static dielectric constant tensor:
#      x y z
#    x 1.861460 0.000000 -0.018030 
#    y 0.000000 1.853980 0.000000 
#    z -0.018030 0.000000 1.856610 
# 
# From -- ./inp_files/39433.got.cif
#   From: 2010.05.17/outbox.cif.g08.bks.cpg/sg13_20_cif.got.tgz:39433.got - 2010.06.03 16:44:36.
