data_PCOD9227270
_publ_section_title
;
Structure prediction by ZEFSAII (Michael W. Deem and Ramdas Pophale) SiO2 
 PCOD9227270
Probable space group: P 2/C
;
_chemical_formula_sum "Si O2"
_cell_formula_units_Z 20
_cell_length_a 14.344619
_cell_length_b 10.259132
_cell_length_c 8.578140
_cell_angle_alpha 90.000000
_cell_angle_beta 115.385329
_cell_angle_gamma 90.000000
_cell_volume 1140.498005
_symmetry_space_group_name_H-M "P 2/C"
_symmetry_group_IT_number 13
_symmetry_cell_setting 'monoclinic'
loop_
_space_group_symop_operation_xyz
x,y,z
-x,y,1/2-z
-x,-y,-z
x,-y,1/2+z
loop_
_atom_site_type_symbol
_atom_site_label
_atom_site_fract_x
_atom_site_fract_y
_atom_site_fract_z
Si Si1 0.612002 0.914618 0.911778
Si Si2 0.385774 0.819533 0.229363
Si Si3 0.723146 0.586905 0.489048
Si Si4 0.717119 0.326830 0.330716
Si Si5 0.923443 0.437121 0.567305
O O1 0.500000 0.912259 0.750000
O O2 0.677560 0.808242 0.866328
O O3 0.650242 0.061503 0.907871
O O4 0.607422 0.874446 0.089700
O O5 0.500000 0.781154 0.250000
O O6 0.310321 0.696359 0.158400
O O7 0.309039 0.639352 0.865769
O O8 0.675141 0.447466 0.405913
O O9 0.845014 0.549560 0.575197
O O10 0.840972 0.662891 0.938389
O O11 0.000000 0.500000 0.500000
O O12 0.000000 0.379557 0.750000
#
# Coordination Sequence:
#
# PCOD9227270 Si02
#       5
#     4   4   4   4   4
#     4  11  22  38  58  80 112 149 183 222 273 331
#     4  11  22  38  58  80 112 149 183 221 275 329
#     4  10  20  34  56  86 111 144 184 229 269 324
#     4  10  20  34  56  86 111 144 184 228 271 322
#     4  10  18  34  57  82 111 144 180 225 279 324
#
# _framework density 17.536199
#
# number of rings (size 3 to 8) (size 9 to 14) (size 15 to 20)
#    1.200    0.400    2.000    6.000    2.800    0.800 
#    0.000    4.000    0.000    2.400    0.000    0.000 
#    0.000    0.000    0.000    0.000    0.000    0.000 
#
# Total GULP energy -111362.044372 kJ/mol
# GULP energy per Si atom -5568.102219 kJ/mol
# Density = 1.749629 g / cm^3
# Si number density = 17.536199 Si / 1000 Ang^3
#
#
#
# Elastic Constant Matrix: (Units=GPa)
#
#
# Indices 1 2 3 4 5 6 
#
# 1 43.4556 14.4876 -10.5628 0.0000 -4.9659 0.0000
# 2 14.4876 68.6268 -3.9171 0.0000 20.3183 0.0000
# 3 -10.5628 -3.9171 63.1457 0.0000 -2.6958 0.0000
# 4 0.0000 0.0000 0.0000 -12.8889 0.0000 -59.3550
# 5 -4.9659 20.3183 -2.6958 0.0000 23.5517 0.0000
# 6 0.0000 0.0000 0.0000 -59.3550 0.0000 -46.9278
#
#
#
# Elastic Compliance Matrix: (Units=1/GPa)
#
#
# Indices 1 2 3 4 5 6 
#
# 1 0.029638 -0.010733 0.004978 0.000000 0.016078 0.000000
# 2 -0.010733 0.023472 -0.001307 0.000000 -0.022663 0.000000
# 3 0.004978 -0.001307 0.016763 0.000000 0.004096 0.000000
# 4 0.000000 0.000000 0.000000 0.016081 0.000000 -0.020340
# 5 0.016078 -0.022663 0.004096 0.000000 0.065870 0.000000
# 6 0.000000 0.000000 0.000000 -0.020340 0.000000 0.004417
#
#
# Mechanical properties :
#
#
# Convention : Reuss Voigt Hill
#
# Bulk Modulus (GPa) = 17.93713 19.47152 18.70432
# Shear Modulus (GPa) = 26.46239 4.42835 15.44537
#
# Velocity S-wave (km/s) = 3.88882 1.59083 2.97100
# Velocity P-wave (km/s) = 5.51495 3.80815 4.73903
#
# Compressibility (1/GPa) = 0.05575028
#
# Stress axis : x y z
#
# Youngs Moduli (GPa) = 33.74085 42.60305 59.65541
#
# Poissons Ratio (x) = 0.45725 -0.29698
# Poissons Ratio (y) = 0.36214 0.07796
# Poissons Ratio (z) = -0.16797 0.05567
#
# Static dielectric constant tensor:
#      x y z
#    x 1.585340 0.000000 -0.021930 
#    y 0.000000 1.592180 0.000000 
#    z -0.021930 0.000000 1.727980 
# 
# From -- ./inp_files/15362.got.cif
#   From: 2010.05.17/outbox.cif.g08.bks.cpg/sg13_8_cif.got.tgz:15362.got - 2010.06.03 16:44:36.
