data_PCOD9227511
_publ_section_title
;
Structure prediction by ZEFSAII (Michael W. Deem and Ramdas Pophale) SiO2 
 PCOD9227511
Probable space group: P 2/C
;
_chemical_formula_sum "Si O2"
_cell_formula_units_Z 24
_cell_length_a 19.423891
_cell_length_b 11.625810
_cell_length_c 8.921809
_cell_angle_alpha 90.000000
_cell_angle_beta 146.761422
_cell_angle_gamma 90.000000
_cell_volume 1104.315523
_symmetry_space_group_name_H-M "P 2/C"
_symmetry_group_IT_number 13
_symmetry_cell_setting 'monoclinic'
loop_
_space_group_symop_operation_xyz
x,y,z
-x,y,1/2-z
-x,-y,-z
x,-y,1/2+z
loop_
_atom_site_type_symbol
_atom_site_label
_atom_site_fract_x
_atom_site_fract_y
_atom_site_fract_z
Si Si1 0.782908 0.095867 0.174783
Si Si2 0.795199 0.504337 0.874443
Si Si3 0.578717 0.925468 0.762038
Si Si4 0.060182 0.353635 0.607880
Si Si5 0.242436 0.345702 0.450951
Si Si6 0.832222 0.123016 0.595150
O O1 0.736348 0.210514 0.008676
O O2 0.852494 0.129491 0.454226
O O3 0.853399 0.006844 0.193563
O O4 0.663833 0.019178 0.005893
O O5 0.880877 0.584297 0.138485
O O6 0.713589 0.420645 0.829686
O O7 0.876058 0.418593 0.915776
O O8 0.718546 0.591268 0.630162
O O9 0.500000 0.865281 0.750000
O O10 0.500000 0.000000 0.500000
O O11 0.684730 0.853748 0.866924
O O12 0.092701 0.219484 0.679395
O O13 0.910315 0.360309 0.327763
#
# Coordination Sequence:
#
# PCOD9227511 Si02
#       6
#     4   4   4   4   4   4
#     4  10  22  35  54  83 110 137 183 214 280 327
#     4  10  21  34  54  78 106 155 196 214 250 302
#     4  10  18  36  57  78 105 133 175 226 272 328
#     4  11  20  35  54  79 115 147 183 224 253 313
#     4  11  20  35  54  79 115 148 183 221 257 312
#     4  10  22  35  54  83 110 136 184 213 281 328
#
# _framework density 21.73292
#
# number of rings (size 3 to 8) (size 9 to 14) (size 15 to 20)
#    1.000    0.667    3.333    4.000    2.333    0.667 
#    0.000    0.000    0.000    0.000    0.000   23.333 
#    0.000    0.000    0.000    0.000    0.000    0.000 
#
# Total GULP energy -133845.077310 kJ/mol
# GULP energy per Si atom -5576.878221 kJ/mol
# Density = 2.168345 g / cm^3
# Si number density = 21.732920 Si / 1000 Ang^3
#
#
#
# Elastic Constant Matrix: (Units=GPa)
#
#
# Indices 1 2 3 4 5 6 
#
# 1 45.1587 3.8574 4.0918 0.0000 -22.6083 0.0000
# 2 3.8574 131.2012 -11.2007 0.0000 -15.3238 0.0000
# 3 4.0918 -11.2007 26.3593 0.0000 -6.9281 0.0000
# 4 0.0000 0.0000 0.0000 15.7266 0.0000 -12.4848
# 5 -22.6083 -15.3238 -6.9281 0.0000 27.0160 0.0000
# 6 0.0000 0.0000 0.0000 -12.4848 0.0000 20.5852
#
#
#
# Elastic Compliance Matrix: (Units=1/GPa)
#
#
# Indices 1 2 3 4 5 6 
#
# 1 0.039628 0.003507 0.004908 0.000000 0.036411 0.000000
# 2 0.003507 0.009144 0.005872 0.000000 0.009627 0.000000
# 3 0.004908 0.005872 0.044634 0.000000 0.018884 0.000000
# 4 0.000000 0.000000 0.000000 0.122629 0.000000 0.074373
# 5 0.036411 0.009627 0.018884 0.000000 0.077788 0.000000
# 6 0.000000 0.000000 0.000000 0.074373 0.000000 0.093685
#
#
# Mechanical properties :
#
#
# Convention : Reuss Voigt Hill
#
# Bulk Modulus (GPa) = 8.19810 21.80181 14.99995
# Shear Modulus (GPa) = 12.51264 26.39695 19.45480
#
# Velocity S-wave (km/s) = 2.40207 3.48890 2.99520
# Velocity P-wave (km/s) = 3.38728 5.12673 4.34494
#
# Compressibility (1/GPa) = 0.12197954
#
# Stress axis : x y z
#
# Youngs Moduli (GPa) = 25.23440 109.35604 22.40461
#
# Poissons Ratio (x) = -0.38346 -0.10997
# Poissons Ratio (y) = -0.08848 -0.13155
# Poissons Ratio (z) = -0.12386 -0.64210
#
# Static dielectric constant tensor:
#      x y z
#    x 1.828450 0.000000 -0.005800 
#    y 0.000000 1.799290 0.000000 
#    z -0.005800 0.000000 1.835340 
# 
# From -- ./inp_files/23280.got.cif
#   From: 2010.05.17/outbox.cif.g08.bks.cpg/sg13_12_cif.got.tgz:23280.got - 2010.06.03 16:44:36.
