data_PCOD9227830
_publ_section_title
;
Structure prediction by ZEFSAII (Michael W. Deem and Ramdas Pophale) SiO2 
 PCOD9227830
Probable space group: P 2/C
;
_chemical_formula_sum "Si O2"
_cell_formula_units_Z 32
_cell_length_a 12.822281
_cell_length_b 24.855234
_cell_length_c 5.318112
_cell_angle_alpha 90.000000
_cell_angle_beta 94.575258
_cell_angle_gamma 90.000000
_cell_volume 1689.485625
_symmetry_space_group_name_H-M "P 2/C"
_symmetry_group_IT_number 13
_symmetry_cell_setting 'monoclinic'
loop_
_space_group_symop_operation_xyz
x,y,z
-x,y,1/2-z
-x,-y,-z
x,-y,1/2+z
loop_
_atom_site_type_symbol
_atom_site_label
_atom_site_fract_x
_atom_site_fract_y
_atom_site_fract_z
Si Si1 0.165065 0.141804 0.209178
Si Si2 0.110407 0.205460 0.692831
Si Si3 0.119227 0.979544 0.573993
Si Si4 0.616002 0.196678 0.232147
Si Si5 0.182351 0.520501 0.251690
Si Si6 0.332059 0.388116 0.784458
Si Si7 0.390658 0.553873 0.801197
Si Si8 0.325809 0.739079 0.249189
O O1 0.109703 0.171526 0.433836
O O2 0.130522 0.080152 0.184480
O O3 0.289235 0.153716 0.269920
O O4 0.137169 0.167161 0.933952
O O5 0.203258 0.247803 0.688526
O O6 0.000000 0.230228 0.750000
O O7 0.166835 0.983408 0.303588
O O8 0.000000 0.000000 0.500000
O O9 0.500000 0.173609 0.250000
O O10 0.640453 0.233812 0.480681
O O11 0.618701 0.232513 0.978345
O O12 0.128294 0.503547 0.497704
O O13 0.217644 0.582516 0.241369
O O14 0.293462 0.487010 0.291694
O O15 0.393423 0.414414 0.562704
O O16 0.338683 0.324582 0.758319
O O17 0.370074 0.405403 0.067425
O O18 0.500000 0.526771 0.750000
#
# Coordination Sequence:
#
# PCOD9227830 Si02
#       8
#     4   4   4   4   4   4   4   4
#     4  10  21  36  54  79 108 141 171 199 250 302
#     4  10  21  34  56  75 104 138 168 206 253 317
#     4  10  21  32  50  81 114 137 156 201 253 301
#     4  10  21  37  54  71  99 139 180 216 241 286
#     4   8  16  27  38  54  79 115 152 188 237 301
#     4  10  19  29  42  58  89 118 150 201 250 288
#     4  10  19  28  39  59  85 120 160 195 243 305
#     4  10  21  35  49  77  99 126 176 221 256 294
#
# _framework density 18.940676
#
# number of rings (size 3 to 8) (size 9 to 14) (size 15 to 20)
#    0.000    2.250    0.000    2.625    5.250    7.500 
#    0.000    0.000    0.000    0.750    0.000    0.000 
#    0.000    9.000    0.000    0.000    0.000   13.750 
#
# Total GULP energy -178397.939369 kJ/mol
# GULP energy per Si atom -5574.935605 kJ/mol
# Density = 1.889757 g / cm^3
# Si number density = 18.940676 Si / 1000 Ang^3
#
#
#
# Elastic Constant Matrix: (Units=GPa)
#
#
# Indices 1 2 3 4 5 6 
#
# 1 80.0836 18.0135 6.6991 0.0000 -14.4267 0.0000
# 2 18.0135 81.5028 23.3094 0.0000 2.9571 0.0000
# 3 6.6991 23.3094 156.8012 0.0000 -6.4368 0.0000
# 4 0.0000 0.0000 0.0000 21.3472 0.0000 0.6787
# 5 -14.4267 2.9571 -6.4368 0.0000 11.6554 0.0000
# 6 0.0000 0.0000 0.0000 0.6787 0.0000 -0.1001
#
#
#
# Elastic Compliance Matrix: (Units=1/GPa)
#
#
# Indices 1 2 3 4 5 6 
#
# 1 0.017865 -0.005097 0.000977 0.000000 0.023946 0.000000
# 2 -0.005097 0.014493 -0.002401 0.000000 -0.011312 0.000000
# 3 0.000977 -0.002401 0.006924 0.000000 0.005643 0.000000
# 4 0.000000 0.000000 0.000000 0.038536 0.000000 0.261328
# 5 0.023946 -0.011312 0.005643 0.000000 0.121423 0.000000
# 6 0.000000 0.000000 0.000000 0.261328 0.000000 -8.219236
#
#
# Mechanical properties :
#
#
# Convention : Reuss Voigt Hill
#
# Bulk Modulus (GPa) = 38.10727 46.04796 42.07762
# Shear Modulus (GPa) = -0.62514 24.60487 11.98986
#
# Velocity S-wave (km/s) = -0.57512 3.60814 2.51872
# Velocity P-wave (km/s) = 4.44094 6.45931 5.54277
#
# Compressibility (1/GPa) = 0.02624171
#
# Stress axis : x y z
#
# Youngs Moduli (GPa) = 55.97410 68.99823 144.41838
#
# Poissons Ratio (x) = 0.35168 -0.14115
# Poissons Ratio (y) = 0.28529 0.34676
# Poissons Ratio (z) = -0.05471 0.16567
#
# Static dielectric constant tensor:
#      x y z
#    x 1.705910 0.000000 -0.012230 
#    y 0.000000 1.634410 0.000000 
#    z -0.012230 0.000000 1.749940 
# 
# From -- ./inp_files/4362.got.cif
#   From: 2010.05.17/outbox.cif.g08.bks.cpg/sg13_3_cif.got.tgz:4362.got - 2010.06.03 16:44:36.
