data_PCOD9227336
_publ_section_title
;
Structure prediction by ZEFSAII (Michael W. Deem and Ramdas Pophale) SiO2 
 PCOD9227336
Probable space group: P 2/C
;
_chemical_formula_sum "Si O2"
_cell_formula_units_Z 28
_cell_length_a 21.789775
_cell_length_b 9.689717
_cell_length_c 17.085921
_cell_angle_alpha 90.000000
_cell_angle_beta 156.622190
_cell_angle_gamma 90.000000
_cell_volume 1431.415137
_symmetry_space_group_name_H-M "P 2/C"
_symmetry_group_IT_number 13
_symmetry_cell_setting 'monoclinic'
loop_
_space_group_symop_operation_xyz
x,y,z
-x,y,1/2-z
-x,-y,-z
x,-y,1/2+z
loop_
_atom_site_type_symbol
_atom_site_label
_atom_site_fract_x
_atom_site_fract_y
_atom_site_fract_z
Si Si1 0.736563 0.270855 0.803431
Si Si2 0.480596 0.360708 0.818462
Si Si3 0.536028 0.378348 0.106028
Si Si4 0.191499 0.269943 0.284583
Si Si5 0.004650 0.539641 0.665274
Si Si6 0.981768 0.965691 0.570162
Si Si7 0.119830 0.262625 0.022521
O O1 0.658042 0.290305 0.796320
O O2 0.608021 0.280195 0.584591
O O3 0.859518 0.396846 0.947056
O O4 0.836430 0.134141 0.913273
O O5 0.500000 0.336952 0.750000
O O6 0.471755 0.525115 0.826301
O O7 0.630899 0.284659 0.029016
O O8 0.702142 0.302542 0.292867
O O9 0.500000 0.500000 0.000000
O O10 0.108128 0.280277 0.103139
O O11 0.151061 0.398174 0.292810
O O12 0.131282 0.132939 0.258977
O O13 0.989172 0.376798 0.643172
O O14 0.000000 0.585290 0.750000
O O15 0.942372 0.108808 0.566944
O O16 0.000000 0.000000 0.500000
#
# Coordination Sequence:
#
# PCOD9227336 Si02
#       7
#     4   4   4   4   4   4   4
#     4  10  19  39  59  84 116 155 194 236 299 347
#     4  11  20  34  59  90 115 148 197 245 293 350
#     4  10  18  34  60  87 113 143 188 248 292 339
#     4  10  20  36  57  85 115 149 196 240 283 352
#     4  11  21  34  57  86 115 151 189 239 296 342
#     4   9  22  37  58  87 114 151 196 241 286 351
#     4  11  19  38  58  86 115 147 196 239 291 341
#
# _framework density 19.561062
#
# number of rings (size 3 to 8) (size 9 to 14) (size 15 to 20)
#    0.000    1.714    5.714    1.286    0.000    2.857 
#    0.000    4.286    0.000    0.857    0.000    0.000 
#    0.000    0.000    0.000    0.000    0.000    0.000 
#
# Total GULP energy -155889.274376 kJ/mol
# GULP energy per Si atom -5567.474085 kJ/mol
# Density = 1.951654 g / cm^3
# Si number density = 19.561062 Si / 1000 Ang^3
#
#
#
# Elastic Constant Matrix: (Units=GPa)
#
#
# Indices 1 2 3 4 5 6 
#
# 1 63.8265 13.7967 5.1838 0.0000 8.1604 0.0000
# 2 13.7967 134.0619 37.4847 0.0000 22.1618 0.0000
# 3 5.1838 37.4847 48.2985 0.0000 25.7117 0.0000
# 4 0.0000 0.0000 0.0000 14.4825 0.0000 15.8277
# 5 8.1604 22.1618 25.7117 0.0000 28.6539 0.0000
# 6 0.0000 0.0000 0.0000 15.8277 0.0000 26.9133
#
#
#
# Elastic Compliance Matrix: (Units=1/GPa)
#
#
# Indices 1 2 3 4 5 6 
#
# 1 0.016515 -0.001417 0.002388 0.000000 -0.005751 0.000000
# 2 -0.001417 0.009678 -0.006871 0.000000 -0.000916 0.000000
# 3 0.002388 -0.006871 0.044636 0.000000 -0.035419 0.000000
# 4 0.000000 0.000000 0.000000 0.193267 0.000000 -0.113660
# 5 -0.005751 -0.000916 -0.035419 0.000000 0.069027 0.000000
# 6 0.000000 0.000000 0.000000 -0.113660 0.000000 0.104000
#
#
# Mechanical properties :
#
#
# Convention : Reuss Voigt Hill
#
# Bulk Modulus (GPa) = 16.94065 39.90190 28.42127
# Shear Modulus (GPa) = 10.67011 26.65806 18.66408
#
# Velocity S-wave (km/s) = 2.33808 3.69563 3.09227
# Velocity P-wave (km/s) = 3.99600 6.21717 5.22595
#
# Compressibility (1/GPa) = 0.05902962
#
# Stress axis : x y z
#
# Youngs Moduli (GPa) = 60.55106 103.33023 22.40335
#
# Poissons Ratio (x) = 0.14640 -0.05351
# Poissons Ratio (y) = 0.08579 0.15394
# Poissons Ratio (z) = -0.14462 0.71002
#
# Static dielectric constant tensor:
#      x y z
#    x 1.720510 0.000000 -0.041650 
#    y 0.000000 1.727930 0.000000 
#    z -0.041650 0.000000 1.800560 
# 
# From -- ./inp_files/82209.got.cif
#   From: 2010.05.17/outbox.cif.g08.bks.cpg/sg13_42_cif.got.tgz:82209.got - 2010.06.03 16:44:36.
