data_PCOD9227585
_publ_section_title
;
Structure prediction by ZEFSAII (Michael W. Deem and Ramdas Pophale) SiO2 
 PCOD9227585
Probable space group: P 2/C
;
_chemical_formula_sum "Si O2"
_cell_formula_units_Z 22
_cell_length_a 25.368255
_cell_length_b 7.829570
_cell_length_c 16.038914
_cell_angle_alpha 90.000000
_cell_angle_beta 160.173192
_cell_angle_gamma 90.000000
_cell_volume 1080.516194
_symmetry_space_group_name_H-M "P 2/C"
_symmetry_group_IT_number 13
_symmetry_cell_setting 'monoclinic'
loop_
_space_group_symop_operation_xyz
x,y,z
-x,y,1/2-z
-x,-y,-z
x,-y,1/2+z
loop_
_atom_site_type_symbol
_atom_site_label
_atom_site_fract_x
_atom_site_fract_y
_atom_site_fract_z
Si Si1 0.683263 0.510242 0.539028
Si Si2 0.710591 0.548201 0.894776
Si Si3 0.000000 0.638887 0.750000
Si Si4 0.367122 0.894794 0.985416
Si Si5 0.488861 0.757531 0.464143
Si Si6 0.781647 0.790340 0.306386
O O1 0.756804 0.456595 0.560020
O O2 0.702397 0.709627 0.591915
O O3 0.738249 0.380975 0.691558
O O4 0.500000 0.484816 0.250000
O O5 0.632950 0.715822 0.739733
O O6 0.571758 0.410902 0.675062
O O7 0.855873 0.480907 0.058770
O O8 0.947647 0.758007 0.595460
O O9 0.454493 0.873498 0.026882
O O10 0.243092 0.045269 0.788441
O O11 0.500000 0.940867 0.250000
O O12 0.341977 0.807524 0.301607
#
# Coordination Sequence:
#
# PCOD9227585 Si02
#       6
#     4   4   2   4   4   4
#     4  11  19  38  65  94 121 147 197 263 294 343
#     4  10  19  37  63  90 119 161 196 241 304 350
#     4  10  24  40  56  84 130 164 196 242 290 370
#     4  11  21  35  61  95 117 147 200 258 295 341
#     4  10  18  36  63  88 118 156 203 249 287 350
#     4  11  23  39  61  89 122 160 200 241 302 355
#
# _framework density 20.360638999999999
#
# number of rings (size 3 to 8) (size 9 to 14) (size 15 to 20)
#    0.000    1.455    5.455    3.273    0.000    0.727 
#    0.000    4.545    0.000    0.000    0.000    0.000 
#    0.000    0.000    0.000    0.000    0.000    0.000 
#
# Total GULP energy -122752.971164 kJ/mol
# GULP energy per Si atom -5579.680507 kJ/mol
# Density = 2.031430 g / cm^3
# Si number density = 20.360639 Si / 1000 Ang^3
#
#
#
# Elastic Constant Matrix: (Units=GPa)
#
#
# Indices 1 2 3 4 5 6 
#
# 1 63.9975 -11.1196 -8.3451 0.0000 -13.0007 0.0000
# 2 -11.1196 40.6482 25.5379 0.0000 -16.3417 0.0000
# 3 -8.3451 25.5379 61.5307 0.0000 -13.1968 0.0000
# 4 0.0000 0.0000 0.0000 -3.8937 0.0000 -2.9699
# 5 -13.0007 -16.3417 -13.1968 0.0000 30.0032 0.0000
# 6 0.0000 0.0000 0.0000 -2.9699 0.0000 9.8570
#
#
#
# Elastic Compliance Matrix: (Units=1/GPa)
#
#
# Indices 1 2 3 4 5 6 
#
# 1 0.020986 0.011078 0.001648 0.000000 0.015852 0.000000
# 2 0.011078 0.044751 -0.011940 0.000000 0.023923 0.000000
# 3 0.001648 -0.011940 0.022293 0.000000 0.004016 0.000000
# 4 0.000000 0.000000 0.000000 -0.208833 0.000000 -0.062921
# 5 0.015852 0.023923 0.004016 0.000000 0.054995 0.000000
# 6 0.000000 0.000000 0.000000 -0.062921 0.000000 0.082492
#
#
# Mechanical properties :
#
#
# Convention : Reuss Voigt Hill
#
# Bulk Modulus (GPa) = 11.16048 19.81366 15.48707
# Shear Modulus (GPa) = 111.16255 17.86685 64.51470
#
# Velocity S-wave (km/s) = 7.39698 2.96551 5.63514
# Velocity P-wave (km/s) = 8.85703 4.63445 7.06842
#
# Compressibility (1/GPa) = 0.08960186
#
# Stress axis : x y z
#
# Youngs Moduli (GPa) = 47.65158 22.34571 44.85785
#
# Poissons Ratio (x) = -0.24755 -0.07393
# Poissons Ratio (y) = -0.52790 0.53562
# Poissons Ratio (z) = -0.07853 0.26682
#
# Static dielectric constant tensor:
#      x y z
#    x 1.772750 0.000000 -0.025640 
#    y 0.000000 1.811650 0.000000 
#    z -0.025640 0.000000 1.701170 
# 
# From -- ./inp_files/49524.got.cif
#   From: 2010.05.17/outbox.cif.g08.bks.cpg/sg13_25_cif.got.tgz:49524.got - 2010.06.03 16:44:36.
