data_PCOD9227515
_publ_section_title
;
Structure prediction by ZEFSAII (Michael W. Deem and Ramdas Pophale) SiO2 
 PCOD9227515
Probable space group: P 2/C
;
_chemical_formula_sum "Si O2"
_cell_formula_units_Z 20
_cell_length_a 7.261892
_cell_length_b 10.754906
_cell_length_c 17.494896
_cell_angle_alpha 90.000000
_cell_angle_beta 49.748266
_cell_angle_gamma 90.000000
_cell_volume 1042.829914
_symmetry_space_group_name_H-M "P 2/C"
_symmetry_group_IT_number 13
_symmetry_cell_setting 'monoclinic'
loop_
_space_group_symop_operation_xyz
x,y,z
-x,y,1/2-z
-x,-y,-z
x,-y,1/2+z
loop_
_atom_site_type_symbol
_atom_site_label
_atom_site_fract_x
_atom_site_fract_y
_atom_site_fract_z
Si Si1 0.007302 0.816313 0.461313
Si Si2 0.755573 0.640953 0.991887
Si Si3 0.217121 0.956639 0.836627
Si Si4 0.161562 0.299306 0.278479
Si Si5 0.414885 0.633165 0.936471
O O1 0.829477 0.707960 0.483935
O O2 0.223692 0.751246 0.451536
O O3 0.093513 0.908873 0.372070
O O4 0.848984 0.897495 0.563372
O O5 0.585866 0.664102 0.963650
O O6 0.031125 0.634069 0.884962
O O7 0.655508 0.511347 0.049873
O O8 0.500000 0.971838 0.750000
O O9 0.134610 0.848239 0.801188
O O10 0.433741 0.327478 0.179443
O O11 0.000000 0.337879 0.250000
#
# Coordination Sequence:
#
# PCOD9227515 Si02
#       5
#     4   4   4   4   4
#     4  10  20  35  55  79 106 138 180 219 265 309
#     4   9  20  34  55  85 105 137 179 218 263 322
#     4  10  19  36  53  76 106 140 181 219 258 317
#     4   9  18  35  56  77 103 143 182 212 267 322
#     4  10  18  36  58  77 110 142 172 219 267 315
#
# _framework density 19.178584000000001
#
# number of rings (size 3 to 8) (size 9 to 14) (size 15 to 20)
#    0.000    2.400    2.000    0.600    0.000    0.000 
#    7.200    4.000    0.000    0.000    0.000    0.000 
#    0.000    0.000    0.000    0.000    0.000    0.000 
#
# Total GULP energy -111354.523399 kJ/mol
# GULP energy per Si atom -5567.726170 kJ/mol
# Density = 1.913493 g / cm^3
# Si number density = 19.178584 Si / 1000 Ang^3
#
#
#
# Elastic Constant Matrix: (Units=GPa)
#
#
# Indices 1 2 3 4 5 6 
#
# 1 45.9276 15.3724 20.4481 0.0000 -8.4756 0.0000
# 2 15.3724 73.3237 39.1794 0.0000 0.4688 0.0000
# 3 20.4481 39.1794 46.5096 0.0000 -3.5428 0.0000
# 4 0.0000 0.0000 0.0000 25.3472 0.0000 -0.7374
# 5 -8.4756 0.4688 -3.5428 0.0000 19.1713 0.0000
# 6 0.0000 0.0000 0.0000 -0.7374 0.0000 24.0827
#
#
#
# Elastic Compliance Matrix: (Units=1/GPa)
#
#
# Indices 1 2 3 4 5 6 
#
# 1 0.029072 0.000431 -0.012341 0.000000 0.010562 0.000000
# 2 0.000431 0.025203 -0.021759 0.000000 -0.004447 0.000000
# 3 -0.012341 -0.021759 0.045522 0.000000 0.003489 0.000000
# 4 0.000000 0.000000 0.000000 0.039487 0.000000 0.001209
# 5 0.010562 -0.004447 0.003489 0.000000 0.057584 0.000000
# 6 0.000000 0.000000 0.000000 0.001209 0.000000 0.041561
#
#
# Mechanical properties :
#
#
# Convention : Reuss Voigt Hill
#
# Bulk Modulus (GPa) = 30.80657 35.08451 32.94554
# Shear Modulus (GPa) = 15.79351 19.77099 17.78225
#
# Velocity S-wave (km/s) = 2.87278 3.21423 3.04829
# Velocity P-wave (km/s) = 5.20593 5.66642 5.44105
#
# Compressibility (1/GPa) = 0.03246061
#
# Stress axis : x y z
#
# Youngs Moduli (GPa) = 34.39677 39.67828 21.96744
#
# Poissons Ratio (x) = -0.01712 0.27109
# Poissons Ratio (y) = -0.01484 0.47799
# Poissons Ratio (z) = 0.42448 0.86336
#
# Static dielectric constant tensor:
#      x y z
#    x 1.692850 0.000000 0.006250 
#    y 0.000000 1.682500 0.000000 
#    z 0.006250 0.000000 1.688660 
# 
# From -- ./inp_files/28202.got.cif
#   From: 2010.05.17/outbox.cif.g08.bks.cpg/sg13_15_cif.got.tgz:28202.got - 2010.06.03 16:44:36.
