data_PCOD9227617
_publ_section_title
;
Structure prediction by ZEFSAII (Michael W. Deem and Ramdas Pophale) SiO2 
 PCOD9227617
Probable space group: P 2/C
;
_chemical_formula_sum "Si O2"
_cell_formula_units_Z 22
_cell_length_a 11.904101
_cell_length_b 5.813602
_cell_length_c 10.362996
_cell_angle_alpha 90.000000
_cell_angle_beta 95.219035
_cell_angle_gamma 90.000000
_cell_volume 714.205194
_symmetry_space_group_name_H-M "P 2/C"
_symmetry_group_IT_number 13
_symmetry_cell_setting 'monoclinic'
loop_
_space_group_symop_operation_xyz
x,y,z
-x,y,1/2-z
-x,-y,-z
x,-y,1/2+z
loop_
_atom_site_type_symbol
_atom_site_label
_atom_site_fract_x
_atom_site_fract_y
_atom_site_fract_z
Si Si1 0.090528 0.871653 0.141841
Si Si2 0.500000 0.473633 0.250000
Si Si3 0.681890 0.872239 0.032445
Si Si4 0.907177 0.373143 0.353504
Si Si5 0.646024 0.871814 0.301462
Si Si6 0.283807 0.627995 0.881285
O O1 0.081070 0.620181 0.076657
O O2 0.219012 0.865527 0.209094
O O3 0.000000 0.874764 0.250000
O O4 0.084862 0.124718 0.075993
O O5 0.589796 0.635973 0.339906
O O6 0.587062 0.372355 0.154398
O O7 0.604263 0.883907 0.150138
O O8 0.736393 0.617841 0.048483
O O9 0.740397 0.129888 0.047997
O O10 0.624498 0.911314 0.889124
O O11 0.794585 0.371066 0.253692
O O12 0.000000 0.370751 0.250000
#
# Coordination Sequence:
#
# PCOD9227617 Si02
#       6
#     4   2   4   4   4   4
#     4  10  20  38  70  97 138 176 229 280 344 405
#     4  10  24  42  76 102 144 180 236 282 352 408
#     4  11  26  43  74  97 146 177 236 280 347 409
#     4  10  18  36  69  96 137 176 229 280 344 405
#     4  11  24  48  69 107 136 187 228 289 342 415
#     4  11  22  44  66 108 136 187 228 289 342 415
#
# _framework density 30.803469
#
# number of rings (size 3 to 8) (size 9 to 14) (size 15 to 20)
#    0.000    1.455    5.455    0.000    0.000   10.909 
#    0.000    0.909    0.000    4.364    0.000    0.000 
#    0.000    0.000    0.000    0.000    0.000    0.000 
#
# Total GULP energy -123035.988932 kJ/mol
# GULP energy per Si atom -5592.544951 kJ/mol
# Density = 3.073336 g / cm^3
# Si number density = 30.803469 Si / 1000 Ang^3
#
#
#
# Elastic Constant Matrix: (Units=GPa)
#
#
# Indices 1 2 3 4 5 6 
#
# 1 204.8252 66.4006 18.5672 0.0000 -23.9520 0.0000
# 2 66.4006 381.0348 57.2046 0.0000 -8.6283 0.0000
# 3 18.5672 57.2046 120.1433 0.0000 -23.0336 0.0000
# 4 0.0000 0.0000 0.0000 89.2274 0.0000 0.1043
# 5 -23.9520 -8.6283 -23.0336 0.0000 21.0539 0.0000
# 6 0.0000 0.0000 0.0000 0.1043 0.0000 68.6715
#
#
#
# Elastic Compliance Matrix: (Units=1/GPa)
#
#
# Indices 1 2 3 4 5 6 
#
# 1 0.006001 -0.001026 0.000999 0.000000 0.007500 0.000000
# 2 -0.001026 0.003004 -0.001594 0.000000 -0.001680 0.000000
# 3 0.000999 -0.001594 0.011415 0.000000 0.012971 0.000000
# 4 0.000000 0.000000 0.000000 0.011207 0.000000 -0.000017
# 5 0.007500 -0.001680 0.012971 0.000000 0.069532 0.000000
# 6 0.000000 0.000000 0.000000 -0.000017 0.000000 0.014562
#
#
# Mechanical properties :
#
#
# Convention : Reuss Voigt Hill
#
# Bulk Modulus (GPa) = 58.21284 110.03868 84.12576
# Shear Modulus (GPa) = 40.09946 73.37930 56.73938
#
# Velocity S-wave (km/s) = 3.61194 4.88605 4.29649
# Velocity P-wave (km/s) = 6.02777 8.22385 7.20991
#
# Compressibility (1/GPa) = 0.01717834
#
# Stress axis : x y z
#
# Youngs Moduli (GPa) = 166.63171 332.83515 87.60537
#
# Poissons Ratio (x) = 0.34147 -0.08751
# Poissons Ratio (y) = 0.17095 0.13965
# Poissons Ratio (z) = -0.16644 0.53055
#
# Static dielectric constant tensor:
#      x y z
#    x 2.412580 0.000000 0.106710 
#    y 0.000000 2.528590 0.000000 
#    z 0.106710 0.000000 2.556120 
# 
# From -- ./inp_files/48878.got.cif
#   From: 2010.05.17/outbox.cif.g08.bks.cpg/sg13_25_cif.got.tgz:48878.got - 2010.06.03 16:44:36.
