data_PCOD9227482
_publ_section_title
;
Structure prediction by ZEFSAII (Michael W. Deem and Ramdas Pophale) SiO2 
 PCOD9227482
Probable space group: P 2/C
;
_chemical_formula_sum "Si O2"
_cell_formula_units_Z 22
_cell_length_a 12.836624
_cell_length_b 11.027705
_cell_length_c 14.301923
_cell_angle_alpha 90.000000
_cell_angle_beta 28.952947
_cell_angle_gamma 90.000000
_cell_volume 980.071087
_symmetry_space_group_name_H-M "P 2/C"
_symmetry_group_IT_number 13
_symmetry_cell_setting 'monoclinic'
loop_
_space_group_symop_operation_xyz
x,y,z
-x,y,1/2-z
-x,-y,-z
x,-y,1/2+z
loop_
_atom_site_type_symbol
_atom_site_label
_atom_site_fract_x
_atom_site_fract_y
_atom_site_fract_z
Si Si1 0.899679 0.846596 0.048308
Si Si2 0.811193 0.213310 0.830229
Si Si3 0.000000 0.553630 0.250000
Si Si4 0.272055 0.361037 0.952918
Si Si5 0.544299 0.958504 0.823593
Si Si6 0.788715 0.837302 0.855440
O O1 0.889947 0.807275 0.163058
O O2 0.771212 0.746345 0.087149
O O3 0.779066 0.976182 0.136621
O O4 0.128853 0.841031 0.815204
O O5 0.821332 0.355058 0.849246
O O6 0.000000 0.159770 0.750000
O O7 0.578401 0.153464 0.029120
O O8 0.902856 0.465767 0.404514
O O9 0.500000 0.415844 0.750000
O O10 0.271734 0.292671 0.053777
O O11 0.500000 0.933486 0.750000
O O12 0.398369 0.069363 0.976999
O O13 0.000000 0.873558 0.750000
#
# Coordination Sequence:
#
# PCOD9227482 Si02
#       6
#     4   4   2   4   4   4
#     4  11  21  40  72  98 128 174 228 279 325 391
#     4  10  27  46  57  95 146 185 209 261 353 405
#     4  10  24  46  62  90 144 184 210 274 338 392
#     4  11  19  40  71 103 123 163 238 283 319 381
#     4  12  21  41  69 100 133 167 221 281 332 400
#     4  10  18  35  66 104 122 156 220 288 325 366
#
# _framework density 22.447351000000001
#
# number of rings (size 3 to 8) (size 9 to 14) (size 15 to 20)
#    0.545    0.727    8.182    1.091    0.000    2.182 
#    3.273    0.909    0.000    0.000    0.000    0.000 
#    0.000    0.000    0.000    0.000    0.000    0.000 
#
# Total GULP energy -122767.377821 kJ/mol
# GULP energy per Si atom -5580.335355 kJ/mol
# Density = 2.239626 g / cm^3
# Si number density = 22.447351 Si / 1000 Ang^3
#
#
#
# Elastic Constant Matrix: (Units=GPa)
#
#
# Indices 1 2 3 4 5 6 
#
# 1 61.2492 19.3092 49.3752 0.0000 28.8484 0.0000
# 2 19.3092 112.5575 43.1940 0.0000 1.3595 0.0000
# 3 49.3752 43.1940 175.2775 0.0000 12.3246 0.0000
# 4 0.0000 0.0000 0.0000 14.3938 0.0000 -1.9079
# 5 28.8484 1.3595 12.3246 0.0000 54.9201 0.0000
# 6 0.0000 0.0000 0.0000 -1.9079 0.0000 9.0326
#
#
#
# Elastic Compliance Matrix: (Units=1/GPa)
#
#
# Indices 1 2 3 4 5 6 
#
# 1 0.028728 -0.002236 -0.006588 0.000000 -0.013556 0.000000
# 2 -0.002236 0.009991 -0.001928 0.000000 0.001360 0.000000
# 3 -0.006588 -0.001928 0.007914 0.000000 0.001732 0.000000
# 4 0.000000 0.000000 0.000000 0.071475 0.000000 0.015097
# 5 -0.013556 0.001360 0.001732 0.000000 0.024907 0.000000
# 6 0.000000 0.000000 0.000000 0.015097 0.000000 0.113898
#
#
# Mechanical properties :
#
#
# Convention : Reuss Voigt Hill
#
# Bulk Modulus (GPa) = 39.79496 63.64900 51.72198
# Shear Modulus (GPa) = 17.43404 31.48303 24.45854
#
# Velocity S-wave (km/s) = 2.78989 3.74910 3.30448
# Velocity P-wave (km/s) = 5.30515 6.86712 6.13604
#
# Compressibility (1/GPa) = 0.02512881
#
# Stress axis : x y z
#
# Youngs Moduli (GPa) = 34.80950 100.08637 126.35171
#
# Poissons Ratio (x) = 0.22382 0.83244
# Poissons Ratio (y) = 0.07784 0.24359
# Poissons Ratio (z) = 0.22933 0.19295
#
# Static dielectric constant tensor:
#      x y z
#    x 1.973720 0.000000 -0.085900 
#    y 0.000000 1.801750 0.000000 
#    z -0.085900 0.000000 1.892980 
# 
# From -- ./inp_files/53467.got.cif
#   From: 2010.05.17/outbox.cif.g08.bks.cpg/sg13_27_cif.got.tgz:53467.got - 2010.06.03 16:44:36.
