data_PCOD9227586
_publ_section_title
;
Structure prediction by ZEFSAII (Michael W. Deem and Ramdas Pophale) SiO2 
 PCOD9227586
Probable space group: P 2/C
;
_chemical_formula_sum "Si O2"
_cell_formula_units_Z 28
_cell_length_a 15.122583
_cell_length_b 9.806214
_cell_length_c 21.475057
_cell_angle_alpha 90.000000
_cell_angle_beta 153.684025
_cell_angle_gamma 90.000000
_cell_volume 1411.822500
_symmetry_space_group_name_H-M "P 2/C"
_symmetry_group_IT_number 13
_symmetry_cell_setting 'monoclinic'
loop_
_space_group_symop_operation_xyz
x,y,z
-x,y,1/2-z
-x,-y,-z
x,-y,1/2+z
loop_
_atom_site_type_symbol
_atom_site_label
_atom_site_fract_x
_atom_site_fract_y
_atom_site_fract_z
Si Si1 0.672237 0.135370 0.445555
Si Si2 0.244642 0.059971 0.130203
Si Si3 0.493849 0.660235 0.071545
Si Si4 0.840056 0.864185 0.599897
Si Si5 0.483205 0.336905 0.057525
Si Si6 0.927971 0.234335 0.375121
Si Si7 0.685097 0.735439 0.321627
O O1 0.450362 0.133631 0.278707
O O2 0.813043 0.124398 0.473356
O O3 0.668498 0.256438 0.492894
O O4 0.699772 0.990850 0.496415
O O5 0.109626 0.106052 0.102523
O O6 0.297378 0.900167 0.160234
O O7 0.462176 0.498327 0.052508
O O8 0.636001 0.699627 0.219290
O O9 0.290046 0.740618 0.956388
O O10 0.555865 0.697449 0.039924
O O11 0.000000 0.912924 0.750000
O O12 0.960366 0.815521 0.615826
O O13 0.714551 0.298761 0.221490
O O14 0.100377 0.320837 0.519629
O O15 0.500000 0.693260 0.250000
#
# Coordination Sequence:
#
# PCOD9227586 Si02
#       7
#     4   4   4   4   4   4   4
#     4  10  20  40  61  94 125 162 208 263 315 365
#     4  10  18  36  63  89 130 157 200 266 318 362
#     4  11  23  44  64  87 130 175 211 256 319 379
#     4  12  22  38  66  93 123 165 217 259 314 382
#     4  10  25  44  64  89 129 174 213 259 319 372
#     4  11  22  37  64  96 121 163 210 261 312 378
#     4  12  20  37  64  96 126 166 207 255 319 375
#
# _framework density 19.832519999999999
#
# number of rings (size 3 to 8) (size 9 to 14) (size 15 to 20)
#    0.000    1.143    7.143    0.429    0.000    2.286 
#    5.143    2.143    0.000    0.000    0.000    0.000 
#    0.000    0.000    0.000    0.000    0.000    0.000 
#
# Total GULP energy -156021.897086 kJ/mol
# GULP energy per Si atom -5572.210610 kJ/mol
# Density = 1.978738 g / cm^3
# Si number density = 19.832520 Si / 1000 Ang^3
#
#
#
# Elastic Constant Matrix: (Units=GPa)
#
#
# Indices 1 2 3 4 5 6 
#
# 1 128.5003 49.3227 27.0511 0.0000 -34.7057 0.0000
# 2 49.3227 71.2510 -0.2982 0.0000 -11.2310 0.0000
# 3 27.0511 -0.2982 71.3527 0.0000 -26.8323 0.0000
# 4 0.0000 0.0000 0.0000 150.1763 0.0000 133.3196
# 5 -34.7057 -11.2310 -26.8323 0.0000 30.8284 0.0000
# 6 0.0000 0.0000 0.0000 133.3196 0.0000 170.0436
#
#
#
# Elastic Compliance Matrix: (Units=1/GPa)
#
#
# Indices 1 2 3 4 5 6 
#
# 1 0.014434 -0.007993 -0.000728 0.000000 0.012704 0.000000
# 2 -0.007993 0.019800 0.003630 0.000000 0.001375 0.000000
# 3 -0.000728 0.003630 0.021548 0.000000 0.019257 0.000000
# 4 0.000000 0.000000 0.000000 0.021906 0.000000 -0.017175
# 5 0.012704 0.001375 0.019257 0.000000 0.064001 0.000000
# 6 0.000000 0.000000 0.000000 -0.017175 0.000000 0.019347
#
#
# Mechanical properties :
#
#
# Convention : Reuss Voigt Hill
#
# Bulk Modulus (GPa) = 21.93004 47.02836 34.47920
# Shear Modulus (GPa) = 26.82145 83.21156 55.01650
#
# Velocity S-wave (km/s) = 3.68149 6.48446 5.27264
# Velocity P-wave (km/s) = 5.39933 8.93468 7.38178
#
# Compressibility (1/GPa) = 0.04559956
#
# Stress axis : x y z
#
# Youngs Moduli (GPa) = 69.27895 50.50614 46.40823
#
# Poissons Ratio (x) = 0.40368 0.03380
# Poissons Ratio (y) = 0.55372 -0.16845
# Poissons Ratio (z) = 0.05046 -0.18333
#
# Static dielectric constant tensor:
#      x y z
#    x 1.778480 0.000000 0.007190 
#    y 0.000000 1.658640 0.000000 
#    z 0.007190 0.000000 1.768480 
# 
# From -- ./inp_files/80002.got.cif
#   From: 2010.05.17/outbox.cif.g08.bks.cpg/sg13_41_cif.got.tgz:80002.got - 2010.06.03 16:44:36.
