data_PCOD9227445
_publ_section_title
;
Structure prediction by ZEFSAII (Michael W. Deem and Ramdas Pophale) SiO2 
 PCOD9227445
Probable space group: P 2/C
;
_chemical_formula_sum "Si O2"
_cell_formula_units_Z 24
_cell_length_a 12.046846
_cell_length_b 8.094165
_cell_length_c 19.844668
_cell_angle_alpha 90.000000
_cell_angle_beta 144.560538
_cell_angle_gamma 90.000000
_cell_volume 1122.016528
_symmetry_space_group_name_H-M "P 2/C"
_symmetry_group_IT_number 13
_symmetry_cell_setting 'monoclinic'
loop_
_space_group_symop_operation_xyz
x,y,z
-x,y,1/2-z
-x,-y,-z
x,-y,1/2+z
loop_
_atom_site_type_symbol
_atom_site_label
_atom_site_fract_x
_atom_site_fract_y
_atom_site_fract_z
Si Si1 0.690855 0.826264 0.653591
Si Si2 0.314961 0.531392 0.361747
Si Si3 0.255142 0.857077 0.396391
Si Si4 0.453437 0.274718 0.802446
Si Si5 0.225688 0.947715 0.668552
Si Si6 0.209949 0.017149 0.514846
O O1 0.783568 0.647808 0.688904
O O2 0.485814 0.837145 0.515983
O O3 0.794639 0.988427 0.676237
O O4 0.662173 0.848476 0.719132
O O5 0.500000 0.500000 0.500000
O O6 0.199837 0.684033 0.336030
O O7 0.390391 0.591627 0.325970
O O8 0.195991 0.904199 0.442334
O O9 0.500000 0.337144 0.750000
O O10 0.284828 0.138948 0.710025
O O11 0.636266 0.165333 0.918424
O O12 0.270052 0.919417 0.612314
O O13 0.002053 0.917543 0.572581
#
# Coordination Sequence:
#
# PCOD9227445 Si02
#       6
#     4   4   4   4   4   4
#     4  10  19  35  61  83 116 152 191 240 290 342
#     4  10  20  35  60  88 116 151 192 243 285 343
#     4  10  18  35  60  84 114 150 193 240 286 340
#     4  10  19  38  60  83 120 154 187 239 294 339
#     4  10  20  36  61  87 117 155 195 240 287 342
#     4  10  20  34  63  89 113 155 199 235 289 348
#
# _framework density 21.390059000000001
#
# number of rings (size 3 to 8) (size 9 to 14) (size 15 to 20)
#    0.000    2.000    3.333    2.000    0.000    0.667 
#    6.000    0.000   18.333    3.000    0.000    0.000 
#    0.000    0.000    0.000    0.000    0.000    0.000 
#
# Total GULP energy -133854.123215 kJ/mol
# GULP energy per Si atom -5577.255134 kJ/mol
# Density = 2.134137 g / cm^3
# Si number density = 21.390059 Si / 1000 Ang^3
#
#
#
# Elastic Constant Matrix: (Units=GPa)
#
#
# Indices 1 2 3 4 5 6 
#
# 1 115.3968 69.1603 34.1644 0.0000 -28.8831 0.0000
# 2 69.1603 157.5633 30.0897 0.0000 -28.5985 0.0000
# 3 34.1644 30.0897 64.3956 0.0000 -3.7441 0.0000
# 4 0.0000 0.0000 0.0000 5.2791 0.0000 -16.5096
# 5 -28.8831 -28.5985 -3.7441 0.0000 50.5783 0.0000
# 6 0.0000 0.0000 0.0000 -16.5096 0.0000 12.4106
#
#
#
# Elastic Compliance Matrix: (Units=1/GPa)
#
#
# Indices 1 2 3 4 5 6 
#
# 1 0.014041 -0.004223 -0.005171 0.000000 0.005248 0.000000
# 2 -0.004223 0.009011 -0.001822 0.000000 0.002548 0.000000
# 3 -0.005171 -0.001822 0.018974 0.000000 -0.002578 0.000000
# 4 0.000000 0.000000 0.000000 -0.059940 0.000000 -0.079737
# 5 0.005248 0.002548 -0.002578 0.000000 0.024018 0.000000
# 6 0.000000 0.000000 0.000000 -0.079737 0.000000 -0.025497
#
#
# Mechanical properties :
#
#
# Convention : Reuss Voigt Hill
#
# Bulk Modulus (GPa) = 51.03597 67.13160 59.08378
# Shear Modulus (GPa) = 522.44138 27.24970 274.84554
#
# Velocity S-wave (km/s) = 15.64529 3.57311 11.34774
# Velocity P-wave (km/s) = 18.71572 6.96243 14.12009
#
# Compressibility (1/GPa) = 0.01959402
#
# Stress axis : x y z
#
# Youngs Moduli (GPa) = 71.21900 110.97768 52.70458
#
# Poissons Ratio (x) = 0.46868 0.27253
# Poissons Ratio (y) = 0.30077 0.09601
# Poissons Ratio (z) = 0.36827 0.20216
#
# Static dielectric constant tensor:
#      x y z
#    x 1.794080 0.000000 -0.000030 
#    y 0.000000 1.796610 0.000000 
#    z -0.000030 0.000000 1.818740 
# 
# From -- ./inp_files/78147.got.cif
#   From: 2010.05.17/outbox.cif.g08.bks.cpg/sg13_40_cif.got.tgz:78147.got - 2010.06.03 16:44:36.
