data_PCOD9227927
_publ_section_title
;
Structure prediction by ZEFSAII (Michael W. Deem and Ramdas Pophale) SiO2 
 PCOD9227927
Probable space group: P 2/C
;
_chemical_formula_sum "Si O2"
_cell_formula_units_Z 24
_cell_length_a 14.208839
_cell_length_b 9.297860
_cell_length_c 17.741480
_cell_angle_alpha 90.000000
_cell_angle_beta 152.498569
_cell_angle_gamma 90.000000
_cell_volume 1082.325467
_symmetry_space_group_name_H-M "P 2/C"
_symmetry_group_IT_number 13
_symmetry_cell_setting 'monoclinic'
loop_
_space_group_symop_operation_xyz
x,y,z
-x,y,1/2-z
-x,-y,-z
x,-y,1/2+z
loop_
_atom_site_type_symbol
_atom_site_label
_atom_site_fract_x
_atom_site_fract_y
_atom_site_fract_z
Si Si1 0.681596 0.724442 0.055712
Si Si2 0.134405 0.132085 0.664482
Si Si3 0.282019 0.139980 0.069673
Si Si4 0.282594 0.842872 0.825109
Si Si5 0.226397 0.406950 0.389828
Si Si6 0.440462 0.859876 0.100165
O O1 0.789836 0.778075 0.056936
O O2 0.462506 0.801136 0.897612
O O3 0.780950 0.774984 0.204713
O O4 0.654312 0.553469 0.037470
O O5 0.312050 0.148722 0.727342
O O6 0.892813 0.160849 0.491717
O O7 0.140079 0.964221 0.691734
O O8 0.500000 0.200307 0.250000
O O9 0.335572 0.975895 0.080301
O O10 0.196880 0.693174 0.795207
O O11 0.378340 0.907177 0.970782
O O12 0.338575 0.298911 0.528477
O O13 0.000000 0.451322 0.250000
#
# Coordination Sequence:
#
# PCOD9227927 Si02
#       6
#     4   4   4   4   4   4
#     4  11  19  37  55  85 110 140 179 223 272 321
#     4  11  19  36  62  78 110 138 181 234 270 309
#     4  12  24  36  55  81 110 147 184 222 270 325
#     4   9  18  33  57  84 107 134 175 236 265 311
#     4  10  19  30  56  89 112 133 174 230 273 318
#     4   9  20  36  53  83 110 138 178 225 270 316
#
# _framework density 22.174474
#
# number of rings (size 3 to 8) (size 9 to 14) (size 15 to 20)
#    1.000    0.667    3.333    4.000    0.000    0.667 
#    0.000    0.833    0.000    1.000    0.000    0.000 
#    0.000    0.000    0.000    0.000    0.000    0.000 
#
# Total GULP energy -133695.771947 kJ/mol
# GULP energy per Si atom -5570.657164 kJ/mol
# Density = 2.212400 g / cm^3
# Si number density = 22.174474 Si / 1000 Ang^3
#
#
#
# Elastic Constant Matrix: (Units=GPa)
#
#
# Indices 1 2 3 4 5 6 
#
# 1 47.0033 -8.3183 4.7006 0.0000 -0.2545 0.0000
# 2 -8.3183 118.2829 -3.6503 0.0000 -8.4692 0.0000
# 3 4.7006 -3.6503 88.9668 0.0000 22.3636 0.0000
# 4 0.0000 0.0000 0.0000 15.9121 0.0000 7.1547
# 5 -0.2545 -8.4692 22.3636 0.0000 33.8426 0.0000
# 6 0.0000 0.0000 0.0000 7.1547 0.0000 7.0505
#
#
#
# Elastic Compliance Matrix: (Units=1/GPa)
#
#
# Indices 1 2 3 4 5 6 
#
# 1 0.021712 0.001591 -0.001467 0.000000 0.001531 0.000000
# 2 0.001591 0.008729 -0.000333 0.000000 0.002417 0.000000
# 3 -0.001467 -0.000333 0.013584 0.000000 -0.009071 0.000000
# 4 0.000000 0.000000 0.000000 0.115584 0.000000 -0.117292
# 5 0.001531 0.002417 -0.009071 0.000000 0.036159 0.000000
# 6 0.000000 0.000000 0.000000 -0.117292 0.000000 0.260859
#
#
# Mechanical properties :
#
#
# Convention : Reuss Voigt Hill
#
# Bulk Modulus (GPa) = 22.93202 26.63522 24.78362
# Shear Modulus (GPa) = 10.60266 28.79578 19.69922
#
# Velocity S-wave (km/s) = 2.18903 3.60752 2.98379
# Velocity P-wave (km/s) = 4.09307 5.42125 4.80329
#
# Compressibility (1/GPa) = 0.04360714
#
# Stress axis : x y z
#
# Youngs Moduli (GPa) = 46.05821 114.56114 73.61525
#
# Poissons Ratio (x) = -0.18229 0.10796
# Poissons Ratio (y) = -0.07329 0.02454
# Poissons Ratio (z) = 0.06755 0.03820
#
# Static dielectric constant tensor:
#      x y z
#    x 1.887020 0.000000 -0.001620 
#    y 0.000000 1.788390 0.000000 
#    z -0.001620 0.000000 1.872780 
# 
# From -- ./inp_files/87946.got.cif
#   From: 2010.05.17/outbox.cif.g08.bks.cpg/sg13_44_cif.got.tgz:87946.got - 2010.06.03 16:44:36.
