data_PCOD9227861
_publ_section_title
;
Structure prediction by ZEFSAII (Michael W. Deem and Ramdas Pophale) SiO2 
 PCOD9227861
Probable space group: P 2/C
;
_chemical_formula_sum "Si O2"
_cell_formula_units_Z 32
_cell_length_a 14.392583
_cell_length_b 25.375581
_cell_length_c 5.258668
_cell_angle_alpha 90.000000
_cell_angle_beta 89.625665
_cell_angle_gamma 90.000000
_cell_volume 1920.530556
_symmetry_space_group_name_H-M "P 2/C"
_symmetry_group_IT_number 13
_symmetry_cell_setting 'monoclinic'
loop_
_space_group_symop_operation_xyz
x,y,z
-x,y,1/2-z
-x,-y,-z
x,-y,1/2+z
loop_
_atom_site_type_symbol
_atom_site_label
_atom_site_fract_x
_atom_site_fract_y
_atom_site_fract_z
Si Si1 0.894173 0.709945 0.803555
Si Si2 0.790479 0.416800 0.814175
Si Si3 0.895924 0.418768 0.312187
Si Si4 0.403692 0.533213 0.316561
Si Si5 0.611710 0.219103 0.741174
Si Si6 0.783949 0.290087 0.807056
Si Si7 0.386581 0.031885 0.249669
Si Si8 0.388164 0.152170 0.258803
O O1 0.896346 0.645579 0.807473
O O2 0.828306 0.727270 0.573404
O O3 0.000000 0.726906 0.750000
O O4 0.850043 0.726752 0.071923
O O5 0.860698 0.434275 0.590618
O O6 0.689104 0.436282 0.744215
O O7 0.786484 0.353464 0.812980
O O8 0.826196 0.435256 0.088458
O O9 0.000000 0.436572 0.250000
O O10 0.500000 0.562674 0.250000
O O11 0.404629 0.514279 0.608288
O O12 0.500000 0.230749 0.750000
O O13 0.680226 0.268573 0.767920
O O14 0.635532 0.188515 0.480893
O O15 0.633839 0.180595 0.976652
O O16 0.500000 0.033114 0.250000
O O17 0.353199 0.092253 0.242912
O O18 0.358080 0.001177 0.503716
O O19 0.500000 0.148157 0.250000
#
# Coordination Sequence:
#
# PCOD9227861 Si02
#       8
#     4   4   4   4   4   4   4   4
#     4   9  17  30  47  68  92 115 147 189 226 265
#     4  10  19  32  52  73  93 117 149 190 223 261
#     4   9  17  30  50  74  97 120 143 174 221 271
#     4  10  21  37  55  72  91 119 153 189 233 275
#     4  10  19  30  42  59  90 127 157 183 214 264
#     4  10  19  30  47  71  92 118 155 185 220 265
#     4   9  15  23  37  56  75 100 147 203 233 250
#     4   9  17  28  40  55  81 120 157 187 225 265
#
# _framework density 16.662063
#
# number of rings (size 3 to 8) (size 9 to 14) (size 15 to 20)
#    0.000    2.500    0.000    3.000    0.000    6.500 
#    0.000    0.000    0.000   16.500    0.000    0.000 
#    0.000    0.000    0.000    0.000    0.000  157.500 
#
# Total GULP energy -178405.080552 kJ/mol
# GULP energy per Si atom -5575.158767 kJ/mol
# Density = 1.662414 g / cm^3
# Si number density = 16.662063 Si / 1000 Ang^3
#
#
#
# Elastic Constant Matrix: (Units=GPa)
#
#
# Indices 1 2 3 4 5 6 
#
# 1 47.1618 2.6835 -11.2999 0.0000 2.4732 0.0000
# 2 2.6835 29.1217 4.1537 0.0000 1.7090 0.0000
# 3 -11.2999 4.1537 80.7482 0.0000 7.6426 0.0000
# 4 0.0000 0.0000 0.0000 2.1781 0.0000 -4.5936
# 5 2.4732 1.7090 7.6426 0.0000 20.5867 0.0000
# 6 0.0000 0.0000 0.0000 -4.5936 0.0000 -15.1297
#
#
#
# Elastic Compliance Matrix: (Units=1/GPa)
#
#
# Indices 1 2 3 4 5 6 
#
# 1 0.022406 -0.002356 0.003620 0.000000 -0.003840 0.000000
# 2 -0.002356 0.034945 -0.001948 0.000000 -0.001895 0.000000
# 3 0.003620 -0.001948 0.013491 0.000000 -0.005282 0.000000
# 4 0.000000 0.000000 0.000000 0.279893 0.000000 -0.084980
# 5 -0.003840 -0.001895 -0.005282 0.000000 0.051155 0.000000
# 6 0.000000 0.000000 0.000000 -0.084980 0.000000 -0.040294
#
#
# Mechanical properties :
#
#
# Convention : Reuss Voigt Hill
#
# Bulk Modulus (GPa) = 14.39362 16.45627 15.42494
# Shear Modulus (GPa) = 12.94930 12.29330 12.62130
#
# Velocity S-wave (km/s) = 2.79081 2.71920 2.75523
# Velocity P-wave (km/s) = 4.36373 4.44484 4.40447
#
# Compressibility (1/GPa) = 0.06947521
#
# Stress axis : x y z
#
# Youngs Moduli (GPa) = 44.63002 28.61663 74.12413
#
# Poissons Ratio (x) = 0.06741 -0.26834
# Poissons Ratio (y) = 0.10514 0.14439
# Poissons Ratio (z) = -0.16157 0.05574
#
# Static dielectric constant tensor:
#      x y z
#    x 1.555930 0.000000 -0.005050 
#    y 0.000000 1.559920 0.000000 
#    z -0.005050 0.000000 1.579730 
# 
# From -- ./inp_files/4372.got.cif
#   From: 2010.05.17/outbox.cif.g08.bks.cpg/sg13_3_cif.got.tgz:4372.got - 2010.06.03 16:44:36.
