data_PCOD9227862
_publ_section_title
;
Structure prediction by ZEFSAII (Michael W. Deem and Ramdas Pophale) SiO2 
 PCOD9227862
Probable space group: P 2/C
;
_chemical_formula_sum "Si O2"
_cell_formula_units_Z 28
_cell_length_a 14.438139
_cell_length_b 15.058935
_cell_length_c 5.679334
_cell_angle_alpha 90.000000
_cell_angle_beta 57.231170
_cell_angle_gamma 90.000000
_cell_volume 1038.310366
_symmetry_space_group_name_H-M "P 2/C"
_symmetry_group_IT_number 13
_symmetry_cell_setting 'monoclinic'
loop_
_space_group_symop_operation_xyz
x,y,z
-x,y,1/2-z
-x,-y,-z
x,-y,1/2+z
loop_
_atom_site_type_symbol
_atom_site_label
_atom_site_fract_x
_atom_site_fract_y
_atom_site_fract_z
Si Si1 0.678412 0.707255 0.652089
Si Si2 0.374710 0.970873 0.399158
Si Si3 0.125091 0.845376 0.580801
Si Si4 0.127510 0.149063 0.577490
Si Si5 0.650130 0.234783 0.688782
Si Si6 0.659601 0.493731 0.153569
Si Si7 0.106074 0.451076 0.179772
O O1 0.783913 0.771611 0.532887
O O2 0.616072 0.733294 0.495141
O O3 0.709588 0.605328 0.582655
O O4 0.617451 0.718821 0.988408
O O5 0.500000 0.005773 0.250000
O O6 0.378126 0.868512 0.314024
O O7 0.329591 0.978897 0.729139
O O8 0.142143 0.895950 0.311582
O O9 0.215851 0.768367 0.471216
O O10 0.000000 0.814254 0.750000
O O11 0.139095 0.896528 0.807298
O O12 0.000000 0.180914 0.750000
O O13 0.601770 0.500173 0.483050
O O14 0.761877 0.563613 0.015441
O O15 0.094293 0.480516 0.470189
O O16 0.000000 0.391155 0.250000
#
# Coordination Sequence:
#
# PCOD9227862 Si02
#       7
#     4   4   4   4   4   4   4
#     4  10  19  30  47  71  98 133 176 220 262 301
#     4  10  21  38  61  88 116 142 163 190 243 314
#     4   8  14  25  42  65  94 129 168 209 248 286
#     4   8  14  24  38  58  85 121 167 215 260 301
#     4  10  19  33  53  77 106 135 171 215 251 299
#     4  10  19  30  42  59  90 129 170 217 263 306
#     4   8  14  24  36  50  73 111 159 210 262 309
#
# _framework density 26.966888999999998
#
# number of rings (size 3 to 8) (size 9 to 14) (size 15 to 20)
#    0.000    2.857    0.000    1.714    0.000    0.571 
#    0.000    0.000    0.000   18.000    0.000    0.000 
#    0.000   11.429    0.000    0.000    0.000    0.000 
#
# Total GULP energy -155897.838138 kJ/mol
# GULP energy per Si atom -5567.779933 kJ/mol
# Density = 2.690551 g / cm^3
# Si number density = 26.966889 Si / 1000 Ang^3
#
#
#
# Elastic Constant Matrix: (Units=GPa)
#
#
# Indices 1 2 3 4 5 6 
#
# 1 156.1710 24.9044 95.4822 0.0000 44.8490 0.0000
# 2 24.9044 101.0239 22.5415 0.0000 17.5032 0.0000
# 3 95.4822 22.5415 278.8243 0.0000 85.0365 0.0000
# 4 0.0000 0.0000 0.0000 26.1060 0.0000 13.6592
# 5 44.8490 17.5032 85.0365 0.0000 87.6045 0.0000
# 6 0.0000 0.0000 0.0000 13.6592 0.0000 6.4417
#
#
#
# Elastic Compliance Matrix: (Units=1/GPa)
#
#
# Indices 1 2 3 4 5 6 
#
# 1 0.008524 -0.001267 -0.002220 0.000000 -0.001956 0.000000
# 2 -0.001267 0.010459 0.000040 0.000000 -0.001479 0.000000
# 3 -0.002220 0.000040 0.005681 0.000000 -0.004386 0.000000
# 4 0.000000 0.000000 0.000000 -0.349958 0.000000 0.742064
# 5 -0.001956 -0.001479 -0.004386 0.000000 0.016969 0.000000
# 6 0.000000 0.000000 0.000000 0.742064 0.000000 -1.418261
#
#
# Mechanical properties :
#
#
# Convention : Reuss Voigt Hill
#
# Bulk Modulus (GPa) = 56.27954 91.31948 73.79951
# Shear Modulus (GPa) = -2.91755 50.23651 23.65948
#
# Velocity S-wave (km/s) = -1.04127 4.32081 2.96523
# Velocity P-wave (km/s) = 4.41243 7.67005 6.25696
#
# Compressibility (1/GPa) = 0.01776845
#
# Stress axis : x y z
#
# Youngs Moduli (GPa) = 117.31033 95.61597 176.01785
#
# Poissons Ratio (x) = 0.12116 0.39080
# Poissons Ratio (y) = 0.14865 -0.00697
# Poissons Ratio (z) = 0.26046 -0.00378
#
# Static dielectric constant tensor:
#      x y z
#    x 2.166670 0.000000 -0.046910 
#    y 0.000000 2.034630 0.000000 
#    z -0.046910 0.000000 2.233410 
# 
# From -- ./inp_files/6249.got.cif
#   From: 2010.05.17/outbox.cif.g08.bks.cpg/sg13_4_cif.got.tgz:6249.got - 2010.06.03 16:44:36.
