data_PCOD9227582
_publ_section_title
;
Structure prediction by ZEFSAII (Michael W. Deem and Ramdas Pophale) SiO2 
 PCOD9227582
Probable space group: P 2/C
;
_chemical_formula_sum "Si O2"
_cell_formula_units_Z 14
_cell_length_a 11.938644
_cell_length_b 8.779190
_cell_length_c 10.416072
_cell_angle_alpha 90.000000
_cell_angle_beta 34.724938
_cell_angle_gamma 90.000000
_cell_volume 621.887530
_symmetry_space_group_name_H-M "P 2/C"
_symmetry_group_IT_number 13
_symmetry_cell_setting 'monoclinic'
loop_
_space_group_symop_operation_xyz
x,y,z
-x,y,1/2-z
-x,-y,-z
x,-y,1/2+z
loop_
_atom_site_type_symbol
_atom_site_label
_atom_site_fract_x
_atom_site_fract_y
_atom_site_fract_z
Si Si1 0.242429 0.373675 0.283445
Si Si2 0.043681 0.130377 0.063431
Si Si3 0.000000 0.687703 0.250000
Si Si4 0.328073 0.718541 0.129268
O O1 0.288338 0.537516 0.181643
O O2 0.101722 0.271214 0.329309
O O3 0.125616 0.400503 0.525444
O O4 0.442048 0.277469 0.117472
O O5 0.000000 0.084457 0.250000
O O6 0.260520 0.194101 0.821801
O O7 0.000000 0.000000 0.000000
O O8 0.173865 0.771203 0.165407
#
# Coordination Sequence:
#
# PCOD9227582 Si02
#       4
#     4   4   2   4
#     4  10  23  40  67  99 128 169 223 280 336 395
#     4  11  26  44  67  95 137 182 223 271 330 398
#     4  10  18  36  62  94 130 162 206 266 338 388
#     4  10  23  40  67  99 128 169 223 280 336 395
#
# _framework density 22.51211
#
# number of rings (size 3 to 8) (size 9 to 14) (size 15 to 20)
#    0.000    1.714    0.000    4.286   16.000    2.286 
#    0.000    0.000    0.000    0.000    0.000    0.000 
#    0.000    0.000    0.000    0.000    0.000    0.000 
#
# Total GULP energy -78114.072999 kJ/mol
# GULP energy per Si atom -5579.576643 kJ/mol
# Density = 2.246087 g / cm^3
# Si number density = 22.512110 Si / 1000 Ang^3
#
#
#
# Elastic Constant Matrix: (Units=GPa)
#
#
# Indices 1 2 3 4 5 6 
#
# 1 82.9824 12.7490 71.9876 0.0000 5.3697 0.0000
# 2 12.7490 82.3650 25.4784 0.0000 12.9652 0.0000
# 3 71.9876 25.4784 150.3279 0.0000 -12.8090 0.0000
# 4 0.0000 0.0000 0.0000 12.2422 0.0000 -3.6799
# 5 5.3697 12.9652 -12.8090 0.0000 53.1332 0.0000
# 6 0.0000 0.0000 0.0000 -3.6799 0.0000 14.0535
#
#
#
# Elastic Compliance Matrix: (Units=1/GPa)
#
#
# Indices 1 2 3 4 5 6 
#
# 1 0.021805 0.000828 -0.011013 0.000000 -0.005061 0.000000
# 2 0.000828 0.013610 -0.003056 0.000000 -0.004142 0.000000
# 3 -0.011013 -0.003056 0.012867 0.000000 0.004961 0.000000
# 4 0.000000 0.000000 0.000000 0.088663 0.000000 0.023217
# 5 -0.005061 -0.004142 0.004961 0.000000 0.021539 0.000000
# 6 0.000000 0.000000 0.000000 0.023217 0.000000 0.077236
#
#
# Mechanical properties :
#
#
# Convention : Reuss Voigt Hill
#
# Bulk Modulus (GPa) = 45.87282 59.56725 52.72003
# Shear Modulus (GPa) = 18.55499 29.58314 24.06906
#
# Velocity S-wave (km/s) = 2.87404 3.62898 3.27335
# Velocity P-wave (km/s) = 5.60666 6.63904 6.14457
#
# Compressibility (1/GPa) = 0.02179940
#
# Stress axis : x y z
#
# Youngs Moduli (GPa) = 45.86056 73.47421 77.71918
#
# Poissons Ratio (x) = -0.06086 0.85596
# Poissons Ratio (y) = -0.03799 0.23753
# Poissons Ratio (z) = 0.50508 0.22456
#
# Static dielectric constant tensor:
#      x y z
#    x 1.888220 0.000000 0.011540 
#    y 0.000000 1.875600 0.000000 
#    z 0.011540 0.000000 1.852660 
# 
# From -- ./inp_files/15151.got.cif
#   From: 2010.05.17/outbox.cif.g08.bks.cpg/sg13_8_cif.got.tgz:15151.got - 2010.06.03 16:44:36.
