data_PCOD9227793
_publ_section_title
;
Structure prediction by ZEFSAII (Michael W. Deem and Ramdas Pophale) SiO2 
 PCOD9227793
Probable space group: P 2/C
;
_chemical_formula_sum "Si O2"
_cell_formula_units_Z 22
_cell_length_a 5.124951
_cell_length_b 7.739006
_cell_length_c 27.125617
_cell_angle_alpha 90.000000
_cell_angle_beta 118.234955
_cell_angle_gamma 90.000000
_cell_volume 947.846097
_symmetry_space_group_name_H-M "P 2/C"
_symmetry_group_IT_number 13
_symmetry_cell_setting 'monoclinic'
loop_
_space_group_symop_operation_xyz
x,y,z
-x,y,1/2-z
-x,-y,-z
x,-y,1/2+z
loop_
_atom_site_type_symbol
_atom_site_label
_atom_site_fract_x
_atom_site_fract_y
_atom_site_fract_z
Si Si1 0.279789 0.494457 0.424077
Si Si2 0.539544 0.916360 0.357764
Si Si3 0.963929 0.630967 0.194203
Si Si4 0.880739 0.297792 0.955526
Si Si5 0.564967 0.876831 0.958614
Si Si6 0.500000 0.098863 0.750000
O O1 0.082541 0.511827 0.357111
O O2 0.078240 0.548465 0.451938
O O3 0.561133 0.627022 0.443126
O O4 0.389926 0.302406 0.442681
O O5 0.320924 0.755055 0.330786
O O6 0.839763 0.824980 0.403276
O O7 0.474104 0.029524 0.399877
O O8 0.509527 0.007151 0.302013
O O9 0.772111 0.769945 0.283384
O O10 0.000000 0.537295 0.250000
O O11 0.089679 0.185450 0.009792
O O12 0.500000 0.000000 0.000000
#
# Coordination Sequence:
#
# PCOD9227793 Si02
#       6
#     4   4   4   4   4   2
#     4  11  24  45  69 103 135 183 238 281 340 410
#     4  10  22  39  68 102 134 177 226 281 350 406
#     4   9  19  39  68  95 127 181 232 283 333 414
#     4  11  23  45  70 101 135 188 234 276 336 417
#     4  12  26  43  68 104 149 180 221 287 351 414
#     4  10  18  40  72  96 128 176 238 278 350 410
#
# _framework density 23.210519000000001
#
# number of rings (size 3 to 8) (size 9 to 14) (size 15 to 20)
#    0.000    1.455    1.818    3.818    0.000    2.909 
#    0.000    2.727    0.000    1.091    0.000    0.000 
#    0.000    0.000    0.000    0.000    0.000    0.000 
#
# Total GULP energy -122788.930745 kJ/mol
# GULP energy per Si atom -5581.315034 kJ/mol
# Density = 2.315769 g / cm^3
# Si number density = 23.210519 Si / 1000 Ang^3
#
#
#
# Elastic Constant Matrix: (Units=GPa)
#
#
# Indices 1 2 3 4 5 6 
#
# 1 62.9117 2.8201 7.0695 0.0000 0.9798 0.0000
# 2 2.8201 89.8156 33.3628 0.0000 -10.7316 0.0000
# 3 7.0695 33.3628 202.4362 0.0000 -13.0170 0.0000
# 4 0.0000 0.0000 0.0000 81.2370 0.0000 16.1389
# 5 0.9798 -10.7316 -13.0170 0.0000 34.1416 0.0000
# 6 0.0000 0.0000 0.0000 16.1389 0.0000 36.8510
#
#
#
# Elastic Compliance Matrix: (Units=1/GPa)
#
#
# Indices 1 2 3 4 5 6 
#
# 1 0.015986 -0.000394 -0.000544 0.000000 -0.000790 0.000000
# 2 -0.000394 0.012189 -0.001792 0.000000 0.003160 0.000000
# 3 -0.000544 -0.001792 0.005350 0.000000 0.001492 0.000000
# 4 0.000000 0.000000 0.000000 0.013483 0.000000 -0.005905
# 5 -0.000790 0.003160 0.001492 0.000000 0.030874 0.000000
# 6 0.000000 0.000000 0.000000 -0.005905 0.000000 0.029722
#
#
# Mechanical properties :
#
#
# Convention : Reuss Voigt Hill
#
# Bulk Modulus (GPa) = 35.63119 49.07427 42.35273
# Shear Modulus (GPa) = 40.84260 51.24000 46.04130
#
# Velocity S-wave (km/s) = 4.19938 4.70363 4.45864
# Velocity P-wave (km/s) = 6.23680 7.11954 6.69274
#
# Compressibility (1/GPa) = 0.02806530
#
# Stress axis : x y z
#
# Youngs Moduli (GPa) = 62.55313 82.03808 186.91214
#
# Poissons Ratio (x) = 0.03234 0.10170
# Poissons Ratio (y) = 0.02466 0.33494
# Poissons Ratio (z) = 0.03404 0.14701
#
# Static dielectric constant tensor:
#      x y z
#    x 2.130990 0.000000 0.037960 
#    y 0.000000 1.887430 0.000000 
#    z 0.037960 0.000000 2.079040 
# 
# From -- ./inp_files/83236.got.cif
#   From: 2010.05.17/outbox.cif.g08.bks.cpg/sg13_42_cif.got.tgz:83236.got - 2010.06.03 16:44:36.
