data_PCOD9227481
_publ_section_title
;
Structure prediction by ZEFSAII (Michael W. Deem and Ramdas Pophale) SiO2 
 PCOD9227481
Probable space group: P 2/C
;
_chemical_formula_sum "Si O2"
_cell_formula_units_Z 24
_cell_length_a 12.463256
_cell_length_b 13.858434
_cell_length_c 20.435312
_cell_angle_alpha 90.000000
_cell_angle_beta 18.555816
_cell_angle_gamma 90.000000
_cell_volume 1123.222503
_symmetry_space_group_name_H-M "P 2/C"
_symmetry_group_IT_number 13
_symmetry_cell_setting 'monoclinic'
loop_
_space_group_symop_operation_xyz
x,y,z
-x,y,1/2-z
-x,-y,-z
x,-y,1/2+z
loop_
_atom_site_type_symbol
_atom_site_label
_atom_site_fract_x
_atom_site_fract_y
_atom_site_fract_z
Si Si1 0.511226 0.585781 0.318389
Si Si2 0.257113 0.877594 0.754912
Si Si3 0.840557 0.229081 0.597576
Si Si4 0.378886 0.563782 0.009743
Si Si5 0.917728 0.286531 0.222302
Si Si6 0.823779 0.071056 0.013434
O O1 0.500000 0.550853 0.250000
O O2 0.821255 0.662545 0.137491
O O3 0.471074 0.498160 0.391904
O O4 0.209529 0.658881 0.513016
O O5 0.144892 0.826084 0.753341
O O6 0.640459 0.904122 0.550898
O O7 0.142948 0.795700 0.873434
O O8 0.025306 0.971382 0.898216
O O9 0.500000 0.212233 0.750000
O O10 0.915832 0.152717 0.611669
O O11 0.000000 0.582054 0.250000
O O12 0.500000 0.500000 0.000000
O O13 0.578616 0.662253 0.895797
O O14 0.000000 0.306643 0.250000
O O15 0.500000 0.063206 0.250000
#
# Coordination Sequence:
#
# PCOD9227481 Si02
#       6
#     4   4   4   4   4   4
#     4  11  22  40  72 101 133 171 224 285 333 387
#     4  11  21  39  62  99 132 178 223 274 338 400
#     4  10  18  35  65  99 134 172 216 272 333 393
#     4  12  24  47  68  95 130 184 228 264 345 421
#     4  12  25  46  69  94 132 185 222 277 345 412
#     4  10  21  35  62  99 137 179 215 276 335 405
#
# _framework density 21.367094999999999
#
# number of rings (size 3 to 8) (size 9 to 14) (size 15 to 20)
#    0.000    1.000    6.667    3.500    0.000    2.000 
#    0.000    1.667    0.000    0.000    0.000    0.000 
#    0.000    0.000    0.000    0.000    0.000    0.000 
#
# Total GULP energy -133796.733176 kJ/mol
# GULP energy per Si atom -5574.863882 kJ/mol
# Density = 2.131846 g / cm^3
# Si number density = 21.367095 Si / 1000 Ang^3
#
#
#
# Elastic Constant Matrix: (Units=GPa)
#
#
# Indices 1 2 3 4 5 6 
#
# 1 118.2056 47.8876 41.6459 0.0000 7.8309 0.0000
# 2 47.8876 97.7454 29.1156 0.0000 0.7927 0.0000
# 3 41.6459 29.1156 66.0214 0.0000 -7.1308 0.0000
# 4 0.0000 0.0000 0.0000 17.7925 0.0000 -0.8864
# 5 7.8309 0.7927 -7.1308 0.0000 30.6485 0.0000
# 6 0.0000 0.0000 0.0000 -0.8864 0.0000 32.2202
#
#
#
# Elastic Compliance Matrix: (Units=1/GPa)
#
#
# Indices 1 2 3 4 5 6 
#
# 1 0.012882 -0.004259 -0.006762 0.000000 -0.004755 0.000000
# 2 -0.004259 0.013258 -0.003159 0.000000 0.000010 0.000000
# 3 -0.006762 -0.003159 0.021542 0.000000 0.006821 0.000000
# 4 0.000000 0.000000 0.000000 0.056281 0.000000 0.001548
# 5 -0.004755 0.000010 0.006821 0.000000 0.035430 0.000000
# 6 0.000000 0.000000 0.000000 0.001548 0.000000 0.031079
#
#
# Mechanical properties :
#
#
# Convention : Reuss Voigt Hill
#
# Bulk Modulus (GPa) = 51.75185 57.69673 54.72429
# Shear Modulus (GPa) = 24.35795 27.02045 25.68920
#
# Velocity S-wave (km/s) = 3.38001 3.55995 3.47115
# Velocity P-wave (km/s) = 6.28535 6.63015 6.46005
#
# Compressibility (1/GPa) = 0.01932298
#
# Stress axis : x y z
#
# Youngs Moduli (GPa) = 77.62585 75.42553 46.42144
#
# Poissons Ratio (x) = 0.32122 0.31388
# Poissons Ratio (y) = 0.33059 0.14666
# Poissons Ratio (z) = 0.52487 0.23830
#
# Static dielectric constant tensor:
#      x y z
#    x 1.897440 0.000000 0.003520 
#    y 0.000000 1.779940 0.000000 
#    z 0.003520 0.000000 1.822690 
# 
# From -- ./inp_files/78718.got.cif
#   From: 2010.05.17/outbox.cif.g08.bks.cpg/sg13_40_cif.got.tgz:78718.got - 2010.06.03 16:44:36.
