data_PCOD9227720
_publ_section_title
;
Structure prediction by ZEFSAII (Michael W. Deem and Ramdas Pophale) SiO2 
 PCOD9227720
Probable space group: P 2/C
;
_chemical_formula_sum "Si O2"
_cell_formula_units_Z 24
_cell_length_a 8.218232
_cell_length_b 15.334454
_cell_length_c 9.944187
_cell_angle_alpha 90.000000
_cell_angle_beta 108.610330
_cell_angle_gamma 90.000000
_cell_volume 1187.659282
_symmetry_space_group_name_H-M "P 2/C"
_symmetry_group_IT_number 13
_symmetry_cell_setting 'monoclinic'
loop_
_space_group_symop_operation_xyz
x,y,z
-x,y,1/2-z
-x,-y,-z
x,-y,1/2+z
loop_
_atom_site_type_symbol
_atom_site_label
_atom_site_fract_x
_atom_site_fract_y
_atom_site_fract_z
Si Si1 0.663253 0.834669 0.691814
Si Si2 0.157044 0.340970 0.192204
Si Si3 0.569960 0.791346 0.118339
Si Si4 0.381431 0.498138 0.338400
Si Si5 0.624876 0.021798 0.656040
Si Si6 0.842560 0.352072 0.620540
O O1 0.500000 0.836619 0.750000
O O2 0.788964 0.759827 0.775941
O O3 0.587062 0.808898 0.525743
O O4 0.734851 0.933974 0.705227
O O5 0.314306 0.403038 0.278073
O O6 0.000000 0.358973 0.250000
O O7 0.115219 0.360718 0.025693
O O8 0.500000 0.774806 0.250000
O O9 0.681261 0.712184 0.092989
O O10 0.687219 0.879737 0.149657
O O11 0.500000 0.533820 0.250000
O O12 0.500000 0.500000 0.500000
O O13 0.218358 0.557571 0.329115
O O14 0.500000 0.030195 0.750000
O O15 0.500000 0.000000 0.500000
O O16 0.000000 0.317712 0.750000
#
# Coordination Sequence:
#
# PCOD9227720 Si02
#       6
#     4   4   4   4   4   4
#     4  10  18  38  65  87 121 163 209 254 298 355
#     4  12  27  43  62  92 127 164 202 244 308 371
#     4  10  20  37  62  94 123 157 209 256 300 356
#     4  12  25  45  71  94 117 154 208 256 301 361
#     4   8  16  30  58  91 117 153 202 258 301 341
#     4  12  27  43  62  91 129 164 196 251 310 362
#
# _framework density 20.207816999999999
#
# number of rings (size 3 to 8) (size 9 to 14) (size 15 to 20)
#    0.000    1.333    3.333    2.500    4.667    1.333 
#    0.000    0.833    0.000    2.000    0.000    0.000 
#    0.000    0.000    0.000    0.000    0.000    0.000 
#
# Total GULP energy -133956.316694 kJ/mol
# GULP energy per Si atom -5581.513196 kJ/mol
# Density = 2.016182 g / cm^3
# Si number density = 20.207817 Si / 1000 Ang^3
#
#
#
# Elastic Constant Matrix: (Units=GPa)
#
#
# Indices 1 2 3 4 5 6 
#
# 1 49.0034 0.5987 22.0239 0.0000 -17.1525 0.0000
# 2 0.5987 89.5170 -8.8163 0.0000 -4.7913 0.0000
# 3 22.0239 -8.8163 138.9209 0.0000 -27.8242 0.0000
# 4 0.0000 0.0000 0.0000 -1.6197 0.0000 2.4459
# 5 -17.1525 -4.7913 -27.8242 0.0000 34.0461 0.0000
# 6 0.0000 0.0000 0.0000 2.4459 0.0000 3.8366
#
#
#
# Elastic Compliance Matrix: (Units=1/GPa)
#
#
# Indices 1 2 3 4 5 6 
#
# 1 0.025126 0.000269 -0.001702 0.000000 0.011305 0.000000
# 2 0.000269 0.011438 0.001235 0.000000 0.002755 0.000000
# 3 -0.001702 0.001235 0.008860 0.000000 0.006557 0.000000
# 4 0.000000 0.000000 0.000000 -0.314560 0.000000 0.200540
# 5 0.011305 0.002755 0.006557 0.000000 0.040814 0.000000
# 6 0.000000 0.000000 0.000000 0.200540 0.000000 0.132797
#
#
# Mechanical properties :
#
#
# Convention : Reuss Voigt Hill
#
# Bulk Modulus (GPa) = 22.20807 33.89490 28.05148
# Shear Modulus (GPa) = -62.40531 24.82826 -18.78852
#
# Velocity S-wave (km/s) = -5.56317 3.50901 -3.05251
# Velocity P-wave (km/s) = 5.50013 5.76429 1.21978
#
# Compressibility (1/GPa) = 0.04502868
#
# Stress axis : x y z
#
# Youngs Moduli (GPa) = 39.80016 87.42544 112.86904
#
# Poissons Ratio (x) = -0.02356 0.19209
# Poissons Ratio (y) = -0.01072 -0.13938
# Poissons Ratio (z) = 0.06773 -0.10796
#
# Static dielectric constant tensor:
#      x y z
#    x 1.741380 0.000000 0.032010 
#    y 0.000000 1.788840 0.000000 
#    z 0.032010 0.000000 1.703980 
# 
# From -- ./inp_files/12566.got.cif
#   From: 2010.05.17/outbox.cif.g08.bks.cpg/sg13_7_cif.got.tgz:12566.got - 2010.06.03 16:44:36.
