data_PCOD9227641
_publ_section_title
;
Structure prediction by ZEFSAII (Michael W. Deem and Ramdas Pophale) SiO2 
 PCOD9227641
Probable space group: P 2/C
;
_chemical_formula_sum "Si O2"
_cell_formula_units_Z 18
_cell_length_a 10.571341
_cell_length_b 15.370302
_cell_length_c 5.209714
_cell_angle_alpha 90.000000
_cell_angle_beta 86.636572
_cell_angle_gamma 90.000000
_cell_volume 845.040724
_symmetry_space_group_name_H-M "P 2/C"
_symmetry_group_IT_number 13
_symmetry_cell_setting 'monoclinic'
loop_
_space_group_symop_operation_xyz
x,y,z
-x,y,1/2-z
-x,-y,-z
x,-y,1/2+z
loop_
_atom_site_type_symbol
_atom_site_label
_atom_site_fract_x
_atom_site_fract_y
_atom_site_fract_z
Si Si1 0.857593 0.794549 0.700442
Si Si2 0.357379 0.939197 0.791986
Si Si3 0.500000 0.561116 0.750000
Si Si4 0.131330 0.621537 0.098691
Si Si5 0.245128 0.371367 0.085477
O O1 0.755309 0.869644 0.683110
O O2 0.865633 0.725300 0.465573
O O3 0.804050 0.727563 0.919959
O O4 0.000000 0.824114 0.750000
O O5 0.500000 0.899765 0.750000
O O6 0.347334 0.001578 0.546243
O O7 0.500000 0.500000 0.500000
O O8 0.621607 0.620693 0.789644
O O9 0.238093 0.596980 0.294927
O O10 0.000000 0.601007 0.250000
O O11 0.151954 0.584953 0.809029
#
# Coordination Sequence:
#
# PCOD9227641 Si02
#       5
#     4   4   2   4   4
#     4  10  22  37  67  94 125 163 222 270 316 378
#     4  10  24  42  57  86 131 175 215 267 327 380
#     4  12  26  46  66  96 134 166 212 258 320 394
#     4  10  18  37  61  93 123 154 204 267 313 364
#     4  10  22  38  65  93 125 162 209 264 315 372
#
# _framework density 21.300750000000001
#
# number of rings (size 3 to 8) (size 9 to 14) (size 15 to 20)
#    1.333    0.444    2.222    2.000    4.667    0.889 
#    0.000    0.000    0.000   22.667    0.000    0.000 
#    0.000    0.000    0.000    0.000    0.000    0.000 
#
# Total GULP energy -100274.011260 kJ/mol
# GULP energy per Si atom -5570.778403 kJ/mol
# Density = 2.125227 g / cm^3
# Si number density = 21.300750 Si / 1000 Ang^3
#
#
#
# Elastic Constant Matrix: (Units=GPa)
#
#
# Indices 1 2 3 4 5 6 
#
# 1 174.7922 64.9623 24.4451 0.0000 6.6234 0.0000
# 2 64.9623 90.3665 10.3183 0.0000 -1.4637 0.0000
# 3 24.4451 10.3183 126.2534 0.0000 26.8159 0.0000
# 4 0.0000 0.0000 0.0000 4.3623 0.0000 1.9447
# 5 6.6234 -1.4637 26.8159 0.0000 30.8303 0.0000
# 6 0.0000 0.0000 0.0000 1.9447 0.0000 37.1095
#
#
#
# Elastic Compliance Matrix: (Units=1/GPa)
#
#
# Indices 1 2 3 4 5 6 
#
# 1 0.007991 -0.005673 -0.000812 0.000000 -0.001280 0.000000
# 2 -0.005673 0.015264 -0.000689 0.000000 0.002543 0.000000
# 3 -0.000812 -0.000689 0.009940 0.000000 -0.008504 0.000000
# 4 0.000000 0.000000 0.000000 0.234718 0.000000 -0.012300
# 5 -0.001280 0.002543 -0.008504 0.000000 0.040228 0.000000
# 6 0.000000 0.000000 0.000000 -0.012300 0.000000 0.027592
#
#
# Mechanical properties :
#
#
# Convention : Reuss Voigt Hill
#
# Bulk Modulus (GPa) = 53.05573 65.65151 59.35362
# Shear Modulus (GPa) = 14.03055 33.90618 23.96836
#
# Velocity S-wave (km/s) = 2.56928 3.99404 3.35809
# Velocity P-wave (km/s) = 5.81064 7.22205 6.55445
#
# Compressibility (1/GPa) = 0.01884811
#
# Stress axis : x y z
#
# Youngs Moduli (GPa) = 125.13320 65.51338 100.59964
#
# Poissons Ratio (x) = 0.37165 0.08167
# Poissons Ratio (y) = 0.70987 0.06933
# Poissons Ratio (z) = 0.10158 0.04515
#
# Static dielectric constant tensor:
#      x y z
#    x 1.863810 0.000000 -0.125840 
#    y 0.000000 1.783610 0.000000 
#    z -0.125840 0.000000 2.359390 
# 
# From -- ./inp_files/1298.got.cif
#   From: 2010.05.17/outbox.cif.g08.bks.cpg/sg13_1_cif.got.tgz:1298.got - 2010.06.03 16:44:36.
