data_PCOD9227009
_publ_section_title
;
Structure prediction by ZEFSAII (Michael W. Deem and Ramdas Pophale) SiO2 
 PCOD9227009
Probable space group: P 2/C
;
_chemical_formula_sum "Si O2"
_cell_formula_units_Z 22
_cell_length_a 18.810278
_cell_length_b 5.618909
_cell_length_c 20.900398
_cell_angle_alpha 90.000000
_cell_angle_beta 23.693541
_cell_angle_gamma 90.000000
_cell_volume 887.686985
_symmetry_space_group_name_H-M "P 2/C"
_symmetry_group_IT_number 13
_symmetry_cell_setting 'monoclinic'
loop_
_space_group_symop_operation_xyz
x,y,z
-x,y,1/2-z
-x,-y,-z
x,-y,1/2+z
loop_
_atom_site_type_symbol
_atom_site_label
_atom_site_fract_x
_atom_site_fract_y
_atom_site_fract_z
Si Si1 0.878091 0.195293 0.066976
Si Si2 0.627522 0.560534 0.516470
Si Si3 0.426870 0.927265 0.382090
Si Si4 0.000000 0.329485 0.750000
Si Si5 0.158743 0.431472 0.278751
Si Si6 0.087965 0.958602 0.584274
O O1 0.769334 0.308028 0.215229
O O2 0.011086 0.389805 0.927935
O O3 0.804368 0.054599 0.066423
O O4 0.000000 0.000000 0.000000
O O5 0.523401 0.318694 0.622528
O O6 0.809850 0.548589 0.408523
O O7 0.689054 0.533334 0.392207
O O8 0.551726 0.820259 0.598592
O O9 0.500000 0.926281 0.250000
O O10 0.217688 0.913397 0.536274
O O11 0.979800 0.177919 0.702026
O O12 0.044879 0.244438 0.329722
#
# Coordination Sequence:
#
# PCOD9227009 Si02
#       6
#     4   4   4   2   4   4
#     4   9  19  31  52  85 120 143 175 227 292 354
#     4  11  21  36  59  81 116 145 187 241 280 347
#     4  11  25  39  56  81 114 159 195 230 278 331
#     4  10  18  32  54  90 110 140 180 232 308 338
#     4  10  18  33  55  88 111 146 181 230 302 330
#     4  10  19  33  54  82 120 146 183 235 282 350
#
# _framework density 24.783508999999999
#
# number of rings (size 3 to 8) (size 9 to 14) (size 15 to 20)
#    0.000    1.818    1.818    3.818    5.091    0.727 
#    0.000    0.000    0.000    2.182    0.000    0.000 
#    0.000    0.000    0.000    0.000    0.000    0.000 
#
# Total GULP energy -122673.981363 kJ/mol
# GULP energy per Si atom -5576.090062 kJ/mol
# Density = 2.472710 g / cm^3
# Si number density = 24.783509 Si / 1000 Ang^3
#
#
#
# Elastic Constant Matrix: (Units=GPa)
#
#
# Indices 1 2 3 4 5 6 
#
# 1 85.8054 38.3222 12.1365 0.0000 26.5400 0.0000
# 2 38.3222 179.3577 59.2083 0.0000 37.6675 0.0000
# 3 12.1365 59.2083 110.6114 0.0000 48.5461 0.0000
# 4 0.0000 0.0000 0.0000 29.0788 0.0000 23.5602
# 5 26.5400 37.6675 48.5461 0.0000 52.4900 0.0000
# 6 0.0000 0.0000 0.0000 23.5602 0.0000 32.5627
#
#
#
# Elastic Compliance Matrix: (Units=1/GPa)
#
#
# Indices 1 2 3 4 5 6 
#
# 1 0.015137 -0.002523 0.003794 0.000000 -0.009352 0.000000
# 2 -0.002523 0.007399 -0.003221 0.000000 -0.001056 0.000000
# 3 0.003794 -0.003221 0.017129 0.000000 -0.015449 0.000000
# 4 0.000000 0.000000 0.000000 0.083110 0.000000 -0.060133
# 5 -0.009352 -0.001056 -0.015449 0.000000 0.038826 0.000000
# 6 0.000000 0.000000 0.000000 -0.060133 0.000000 0.074218
#
#
# Mechanical properties :
#
#
# Convention : Reuss Voigt Hill
#
# Bulk Modulus (GPa) = 27.95895 66.12318 47.04107
# Shear Modulus (GPa) = 19.86973 40.56680 30.21827
#
# Velocity S-wave (km/s) = 2.83456 4.05019 3.49562
# Velocity P-wave (km/s) = 4.69241 6.97210 5.94260
#
# Compressibility (1/GPa) = 0.03576673
#
# Stress axis : x y z
#
# Youngs Moduli (GPa) = 66.06337 135.14762 58.38179
#
# Poissons Ratio (x) = 0.34092 -0.22150
# Poissons Ratio (y) = 0.16665 0.18802
# Poissons Ratio (z) = -0.25065 0.43525
#
# Static dielectric constant tensor:
#      x y z
#    x 1.969300 0.000000 -0.032030 
#    y 0.000000 2.090900 0.000000 
#    z -0.032030 0.000000 2.067970 
# 
# From -- ./inp_files/81206.got.cif
#   From: 2010.05.17/outbox.cif.g08.bks.cpg/sg13_41_cif.got.tgz:81206.got - 2010.06.03 16:44:36.
