data_PCOD9227433
_publ_section_title
;
Structure prediction by ZEFSAII (Michael W. Deem and Ramdas Pophale) SiO2 
 PCOD9227433
Probable space group: P 2/C
;
_chemical_formula_sum "Si O2"
_cell_formula_units_Z 30
_cell_length_a 22.256711
_cell_length_b 9.044532
_cell_length_c 21.508431
_cell_angle_alpha 90.000000
_cell_angle_beta 20.744755
_cell_angle_gamma 90.000000
_cell_volume 1533.596235
_symmetry_space_group_name_H-M "P 2/C"
_symmetry_group_IT_number 13
_symmetry_cell_setting 'monoclinic'
loop_
_space_group_symop_operation_xyz
x,y,z
-x,y,1/2-z
-x,-y,-z
x,-y,1/2+z
loop_
_atom_site_type_symbol
_atom_site_label
_atom_site_fract_x
_atom_site_fract_y
_atom_site_fract_z
Si Si1 0.367345 0.592332 0.217917
Si Si2 0.917995 0.709382 0.169179
Si Si3 0.500000 0.148570 0.250000
Si Si4 0.226906 0.104893 0.234962
Si Si5 0.142538 0.856721 0.405998
Si Si6 0.710580 0.705081 0.645581
Si Si7 0.278338 0.441940 0.172935
Si Si8 0.598717 0.893775 0.523900
O O1 0.272091 0.749288 0.316023
O O2 0.300938 0.467917 0.328449
O O3 0.329132 0.537998 0.184066
O O4 0.570556 0.580851 0.022488
O O5 0.912690 0.770822 0.103881
O O6 0.878360 0.533566 0.203710
O O7 0.759986 0.787063 0.356400
O O8 0.097128 0.747001 0.025999
O O9 0.353966 0.249592 0.360296
O O10 0.423847 0.061241 0.382225
O O11 0.250149 0.276888 0.223551
O O12 0.035812 0.097711 0.390555
O O13 0.225774 0.003319 0.297162
O O14 0.365085 0.031271 0.055937
O O15 0.567839 0.791450 0.825136
#
# Coordination Sequence:
#
# PCOD9227433 Si02
#       8
#     4   4   2   4   4   4   4   4
#     4  10  19  34  52  79 119 146 187 227 272 332
#     4  10  18  35  59  79 114 146 183 226 283 333
#     4   8  20  38  56  82 104 132 198 244 282 320
#     4  10  19  34  50  77 121 150 183 219 269 346
#     4   9  20  34  48  84 118 151 182 219 267 354
#     4  10  19  35  59  80 103 144 189 240 279 323
#     4  10  19  31  54  83 114 154 179 217 275 345
#     4   9  20  38  53  82 109 139 191 241 273 335
#
# _framework density 19.561862999999999
#
# number of rings (size 3 to 8) (size 9 to 14) (size 15 to 20)
#    0.800    1.600    1.333    1.600    1.867    3.200 
#    7.200    0.000    0.000    3.200    0.000   11.200 
#    0.000    0.000    0.000    0.000    0.000    0.000 
#
# Total GULP energy -167086.590202 kJ/mol
# GULP energy per Si atom -5569.553007 kJ/mol
# Density = 1.951734 g / cm^3
# Si number density = 19.561863 Si / 1000 Ang^3
#
#
#
# Elastic Constant Matrix: (Units=GPa)
#
#
# Indices 1 2 3 4 5 6 
#
# 1 32.4972 -4.8100 25.4701 0.0000 -15.4865 0.0000
# 2 -4.8100 90.6191 35.4627 0.0000 -13.5374 0.0000
# 3 25.4701 35.4627 107.4066 0.0000 -19.8604 0.0000
# 4 0.0000 0.0000 0.0000 29.0505 0.0000 -4.0465
# 5 -15.4865 -13.5374 -19.8604 0.0000 29.4619 0.0000
# 6 0.0000 0.0000 0.0000 -4.0465 0.0000 9.0508
#
#
#
# Elastic Compliance Matrix: (Units=1/GPa)
#
#
# Indices 1 2 3 4 5 6 
#
# 1 0.053841 0.011280 -0.011767 0.000000 0.025552 0.000000
# 2 0.011280 0.015347 -0.006102 0.000000 0.008867 0.000000
# 3 -0.011767 -0.006102 0.014227 0.000000 0.000601 0.000000
# 4 0.000000 0.000000 0.000000 0.036709 0.000000 0.016412
# 5 0.025552 0.008867 0.000601 0.000000 0.051853 0.000000
# 6 0.000000 0.000000 0.000000 0.016412 0.000000 0.117826
#
#
# Mechanical properties :
#
#
# Convention : Reuss Voigt Hill
#
# Bulk Modulus (GPa) = 14.23790 38.08540 26.16165
# Shear Modulus (GPa) = 15.31896 25.13929 20.22913
#
# Velocity S-wave (km/s) = 2.80143 3.58874 3.21925
# Velocity P-wave (km/s) = 4.21405 6.05670 5.21737
#
# Compressibility (1/GPa) = 0.07023510
#
# Stress axis : x y z
#
# Youngs Moduli (GPa) = 18.57324 65.16076 70.28980
#
# Poissons Ratio (x) = -0.73501 0.82712
# Poissons Ratio (y) = -0.20950 0.42893
# Poissons Ratio (z) = 0.21856 0.39763
#
# Static dielectric constant tensor:
#      x y z
#    x 1.676880 0.000000 -0.030950 
#    y 0.000000 1.740110 0.000000 
#    z -0.030950 0.000000 1.783150 
# 
# From -- ./inp_files/88880.got.cif
#   From: 2010.05.17/outbox.cif.g08.bks.cpg/sg13_45_cif.got.tgz:88880.got - 2010.06.03 16:44:36.
