data_PCOD9227102
_publ_section_title
;
Structure prediction by ZEFSAII (Michael W. Deem and Ramdas Pophale) SiO2 
 PCOD9227102
Probable space group: P 2/C
;
_chemical_formula_sum "Si O2"
_cell_formula_units_Z 32
_cell_length_a 17.081283
_cell_length_b 11.466130
_cell_length_c 27.633475
_cell_angle_alpha 90.000000
_cell_angle_beta 15.463339
_cell_angle_gamma 90.000000
_cell_volume 1443.006894
_symmetry_space_group_name_H-M "P 2/C"
_symmetry_group_IT_number 13
_symmetry_cell_setting 'monoclinic'
loop_
_space_group_symop_operation_xyz
x,y,z
-x,y,1/2-z
-x,-y,-z
x,-y,1/2+z
loop_
_atom_site_type_symbol
_atom_site_label
_atom_site_fract_x
_atom_site_fract_y
_atom_site_fract_z
Si Si1 0.097449 0.810093 0.421346
Si Si2 0.253250 0.019458 0.432480
Si Si3 0.648211 0.884625 0.466856
Si Si4 0.465877 0.853646 0.072524
Si Si5 0.214564 0.769777 0.018093
Si Si6 0.158531 0.669953 0.473001
Si Si7 0.184172 0.411241 0.462541
Si Si8 0.761581 0.183646 0.490502
O O1 0.034060 0.774944 0.514315
O O2 0.434162 0.817802 0.207046
O O3 0.968637 0.925249 0.473890
O O4 0.989905 0.692654 0.458854
O O5 0.500000 0.966393 0.250000
O O6 0.369829 0.136975 0.389715
O O7 0.131494 0.937162 0.548051
O O8 0.495791 0.841159 0.508140
O O9 0.652094 0.795454 0.508921
O O10 0.000000 0.908375 0.250000
O O11 0.500978 0.009361 0.564291
O O12 0.707321 0.802614 0.965813
O O13 0.132458 0.807355 0.277971
O O14 0.231239 0.638390 0.988734
O O15 0.500000 0.663359 0.250000
O O16 0.044907 0.537885 0.537046
O O17 0.105563 0.708900 0.559615
O O18 0.500000 0.413981 0.250000
#
# Coordination Sequence:
#
# PCOD9227102 Si02
#       8
#     4   4   4   4   4   4   4   4
#     4  10  19  35  49  70 107 147 181 217 260 303
#     4  11  21  31  48  76 115 146 173 210 260 322
#     4   9  19  33  55  81 105 133 173 217 272 327
#     4  10  18  34  54  77 103 137 171 213 270 328
#     4  10  18  33  52  78 106 135 174 218 263 312
#     4   9  20  33  50  74 103 145 189 221 253 305
#     4  10  19  34  54  76 106 144 187 226 249 303
#     4  11  20  33  50  75 107 142 179 217 265 316
#
# _framework density 22.175916000000001
#
# number of rings (size 3 to 8) (size 9 to 14) (size 15 to 20)
#    0.000    2.000    3.750    3.000    0.000    2.000 
#    0.000    0.000    0.000    0.750    0.000    2.625 
#    0.000    0.000    0.000    0.000    0.000    0.000 
#
# Total GULP energy -178347.115443 kJ/mol
# GULP energy per Si atom -5573.347358 kJ/mol
# Density = 2.212544 g / cm^3
# Si number density = 22.175916 Si / 1000 Ang^3
#
#
#
# Elastic Constant Matrix: (Units=GPa)
#
#
# Indices 1 2 3 4 5 6 
#
# 1 153.4121 32.0012 -1.4013 0.0000 -2.4766 0.0000
# 2 32.0012 73.3620 10.5816 0.0000 -8.5729 0.0000
# 3 -1.4013 10.5816 30.8621 0.0000 -2.9566 0.0000
# 4 0.0000 0.0000 0.0000 14.4855 0.0000 -6.8714
# 5 -2.4766 -8.5729 -2.9566 0.0000 16.9227 0.0000
# 6 0.0000 0.0000 0.0000 -6.8714 0.0000 18.4570
#
#
#
# Elastic Compliance Matrix: (Units=1/GPa)
#
#
# Indices 1 2 3 4 5 6 
#
# 1 0.007238 -0.003416 0.001460 0.000000 -0.000416 0.000000
# 2 -0.003416 0.016696 -0.005204 0.000000 0.007049 0.000000
# 3 0.001460 -0.005204 0.034600 0.000000 0.003622 0.000000
# 4 0.000000 0.000000 0.000000 0.083841 0.000000 0.031213
# 5 -0.000416 0.007049 0.003622 0.000000 0.063235 0.000000
# 6 0.000000 0.000000 0.000000 0.031213 0.000000 0.065801
#
#
# Mechanical properties :
#
#
# Convention : Reuss Voigt Hill
#
# Bulk Modulus (GPa) = 22.61824 37.77769 30.19796
# Shear Modulus (GPa) = 16.64068 24.40334 20.52201
#
# Velocity S-wave (km/s) = 2.74230 3.32089 3.04537
# Velocity P-wave (km/s) = 4.49984 5.63710 5.10027
#
# Compressibility (1/GPa) = 0.04421211
#
# Stress axis : x y z
#
# Youngs Moduli (GPa) = 138.16629 59.89590 28.90183
#
# Poissons Ratio (x) = 0.20463 -0.04220
# Poissons Ratio (y) = 0.47203 0.15041
# Poissons Ratio (z) = -0.20174 0.31171
#
# Static dielectric constant tensor:
#      x y z
#    x 2.053260 0.000000 -0.072010 
#    y 0.000000 1.826390 0.000000 
#    z -0.072010 0.000000 1.898820 
# 
# From -- ./inp_files/97375.got.cif
#   From: 2010.05.17/outbox.cif.g08.bks.cpg/sg13_49_cif.got.tgz:97375.got - 2010.06.03 16:44:36.
