data_PCOD9227539
_publ_section_title
;
Structure prediction by ZEFSAII (Michael W. Deem and Ramdas Pophale) SiO2 
 PCOD9227539
Probable space group: P 2/C
;
_chemical_formula_sum "Si O2"
_cell_formula_units_Z 28
_cell_length_a 9.189420
_cell_length_b 11.818856
_cell_length_c 16.132923
_cell_angle_alpha 90.000000
_cell_angle_beta 125.301392
_cell_angle_gamma 90.000000
_cell_volume 1429.988398
_symmetry_space_group_name_H-M "P 2/C"
_symmetry_group_IT_number 13
_symmetry_cell_setting 'monoclinic'
loop_
_space_group_symop_operation_xyz
x,y,z
-x,y,1/2-z
-x,-y,-z
x,-y,1/2+z
loop_
_atom_site_type_symbol
_atom_site_label
_atom_site_fract_x
_atom_site_fract_y
_atom_site_fract_z
Si Si1 0.803567 0.616885 0.642495
Si Si2 0.931325 0.193765 0.914943
Si Si3 0.358184 0.778303 0.322463
Si Si4 0.023111 0.443385 0.918980
Si Si5 0.274930 0.162427 0.490303
Si Si6 0.854894 0.052538 0.635568
Si Si7 0.631369 0.474362 0.714684
O O1 0.742977 0.727378 0.573315
O O2 0.653230 0.577859 0.658607
O O3 0.000000 0.636260 0.750000
O O4 0.835790 0.511542 0.589887
O O5 0.752094 0.206013 0.799135
O O6 0.041930 0.309723 0.938106
O O7 0.043058 0.093515 0.912274
O O8 0.881549 0.173776 0.993312
O O9 0.545774 0.838685 0.396547
O O10 0.235368 0.837445 0.351793
O O11 0.404070 0.644985 0.342545
O O12 0.832783 0.459153 0.812794
O O13 0.000000 0.500000 0.000000
O O14 0.266968 0.051110 0.431386
O O15 0.000000 0.010988 0.750000
O O16 0.500000 0.488422 0.750000
#
# Coordination Sequence:
#
# PCOD9227539 Si02
#       7
#     4   4   4   4   4   4   4
#     4  10  22  37  56  84 119 156 184 229 290 346
#     4  10  20  37  61  84 111 148 195 237 280 333
#     4  10  21  38  58  82 112 147 191 245 283 329
#     4  10  18  36  59  86 114 150 190 233 280 343
#     4  12  21  36  58  86 116 149 190 233 291 339
#     4  10  22  39  58  81 113 151 195 238 281 338
#     4  10  21  38  58  83 118 148 189 238 286 333
#
# _framework density 19.580579
#
# number of rings (size 3 to 8) (size 9 to 14) (size 15 to 20)
#    0.000    1.714    1.429    4.286    0.000    4.000 
#    2.571    0.000    0.000    0.857    0.000    0.000 
#    0.000    0.000    0.000    0.000    0.000    0.000 
#
# Total GULP energy -156179.660602 kJ/mol
# GULP energy per Si atom -5577.845022 kJ/mol
# Density = 1.953601 g / cm^3
# Si number density = 19.580579 Si / 1000 Ang^3
#
#
#
# Elastic Constant Matrix: (Units=GPa)
#
#
# Indices 1 2 3 4 5 6 
#
# 1 82.7721 36.7215 15.7780 0.0000 -26.1040 0.0000
# 2 36.7215 89.8297 43.2391 0.0000 -15.2393 0.0000
# 3 15.7780 43.2391 39.5546 0.0000 -18.7461 0.0000
# 4 0.0000 0.0000 0.0000 4.6208 0.0000 6.3866
# 5 -26.1040 -15.2393 -18.7461 0.0000 31.0328 0.0000
# 6 0.0000 0.0000 0.0000 6.3866 0.0000 6.3864
#
#
#
# Elastic Compliance Matrix: (Units=1/GPa)
#
#
# Indices 1 2 3 4 5 6 
#
# 1 0.021277 -0.012303 0.014825 0.000000 0.020811 0.000000
# 2 -0.012303 0.031317 -0.037751 0.000000 -0.017774 0.000000
# 3 0.014825 -0.037751 0.080928 0.000000 0.042819 0.000000
# 4 0.000000 0.000000 0.000000 -0.566242 0.000000 0.566261
# 5 0.020811 -0.017774 0.042819 0.000000 0.066867 0.000000
# 6 0.000000 0.000000 0.000000 0.566261 0.000000 -0.409698
#
#
# Mechanical properties :
#
#
# Convention : Reuss Voigt Hill
#
# Bulk Modulus (GPa) = 15.85664 44.84818 30.35241
# Shear Modulus (GPa) = -7.30919 16.16919 4.43000
#
# Velocity S-wave (km/s) = -1.93416 2.87675 1.50578
# Velocity P-wave (km/s) = 1.76855 5.82996 4.30791
#
# Compressibility (1/GPa) = 0.06306505
#
# Stress axis : x y z
#
# Youngs Moduli (GPa) = 46.99896 31.93111 12.35666
#
# Poissons Ratio (x) = 0.39286 -0.18319
# Poissons Ratio (y) = 0.57825 0.46647
# Poissons Ratio (z) = -0.69678 1.20542
#
# Static dielectric constant tensor:
#      x y z
#    x 1.706330 0.000000 -0.001380 
#    y 0.000000 1.686040 0.000000 
#    z -0.001380 0.000000 1.617010 
# 
# From -- ./inp_files/47309.got.cif
#   From: 2010.05.17/outbox.cif.g08.bks.cpg/sg13_24_cif.got.tgz:47309.got - 2010.06.03 16:44:36.
