data_PCOD9227177
_publ_section_title
;
Structure prediction by ZEFSAII (Michael W. Deem and Ramdas Pophale) SiO2 
 PCOD9227177
Probable space group: P 2/C
;
_chemical_formula_sum "Si O2"
_cell_formula_units_Z 28
_cell_length_a 12.307708
_cell_length_b 8.781601
_cell_length_c 32.824938
_cell_angle_alpha 90.000000
_cell_angle_beta 19.846371
_cell_angle_gamma 90.000000
_cell_volume 1204.463568
_symmetry_space_group_name_H-M "P 2/C"
_symmetry_group_IT_number 13
_symmetry_cell_setting 'monoclinic'
loop_
_space_group_symop_operation_xyz
x,y,z
-x,y,1/2-z
-x,-y,-z
x,-y,1/2+z
loop_
_atom_site_type_symbol
_atom_site_label
_atom_site_fract_x
_atom_site_fract_y
_atom_site_fract_z
Si Si1 0.494391 0.826339 0.857555
Si Si2 0.858636 0.740670 0.843009
Si Si3 0.129687 0.244957 0.594340
Si Si4 0.718085 0.477659 0.025075
Si Si5 0.449776 0.694910 0.056512
Si Si6 0.829535 0.963417 0.961002
Si Si7 0.794147 0.714886 0.623254
O O1 0.874559 0.846471 0.730528
O O2 0.331971 0.807081 0.871107
O O3 0.447149 0.653680 0.891071
O O4 0.316090 0.948371 0.948568
O O5 0.000000 0.688144 0.750000
O O6 0.508347 0.806491 0.955283
O O7 0.726495 0.637168 0.926624
O O8 0.081699 0.382789 0.579969
O O9 0.132557 0.288506 0.640781
O O10 0.973716 0.090476 0.634029
O O11 0.930608 0.588187 0.977952
O O12 0.471982 0.580813 0.086029
O O13 0.564496 0.861594 0.030766
O O14 0.065643 0.836123 0.894652
O O15 0.500000 0.636143 0.750000
#
# Coordination Sequence:
#
# PCOD9227177 Si02
#       7
#     4   4   4   4   4   4   4
#     4  11  20  37  61  85 111 148 187 229 274 330
#     4  10  18  33  58  86 116 142 181 221 280 337
#     4   9  19  32  60  86 114 142 183 222 284 323
#     4  10  19  35  57  85 111 146 188 230 273 331
#     4   9  19  32  55  86 117 146 178 219 280 334
#     4  10  19  35  57  85 111 146 188 230 273 331
#     4  11  24  40  57  82 108 151 194 232 277 331
#
# _framework density 23.246863000000001
#
# number of rings (size 3 to 8) (size 9 to 14) (size 15 to 20)
#    0.857    1.143    2.857    3.429    0.000    0.000 
#    0.000    2.857    0.000   34.286    0.000    0.000 
#    0.000    0.000    0.000    0.000    0.000    0.000 
#
# Total GULP energy -155912.100428 kJ/mol
# GULP energy per Si atom -5568.289301 kJ/mol
# Density = 2.319395 g / cm^3
# Si number density = 23.246863 Si / 1000 Ang^3
#
#
#
# Elastic Constant Matrix: (Units=GPa)
#
#
# Indices 1 2 3 4 5 6 
#
# 1 93.9463 2.5563 -0.1322 0.0000 -0.0720 0.0000
# 2 2.5563 94.8230 -2.6027 0.0001 3.2301 0.0001
# 3 -0.1322 -2.6027 35.3248 -0.0018 3.7267 0.0009
# 4 0.0000 0.0001 -0.0018 19.1643 0.0002 10.8256
# 5 -0.0720 3.2301 3.7267 0.0002 21.7087 0.0000
# 6 0.0000 0.0001 0.0009 10.8256 0.0000 23.8761
#
#
#
# Elastic Compliance Matrix: (Units=1/GPa)
#
#
# Indices 1 2 3 4 5 6 
#
# 1 0.010652 -0.000289 0.000010 0.000000 0.000077 0.000000
# 2 -0.000289 0.010640 0.000968 0.000000 -0.001750 0.000000
# 3 0.000010 0.000968 0.028919 0.000005 -0.005108 -0.000003
# 4 0.000000 0.000000 0.000005 0.070146 -0.000002 -0.031805
# 5 0.000077 -0.001750 -0.005108 -0.000002 0.047202 0.000001
# 6 0.000000 0.000000 -0.000003 -0.031805 0.000001 0.056303
#
#
# Mechanical properties :
#
#
# Convention : Reuss Voigt Hill
#
# Bulk Modulus (GPa) = 19.38429 24.85966 22.12197
# Shear Modulus (GPa) = 20.86095 27.90135 24.38115
#
# Velocity S-wave (km/s) = 2.99886 3.46818 3.24202
# Velocity P-wave (km/s) = 4.51081 5.17249 4.85294
#
# Compressibility (1/GPa) = 0.05158817
#
# Stress axis : x y z
#
# Youngs Moduli (GPa) = 93.87618 93.98546 34.57937
#
# Poissons Ratio (x) = 0.02721 -0.00036
# Poissons Ratio (y) = 0.02718 -0.03346
# Poissons Ratio (z) = -0.00098 -0.09093
#
# Static dielectric constant tensor:
#      x y z
#    x 1.953840 0.000000 0.020490 
#    y 0.000000 1.905200 0.000000 
#    z 0.020490 0.000000 1.930510 
# 
# From -- ./inp_files/96528.got.cif
#   From: 2010.05.17/outbox.cif.g08.bks.cpg/sg13_49_cif.got.tgz:96528.got - 2010.06.03 16:44:36.
