data_PCOD9227765
_publ_section_title
;
Structure prediction by ZEFSAII (Michael W. Deem and Ramdas Pophale) SiO2 
 PCOD9227765
Probable space group: P 2/C
;
_chemical_formula_sum "Si O2"
_cell_formula_units_Z 22
_cell_length_a 7.627353
_cell_length_b 7.111154
_cell_length_c 17.761001
_cell_angle_alpha 90.000000
_cell_angle_beta 123.034108
_cell_angle_gamma 90.000000
_cell_volume 807.615727
_symmetry_space_group_name_H-M "P 2/C"
_symmetry_group_IT_number 13
_symmetry_cell_setting 'monoclinic'
loop_
_space_group_symop_operation_xyz
x,y,z
-x,y,1/2-z
-x,-y,-z
x,-y,1/2+z
loop_
_atom_site_type_symbol
_atom_site_label
_atom_site_fract_x
_atom_site_fract_y
_atom_site_fract_z
Si Si1 0.745701 0.245288 0.315727
Si Si2 0.343183 0.769788 0.932973
Si Si3 0.682257 0.198806 0.619663
Si Si4 0.043249 0.281056 0.503076
Si Si5 0.837203 0.174436 0.805738
Si Si6 0.000000 0.408283 0.250000
O O1 0.500000 0.269061 0.250000
O O2 0.816229 0.214620 0.419266
O O3 0.875779 0.409435 0.304423
O O4 0.819588 0.051892 0.293329
O O5 0.192148 0.782314 0.970194
O O6 0.221935 0.647195 0.843631
O O7 0.365927 0.978253 0.903739
O O8 0.555757 0.704009 0.023059
O O9 0.666793 0.245637 0.704919
O O10 0.928072 0.231171 0.663751
O O11 0.156518 0.216141 0.605042
O O12 0.000000 0.500000 0.500000
#
# Coordination Sequence:
#
# PCOD9227765 Si02
#       6
#     4   4   4   4   4   2
#     4  11  23  39  70 102 127 182 230 295 352 407
#     4  10  20  37  66  95 129 170 213 282 354 392
#     4  10  20  36  67 100 121 162 224 295 339 393
#     4  11  26  44  60  95 144 185 222 281 355 437
#     4  11  21  40  64  99 129 162 231 290 337 406
#     4  10  18  40  58  98 134 156 220 292 340 396
#
# _framework density 27.240677999999999
#
# number of rings (size 3 to 8) (size 9 to 14) (size 15 to 20)
#    0.000    1.455    5.455    0.545    5.091    0.000 
#    3.273    8.182    0.000    0.000    0.000    0.000 
#    0.000    0.000    0.000    0.000    0.000    0.000 
#
# Total GULP energy -122615.375911 kJ/mol
# GULP energy per Si atom -5573.426178 kJ/mol
# Density = 2.717868 g / cm^3
# Si number density = 27.240678 Si / 1000 Ang^3
#
#
#
# Elastic Constant Matrix: (Units=GPa)
#
#
# Indices 1 2 3 4 5 6 
#
# 1 76.8071 -0.6722 57.9457 0.0000 17.0515 0.0000
# 2 -0.6722 103.4256 31.5804 0.0000 -1.1680 0.0000
# 3 57.9457 31.5804 322.6794 0.0000 -6.0749 0.0000
# 4 0.0000 0.0000 0.0000 8.7516 0.0000 10.2600
# 5 17.0515 -1.1680 -6.0749 0.0000 62.4171 0.0000
# 6 0.0000 0.0000 0.0000 10.2600 0.0000 7.0148
#
#
#
# Elastic Compliance Matrix: (Units=1/GPa)
#
#
# Indices 1 2 3 4 5 6 
#
# 1 0.016464 0.001014 -0.003146 0.000000 -0.004785 0.000000
# 2 0.001014 0.010030 -0.001167 0.000000 -0.000203 0.000000
# 3 -0.003146 -0.001167 0.003801 0.000000 0.001208 0.000000
# 4 0.000000 0.000000 0.000000 -0.159877 0.000000 0.233839
# 5 -0.004785 -0.000203 0.001208 0.000000 0.017442 0.000000
# 6 0.000000 0.000000 0.000000 0.233839 0.000000 -0.199461
#
#
# Mechanical properties :
#
#
# Convention : Reuss Voigt Hill
#
# Bulk Modulus (GPa) = 42.20265 75.62442 58.91353
# Shear Modulus (GPa) = -16.82917 43.24057 13.20570
#
# Velocity S-wave (km/s) = -2.48825 3.98848 2.20416
# Velocity P-wave (km/s) = 2.69648 7.00232 5.30582
#
# Compressibility (1/GPa) = 0.02369519
#
# Stress axis : x y z
#
# Youngs Moduli (GPa) = 60.73809 99.70544 263.09139
#
# Poissons Ratio (x) = -0.10106 0.82765
# Poissons Ratio (y) = -0.06156 0.30714
# Poissons Ratio (z) = 0.19107 0.11640
#
# Static dielectric constant tensor:
#      x y z
#    x 2.029290 0.000000 0.067320 
#    y 0.000000 2.398320 0.000000 
#    z 0.067320 0.000000 2.189150 
# 
# From -- ./inp_files/63965.got.cif
#   From: 2010.05.17/outbox.cif.g08.bks.cpg/sg13_32_cif.got.tgz:63965.got - 2010.06.03 16:44:36.
