data_PCOD9227599
_publ_section_title
;
Structure prediction by ZEFSAII (Michael W. Deem and Ramdas Pophale) SiO2 
 PCOD9227599
Probable space group: P 2/C
;
_chemical_formula_sum "Si O2"
_cell_formula_units_Z 30
_cell_length_a 10.215886
_cell_length_b 11.011841
_cell_length_c 33.831960
_cell_angle_alpha 90.000000
_cell_angle_beta 154.896616
_cell_angle_gamma 90.000000
_cell_volume 1614.685536
_symmetry_space_group_name_H-M "P 2/C"
_symmetry_group_IT_number 13
_symmetry_cell_setting 'monoclinic'
loop_
_space_group_symop_operation_xyz
x,y,z
-x,y,1/2-z
-x,-y,-z
x,-y,1/2+z
loop_
_atom_site_type_symbol
_atom_site_label
_atom_site_fract_x
_atom_site_fract_y
_atom_site_fract_z
Si Si1 0.502947 0.075755 0.706072
Si Si2 0.248367 0.381266 0.258380
Si Si3 0.688035 0.888627 0.688981
Si Si4 0.500000 0.487654 0.750000
Si Si5 0.352661 0.470257 0.917870
Si Si6 0.279716 0.544318 0.550625
Si Si7 0.978893 0.715148 0.357812
Si Si8 0.830634 0.812058 0.012054
O O1 0.500000 0.020275 0.750000
O O2 0.728381 0.190973 0.773107
O O3 0.164188 0.124544 0.601906
O O4 0.619316 0.986768 0.703942
O O5 0.281894 0.240948 0.279865
O O6 0.426155 0.426455 0.267371
O O7 0.416549 0.452370 0.339462
O O8 0.893760 0.423754 0.159268
O O9 0.420124 0.883995 0.582238
O O10 0.000000 0.910465 0.750000
O O11 0.208839 0.393472 0.670744
O O12 0.624104 0.465280 0.960539
O O13 0.161284 0.347965 0.872301
O O14 0.500000 0.500000 0.000000
O O15 0.189917 0.678846 0.512471
O O16 0.000000 0.500000 0.500000
O O17 0.202105 0.783400 0.449943
#
# Coordination Sequence:
#
# PCOD9227599 Si02
#       8
#     4   4   4   2   4   4   4   4
#     4  10  22  42  67  89 119 167 220 257 311 363
#     4  10  23  37  62  87 126 168 202 256 320 374
#     4  11  24  42  62  88 129 169 210 266 311 369
#     4  10  18  36  64  94 120 154 208 254 316 372
#     4  11  22  37  63  91 128 162 206 246 325 382
#     4  11  22  36  57  95 126 161 202 257 313 383
#     4  10  19  37  65  92 123 165 203 265 311 376
#     4  10  19  40  66  86 122 169 209 251 321 367
#
# _framework density 18.579470000000001
#
# number of rings (size 3 to 8) (size 9 to 14) (size 15 to 20)
#    0.000    1.600    3.333    3.200    4.667    0.000 
#    2.400    2.667    0.000    0.000    0.000    0.000 
#    0.000    0.000    0.000    0.000    0.000    0.000 
#
# Total GULP energy -167284.902864 kJ/mol
# GULP energy per Si atom -5576.163429 kJ/mol
# Density = 1.853718 g / cm^3
# Si number density = 18.579470 Si / 1000 Ang^3
#
#
#
# Elastic Constant Matrix: (Units=GPa)
#
#
# Indices 1 2 3 4 5 6 
#
# 1 157.6877 53.1114 51.5883 0.0000 6.0964 0.0000
# 2 53.1114 63.8582 41.3250 0.0000 3.0203 0.0000
# 3 51.5883 41.3250 144.4997 0.0000 -10.4647 0.0000
# 4 0.0000 0.0000 0.0000 13.0958 0.0000 -3.2586
# 5 6.0964 3.0203 -10.4647 0.0000 22.3053 0.0000
# 6 0.0000 0.0000 0.0000 -3.2586 0.0000 28.1069
#
#
#
# Elastic Compliance Matrix: (Units=1/GPa)
#
#
# Indices 1 2 3 4 5 6 
#
# 1 0.009124 -0.006452 -0.001583 0.000000 -0.002363 0.000000
# 2 -0.006452 0.024419 -0.004960 0.000000 -0.003870 0.000000
# 3 -0.001583 -0.004960 0.009300 0.000000 0.005468 0.000000
# 4 0.000000 0.000000 0.000000 0.078628 0.000000 0.009116
# 5 -0.002363 -0.003870 0.005468 0.000000 0.048568 0.000000
# 6 0.000000 0.000000 0.000000 0.009116 0.000000 0.036635
#
#
# Mechanical properties :
#
#
# Convention : Reuss Voigt Hill
#
# Bulk Modulus (GPa) = 59.34076 73.12166 66.23121
# Shear Modulus (GPa) = 20.98336 27.36966 24.17651
#
# Velocity S-wave (km/s) = 3.36428 3.84228 3.61120
# Velocity P-wave (km/s) = 6.86290 7.68933 7.28784
#
# Compressibility (1/GPa) = 0.01685182
#
# Stress axis : x y z
#
# Youngs Moduli (GPa) = 109.59843 40.95142 107.52411
#
# Poissons Ratio (x) = 0.26423 0.17024
# Poissons Ratio (y) = 0.70716 0.53335
# Poissons Ratio (z) = 0.17353 0.20313
#
# Static dielectric constant tensor:
#      x y z
#    x 1.677940 0.000000 -0.005740 
#    y 0.000000 1.630690 0.000000 
#    z -0.005740 0.000000 1.684320 
# 
# From -- ./inp_files/96099.got.cif
#   From: 2010.05.17/outbox.cif.g08.bks.cpg/sg13_49_cif.got.tgz:96099.got - 2010.06.03 16:44:36.
