data_PCOD9227430
_publ_section_title
;
Structure prediction by ZEFSAII (Michael W. Deem and Ramdas Pophale) SiO2 
 PCOD9227430
Probable space group: P 2/C
;
_chemical_formula_sum "Si O2"
_cell_formula_units_Z 20
_cell_length_a 12.193603
_cell_length_b 12.144713
_cell_length_c 11.211228
_cell_angle_alpha 90.000000
_cell_angle_beta 143.277426
_cell_angle_gamma 90.000000
_cell_volume 992.729254
_symmetry_space_group_name_H-M "P 2/C"
_symmetry_group_IT_number 13
_symmetry_cell_setting 'monoclinic'
loop_
_space_group_symop_operation_xyz
x,y,z
-x,y,1/2-z
-x,-y,-z
x,-y,1/2+z
loop_
_atom_site_type_symbol
_atom_site_label
_atom_site_fract_x
_atom_site_fract_y
_atom_site_fract_z
Si Si1 0.653150 0.168269 0.565921
Si Si2 0.822226 0.101466 0.961950
Si Si3 0.000000 0.921531 0.250000
Si Si4 0.500000 0.973970 0.750000
Si Si5 0.809166 0.345262 0.039008
Si Si6 0.532804 0.383760 0.589655
O O1 0.722619 0.112641 0.748569
O O2 0.825049 0.154389 0.625479
O O3 0.490510 0.103676 0.357256
O O4 0.595047 0.290638 0.550332
O O5 0.667850 0.054962 0.916308
O O6 0.867662 0.224330 0.041655
O O7 0.970894 0.006418 0.113835
O O8 0.000000 0.398516 0.250000
O O9 0.695342 0.395911 0.829258
O O10 0.653702 0.342972 0.006627
O O11 0.500000 0.500000 0.500000
#
# Coordination Sequence:
#
# PCOD9227430 Si02
#       6
#     4   4   2   2   4   4
#     4  10  21  37  54  87 122 162 202 250 306 367
#     4  10  18  35  58  86 122 161 198 244 302 379
#     4  10  20  34  58  90 128 154 198 246 306 370
#     4  10  20  32  54  88 122 162 198 246 316 368
#     4  10  21  41  67  93 118 159 213 251 305 387
#     4  10  23  43  64  88 124 162 212 265 308 352
#
# _framework density 20.146478999999999
#
# number of rings (size 3 to 8) (size 9 to 14) (size 15 to 20)
#    0.000    2.000    1.000    3.600    0.000    4.000 
#   16.200    0.000    0.000    0.000    0.000    0.000 
#    0.000    0.000    0.000    0.000    0.000    0.000 
#
# Total GULP energy -111369.290390 kJ/mol
# GULP energy per Si atom -5568.464520 kJ/mol
# Density = 2.010062 g / cm^3
# Si number density = 20.146479 Si / 1000 Ang^3
#
#
#
# Elastic Constant Matrix: (Units=GPa)
#
#
# Indices 1 2 3 4 5 6 
#
# 1 49.1028 34.3660 20.5503 0.0000 -2.9802 0.0000
# 2 34.3660 92.5044 30.9165 0.0000 -7.7528 0.0000
# 3 20.5503 30.9165 124.3835 0.0000 -4.9104 0.0000
# 4 0.0000 0.0000 0.0000 20.9622 0.0000 1.9246
# 5 -2.9802 -7.7528 -4.9104 0.0000 36.9903 0.0000
# 6 0.0000 0.0000 0.0000 1.9246 0.0000 7.6860
#
#
#
# Elastic Compliance Matrix: (Units=1/GPa)
#
#
# Indices 1 2 3 4 5 6 
#
# 1 0.028078 -0.009690 -0.002233 0.000000 -0.000065 0.000000
# 2 -0.009690 0.015297 -0.002117 0.000000 0.002144 0.000000
# 3 -0.002233 -0.002117 0.008957 0.000000 0.000566 0.000000
# 4 0.000000 0.000000 0.000000 0.048827 0.000000 -0.012227
# 5 -0.000065 0.002144 0.000566 0.000000 0.027553 0.000000
# 6 0.000000 0.000000 0.000000 -0.012227 0.000000 0.133169
#
#
# Mechanical properties :
#
#
# Convention : Reuss Voigt Hill
#
# Bulk Modulus (GPa) = 41.23258 48.62849 44.93053
# Shear Modulus (GPa) = 16.77591 25.13822 20.95707
#
# Velocity S-wave (km/s) = 2.88878 3.53621 3.22877
# Velocity P-wave (km/s) = 5.62473 6.39241 6.02082
#
# Compressibility (1/GPa) = 0.02425267
#
# Stress axis : x y z
#
# Youngs Moduli (GPa) = 35.61494 65.37026 111.64446
#
# Poissons Ratio (x) = 0.63346 0.24930
# Poissons Ratio (y) = 0.34512 0.23631
# Poissons Ratio (z) = 0.07953 0.13836
#
# Static dielectric constant tensor:
#      x y z
#    x 1.767030 0.000000 0.019890 
#    y 0.000000 1.689150 0.000000 
#    z 0.019890 0.000000 1.820340 
# 
# From -- ./inp_files/27824.got.cif
#   From: 2010.05.17/outbox.cif.g08.bks.cpg/sg13_14_cif.got.tgz:27824.got - 2010.06.03 16:44:36.
