data_PCOD9227470
_publ_section_title
;
Structure prediction by ZEFSAII (Michael W. Deem and Ramdas Pophale) SiO2 
 PCOD9227470
Probable space group: P 2/C
;
_chemical_formula_sum "Si O2"
_cell_formula_units_Z 30
_cell_length_a 12.635470
_cell_length_b 6.493042
_cell_length_c 17.612363
_cell_angle_alpha 90.000000
_cell_angle_beta 86.891267
_cell_angle_gamma 90.000000
_cell_volume 1442.838324
_symmetry_space_group_name_H-M "P 2/C"
_symmetry_group_IT_number 13
_symmetry_cell_setting 'monoclinic'
loop_
_space_group_symop_operation_xyz
x,y,z
-x,y,1/2-z
-x,-y,-z
x,-y,1/2+z
loop_
_atom_site_type_symbol
_atom_site_label
_atom_site_fract_x
_atom_site_fract_y
_atom_site_fract_z
Si Si1 0.943760 0.411958 0.864682
Si Si2 0.866316 0.734903 0.667987
Si Si3 0.730668 0.385849 0.303506
Si Si4 0.172119 0.713564 0.995013
Si Si5 0.000000 0.943053 0.250000
Si Si6 0.646957 0.598230 0.027748
Si Si7 0.678649 0.976388 0.919478
Si Si8 0.554413 0.357982 0.886243
O O1 0.833186 0.510350 0.839897
O O2 0.041122 0.563643 0.843395
O O3 0.960560 0.203880 0.817943
O O4 0.928407 0.359219 0.953254
O O5 0.764164 0.645918 0.715268
O O6 0.848532 0.819558 0.584415
O O7 0.909298 0.911640 0.721037
O O8 0.714496 0.173172 0.350155
O O9 0.626729 0.526412 0.321471
O O10 0.239609 0.510144 0.968629
O O11 0.235355 0.865227 0.049436
O O12 0.570908 0.602516 0.103780
O O13 0.650194 0.823359 0.989750
O O14 0.596284 0.455399 0.963855
O O15 0.584043 0.118426 0.891470
#
# Coordination Sequence:
#
# PCOD9227470 Si02
#       8
#     4   4   4   4   2   4   4   4
#     4  12  22  43  61  86 119 156 198 249 291 357
#     4  12  26  40  60  88 118 160 198 248 296 357
#     4  11  20  40  62  86 119 156 200 242 295 352
#     4  11  24  39  60  89 125 154 194 246 306 344
#     4  12  24  40  66  82 118 154 214 238 296 352
#     4   9  18  35  58  89 123 151 191 246 291 345
#     4  10  18  35  63  88 122 150 204 243 290 351
#     4   9  18  32  62  91 114 155 200 237 287 347
#
# _framework density 20.792349999999999
#
# number of rings (size 3 to 8) (size 9 to 14) (size 15 to 20)
#    0.000    1.333    6.667    1.600    0.000    2.667 
#    0.000    0.667    0.000    0.000    0.000    0.000 
#    0.000    0.000    0.000    0.000    0.000    0.000 
#
# Total GULP energy -167408.804384 kJ/mol
# GULP energy per Si atom -5580.293479 kJ/mol
# Density = 2.074503 g / cm^3
# Si number density = 20.792350 Si / 1000 Ang^3
#
#
#
# Elastic Constant Matrix: (Units=GPa)
#
#
# Indices 1 2 3 4 5 6 
#
# 1 45.7426 28.1062 39.3271 0.0000 -34.9210 0.0000
# 2 28.1062 93.8580 16.4590 0.0000 -26.4675 0.0000
# 3 39.3271 16.4590 105.2675 0.0000 -35.1317 0.0000
# 4 0.0000 0.0000 0.0000 18.5565 0.0000 -5.9166
# 5 -34.9210 -26.4675 -35.1317 0.0000 40.5054 0.0000
# 6 0.0000 0.0000 0.0000 -5.9166 0.0000 -4.6454
#
#
#
# Elastic Compliance Matrix: (Units=1/GPa)
#
#
# Indices 1 2 3 4 5 6 
#
# 1 0.071131 -0.005684 -0.009090 0.000000 0.049727 0.000000
# 2 -0.005684 0.013612 0.001869 0.000000 0.005616 0.000000
# 3 -0.009090 0.001869 0.014630 0.000000 0.006074 0.000000
# 4 0.000000 0.000000 0.000000 0.038326 0.000000 -0.048813
# 5 0.049727 0.005616 0.006074 0.000000 0.076497 0.000000
# 6 0.000000 0.000000 0.000000 -0.048813 0.000000 -0.153095
#
#
# Mechanical properties :
#
#
# Convention : Reuss Voigt Hill
#
# Bulk Modulus (GPa) = 13.59335 45.85029 29.72182
# Shear Modulus (GPa) = 44.87057 21.61505 33.24281
#
# Velocity S-wave (km/s) = 4.65050 3.22773 4.00284
# Velocity P-wave (km/s) = 5.94879 5.99920 5.97405
#
# Compressibility (1/GPa) = 0.07356539
#
# Stress axis : x y z
#
# Youngs Moduli (GPa) = 14.05851 73.46326 68.35075
#
# Poissons Ratio (x) = 0.41756 0.62129
# Poissons Ratio (y) = 0.07991 -0.12777
# Poissons Ratio (z) = 0.12779 -0.13732
#
# Static dielectric constant tensor:
#      x y z
#    x 1.808560 0.000000 -0.020380 
#    y 0.000000 1.744630 0.000000 
#    z -0.020380 0.000000 1.763180 
# 
# From -- ./inp_files/67546.got.cif
#   From: 2010.05.17/outbox.cif.g08.bks.cpg/sg13_34_cif.got.tgz:67546.got - 2010.06.03 16:44:36.
