data_PCOD9227193
_publ_section_title
;
Structure prediction by ZEFSAII (Michael W. Deem and Ramdas Pophale) SiO2 
 PCOD9227193
Probable space group: P 2/C
;
_chemical_formula_sum "Si O2"
_cell_formula_units_Z 28
_cell_length_a 8.503244
_cell_length_b 9.701388
_cell_length_c 24.728783
_cell_angle_alpha 90.000000
_cell_angle_beta 41.329071
_cell_angle_gamma 90.000000
_cell_volume 1347.153203
_symmetry_space_group_name_H-M "P 2/C"
_symmetry_group_IT_number 13
_symmetry_cell_setting 'monoclinic'
loop_
_space_group_symop_operation_xyz
x,y,z
-x,y,1/2-z
-x,-y,-z
x,-y,1/2+z
loop_
_atom_site_type_symbol
_atom_site_label
_atom_site_fract_x
_atom_site_fract_y
_atom_site_fract_z
Si Si1 0.041933 0.306084 0.652708
Si Si2 0.740200 0.419385 0.418956
Si Si3 0.410387 0.150358 0.711138
Si Si4 0.773998 0.620949 0.109987
Si Si5 0.099541 0.337044 0.421744
Si Si6 0.452736 0.153365 0.488570
Si Si7 0.744639 0.928425 0.574238
O O1 0.863795 0.194421 0.725535
O O2 0.898818 0.336870 0.633690
O O3 0.118939 0.461274 0.651646
O O4 0.283602 0.227123 0.575925
O O5 0.500000 0.500000 0.500000
O O6 0.657029 0.266901 0.421779
O O7 0.911126 0.378787 0.424781
O O8 0.500000 0.123028 0.750000
O O9 0.544862 0.289330 0.659842
O O10 0.530885 0.029953 0.645485
O O11 0.712126 0.460351 0.126743
O O12 0.957420 0.652118 0.014775
O O13 0.215168 0.187936 0.390690
O O14 0.316731 0.135645 0.467512
O O15 0.500000 0.000000 0.500000
O O16 0.000000 0.000000 0.500000
#
# Coordination Sequence:
#
# PCOD9227193 Si02
#       7
#     4   4   4   4   4   4   4
#     4   9  18  39  58  84 116 156 198 246 301 359
#     4   9  20  35  59  88 118 155 197 245 303 361
#     4  10  20  36  58  87 120 153 193 254 309 353
#     4   9  17  31  58  86 112 141 194 249 287 340
#     4  10  18  33  59  90 110 143 202 250 286 342
#     4  11  22  37  59  89 120 156 201 250 297 362
#     4  12  21  36  60  93 117 155 204 248 299 362
#
# _framework density 20.784572000000001
#
# number of rings (size 3 to 8) (size 9 to 14) (size 15 to 20)
#    0.000    2.000    2.857    1.714    2.000    0.000 
#    0.000    5.714    0.000    0.000    3.714    0.000 
#    0.000    0.000    0.000    0.000    0.000    0.000 
#
# Total GULP energy -155910.087967 kJ/mol
# GULP energy per Si atom -5568.217427 kJ/mol
# Density = 2.073727 g / cm^3
# Si number density = 20.784572 Si / 1000 Ang^3
#
#
#
# Elastic Constant Matrix: (Units=GPa)
#
#
# Indices 1 2 3 4 5 6 
#
# 1 51.7272 39.5741 0.7442 0.0000 -5.6534 0.0000
# 2 39.5741 157.4400 37.5880 0.0000 -17.7880 0.0000
# 3 0.7442 37.5880 43.1220 0.0000 -11.5370 0.0000
# 4 0.0000 0.0000 0.0000 30.3944 0.0000 -8.4499
# 5 -5.6534 -17.7880 -11.5370 0.0000 17.5330 0.0000
# 6 0.0000 0.0000 0.0000 -8.4499 0.0000 31.1149
#
#
#
# Elastic Compliance Matrix: (Units=1/GPa)
#
#
# Indices 1 2 3 4 5 6 
#
# 1 0.025707 -0.007679 0.007747 0.000000 0.005596 0.000000
# 2 -0.007679 0.010590 -0.008358 0.000000 0.002768 0.000000
# 3 0.007747 -0.008358 0.034882 0.000000 0.016972 0.000000
# 4 0.000000 0.000000 0.000000 0.035588 0.000000 0.009665
# 5 0.005596 0.002768 0.016972 0.000000 0.072816 0.000000
# 6 0.000000 0.000000 0.000000 0.009665 0.000000 0.034764
#
#
# Mechanical properties :
#
#
# Convention : Reuss Voigt Hill
#
# Bulk Modulus (GPa) = 18.31503 45.34464 31.82983
# Shear Modulus (GPa) = 20.07018 27.43399 23.75208
#
# Velocity S-wave (km/s) = 3.11083 3.63701 3.38416
# Velocity P-wave (km/s) = 4.66197 6.28498 5.53331
#
# Compressibility (1/GPa) = 0.05459997
#
# Stress axis : x y z
#
# Youngs Moduli (GPa) = 38.89957 94.42889 28.66796
#
# Poissons Ratio (x) = 0.72513 -0.22209
# Poissons Ratio (y) = 0.29871 0.23960
# Poissons Ratio (z) = -0.30136 0.78921
#
# Static dielectric constant tensor:
#      x y z
#    x 1.684270 0.000000 0.089350 
#    y 0.000000 1.811270 0.000000 
#    z 0.089350 0.000000 1.718870 
# 
# From -- ./inp_files/91380.got.cif
#   From: 2010.05.17/outbox.cif.g08.bks.cpg/sg13_46_cif.got.tgz:91380.got - 2010.06.03 16:44:36.
