data_PCOD9227256
_publ_section_title
;
Structure prediction by ZEFSAII (Michael W. Deem and Ramdas Pophale) SiO2 
 PCOD9227256
Probable space group: P 2/C
;
_chemical_formula_sum "Si O2"
_cell_formula_units_Z 24
_cell_length_a 26.144055
_cell_length_b 8.657287
_cell_length_c 18.672038
_cell_angle_alpha 90.000000
_cell_angle_beta 163.237017
_cell_angle_gamma 90.000000
_cell_volume 1218.882056
_symmetry_space_group_name_H-M "P 2/C"
_symmetry_group_IT_number 13
_symmetry_cell_setting 'monoclinic'
loop_
_space_group_symop_operation_xyz
x,y,z
-x,y,1/2-z
-x,-y,-z
x,-y,1/2+z
loop_
_atom_site_type_symbol
_atom_site_label
_atom_site_fract_x
_atom_site_fract_y
_atom_site_fract_z
Si Si1 0.889012 0.219179 0.365595
Si Si2 0.360465 0.164147 0.733658
Si Si3 0.542894 0.581026 0.391080
Si Si4 0.725669 0.008586 0.744369
Si Si5 0.287693 0.258584 0.895248
Si Si6 0.301118 0.014443 0.506726
O O1 0.078751 0.296308 0.608955
O O2 0.878809 0.105685 0.421038
O O3 0.731311 0.340545 0.160499
O O4 0.833118 0.110609 0.223466
O O5 0.400526 0.333871 0.752668
O O6 0.243411 0.117505 0.645627
O O7 0.287072 0.062920 0.569637
O O8 0.553993 0.102692 0.018570
O O9 0.500000 0.609512 0.250000
O O10 0.582097 0.398688 0.446657
O O11 0.679675 0.124400 0.618391
O O12 0.298108 0.167676 0.984782
O O13 0.500000 0.062919 0.750000
#
# Coordination Sequence:
#
# PCOD9227256 Si02
#       6
#     4   4   4   4   4   4
#     4  10  19  37  53  80 113 144 180 226 281 336
#     4  10  18  34  56  80 110 140 185 234 275 323
#     4  11  20  35  58  81 105 147 188 230 280 333
#     4   9  19  33  55  83 107 142 182 231 280 318
#     4  11  22  32  55  85 111 141 187 230 281 336
#     4  11  16  34  56  78 106 138 191 233 260 330
#
# _framework density 19.690173000000001
#
# number of rings (size 3 to 8) (size 9 to 14) (size 15 to 20)
#    0.000    1.667    6.667    3.000    0.000    0.667 
#    0.000    3.333    0.000    0.000    4.333    0.000 
#    0.000    0.000    0.000    0.000    0.000    0.000 
#
# Total GULP energy -133603.986811 kJ/mol
# GULP energy per Si atom -5566.832784 kJ/mol
# Density = 1.964536 g / cm^3
# Si number density = 19.690173 Si / 1000 Ang^3
#
#
#
# Elastic Constant Matrix: (Units=GPa)
#
#
# Indices 1 2 3 4 5 6 
#
# 1 68.0244 20.2444 17.1301 0.0000 -18.6215 0.0000
# 2 20.2444 105.7538 4.8172 0.0000 -10.2937 0.0000
# 3 17.1301 4.8172 33.6196 0.0000 -4.3343 0.0000
# 4 0.0000 0.0000 0.0000 26.9266 0.0000 -3.7261
# 5 -18.6215 -10.2937 -4.3343 0.0000 18.1037 0.0000
# 6 0.0000 0.0000 0.0000 -3.7261 0.0000 6.7588
#
#
#
# Elastic Compliance Matrix: (Units=1/GPa)
#
#
# Indices 1 2 3 4 5 6 
#
# 1 0.023161 -0.002030 -0.008861 0.000000 0.020548 0.000000
# 2 -0.002030 0.010205 0.000053 0.000000 0.003727 0.000000
# 3 -0.008861 0.000053 0.034135 0.000000 -0.000913 0.000000
# 4 0.000000 0.000000 0.000000 0.040205 0.000000 0.022165
# 5 0.020548 0.003727 -0.000913 0.000000 0.078273 0.000000
# 6 0.000000 0.000000 0.000000 0.022165 0.000000 0.160175
#
#
# Mechanical properties :
#
#
# Convention : Reuss Voigt Hill
#
# Bulk Modulus (GPa) = 21.82310 32.42014 27.12162
# Shear Modulus (GPa) = 13.05123 21.37155 17.21139
#
# Velocity S-wave (km/s) = 2.57734 3.29810 2.95974
# Velocity P-wave (km/s) = 4.46813 5.56814 5.04819
#
# Compressibility (1/GPa) = 0.04582301
#
# Stress axis : x y z
#
# Youngs Moduli (GPa) = 43.17570 97.99211 29.29586
#
# Poissons Ratio (x) = 0.19893 0.25960
# Poissons Ratio (y) = 0.08765 -0.00154
# Poissons Ratio (z) = 0.38260 -0.00516
#
# Static dielectric constant tensor:
#      x y z
#    x 1.738900 0.000000 -0.003360 
#    y 0.000000 1.744400 0.000000 
#    z -0.003360 0.000000 1.765500 
# 
# From -- ./inp_files/65731.got.cif
#   From: 2010.05.17/outbox.cif.g08.bks.cpg/sg13_33_cif.got.tgz:65731.got - 2010.06.03 16:44:36.
