data_PCOD9227824
_publ_section_title
;
Structure prediction by ZEFSAII (Michael W. Deem and Ramdas Pophale) SiO2 
 PCOD9227824
Probable space group: P 2/C
;
_chemical_formula_sum "Si O2"
_cell_formula_units_Z 32
_cell_length_a 9.828570
_cell_length_b 5.468568
_cell_length_c 27.615913
_cell_angle_alpha 90.000000
_cell_angle_beta 88.695515
_cell_angle_gamma 90.000000
_cell_volume 1483.921022
_symmetry_space_group_name_H-M "P 2/C"
_symmetry_group_IT_number 13
_symmetry_cell_setting 'monoclinic'
loop_
_space_group_symop_operation_xyz
x,y,z
-x,y,1/2-z
-x,-y,-z
x,-y,1/2+z
loop_
_atom_site_type_symbol
_atom_site_label
_atom_site_fract_x
_atom_site_fract_y
_atom_site_fract_z
Si Si1 0.757116 0.023136 0.698495
Si Si2 0.277581 0.990327 0.903938
Si Si3 0.396660 0.993446 0.621027
Si Si4 0.902135 0.483406 0.297087
Si Si5 0.838231 0.983329 0.307614
Si Si6 0.306583 0.510142 0.458046
Si Si7 0.350959 0.521142 0.768701
Si Si8 0.369092 0.507451 0.066051
O O1 0.841070 0.020576 0.748399
O O2 0.692950 0.293841 0.698096
O O3 0.810343 0.986292 0.644214
O O4 0.661676 0.785760 0.707163
O O5 0.438575 0.995517 0.884959
O O6 0.256708 0.742103 0.934308
O O7 0.255091 0.238278 0.934435
O O8 0.348750 0.737034 0.597822
O O9 0.318588 0.011024 0.673097
O O10 0.345487 0.235685 0.593214
O O11 0.911877 0.737649 0.324133
O O12 0.750546 0.481434 0.275943
O O13 0.000000 0.482707 0.250000
O O14 0.912495 0.228501 0.323728
O O15 0.469660 0.509371 0.447410
O O16 0.289831 0.507950 0.516040
O O17 0.500000 0.474521 0.750000
#
# Coordination Sequence:
#
# PCOD9227824 Si02
#       8
#     4   4   4   4   4   4   4   4
#     4  10  21  32  44  69 101 136 163 216 238 298
#     4  10  19  27  44  65  94 128 172 200 247 307
#     4  10  19  28  44  69  89 127 167 207 253 298
#     4  10  21  36  52  70  97 141 180 213 252 299
#     4  10  21  34  50  71 100 133 169 213 251 297
#     4   9  17  30  42  61  85 130 169 209 247 300
#     4  10  21  32  50  70  97 137 170 209 254 290
#     4   9  17  30  44  59  90 122 170 213 249 299
#
# _framework density 21.564492000000001
#
# number of rings (size 3 to 8) (size 9 to 14) (size 15 to 20)
#    0.000    2.250    0.000    3.000    7.000    3.000 
#    0.000    0.000    0.000    0.000    0.000    0.000 
#    0.000    0.000    0.000  315.000    0.000    0.000 
#
# Total GULP energy -178498.200914 kJ/mol
# GULP energy per Si atom -5578.068779 kJ/mol
# Density = 2.151541 g / cm^3
# Si number density = 21.564492 Si / 1000 Ang^3
#
#
#
# Elastic Constant Matrix: (Units=GPa)
#
#
# Indices 1 2 3 4 5 6 
#
# 1 54.5173 9.2887 13.2307 0.0000 -1.3665 0.0000
# 2 9.2887 179.0952 35.9935 0.0000 -0.0834 0.0000
# 3 13.2307 35.9935 90.2192 0.0000 16.6860 0.0000
# 4 0.0000 0.0000 0.0000 28.9282 0.0000 32.5095
# 5 -1.3665 -0.0834 16.6860 0.0000 13.9240 0.0000
# 6 0.0000 0.0000 0.0000 32.5095 0.0000 -208.6352
#
#
#
# Elastic Compliance Matrix: (Units=1/GPa)
#
#
# Indices 1 2 3 4 5 6 
#
# 1 0.019524 -0.000199 -0.004031 0.000000 0.006746 0.000000
# 2 -0.000199 0.006231 -0.003160 0.000000 0.003805 0.000000
# 3 -0.004031 -0.003160 0.016718 0.000000 -0.020449 0.000000
# 4 0.000000 0.000000 0.000000 0.029417 0.000000 0.004584
# 5 0.006746 0.003805 -0.020449 0.000000 0.097009 0.000000
# 6 0.000000 0.000000 0.000000 0.004584 0.000000 -0.004079
#
#
# Mechanical properties :
#
#
# Convention : Reuss Voigt Hill
#
# Bulk Modulus (GPa) = 36.11252 48.98418 42.54835
# Shear Modulus (GPa) = 26.47840 -15.46869 5.50486
#
# Velocity S-wave (km/s) = 3.50790 -2.68119 1.59946
# Velocity P-wave (km/s) = 5.76106 3.63035 4.81504
#
# Compressibility (1/GPa) = 0.02769123
#
# Stress axis : x y z
#
# Youngs Moduli (GPa) = 51.21838 160.49093 59.81492
#
# Poissons Ratio (x) = 0.03198 0.24114
# Poissons Ratio (y) = 0.01021 0.18904
# Poissons Ratio (z) = 0.20648 0.50721
#
# Static dielectric constant tensor:
#      x y z
#    x 2.244910 0.000000 0.046570 
#    y 0.000000 1.888450 0.000000 
#    z 0.046570 0.000000 1.777600 
# 
# From -- ./inp_files/88757.got.cif
#   From: 2010.05.17/outbox.cif.g08.bks.cpg/sg13_45_cif.got.tgz:88757.got - 2010.06.03 16:44:36.
