data_PCOD9227461
_publ_section_title
;
Structure prediction by ZEFSAII (Michael W. Deem and Ramdas Pophale) SiO2 
 PCOD9227461
Probable space group: P 2/C
;
_chemical_formula_sum "Si O2"
_cell_formula_units_Z 24
_cell_length_a 13.482755
_cell_length_b 4.976428
_cell_length_c 14.841832
_cell_angle_alpha 90.000000
_cell_angle_beta 110.262257
_cell_angle_gamma 90.000000
_cell_volume 934.202469
_symmetry_space_group_name_H-M "P 2/C"
_symmetry_group_IT_number 13
_symmetry_cell_setting 'monoclinic'
loop_
_space_group_symop_operation_xyz
x,y,z
-x,y,1/2-z
-x,-y,-z
x,-y,1/2+z
loop_
_atom_site_type_symbol
_atom_site_label
_atom_site_fract_x
_atom_site_fract_y
_atom_site_fract_z
Si Si1 0.124806 0.285998 0.032822
Si Si2 0.720409 0.391985 0.036958
Si Si3 0.729481 0.332441 0.730052
Si Si4 0.663966 0.146454 0.304391
Si Si5 0.966444 0.628506 0.342574
Si Si6 0.590901 0.104886 0.464325
O O1 0.187092 0.533646 0.003235
O O2 0.049302 0.193163 0.926755
O O3 0.054514 0.379578 0.095658
O O4 0.223706 0.126275 0.105435
O O5 0.745746 0.510576 0.142372
O O6 0.619327 0.580593 0.981140
O O7 0.689442 0.083098 0.025212
O O8 0.667038 0.056509 0.722090
O O9 0.848314 0.261899 0.796584
O O10 0.667890 0.548006 0.772520
O O11 0.579131 0.070097 0.353454
O O12 0.000000 0.570222 0.250000
O O13 0.500000 0.000000 0.500000
#
# Coordination Sequence:
#
# PCOD9227461 Si02
#       6
#     4   4   4   4   4   4
#     4   9  20  36  61  92 129 177 209 261 314 373
#     4  11  22  41  64  92 126 165 207 257 324 378
#     4  11  22  40  62  93 128 167 206 264 311 372
#     4  10  22  41  63  89 127 166 209 256 324 377
#     4  10  18  35  61  93 131 165 224 256 306 368
#     4  11  23  42  66  90 119 163 211 259 320 391
#
# _framework density 25.690359000000001
#
# number of rings (size 3 to 8) (size 9 to 14) (size 15 to 20)
#    0.000    1.667    1.667    4.500    0.000    0.667 
#    0.000   13.333    0.000    0.000    0.000    0.000 
#    0.000    0.000    0.000    0.000    0.000    0.000 
#
# Total GULP energy -133982.659054 kJ/mol
# GULP energy per Si atom -5582.610794 kJ/mol
# Density = 2.563189 g / cm^3
# Si number density = 25.690359 Si / 1000 Ang^3
#
#
#
# Elastic Constant Matrix: (Units=GPa)
#
#
# Indices 1 2 3 4 5 6 
#
# 1 96.9928 28.7585 25.1296 0.0000 -36.4697 0.0000
# 2 28.7585 58.7432 12.8918 0.0000 -16.3203 0.0000
# 3 25.1296 12.8918 146.6801 0.0000 -30.0987 0.0000
# 4 0.0000 0.0000 0.0000 27.8121 0.0000 -9.2828
# 5 -36.4697 -16.3203 -30.0987 0.0000 49.4118 0.0000
# 6 0.0000 0.0000 0.0000 -9.2828 0.0000 26.1299
#
#
#
# Elastic Compliance Matrix: (Units=1/GPa)
#
#
# Indices 1 2 3 4 5 6 
#
# 1 0.015430 -0.004820 -0.000240 0.000000 0.009650 0.000000
# 2 -0.004820 0.020273 -0.000357 0.000000 0.002921 0.000000
# 3 -0.000240 -0.000357 0.007805 0.000000 0.004460 0.000000
# 4 0.000000 0.000000 0.000000 0.040792 0.000000 0.014492
# 5 0.009650 0.002921 0.004460 0.000000 0.031042 0.000000
# 6 0.000000 0.000000 0.000000 0.014492 0.000000 0.043419
#
#
# Mechanical properties :
#
#
# Convention : Reuss Voigt Hill
#
# Bulk Modulus (GPa) = 30.60434 48.44177 39.52305
# Shear Modulus (GPa) = 27.70304 36.37984 32.04144
#
# Velocity S-wave (km/s) = 3.28738 3.76718 3.53543
# Velocity P-wave (km/s) = 5.13301 6.14973 5.66423
#
# Compressibility (1/GPa) = 0.03267510
#
# Stress axis : x y z
#
# Youngs Moduli (GPa) = 64.80922 49.32712 128.12161
#
# Poissons Ratio (x) = 0.23777 0.03069
# Poissons Ratio (y) = 0.31239 0.04569
# Poissons Ratio (z) = 0.01553 0.01759
#
# Static dielectric constant tensor:
#      x y z
#    x 2.087270 0.000000 0.054100 
#    y 0.000000 1.959080 0.000000 
#    z 0.054100 0.000000 2.100490 
# 
# From -- ./inp_files/52287.got.cif
#   From: 2010.05.17/outbox.cif.g08.bks.cpg/sg13_27_cif.got.tgz:52287.got - 2010.06.03 16:44:36.
