data_PCOD9227260
_publ_section_title
;
Structure prediction by ZEFSAII (Michael W. Deem and Ramdas Pophale) SiO2 
 PCOD9227260
Probable space group: P 2/C
;
_chemical_formula_sum "Si O2"
_cell_formula_units_Z 30
_cell_length_a 11.072037
_cell_length_b 10.105597
_cell_length_c 16.318983
_cell_angle_alpha 90.000000
_cell_angle_beta 109.393480
_cell_angle_gamma 90.000000
_cell_volume 1722.321484
_symmetry_space_group_name_H-M "P 2/C"
_symmetry_group_IT_number 13
_symmetry_cell_setting 'monoclinic'
loop_
_space_group_symop_operation_xyz
x,y,z
-x,y,1/2-z
-x,-y,-z
x,-y,1/2+z
loop_
_atom_site_type_symbol
_atom_site_label
_atom_site_fract_x
_atom_site_fract_y
_atom_site_fract_z
Si Si1 0.830759 0.108234 0.935017
Si Si2 0.451050 0.268306 0.861779
Si Si3 0.425940 0.014071 0.151288
Si Si4 0.353850 0.244939 0.023036
Si Si5 0.782420 0.333109 0.809768
Si Si6 0.887496 0.079693 0.576720
Si Si7 0.394556 0.527284 0.662220
Si Si8 0.000000 0.786804 0.250000
O O1 0.794546 0.254764 0.898444
O O2 0.971166 0.088248 0.929561
O O3 0.725019 0.014218 0.868407
O O4 0.833005 0.060112 0.030104
O O5 0.331565 0.273741 0.772094
O O6 0.539769 0.393204 0.858508
O O7 0.518781 0.127149 0.865090
O O8 0.404699 0.278228 0.944442
O O9 0.500000 0.053138 0.250000
O O10 0.432909 0.125514 0.083274
O O11 0.363456 0.369246 0.084973
O O12 0.209762 0.189303 0.980191
O O13 0.733270 0.479630 0.819196
O O14 0.912227 0.304228 0.788939
O O15 0.908490 0.117499 0.675768
O O16 0.500000 0.581395 0.750000
#
# Coordination Sequence:
#
# PCOD9227260 Si02
#       8
#     4   4   4   4   4   4   4   2
#     4   9  17  33  53  80 106 141 179 225 266 325
#     4  11  19  35  53  81 107 146 186 223 262 320
#     4  11  19  33  56  83 111 142 180 225 271 327
#     4  11  22  34  52  85 114 140 183 229 275 318
#     4  10  18  34  59  77 104 140 193 217 267 326
#     4   9  19  32  54  79 109 139 183 227 275 316
#     4  10  21  37  56  76 112 151 180 219 278 330
#     4  10  18  34  56  84 104 142 184 236 262 328
#
# _framework density 17.418351999999999
#
# number of rings (size 3 to 8) (size 9 to 14) (size 15 to 20)
#    0.000    1.867    4.000    1.600    0.000    0.000 
#    0.000    2.667    0.000    0.000    0.000    3.733 
#    0.000    0.000    0.000    0.000    0.000    0.000 
#
# Total GULP energy -167014.584942 kJ/mol
# GULP energy per Si atom -5567.152831 kJ/mol
# Density = 1.737871 g / cm^3
# Si number density = 17.418352 Si / 1000 Ang^3
#
#
#
# Elastic Constant Matrix: (Units=GPa)
#
#
# Indices 1 2 3 4 5 6 
#
# 1 73.0104 21.4284 31.1351 0.0000 -1.2388 0.0000
# 2 21.4284 65.8384 45.4353 0.0000 -3.2671 0.0000
# 3 31.1351 45.4353 119.9509 0.0000 3.0347 0.0000
# 4 0.0000 0.0000 0.0000 204.0357 0.0000 -131.5021
# 5 -1.2388 -3.2671 3.0347 0.0000 26.2479 0.0000
# 6 0.0000 0.0000 0.0000 -131.5021 0.0000 100.3692
#
#
#
# Elastic Compliance Matrix: (Units=1/GPa)
#
#
# Indices 1 2 3 4 5 6 
#
# 1 0.015881 -0.003082 -0.002973 0.000000 0.000710 0.000000
# 2 -0.003082 0.021482 -0.007423 0.000000 0.003387 0.000000
# 3 -0.002973 -0.007423 0.011982 0.000000 -0.002450 0.000000
# 4 0.000000 0.000000 0.000000 0.031502 0.000000 0.041274
# 5 0.000710 0.003387 -0.002450 0.000000 0.038837 0.000000
# 6 0.000000 0.000000 0.000000 0.041274 0.000000 0.064039
#
#
# Mechanical properties :
#
#
# Convention : Reuss Voigt Hill
#
# Bulk Modulus (GPa) = 44.66249 50.53301 47.59775
# Shear Modulus (GPa) = 22.92086 76.85063 49.88575
#
# Velocity S-wave (km/s) = 3.63147 6.64953 5.35742
# Velocity P-wave (km/s) = 6.57877 9.38240 8.10276
#
# Compressibility (1/GPa) = 0.02239015
#
# Stress axis : x y z
#
# Youngs Moduli (GPa) = 62.96831 46.54968 83.45885
#
# Poissons Ratio (x) = 0.14347 0.24809
# Poissons Ratio (y) = 0.19408 0.61950
# Poissons Ratio (z) = 0.18718 0.34553
#
# Static dielectric constant tensor:
#      x y z
#    x 1.616680 0.000000 0.006860 
#    y 0.000000 1.586440 0.000000 
#    z 0.006860 0.000000 1.617500 
# 
# From -- ./inp_files/66325.got.cif
#   From: 2010.05.17/outbox.cif.g08.bks.cpg/sg13_34_cif.got.tgz:66325.got - 2010.06.03 16:44:36.
