data_PCOD9227108
_publ_section_title
;
Structure prediction by ZEFSAII (Michael W. Deem and Ramdas Pophale) SiO2 
 PCOD9227108
Probable space group: P 2/C
;
_chemical_formula_sum "Si O2"
_cell_formula_units_Z 24
_cell_length_a 30.636550
_cell_length_b 6.746796
_cell_length_c 5.231536
_cell_angle_alpha 90.000000
_cell_angle_beta 99.864820
_cell_angle_gamma 90.000000
_cell_volume 1065.362830
_symmetry_space_group_name_H-M "P 2/C"
_symmetry_group_IT_number 13
_symmetry_cell_setting 'monoclinic'
loop_
_space_group_symop_operation_xyz
x,y,z
-x,y,1/2-z
-x,-y,-z
x,-y,1/2+z
loop_
_atom_site_type_symbol
_atom_site_label
_atom_site_fract_x
_atom_site_fract_y
_atom_site_fract_z
Si Si1 0.000000 0.639889 0.750000
Si Si2 0.500000 0.360952 0.250000
Si Si3 0.686769 0.794081 0.058120
Si Si4 0.814353 0.876136 0.509253
Si Si5 0.095964 0.362078 0.361378
Si Si6 0.722380 0.757493 0.595731
Si Si7 0.403781 0.638529 0.683261
O O1 0.952218 0.745640 0.698379
O O2 0.000000 0.500000 0.500000
O O3 0.500000 0.500000 0.500000
O O4 0.547934 0.257536 0.291445
O O5 0.717281 0.685612 0.879177
O O6 0.688720 0.696650 0.339079
O O7 0.637357 0.785202 0.899203
O O8 0.707707 0.010817 0.121549
O O9 0.861530 0.776335 0.601764
O O10 0.771866 0.744143 0.538899
O O11 0.811163 0.946609 0.213645
O O12 0.097844 0.490278 0.622193
O O13 0.401235 0.523958 0.951227
#
# Coordination Sequence:
#
# PCOD9227108 Si02
#       7
#     2   2   4   4   4   4   4
#     4   8  16  34  58  78 112 150 180 220 290 346
#     4   8  16  30  48  68 100 136 160 194 264 324
#     4  10  18  33  53  72  93 134 180 201 249 312
#     4  12  21  38  60  81 112 156 192 225 283 347
#     4  10  21  38  59  87 113 147 190 237 280 332
#     4  10  19  35  54  66  96 140 178 205 251 319
#     4  10  19  32  50  77 104 129 164 214 264 314
#
# _framework density 22.527536000000001
#
# number of rings (size 3 to 8) (size 9 to 14) (size 15 to 20)
#    0.000    2.000    3.333    2.000    0.000    0.000 
#    0.000    5.833    0.000    4.000    0.000    0.000 
#    0.000    0.000    0.000    0.000    0.000    0.000 
#
# Total GULP energy -133841.101509 kJ/mol
# GULP energy per Si atom -5576.712563 kJ/mol
# Density = 2.247626 g / cm^3
# Si number density = 22.527536 Si / 1000 Ang^3
#
#
#
# Elastic Constant Matrix: (Units=GPa)
#
#
# Indices 1 2 3 4 5 6 
#
# 1 172.0094 1.1770 3.3708 0.0000 31.4372 0.0000
# 2 1.1770 33.3154 -15.6565 0.0000 2.7697 0.0000
# 3 3.3708 -15.6565 124.7880 0.0000 -24.4741 0.0000
# 4 0.0000 0.0000 0.0000 -9.5130 0.0000 13.0455
# 5 31.4372 2.7697 -24.4741 0.0000 55.6805 0.0000
# 6 0.0000 0.0000 0.0000 13.0455 0.0000 26.7784
#
#
#
# Elastic Compliance Matrix: (Units=1/GPa)
#
#
# Indices 1 2 3 4 5 6 
#
# 1 0.006598 -0.000377 -0.001042 0.000000 -0.004164 0.000000
# 2 -0.000377 0.031920 0.004099 0.000000 0.000426 0.000000
# 3 -0.001042 0.004099 0.009446 0.000000 0.004536 0.000000
# 4 0.000000 0.000000 0.000000 -0.063019 0.000000 0.030701
# 5 -0.004164 0.000426 0.004536 0.000000 0.022284 0.000000
# 6 0.000000 0.000000 0.000000 0.030701 0.000000 0.022387
#
#
# Mechanical properties :
#
#
# Convention : Reuss Voigt Hill
#
# Bulk Modulus (GPa) = 18.75360 34.21060 26.48210
# Shear Modulus (GPa) = 118.96114 37.33728 78.14921
#
# Velocity S-wave (km/s) = 7.27473 4.07554 5.89626
# Velocity P-wave (km/s) = 8.88285 6.11276 7.62466
#
# Compressibility (1/GPa) = 0.05332309
#
# Stress axis : x y z
#
# Youngs Moduli (GPa) = 151.56667 31.32817 105.86854
#
# Poissons Ratio (x) = 0.01180 0.11034
# Poissons Ratio (y) = 0.05709 -0.43392
# Poissons Ratio (z) = 0.15797 -0.12840
#
# Static dielectric constant tensor:
#      x y z
#    x 1.884370 0.000000 -0.010740 
#    y 0.000000 2.161500 0.000000 
#    z -0.010740 0.000000 1.875760 
# 
# From -- ./inp_files/7361.got.cif
#   From: 2010.05.17/outbox.cif.g08.bks.cpg/sg13_4_cif.got.tgz:7361.got - 2010.06.03 16:44:36.
