data_PCOD9227633
_publ_section_title
;
Structure prediction by ZEFSAII (Michael W. Deem and Ramdas Pophale) SiO2 
 PCOD9227633
Probable space group: P 2/C
;
_chemical_formula_sum "Si O2"
_cell_formula_units_Z 32
_cell_length_a 14.237430
_cell_length_b 10.919747
_cell_length_c 15.203992
_cell_angle_alpha 90.000000
_cell_angle_beta 38.698295
_cell_angle_gamma 90.000000
_cell_volume 1477.863347
_symmetry_space_group_name_H-M "P 2/C"
_symmetry_group_IT_number 13
_symmetry_cell_setting 'monoclinic'
loop_
_space_group_symop_operation_xyz
x,y,z
-x,y,1/2-z
-x,-y,-z
x,-y,1/2+z
loop_
_atom_site_type_symbol
_atom_site_label
_atom_site_fract_x
_atom_site_fract_y
_atom_site_fract_z
Si Si1 0.828699 0.443197 0.628787
Si Si2 0.229133 0.115514 0.610251
Si Si3 0.902297 0.637074 0.247772
Si Si4 0.794095 0.984151 0.702453
Si Si5 0.873614 0.837579 0.492163
Si Si6 0.534336 0.190660 0.452253
Si Si7 0.377716 0.659205 0.768843
Si Si8 0.382256 0.208594 0.752195
O O1 0.806872 0.438357 0.749908
O O2 0.733234 0.547261 0.654553
O O3 0.751192 0.314183 0.650908
O O4 0.000000 0.500000 0.500000
O O5 0.198155 0.261305 0.631822
O O6 0.159988 0.077608 0.568413
O O7 0.404972 0.107208 0.500432
O O8 0.148853 0.062000 0.755632
O O9 0.000000 0.569855 0.250000
O O10 0.015398 0.724148 0.108585
O O11 0.904341 0.905788 0.560869
O O12 0.685303 0.887448 0.831753
O O13 0.702707 0.078625 0.705706
O O14 0.710853 0.777783 0.631742
O O15 0.556851 0.307951 0.374174
O O16 0.479716 0.222042 0.590321
O O17 0.500000 0.628242 0.750000
O O18 0.500000 0.210097 0.750000
#
# Coordination Sequence:
#
# PCOD9227633 Si02
#       8
#     4   4   4   4   4   4   4   4
#     4  12  24  44  64  87 122 169 216 260 314 371
#     4  10  18  37  59  88 125 159 208 248 309 373
#     4  10  21  41  62  86 120 165 218 260 304 378
#     4  10  22  34  64  95 126 166 199 259 314 383
#     4  10  21  36  63  92 121 165 208 255 312 372
#     4  10  21  38  60  94 126 157 208 256 310 383
#     4  11  22  38  65  94 122 160 211 266 310 369
#     4  11  24  42  62  95 131 163 202 259 327 376
#
# _framework density 21.65288
#
# number of rings (size 3 to 8) (size 9 to 14) (size 15 to 20)
#    0.000    1.500    5.000    1.875    3.500    1.000 
#    2.250    0.000    0.000    0.000    0.000    0.000 
#    0.000    0.000    0.000    0.000    0.000    0.000 
#
# Total GULP energy -178167.190149 kJ/mol
# GULP energy per Si atom -5567.724692 kJ/mol
# Density = 2.160360 g / cm^3
# Si number density = 21.652880 Si / 1000 Ang^3
#
#
#
# Elastic Constant Matrix: (Units=GPa)
#
#
# Indices 1 2 3 4 5 6 
#
# 1 114.4350 26.9645 -0.9118 0.0000 -1.6471 0.0000
# 2 26.9645 58.0937 17.0904 0.0000 2.6062 0.0000
# 3 -0.9118 17.0904 66.3258 0.0000 4.9816 0.0000
# 4 0.0000 0.0000 0.0000 25.4838 0.0000 -2.1897
# 5 -1.6471 2.6062 4.9816 0.0000 26.6599 0.0000
# 6 0.0000 0.0000 0.0000 -2.1897 0.0000 30.7564
#
#
#
# Elastic Compliance Matrix: (Units=1/GPa)
#
#
# Indices 1 2 3 4 5 6 
#
# 1 0.009955 -0.005064 0.001378 0.000000 0.000853 0.000000
# 2 -0.005064 0.021225 -0.005436 0.000000 -0.001372 0.000000
# 3 0.001378 -0.005436 0.016685 0.000000 -0.002501 0.000000
# 4 0.000000 0.000000 0.000000 0.039482 0.000000 0.002811
# 5 0.000853 -0.001372 -0.002501 0.000000 0.038164 0.000000
# 6 0.000000 0.000000 0.000000 0.002811 0.000000 0.032714
#
#
# Mechanical properties :
#
#
# Convention : Reuss Voigt Hill
#
# Bulk Modulus (GPa) = 33.76086 36.12674 34.94380
# Shear Modulus (GPa) = 26.83240 29.62744 28.22992
#
# Velocity S-wave (km/s) = 3.52406 3.70305 3.61466
# Velocity P-wave (km/s) = 5.67312 5.91643 5.79606
#
# Compressibility (1/GPa) = 0.02962010
#
# Stress axis : x y z
#
# Youngs Moduli (GPa) = 100.45049 47.11452 59.93580
#
# Poissons Ratio (x) = 0.23860 -0.08258
# Poissons Ratio (y) = 0.50871 0.32579
# Poissons Ratio (z) = -0.13840 0.25610
#
# Static dielectric constant tensor:
#      x y z
#    x 1.838330 0.000000 -0.015510 
#    y 0.000000 1.827050 0.000000 
#    z -0.015510 0.000000 1.889290 
# 
# From -- ./inp_files/53711.got.cif
#   From: 2010.05.17/outbox.cif.g08.bks.cpg/sg13_27_cif.got.tgz:53711.got - 2010.06.03 16:44:36.
