data_PCOD9227205
_publ_section_title
;
Structure prediction by ZEFSAII (Michael W. Deem and Ramdas Pophale) SiO2 
 PCOD9227205
Probable space group: P 2/C
;
_chemical_formula_sum "Si O2"
_cell_formula_units_Z 28
_cell_length_a 12.297147
_cell_length_b 8.809278
_cell_length_c 15.869841
_cell_angle_alpha 90.000000
_cell_angle_beta 131.309799
_cell_angle_gamma 90.000000
_cell_volume 1291.352024
_symmetry_space_group_name_H-M "P 2/C"
_symmetry_group_IT_number 13
_symmetry_cell_setting 'monoclinic'
loop_
_space_group_symop_operation_xyz
x,y,z
-x,y,1/2-z
-x,-y,-z
x,-y,1/2+z
loop_
_atom_site_type_symbol
_atom_site_label
_atom_site_fract_x
_atom_site_fract_y
_atom_site_fract_z
Si Si1 0.817932 0.857552 0.244405
Si Si2 0.650942 0.586776 0.546317
Si Si3 0.502798 0.154188 0.162806
Si Si4 0.964761 0.823199 0.002640
Si Si5 0.240667 0.713692 0.458079
Si Si6 0.180674 0.797107 0.737547
Si Si7 0.496548 0.813125 0.154253
O O1 0.833922 0.775251 0.163682
O O2 0.652456 0.833584 0.190213
O O3 0.906717 0.783947 0.367121
O O4 0.863371 0.034554 0.251463
O O5 0.500000 0.500000 0.500000
O O6 0.745816 0.465567 0.543001
O O7 0.759500 0.665233 0.670337
O O8 0.600827 0.718653 0.458328
O O9 0.500000 0.239356 0.250000
O O10 0.670100 0.152103 0.229519
O O11 0.440205 0.984709 0.138257
O O12 0.407047 0.230331 0.043466
O O13 0.828442 0.783622 0.992985
O O14 0.931681 0.751532 0.893888
O O15 0.000000 0.000000 0.000000
O O16 0.500000 0.744211 0.250000
#
# Coordination Sequence:
#
# PCOD9227205 Si02
#       7
#     4   4   4   4   4   4   4
#     4  10  21  41  66  94 126 169 229 286 333 393
#     4  12  23  37  61  97 138 173 214 273 348 414
#     4  10  18  33  62  96 121 161 222 285 334 375
#     4  10  23  41  68  94 127 175 232 283 331 399
#     4  12  22  38  66  95 133 173 219 277 338 406
#     4  10  20  39  61  96 132 166 218 280 340 398
#     4  10  22  38  63  93 127 166 221 286 344 395
#
# _framework density 21.682700000000001
#
# number of rings (size 3 to 8) (size 9 to 14) (size 15 to 20)
#    0.000    1.429    4.286    1.286    2.000    4.000 
#    0.000    0.714    3.143    0.000    0.000    0.000 
#    0.000    0.000    0.000    0.000    0.000    0.000 
#
# Total GULP energy -155890.953652 kJ/mol
# GULP energy per Si atom -5567.534059 kJ/mol
# Density = 2.163335 g / cm^3
# Si number density = 21.682700 Si / 1000 Ang^3
#
#
#
# Elastic Constant Matrix: (Units=GPa)
#
#
# Indices 1 2 3 4 5 6 
#
# 1 42.5174 17.7526 8.7138 0.0000 -10.5798 0.0000
# 2 17.7526 75.7761 55.0689 0.0000 -5.6724 0.0000
# 3 8.7138 55.0689 180.4727 0.0000 -0.4562 0.0000
# 4 0.0000 0.0000 0.0000 -55.8963 0.0000 -39.8523
# 5 -10.5798 -5.6724 -0.4562 0.0000 26.4497 0.0000
# 6 0.0000 0.0000 0.0000 -39.8523 0.0000 -4.3251
#
#
#
# Elastic Compliance Matrix: (Units=1/GPa)
#
#
# Indices 1 2 3 4 5 6 
#
# 1 0.028563 -0.006366 0.000589 0.000000 0.010070 0.000000
# 2 -0.006366 0.018715 -0.005400 0.000000 0.001374 0.000000
# 3 0.000589 -0.005400 0.007158 0.000000 -0.000799 0.000000
# 4 0.000000 0.000000 0.000000 0.003212 0.000000 -0.029598
# 5 0.010070 0.001374 -0.000799 0.000000 0.042117 0.000000
# 6 0.000000 0.000000 0.000000 -0.029598 0.000000 0.041514
#
#
# Mechanical properties :
#
#
# Convention : Reuss Voigt Hill
#
# Bulk Modulus (GPa) = 31.16945 51.31522 41.24233
# Shear Modulus (GPa) = 28.68175 7.72771 18.20473
#
# Velocity S-wave (km/s) = 3.64097 1.88990 2.90072
# Velocity P-wave (km/s) = 5.66410 5.33668 5.50282
#
# Compressibility (1/GPa) = 0.03208270
#
# Stress axis : x y z
#
# Youngs Moduli (GPa) = 35.01058 53.43230 139.69861
#
# Poissons Ratio (x) = 0.34013 -0.08225
# Poissons Ratio (y) = 0.22287 0.75436
# Poissons Ratio (z) = -0.02061 0.28853
#
# Static dielectric constant tensor:
#      x y z
#    x 1.851930 0.000000 -0.003870 
#    y 0.000000 1.827400 0.000000 
#    z -0.003870 0.000000 1.760090 
# 
# From -- ./inp_files/53111.got.cif
#   From: 2010.05.17/outbox.cif.g08.bks.cpg/sg13_27_cif.got.tgz:53111.got - 2010.06.03 16:44:36.
