data_PCOD9227877
_publ_section_title
;
Structure prediction by ZEFSAII (Michael W. Deem and Ramdas Pophale) SiO2 
 PCOD9227877
Probable space group: P 2/C
;
_chemical_formula_sum "Si O2"
_cell_formula_units_Z 30
_cell_length_a 12.873387
_cell_length_b 24.368343
_cell_length_c 5.282405
_cell_angle_alpha 90.000000
_cell_angle_beta 109.447367
_cell_angle_gamma 90.000000
_cell_volume 1562.565176
_symmetry_space_group_name_H-M "P 2/C"
_symmetry_group_IT_number 13
_symmetry_cell_setting 'monoclinic'
loop_
_space_group_symop_operation_xyz
x,y,z
-x,y,1/2-z
-x,-y,-z
x,-y,1/2+z
loop_
_atom_site_type_symbol
_atom_site_label
_atom_site_fract_x
_atom_site_fract_y
_atom_site_fract_z
Si Si1 0.865918 0.840888 0.623766
Si Si2 0.348995 0.473162 0.166587
Si Si3 0.567421 0.362030 0.542794
Si Si4 0.000000 0.643817 0.750000
Si Si5 0.867433 0.777081 0.121685
Si Si6 0.865774 0.032365 0.137372
Si Si7 0.809506 0.668667 0.273314
Si Si8 0.890037 0.562607 0.062003
O O1 0.829709 0.807133 0.348034
O O2 0.831319 0.904388 0.585666
O O3 0.000000 0.841023 0.750000
O O4 0.829569 0.811133 0.849627
O O5 0.384622 0.482092 0.485526
O O6 0.389682 0.417540 0.066371
O O7 0.216010 0.472875 0.085457
O O8 0.500000 0.369608 0.750000
O O9 0.680620 0.332833 0.722859
O O10 0.500000 0.335222 0.250000
O O11 0.067525 0.602886 0.622524
O O12 0.905474 0.681641 0.551891
O O13 0.827661 0.714445 0.076151
O O14 0.000000 0.776672 0.250000
O O15 0.000000 0.032515 0.250000
O O16 0.830634 0.003694 0.368920
O O17 0.845721 0.606958 0.229104
O O18 0.000000 0.532780 0.250000
#
# Coordination Sequence:
#
# PCOD9227877 Si02
#       8
#     4   4   4   2   4   4   4   4
#     4   9  18  27  39  65  99 133 177 228 270 312
#     4  11  25  40  62  86 111 138 175 220 273 318
#     4  11  26  45  66  84 110 143 184 227 262 323
#     4  10  20  36  62  82 114 142 182 218 264 326
#     4  10  19  30  47  73 106 134 168 219 280 321
#     4   9  15  24  38  53  81 131 188 230 259 293
#     4  10  23  36  60  84 109 144 184 219 278 329
#     4   9  21  36  54  82 112 145 177 213 259 327
#
# _framework density 19.199200999999999
#
# number of rings (size 3 to 8) (size 9 to 14) (size 15 to 20)
#    0.000    2.133    0.000    2.800   14.000    5.333 
#    0.000    0.000    0.000    0.000    0.000    0.000 
#    0.000    0.000    0.000    0.000    0.000   46.667 
#
# Total GULP energy -167283.945635 kJ/mol
# GULP energy per Si atom -5576.131521 kJ/mol
# Density = 1.915550 g / cm^3
# Si number density = 19.199201 Si / 1000 Ang^3
#
#
#
# Elastic Constant Matrix: (Units=GPa)
#
#
# Indices 1 2 3 4 5 6 
#
# 1 91.4429 6.9354 45.6563 0.0000 7.8491 0.0000
# 2 6.9354 54.7545 21.0054 0.0000 -0.4543 0.0000
# 3 45.6563 21.0054 100.4286 0.0000 -11.3520 0.0000
# 4 0.0000 0.0000 0.0000 23.3151 0.0000 -12.9636
# 5 7.8491 -0.4543 -11.3520 0.0000 22.2802 0.0000
# 6 0.0000 0.0000 0.0000 -12.9636 0.0000 7.7889
#
#
#
# Elastic Compliance Matrix: (Units=1/GPa)
#
#
# Indices 1 2 3 4 5 6 
#
# 1 0.016042 0.001216 -0.008683 0.000000 -0.010051 0.000000
# 2 0.001216 0.020018 -0.005032 0.000000 -0.002584 0.000000
# 3 -0.008683 -0.005032 0.016226 0.000000 0.011224 0.000000
# 4 0.000000 0.000000 0.000000 0.575063 0.000000 0.957115
# 5 -0.010051 -0.002584 0.011224 0.000000 0.054090 0.000000
# 6 0.000000 0.000000 0.000000 0.957115 0.000000 1.721378
#
#
# Mechanical properties :
#
#
# Convention : Reuss Voigt Hill
#
# Bulk Modulus (GPa) = 36.64666 43.75779 40.20222
# Shear Modulus (GPa) = 2.05178 22.21211 12.13195
#
# Velocity S-wave (km/s) = 1.03489 3.40506 2.51649
# Velocity P-wave (km/s) = 4.53399 6.18871 5.42481
#
# Compressibility (1/GPa) = 0.02728762
#
# Stress axis : x y z
#
# Youngs Moduli (GPa) = 62.33763 49.95450 61.62981
#
# Poissons Ratio (x) = -0.06074 0.53514
# Poissons Ratio (y) = -0.07579 0.31011
# Poissons Ratio (z) = 0.54129 0.25136
#
# Static dielectric constant tensor:
#      x y z
#    x 1.690760 0.000000 0.008150 
#    y 0.000000 1.657190 0.000000 
#    z 0.008150 0.000000 1.780590 
# 
# From -- ./inp_files/4396.got.cif
#   From: 2010.05.17/outbox.cif.g08.bks.cpg/sg13_3_cif.got.tgz:4396.got - 2010.06.03 16:44:36.
