data_PCOD9227182
_publ_section_title
;
Structure prediction by ZEFSAII (Michael W. Deem and Ramdas Pophale) SiO2 
 PCOD9227182
Probable space group: P 2/C
;
_chemical_formula_sum "Si O2"
_cell_formula_units_Z 32
_cell_length_a 15.406097
_cell_length_b 11.556520
_cell_length_c 15.899521
_cell_angle_alpha 90.000000
_cell_angle_beta 37.001411
_cell_angle_gamma 90.000000
_cell_volume 1703.652290
_symmetry_space_group_name_H-M "P 2/C"
_symmetry_group_IT_number 13
_symmetry_cell_setting 'monoclinic'
loop_
_space_group_symop_operation_xyz
x,y,z
-x,y,1/2-z
-x,-y,-z
x,-y,1/2+z
loop_
_atom_site_type_symbol
_atom_site_label
_atom_site_fract_x
_atom_site_fract_y
_atom_site_fract_z
Si Si1 0.867634 0.765171 0.405307
Si Si2 0.359041 0.215218 0.177235
Si Si3 0.657551 0.400150 0.170404
Si Si4 0.660729 0.833909 0.996965
Si Si5 0.672909 0.664945 0.133434
Si Si6 0.127985 0.062820 0.450538
Si Si7 0.666619 0.090620 0.940833
Si Si8 0.329701 0.130149 0.760120
O O1 0.774161 0.675243 0.530246
O O2 0.917986 0.864756 0.432228
O O3 0.760970 0.821856 0.420671
O O4 0.000000 0.715735 0.250000
O O5 0.364771 0.336177 0.222674
O O6 0.218437 0.148891 0.320586
O O7 0.351198 0.230112 0.083485
O O8 0.499031 0.131313 0.084963
O O9 0.500000 0.392706 0.250000
O O10 0.710390 0.532365 0.122258
O O11 0.726563 0.744630 0.013384
O O12 0.498396 0.867662 0.150271
O O13 0.715760 0.962530 0.931991
O O14 0.500000 0.659972 0.250000
O O15 0.716286 0.740602 0.180695
O O16 0.242906 0.961938 0.382458
O O17 0.000000 0.000000 0.500000
O O18 0.688599 0.100839 0.823613
#
# Coordination Sequence:
#
# PCOD9227182 Si02
#       8
#     4   4   4   4   4   4   4   4
#     4  11  24  36  58  84 115 157 191 244 297 350
#     4  10  19  34  59  86 113 156 190 249 285 352
#     4  10  20  40  58  82 115 153 207 241 284 348
#     4  10  18  33  58  88 120 142 190 242 301 347
#     4   9  20  35  56  86 116 152 192 244 292 345
#     4  11  21  35  56  81 124 150 189 236 301 357
#     4  11  18  34  59  90 119 144 194 233 305 357
#     4  10  18  34  54  86 118 148 178 243 295 347
#
# _framework density 18.783175
#
# number of rings (size 3 to 8) (size 9 to 14) (size 15 to 20)
#    0.000    1.750    3.750    2.250    0.000    0.000 
#    2.250    2.500    2.750    2.250    0.000    0.000 
#    0.000    0.000    0.000    0.000    0.000    0.000 
#
# Total GULP energy -178272.793050 kJ/mol
# GULP energy per Si atom -5571.024783 kJ/mol
# Density = 1.874042 g / cm^3
# Si number density = 18.783175 Si / 1000 Ang^3
#
#
#
# Elastic Constant Matrix: (Units=GPa)
#
#
# Indices 1 2 3 4 5 6 
#
# 1 37.0951 24.9433 18.4653 0.0000 10.0934 0.0000
# 2 24.9433 141.0871 28.3060 0.0000 21.2185 0.0000
# 3 18.4653 28.3060 74.9444 0.0000 10.4337 0.0000
# 4 0.0000 0.0000 0.0000 8.7410 0.0000 5.1971
# 5 10.0934 21.2185 10.4337 0.0000 21.4644 0.0000
# 6 0.0000 0.0000 0.0000 5.1971 0.0000 22.8364
#
#
#
# Elastic Compliance Matrix: (Units=1/GPa)
#
#
# Indices 1 2 3 4 5 6 
#
# 1 0.034993 -0.003477 -0.005895 0.000000 -0.010152 0.000000
# 2 -0.003477 0.009005 -0.001644 0.000000 -0.006468 0.000000
# 3 -0.005895 -0.001644 0.015879 0.000000 -0.003321 0.000000
# 4 0.000000 0.000000 0.000000 0.132306 0.000000 -0.030110
# 5 -0.010152 -0.006468 -0.003321 0.000000 0.059371 0.000000
# 6 0.000000 0.000000 0.000000 -0.030110 0.000000 0.050642
#
#
# Mechanical properties :
#
#
# Convention : Reuss Voigt Hill
#
# Bulk Modulus (GPa) = 26.42392 44.06175 35.24283
# Shear Modulus (GPa) = 14.84371 22.70250 18.77310
#
# Velocity S-wave (km/s) = 2.81422 3.48035 3.16486
# Velocity P-wave (km/s) = 4.96570 6.29758 5.67088
#
# Compressibility (1/GPa) = 0.03784450
#
# Stress axis : x y z
#
# Youngs Moduli (GPa) = 28.57755 111.04872 62.97609
#
# Poissons Ratio (x) = 0.38611 0.37125
# Poissons Ratio (y) = 0.09936 0.10354
# Poissons Ratio (z) = 0.16847 0.18257
#
# Static dielectric constant tensor:
#      x y z
#    x 1.660240 0.000000 0.005930 
#    y 0.000000 1.676800 0.000000 
#    z 0.005930 0.000000 1.685670 
# 
# From -- ./inp_files/53705.got.cif
#   From: 2010.05.17/outbox.cif.g08.bks.cpg/sg13_27_cif.got.tgz:53705.got - 2010.06.03 16:44:36.
