data_PCOD9227726
_publ_section_title
;
Structure prediction by ZEFSAII (Michael W. Deem and Ramdas Pophale) SiO2 
 PCOD9227726
Probable space group: P 2/C
;
_chemical_formula_sum "Si O2"
_cell_formula_units_Z 30
_cell_length_a 12.336555
_cell_length_b 7.664969
_cell_length_c 29.220739
_cell_angle_alpha 90.000000
_cell_angle_beta 151.776621
_cell_angle_gamma 90.000000
_cell_volume 1306.695215
_symmetry_space_group_name_H-M "P 2/C"
_symmetry_group_IT_number 13
_symmetry_cell_setting 'monoclinic'
loop_
_space_group_symop_operation_xyz
x,y,z
-x,y,1/2-z
-x,-y,-z
x,-y,1/2+z
loop_
_atom_site_type_symbol
_atom_site_label
_atom_site_fract_x
_atom_site_fract_y
_atom_site_fract_z
Si Si1 0.500000 0.338975 0.750000
Si Si2 0.101457 0.197958 0.536188
Si Si3 0.123142 0.588333 0.177666
Si Si4 0.245816 0.277727 0.027070
Si Si5 0.313151 0.651075 0.858073
Si Si6 0.224881 0.263013 0.813607
Si Si7 0.079197 0.757385 0.853706
Si Si8 0.290107 0.893453 0.014999
O O1 0.318318 0.228538 0.651026
O O2 0.656005 0.446732 0.772197
O O3 0.183428 0.229159 0.515010
O O4 0.884146 0.310561 0.473614
O O5 0.000000 0.000000 0.500000
O O6 0.196563 0.696441 0.249438
O O7 0.951891 0.699316 0.083538
O O8 0.981852 0.419760 0.141417
O O9 0.324835 0.078081 0.052132
O O10 0.463025 0.379726 0.089217
O O11 0.233392 0.454834 0.839584
O O12 0.300469 0.742091 0.902686
O O13 0.138838 0.759755 0.761103
O O14 0.000000 0.170715 0.750000
O O15 0.464124 0.170622 0.910110
O O16 0.124208 0.898113 0.909462
#
# Coordination Sequence:
#
# PCOD9227726 Si02
#       8
#     2   4   4   4   4   4   4   4
#     4  10  18  38  66  84 124 156 200 256 284 360
#     4   9  20  41  59  90 121 163 197 236 308 357
#     4  10  20  39  62  89 115 161 200 240 308 348
#     4  10  23  39  62  88 122 157 197 246 301 358
#     4  10  21  43  60  84 119 161 198 243 302 352
#     4  11  21  39  63  87 116 162 204 238 295 367
#     4  10  22  41  62  85 120 160 198 248 298 359
#     4  11  23  40  61  91 123 152 204 250 295 358
#
# _framework density 22.958682
#
# number of rings (size 3 to 8) (size 9 to 14) (size 15 to 20)
#    0.000    1.867    4.000    0.800    1.867    2.667 
#   14.400    2.000    0.000    0.000    0.000    0.000 
#    0.000    0.000    0.000    0.000    0.000    0.000 
#
# Total GULP energy -167328.634450 kJ/mol
# GULP energy per Si atom -5577.621148 kJ/mol
# Density = 2.290643 g / cm^3
# Si number density = 22.958682 Si / 1000 Ang^3
#
#
#
# Elastic Constant Matrix: (Units=GPa)
#
#
# Indices 1 2 3 4 5 6 
#
# 1 154.5228 13.4087 33.8023 0.0000 20.5771 0.0000
# 2 13.4087 26.9840 0.0440 0.0000 12.0280 0.0000
# 3 33.8023 0.0440 54.4559 0.0000 15.6891 0.0000
# 4 0.0000 0.0000 0.0000 16.5079 0.0000 0.3964
# 5 20.5771 12.0280 15.6891 0.0000 46.0123 0.0000
# 6 0.0000 0.0000 0.0000 0.3964 0.0000 17.8162
#
#
#
# Elastic Compliance Matrix: (Units=1/GPa)
#
#
# Indices 1 2 3 4 5 6 
#
# 1 0.007921 -0.003452 -0.004606 0.000000 -0.001070 0.000000
# 2 -0.003452 0.044049 0.005522 0.000000 -0.011854 0.000000
# 3 -0.004606 0.005522 0.023333 0.000000 -0.007340 0.000000
# 4 0.000000 0.000000 0.000000 0.060609 0.000000 -0.001348
# 5 -0.001070 -0.011854 -0.007340 0.000000 0.027813 0.000000
# 6 0.000000 0.000000 0.000000 -0.001348 0.000000 0.056159
#
#
# Mechanical properties :
#
#
# Convention : Reuss Voigt Hill
#
# Bulk Modulus (GPa) = 14.23856 36.71921 25.47888
# Shear Modulus (GPa) = 20.13163 28.64779 24.38971
#
# Velocity S-wave (km/s) = 2.96440 3.53625 3.26288
# Velocity P-wave (km/s) = 4.23464 5.71854 5.03160
#
# Compressibility (1/GPa) = 0.07023183
#
# Stress axis : x y z
#
# Youngs Moduli (GPa) = 126.24593 22.70195 42.85843
#
# Poissons Ratio (x) = 0.07836 0.19740
# Poissons Ratio (y) = 0.43578 -0.23668
# Poissons Ratio (z) = 0.58148 -0.12537
#
# Static dielectric constant tensor:
#      x y z
#    x 1.925950 0.000000 0.045330 
#    y 0.000000 1.882140 0.000000 
#    z 0.045330 0.000000 1.868330 
# 
# From -- ./inp_files/96611.got.cif
#   From: 2010.05.17/outbox.cif.g08.bks.cpg/sg13_49_cif.got.tgz:96611.got - 2010.06.03 16:44:36.
