data_PCOD9227449
_publ_section_title
;
Structure prediction by ZEFSAII (Michael W. Deem and Ramdas Pophale) SiO2 
 PCOD9227449
Probable space group: P 2/C
;
_chemical_formula_sum "Si O2"
_cell_formula_units_Z 24
_cell_length_a 6.930815
_cell_length_b 5.622572
_cell_length_c 23.457956
_cell_angle_alpha 90.000000
_cell_angle_beta 104.956832
_cell_angle_gamma 90.000000
_cell_volume 883.162908
_symmetry_space_group_name_H-M "P 2/C"
_symmetry_group_IT_number 13
_symmetry_cell_setting 'monoclinic'
loop_
_space_group_symop_operation_xyz
x,y,z
-x,y,1/2-z
-x,-y,-z
x,-y,1/2+z
loop_
_atom_site_type_symbol
_atom_site_label
_atom_site_fract_x
_atom_site_fract_y
_atom_site_fract_z
Si Si1 0.800277 0.626389 0.873666
Si Si2 0.500000 0.739890 0.750000
Si Si3 0.000000 0.223319 0.750000
Si Si4 0.275507 0.021438 0.457087
Si Si5 0.629783 0.106395 0.667216
Si Si6 0.155846 0.859673 0.144082
Si Si7 0.723479 0.471906 0.495879
O O1 0.660376 0.627144 0.806128
O O2 0.937003 0.399263 0.872840
O O3 0.887032 0.890485 0.888288
O O4 0.706418 0.562780 0.927104
O O5 0.622711 0.893467 0.712634
O O6 0.783869 0.303992 0.705157
O O7 0.915108 0.088267 0.797745
O O8 0.306456 0.985948 0.390746
O O9 0.183073 0.774286 0.473750
O O10 0.500000 0.000000 0.500000
O O11 0.193495 0.272444 0.476373
O O12 0.394135 0.172350 0.650897
O O13 0.500000 0.500000 0.500000
#
# Coordination Sequence:
#
# PCOD9227449 Si02
#       7
#     4   2   2   4   4   4   4
#     4  11  22  39  68  95 139 170 220 275 333 393
#     4  10  20  38  66  98 130 178 214 268 344 384
#     4  12  24  44  68 100 140 172 226 270 338 404
#     4  10  20  36  64  95 127 169 223 265 319 390
#     4  11  22  44  69 100 138 175 220 276 334 396
#     4  11  24  44  64 100 132 179 215 271 335 393
#     4  10  18  35  60  95 122 172 219 266 319 387
#
# _framework density 27.175056999999999
#
# number of rings (size 3 to 8) (size 9 to 14) (size 15 to 20)
#    0.000    1.333    3.333    7.000    2.333    0.667 
#    0.000    0.000    0.000   11.000    0.000    0.000 
#    0.000    0.000    0.000    0.000    0.000    0.000 
#
# Total GULP energy -133601.623058 kJ/mol
# GULP energy per Si atom -5566.734294 kJ/mol
# Density = 2.711321 g / cm^3
# Si number density = 27.175057 Si / 1000 Ang^3
#
#
#
# Elastic Constant Matrix: (Units=GPa)
#
#
# Indices 1 2 3 4 5 6 
#
# 1 68.6197 16.0690 28.3500 0.0000 -16.4353 0.0000
# 2 16.0690 256.4680 80.3645 0.0000 -2.0644 0.0000
# 3 28.3500 80.3645 235.1705 0.0000 -35.0212 0.0000
# 4 0.0000 0.0000 0.0000 40.8944 0.0000 6.7076
# 5 -16.4353 -2.0644 -35.0212 0.0000 63.3547 0.0000
# 6 0.0000 0.0000 0.0000 6.7076 0.0000 65.5856
#
#
#
# Elastic Compliance Matrix: (Units=1/GPa)
#
#
# Indices 1 2 3 4 5 6 
#
# 1 0.016046 -0.000597 -0.001213 0.000000 0.003473 0.000000
# 2 -0.000597 0.004421 -0.001570 0.000000 -0.000879 0.000000
# 3 -0.001213 -0.001570 0.005318 0.000000 0.002574 0.000000
# 4 0.000000 0.000000 0.000000 0.024870 0.000000 -0.002544
# 5 0.003473 -0.000879 0.002574 0.000000 0.018079 0.000000
# 6 0.000000 0.000000 0.000000 -0.002544 0.000000 0.015507
#
#
# Mechanical properties :
#
#
# Convention : Reuss Voigt Hill
#
# Bulk Modulus (GPa) = 52.56196 89.98056 71.27126
# Shear Modulus (GPa) = 51.36403 62.99859 57.18131
#
# Velocity S-wave (km/s) = 4.35226 4.82004 4.59211
# Velocity P-wave (km/s) = 6.68134 8.01002 7.37566
#
# Compressibility (1/GPa) = 0.01902517
#
# Stress axis : x y z
#
# Youngs Moduli (GPa) = 62.32140 226.17519 188.03329
#
# Poissons Ratio (x) = 0.13509 0.22811
# Poissons Ratio (y) = 0.03722 0.29516
# Poissons Ratio (z) = 0.07560 0.35504
#
# Static dielectric constant tensor:
#      x y z
#    x 2.273000 0.000000 0.171120 
#    y 0.000000 2.147370 0.000000 
#    z 0.171120 0.000000 2.119500 
# 
# From -- ./inp_files/84383.got.cif
#   From: 2010.05.17/outbox.cif.g08.bks.cpg/sg13_43_cif.got.tgz:84383.got - 2010.06.03 16:44:36.
