data_PCOD9227694
_publ_section_title
;
Structure prediction by ZEFSAII (Michael W. Deem and Ramdas Pophale) SiO2 
 PCOD9227694
Probable space group: P 2/C
;
_chemical_formula_sum "Si O2"
_cell_formula_units_Z 20
_cell_length_a 7.662447
_cell_length_b 6.561470
_cell_length_c 22.076960
_cell_angle_alpha 90.000000
_cell_angle_beta 114.371337
_cell_angle_gamma 90.000000
_cell_volume 1011.053031
_symmetry_space_group_name_H-M "P 2/C"
_symmetry_group_IT_number 13
_symmetry_cell_setting 'monoclinic'
loop_
_space_group_symop_operation_xyz
x,y,z
-x,y,1/2-z
-x,-y,-z
x,-y,1/2+z
loop_
_atom_site_type_symbol
_atom_site_label
_atom_site_fract_x
_atom_site_fract_y
_atom_site_fract_z
Si Si1 0.500000 0.946590 0.250000
Si Si2 0.585815 0.556604 0.198002
Si Si3 0.900800 0.873487 0.847327
Si Si4 0.000000 0.622378 0.750000
Si Si5 0.251543 0.569518 0.572077
Si Si6 0.978193 0.186597 0.543385
O O1 0.541701 0.796255 0.199140
O O2 0.306171 0.063789 0.208429
O O3 0.500000 0.477028 0.250000
O O4 0.466696 0.459223 0.126277
O O5 0.808712 0.510067 0.228283
O O6 0.016786 0.764867 0.811136
O O7 0.857605 0.707975 0.893495
O O8 0.001037 0.074911 0.889289
O O9 0.210190 0.685649 0.503087
O O10 0.148245 0.350132 0.558556
O O11 0.000000 0.000000 0.500000
#
# Coordination Sequence:
#
# PCOD9227694 Si02
#       6
#     2   4   4   2   4   4
#     4  10  20  38  64  86 130 168 212 260 314 388
#     4  10  20  39  61  87 126 168 207 255 321 369
#     4  11  20  36  58  97 121 163 214 257 319 376
#     4  12  24  36  64  96 132 164 206 272 318 380
#     4  10  18  38  62  86 126 165 210 261 313 371
#     4   9  19  34  64  90 117 168 215 254 308 379
#
# _framework density 19.781358000000001
#
# number of rings (size 3 to 8) (size 9 to 14) (size 15 to 20)
#    0.600    1.200    4.000    1.200    0.000    0.800 
#    0.000    1.000    0.000   10.800    0.000    0.000 
#    0.000    0.000    0.000    0.000    0.000    0.000 
#
# Total GULP energy -111477.443741 kJ/mol
# GULP energy per Si atom -5573.872187 kJ/mol
# Density = 1.973633 g / cm^3
# Si number density = 19.781358 Si / 1000 Ang^3
#
#
#
# Elastic Constant Matrix: (Units=GPa)
#
#
# Indices 1 2 3 4 5 6 
#
# 1 85.7021 12.5222 14.4170 0.0000 17.0922 0.0000
# 2 12.5222 76.7499 1.4010 0.0000 6.9157 0.0000
# 3 14.4170 1.4010 45.2696 0.0000 24.5133 0.0000
# 4 0.0000 0.0000 0.0000 37.6086 0.0000 16.6828
# 5 17.0922 6.9157 24.5133 0.0000 29.9323 0.0000
# 6 0.0000 0.0000 0.0000 16.6828 0.0000 9.1104
#
#
#
# Elastic Compliance Matrix: (Units=1/GPa)
#
#
# Indices 1 2 3 4 5 6 
#
# 1 0.013346 -0.001550 -0.000484 0.000000 -0.006866 0.000000
# 2 -0.001550 0.013615 0.002329 0.000000 -0.004168 0.000000
# 3 -0.000484 0.002329 0.040094 0.000000 -0.033097 0.000000
# 4 0.000000 0.000000 0.000000 0.141663 0.000000 -0.259413
# 5 -0.006866 -0.004168 -0.033097 0.000000 0.065397 0.000000
# 6 0.000000 0.000000 0.000000 -0.259413 0.000000 0.584801
#
#
# Mechanical properties :
#
#
# Convention : Reuss Voigt Hill
#
# Bulk Modulus (GPa) = 14.78305 29.37802 22.08054
# Shear Modulus (GPa) = 5.67618 27.28901 16.48259
#
# Velocity S-wave (km/s) = 1.69579 3.71823 2.88972
# Velocity P-wave (km/s) = 3.36507 5.77211 4.72446
#
# Compressibility (1/GPa) = 0.06764504
#
# Stress axis : x y z
#
# Youngs Moduli (GPa) = 74.93114 73.44690 24.94151
#
# Poissons Ratio (x) = 0.11384 0.01208
# Poissons Ratio (y) = 0.11614 -0.05810
# Poissons Ratio (z) = 0.03629 -0.17109
#
# Static dielectric constant tensor:
#      x y z
#    x 1.653550 0.000000 -0.001720 
#    y 0.000000 1.735790 0.000000 
#    z -0.001720 0.000000 1.774980 
# 
# From -- ./inp_files/74267.got.cif
#   From: 2010.05.17/outbox.cif.g08.bks.cpg/sg13_38_cif.got.tgz:74267.got - 2010.06.03 16:44:36.
