data_PCOD9227845
_publ_section_title
;
Structure prediction by ZEFSAII (Michael W. Deem and Ramdas Pophale) SiO2 
 PCOD9227845
Probable space group: P 2/C
;
_chemical_formula_sum "Si O2"
_cell_formula_units_Z 28
_cell_length_a 14.772830
_cell_length_b 19.930076
_cell_length_c 5.555131
_cell_angle_alpha 90.000000
_cell_angle_beta 54.321039
_cell_angle_gamma 90.000000
_cell_volume 1328.563171
_symmetry_space_group_name_H-M "P 2/C"
_symmetry_group_IT_number 13
_symmetry_cell_setting 'monoclinic'
loop_
_space_group_symop_operation_xyz
x,y,z
-x,y,1/2-z
-x,-y,-z
x,-y,1/2+z
loop_
_atom_site_type_symbol
_atom_site_label
_atom_site_fract_x
_atom_site_fract_y
_atom_site_fract_z
Si Si1 0.257513 0.720739 0.863653
Si Si2 0.687025 0.677707 0.221759
Si Si3 0.174892 0.134273 0.415392
Si Si4 0.660699 0.021963 0.351372
Si Si5 0.626346 0.526836 0.317149
Si Si6 0.116350 0.930542 0.500658
Si Si7 0.496399 0.207589 0.006088
O O1 0.249938 0.678257 0.631474
O O2 0.185411 0.787084 0.937931
O O3 0.386056 0.746810 0.676467
O O4 0.240278 0.687124 0.149670
O O5 0.624483 0.607077 0.337350
O O6 0.600765 0.740576 0.346233
O O7 0.136694 0.117115 0.202385
O O8 0.296583 0.098097 0.242500
O O9 0.111437 0.105958 0.749827
O O10 0.608080 0.006119 0.690085
O O11 0.779525 0.980483 0.177225
O O12 0.500000 0.500000 0.500000
O O13 0.677878 0.496895 0.482733
O O14 0.000000 0.965138 0.750000
O O15 0.500000 0.169058 0.750000
O O16 0.500000 0.167817 0.250000
#
# Coordination Sequence:
#
# PCOD9227845 Si02
#       7
#     4   4   4   4   4   4   4
#     4  10  19  29  45  59  88 122 152 198 229 258
#     4  10  19  31  44  62  88 121 161 196 224 256
#     4  10  19  30  43  67  91 116 161 184 222 282
#     4   8  16  27  42  62  88 113 142 184 220 263
#     4  10  21  27  43  64  90 117 156 201 216 260
#     4  10  19  31  48  67  94 122 149 188 228 272
#     4   8  16  25  42  55  78 107 150 185 223 243
#
# _framework density 21.075399000000001
#
# number of rings (size 3 to 8) (size 9 to 14) (size 15 to 20)
#    0.000    2.571    0.000    2.143   12.000    5.143 
#    0.000    0.000    0.000    0.000    0.000    0.000 
#    0.000  277.714    0.000    0.000    0.000  180.000 
#
# Total GULP energy -156123.755242 kJ/mol
# GULP energy per Si atom -5575.848401 kJ/mol
# Density = 2.102743 g / cm^3
# Si number density = 21.075399 Si / 1000 Ang^3
#
#
#
# Elastic Constant Matrix: (Units=GPa)
#
#
# Indices 1 2 3 4 5 6 
#
# 1 46.6718 16.4478 48.6944 0.0000 31.1246 0.0000
# 2 16.4478 79.0460 23.8406 0.0000 10.5029 0.0000
# 3 48.6944 23.8406 159.6497 0.0000 61.6920 0.0000
# 4 0.0000 0.0000 0.0000 25.2748 0.0000 6.7806
# 5 31.1246 10.5029 61.6920 0.0000 44.2212 0.0000
# 6 0.0000 0.0000 0.0000 6.7806 0.0000 16.2767
#
#
#
# Elastic Compliance Matrix: (Units=1/GPa)
#
#
# Indices 1 2 3 4 5 6 
#
# 1 0.042640 -0.004748 -0.002463 0.000000 -0.025448 0.000000
# 2 -0.004748 0.013791 -0.001382 0.000000 0.001994 0.000000
# 3 -0.002463 -0.001382 0.013939 0.000000 -0.017384 0.000000
# 4 0.000000 0.000000 0.000000 0.044543 0.000000 -0.018556
# 5 -0.025448 0.001994 -0.017384 0.000000 0.064304 0.000000
# 6 0.000000 0.000000 0.000000 -0.018556 0.000000 0.069167
#
#
# Mechanical properties :
#
#
# Convention : Reuss Voigt Hill
#
# Bulk Modulus (GPa) = 18.80266 51.48143 35.14205
# Shear Modulus (GPa) = 17.64929 30.24684 23.94807
#
# Velocity S-wave (km/s) = 2.89699 3.79248 3.37457
# Velocity P-wave (km/s) = 4.48676 6.60738 5.64750
#
# Compressibility (1/GPa) = 0.05318397
#
# Stress axis : x y z
#
# Youngs Moduli (GPa) = 23.45213 72.51291 71.74197
#
# Poissons Ratio (x) = 0.34432 0.17668
# Poissons Ratio (y) = 0.11136 0.09913
# Poissons Ratio (z) = 0.05776 0.10019
#
# Static dielectric constant tensor:
#      x y z
#    x 1.812890 0.000000 0.053000 
#    y 0.000000 1.732920 0.000000 
#    z 0.053000 0.000000 1.863390 
# 
# From -- ./inp_files/5226.got.cif
#   From: 2010.05.17/outbox.cif.g08.bks.cpg/sg13_3_cif.got.tgz:5226.got - 2010.06.03 16:44:36.
