data_PCOD9227305
_publ_section_title
;
Structure prediction by ZEFSAII (Michael W. Deem and Ramdas Pophale) SiO2 
 PCOD9227305
Probable space group: P 2/C
;
_chemical_formula_sum "Si O2"
_cell_formula_units_Z 18
_cell_length_a 21.295567
_cell_length_b 6.495406
_cell_length_c 13.945251
_cell_angle_alpha 90.000000
_cell_angle_beta 154.539424
_cell_angle_gamma 90.000000
_cell_volume 829.237881
_symmetry_space_group_name_H-M "P 2/C"
_symmetry_group_IT_number 13
_symmetry_cell_setting 'monoclinic'
loop_
_space_group_symop_operation_xyz
x,y,z
-x,y,1/2-z
-x,-y,-z
x,-y,1/2+z
loop_
_atom_site_type_symbol
_atom_site_label
_atom_site_fract_x
_atom_site_fract_y
_atom_site_fract_z
Si Si1 0.623457 0.749498 0.841269
Si Si2 0.000000 0.343854 0.750000
Si Si3 0.745668 0.022538 0.349988
Si Si4 0.211113 0.643877 0.949701
Si Si5 0.174198 0.987102 0.751796
O O1 0.500000 0.777884 0.750000
O O2 0.613297 0.875008 0.727735
O O3 0.652864 0.511576 0.859365
O O4 0.766250 0.846027 0.090610
O O5 0.070533 0.499518 0.770493
O O6 0.874252 0.194317 0.537336
O O7 0.784948 0.813213 0.460436
O O8 0.741838 0.983582 0.232129
O O9 0.209044 0.768265 0.848267
O O10 0.000000 0.000000 0.500000
#
# Coordination Sequence:
#
# PCOD9227305 Si02
#       5
#     4   2   4   4   4
#     4  10  24  42  59  85 122 163 203 243 295 357
#     4  10  18  34  58  88 124 156 190 240 302 360
#     4  10  21  37  59  88 121 156 198 247 297 352
#     4  10  21  37  59  85 122 158 193 244 303 355
#     4  11  22  38  64  95 120 151 199 252 301 354
#
# _framework density 21.706679000000001
#
# number of rings (size 3 to 8) (size 9 to 14) (size 15 to 20)
#    0.000    1.778    0.000    6.000    0.000   11.556 
#    0.000    2.222    0.000    0.000    0.000    0.000 
#    0.000    0.000    0.000    0.000    0.000    0.000 
#
# Total GULP energy -100509.436297 kJ/mol
# GULP energy per Si atom -5583.857572 kJ/mol
# Density = 2.165727 g / cm^3
# Si number density = 21.706679 Si / 1000 Ang^3
#
#
#
# Elastic Constant Matrix: (Units=GPa)
#
#
# Indices 1 2 3 4 5 6 
#
# 1 176.6207 49.6165 20.9044 0.0000 -3.2270 0.0000
# 2 49.6165 131.7961 21.0258 0.0000 -3.2087 0.0000
# 3 20.9044 21.0258 24.0264 0.0000 2.8833 0.0000
# 4 0.0000 0.0000 0.0000 8.2362 0.0000 0.0803
# 5 -3.2270 -3.2087 2.8833 0.0000 37.8972 0.0000
# 6 0.0000 0.0000 0.0000 0.0803 0.0000 26.1264
#
#
#
# Elastic Compliance Matrix: (Units=1/GPa)
#
#
# Indices 1 2 3 4 5 6 
#
# 1 0.006697 -0.001812 -0.004331 0.000000 0.000746 0.000000
# 2 -0.001812 0.009378 -0.006768 0.000000 0.001155 0.000000
# 3 -0.004331 -0.006768 0.051898 0.000000 -0.004890 0.000000
# 4 0.000000 0.000000 0.000000 0.121418 0.000000 -0.000373
# 5 0.000746 0.001155 -0.004890 0.000000 0.026921 0.000000
# 6 0.000000 0.000000 0.000000 -0.000373 0.000000 0.038277
#
#
# Mechanical properties :
#
#
# Convention : Reuss Voigt Hill
#
# Bulk Modulus (GPa) = 23.72415 57.28184 40.50299
# Shear Modulus (GPa) = 16.98017 30.51174 23.74596
#
# Velocity S-wave (km/s) = 2.79992 3.75325 3.31108
# Velocity P-wave (km/s) = 4.62665 6.72524 5.77212
#
# Compressibility (1/GPa) = 0.04215115
#
# Stress axis : x y z
#
# Youngs Moduli (GPa) = 149.31777 106.63747 19.26838
#
# Poissons Ratio (x) = 0.19325 0.08344
# Poissons Ratio (y) = 0.27059 0.13041
# Poissons Ratio (z) = 0.64663 0.72175
#
# Static dielectric constant tensor:
#      x y z
#    x 1.806110 0.000000 0.039990 
#    y 0.000000 1.767120 0.000000 
#    z 0.039990 0.000000 1.816620 
# 
# From -- ./inp_files/48603.got.cif
#   From: 2010.05.17/outbox.cif.g08.bks.cpg/sg13_25_cif.got.tgz:48603.got - 2010.06.03 16:44:36.
