data_PCOD9227178
_publ_section_title
;
Structure prediction by ZEFSAII (Michael W. Deem and Ramdas Pophale) SiO2 
 PCOD9227178
Probable space group: P 2/C
;
_chemical_formula_sum "Si O2"
_cell_formula_units_Z 18
_cell_length_a 5.449086
_cell_length_b 19.545286
_cell_length_c 7.858582
_cell_angle_alpha 90.000000
_cell_angle_beta 116.671144
_cell_angle_gamma 90.000000
_cell_volume 747.914337
_symmetry_space_group_name_H-M "P 2/C"
_symmetry_group_IT_number 13
_symmetry_cell_setting 'monoclinic'
loop_
_space_group_symop_operation_xyz
x,y,z
-x,y,1/2-z
-x,-y,-z
x,-y,1/2+z
loop_
_atom_site_type_symbol
_atom_site_label
_atom_site_fract_x
_atom_site_fract_y
_atom_site_fract_z
Si Si1 0.587916 0.866088 0.036983
Si Si2 0.920711 0.920918 0.473139
Si Si3 0.332295 0.291293 0.873918
Si Si4 0.500000 0.615951 0.750000
Si Si5 0.786175 0.518459 0.291890
O O1 0.751327 0.898476 0.250537
O O2 0.294203 0.902561 0.946797
O O3 0.560894 0.785337 0.053296
O O4 0.796173 0.879504 0.948616
O O5 0.000000 0.000000 0.500000
O O6 0.500000 0.308872 0.750000
O O7 0.000000 0.286637 0.750000
O O8 0.391011 0.338068 0.060562
O O9 0.312439 0.558333 0.792059
O O10 0.500000 0.550995 0.250000
O O11 0.000000 0.561906 0.250000
O O12 0.000000 0.500000 0.500000
#
# Coordination Sequence:
#
# PCOD9227178 Si02
#       5
#     4   4   4   2   4
#     4  10  19  38  58  88 125 178 230 281 367 423
#     4  10  18  33  58  86 125 163 232 286 340 439
#     4  12  24  47  75  99 152 195 240 311 368 436
#     4  10  30  44  76 120 144 188 272 282 370 456
#     4  10  23  47  70 106 155 189 243 303 362 439
#
# _framework density 24.066927
#
# number of rings (size 3 to 8) (size 9 to 14) (size 15 to 20)
#    0.667    0.889    4.444    1.333    3.111    0.889 
#    0.000    6.667    0.000    0.000    0.000    0.000 
#    0.000    0.000    0.000    0.000    0.000    0.000 
#
# Total GULP energy -100223.324969 kJ/mol
# GULP energy per Si atom -5567.962498 kJ/mol
# Density = 2.401215 g / cm^3
# Si number density = 24.066927 Si / 1000 Ang^3
#
#
#
# Elastic Constant Matrix: (Units=GPa)
#
#
# Indices 1 2 3 4 5 6 
#
# 1 270.3721 34.6368 39.8854 0.0000 25.4770 0.0000
# 2 34.6368 196.5462 28.5260 0.0000 13.3916 0.0000
# 3 39.8854 28.5260 75.9885 0.0000 -10.1523 0.0000
# 4 0.0000 0.0000 0.0000 31.8227 0.0000 8.3139
# 5 25.4770 13.3916 -10.1523 0.0000 35.0903 0.0000
# 6 0.0000 0.0000 0.0000 8.3139 0.0000 31.4317
#
#
#
# Elastic Compliance Matrix: (Units=1/GPa)
#
#
# Indices 1 2 3 4 5 6 
#
# 1 0.004520 -0.000101 -0.002879 0.000000 -0.004077 0.000000
# 2 -0.000101 0.005650 -0.002441 0.000000 -0.002789 0.000000
# 3 -0.002879 -0.002441 0.016634 0.000000 0.007835 0.000000
# 4 0.000000 0.000000 0.000000 0.033757 0.000000 -0.008929
# 5 -0.004077 -0.002789 0.007835 0.000000 0.034789 0.000000
# 6 0.000000 0.000000 0.000000 -0.008929 0.000000 0.034177
#
#
# Mechanical properties :
#
#
# Convention : Reuss Voigt Hill
#
# Bulk Modulus (GPa) = 62.64678 83.22257 72.93468
# Shear Modulus (GPa) = 34.31947 48.99285 41.65616
#
# Velocity S-wave (km/s) = 3.78034 4.51676 4.16486
# Velocity P-wave (km/s) = 6.71873 7.86487 7.31429
#
# Compressibility (1/GPa) = 0.01596251
#
# Stress axis : x y z
#
# Youngs Moduli (GPa) = 221.21657 176.99422 60.11706
#
# Poissons Ratio (x) = 0.01787 0.17311
# Poissons Ratio (y) = 0.02233 0.14672
# Poissons Ratio (z) = 0.63699 0.43197
#
# Static dielectric constant tensor:
#      x y z
#    x 1.845650 0.000000 0.078060 
#    y 0.000000 1.851990 0.000000 
#    z 0.078060 0.000000 1.785640 
# 
# From -- ./inp_files/9827.got.cif
#   From: 2010.05.17/outbox.cif.g08.bks.cpg/sg13_5_cif.got.tgz:9827.got - 2010.06.03 16:44:36.
