data_PCOD9227776
_publ_section_title
;
Structure prediction by ZEFSAII (Michael W. Deem and Ramdas Pophale) SiO2 
 PCOD9227776
Probable space group: P 2/C
;
_chemical_formula_sum "Si O2"
_cell_formula_units_Z 30
_cell_length_a 13.090302
_cell_length_b 12.612016
_cell_length_c 9.355090
_cell_angle_alpha 90.000000
_cell_angle_beta 117.084090
_cell_angle_gamma 90.000000
_cell_volume 1375.110748
_symmetry_space_group_name_H-M "P 2/C"
_symmetry_group_IT_number 13
_symmetry_cell_setting 'monoclinic'
loop_
_space_group_symop_operation_xyz
x,y,z
-x,y,1/2-z
-x,-y,-z
x,-y,1/2+z
loop_
_atom_site_type_symbol
_atom_site_label
_atom_site_fract_x
_atom_site_fract_y
_atom_site_fract_z
Si Si1 0.740094 0.962470 0.249210
Si Si2 0.746982 0.550048 0.316610
Si Si3 0.773675 0.793441 0.799540
Si Si4 0.473246 0.747054 0.987883
Si Si5 0.500000 0.425058 0.750000
Si Si6 0.132453 0.387120 0.311431
Si Si7 0.737308 0.250613 0.596745
Si Si8 0.587355 0.958701 0.407280
O O1 0.785709 0.854338 0.208825
O O2 0.697855 0.936762 0.380794
O O3 0.794176 0.079819 0.297255
O O4 0.632002 0.985330 0.075737
O O5 0.615500 0.517463 0.271354
O O6 0.813332 0.456293 0.281433
O O7 0.802528 0.586977 0.500346
O O8 0.753720 0.647591 0.208443
O O9 0.641038 0.763090 0.677821
O O10 0.848670 0.732221 0.730859
O O11 0.790750 0.753875 0.972881
O O12 0.466619 0.647222 0.091395
O O13 0.597521 0.750311 0.992861
O O14 0.468483 0.848747 0.087162
O O15 0.000000 0.411750 0.250000
O O16 0.500000 0.022307 0.250000
#
# Coordination Sequence:
#
# PCOD9227776 Si02
#       8
#     4   4   4   4   2   4   4   4
#     4  11  22  31  55  89 136 178 222 268 323 394
#     4  11  25  45  75 100 133 176 214 283 338 400
#     4  11  24  39  61  95 132 180 229 274 326 386
#     4  10  19  33  57  89 142 183 219 256 329 401
#     4  10  18  40  64 102 138 170 210 266 348 418
#     4  12  27  51  75  98 127 172 235 281 331 394
#     4  11  22  38  61  99 140 178 219 267 333 409
#     4  11  18  28  46  80 131 186 226 254 304 386
#
# _framework density 21.816424999999999
#
# number of rings (size 3 to 8) (size 9 to 14) (size 15 to 20)
#    0.000    1.067    4.667    2.800    3.733    0.533 
#    2.400    0.000    0.000    4.000    0.000    0.000 
#    0.000    0.000    0.000    0.000    0.000    0.000 
#
# Total GULP energy -167522.847139 kJ/mol
# GULP energy per Si atom -5584.094905 kJ/mol
# Density = 2.176677 g / cm^3
# Si number density = 21.816425 Si / 1000 Ang^3
#
#
#
# Elastic Constant Matrix: (Units=GPa)
#
#
# Indices 1 2 3 4 5 6 
#
# 1 74.6740 34.2710 29.6748 0.0000 -7.5082 0.0000
# 2 34.2710 63.7601 5.8137 0.0000 -9.1435 0.0000
# 3 29.6748 5.8137 86.4801 0.0000 -27.4711 0.0000
# 4 0.0000 0.0000 0.0000 20.5800 0.0000 -18.5091
# 5 -7.5082 -9.1435 -27.4711 0.0000 23.5061 0.0000
# 6 0.0000 0.0000 0.0000 -18.5091 0.0000 45.8708
#
#
#
# Elastic Compliance Matrix: (Units=1/GPa)
#
#
# Indices 1 2 3 4 5 6 
#
# 1 0.021846 -0.012144 -0.009485 0.000000 -0.008831 0.000000
# 2 -0.012144 0.023482 0.006772 0.000000 0.013169 0.000000
# 3 -0.009485 0.006772 0.022643 0.000000 0.026067 0.000000
# 4 0.000000 0.000000 0.000000 0.076269 0.000000 0.030775
# 5 -0.008831 0.013169 0.026067 0.000000 0.075308 0.000000
# 6 0.000000 0.000000 0.000000 0.030775 0.000000 0.034218
#
#
# Mechanical properties :
#
#
# Convention : Reuss Voigt Hill
#
# Bulk Modulus (GPa) = 26.13883 40.49256 33.31569
# Shear Modulus (GPa) = 16.87858 28.33505 22.60682
#
# Velocity S-wave (km/s) = 2.78450 3.60779 3.22254
# Velocity P-wave (km/s) = 4.72707 5.99631 5.39912
#
# Compressibility (1/GPa) = 0.03825726
#
# Stress axis : x y z
#
# Youngs Moduli (GPa) = 45.77442 42.58542 44.16331
#
# Poissons Ratio (x) = 0.51715 0.41889
# Poissons Ratio (y) = 0.55588 -0.29906
# Poissons Ratio (z) = 0.43418 -0.28838
#
# Static dielectric constant tensor:
#      x y z
#    x 1.809730 0.000000 0.014970 
#    y 0.000000 1.845040 0.000000 
#    z 0.014970 0.000000 1.812320 
# 
# From -- ./inp_files/19067.got.cif
#   From: 2010.05.17/outbox.cif.g08.bks.cpg/sg13_10_cif.got.tgz:19067.got - 2010.06.03 16:44:36.
