data_PCOD9227966
_publ_section_title
;
Structure prediction by ZEFSAII (Michael W. Deem and Ramdas Pophale) SiO2 
 PCOD9227966
Probable space group: P 2/C
;
_chemical_formula_sum "Si O2"
_cell_formula_units_Z 28
_cell_length_a 13.589514
_cell_length_b 25.828904
_cell_length_c 5.262761
_cell_angle_alpha 90.000000
_cell_angle_beta 67.215356
_cell_angle_gamma 90.000000
_cell_volume 1703.095170
_symmetry_space_group_name_H-M "P 2/C"
_symmetry_group_IT_number 13
_symmetry_cell_setting 'monoclinic'
loop_
_space_group_symop_operation_xyz
x,y,z
-x,y,1/2-z
-x,-y,-z
x,-y,1/2+z
loop_
_atom_site_type_symbol
_atom_site_label
_atom_site_fract_x
_atom_site_fract_y
_atom_site_fract_z
Si Si1 0.870688 0.799076 0.879314
Si Si2 0.193094 0.383898 0.556905
Si Si3 0.372803 0.533801 0.877199
Si Si4 0.000000 0.464922 0.750000
Si Si5 0.128979 0.138241 0.621019
Si Si6 0.264687 0.036035 0.485315
Si Si7 0.870149 0.678512 0.879852
Si Si8 0.500000 0.035556 0.250000
O O1 0.837103 0.829902 0.662074
O O2 0.839598 0.739006 0.910402
O O3 0.000000 0.798939 0.750000
O O4 0.837103 0.829901 0.163727
O O5 0.305232 0.413737 0.444767
O O6 0.173801 0.349560 0.326482
O O7 0.103206 0.428463 0.646794
O O8 0.173801 0.349560 0.825913
O O9 0.500000 0.543530 0.750000
O O10 0.346662 0.499999 0.653341
O O11 0.000000 0.500000 0.500000
O O12 0.178934 0.081443 0.571068
O O13 0.000000 0.134693 0.750000
O O14 0.254827 1.000000 0.745175
O O15 0.383806 0.061561 0.366195
O O16 0.000000 0.674624 0.750000
O O17 0.500000 0.000000 0.500000
#
# Coordination Sequence:
#
# PCOD9227966 Si02
#       8
#     4   4   4   2   4   4   4   2
#     4   9  19  33  51  70  99 133 168 211 244 291
#     4  12  21  34  53  79 103 134 172 205 254 308
#     4  10  21  38  56  75 101 136 176 209 242 295
#     4  12  22  32  46  72 114 138 150 190 252 312
#     4  10  19  32  48  74 101 132 168 200 252 297
#     4  10  19  31  49  73 102 133 166 202 241 294
#     4  11  20  35  52  78 105 131 172 213 255 305
#     4   8  16  30  46  68  94 126 166 200 232 276
#
# _framework density 16.440653999999999
#
# number of rings (size 3 to 8) (size 9 to 14) (size 15 to 20)
#    0.000    1.714    1.429    4.286    0.000    2.857 
#    0.000    0.000    0.000    0.000   11.143    0.000 
#    0.000    0.000    0.000    0.000    0.000    0.000 
#
# Total GULP energy -156247.970068 kJ/mol
# GULP energy per Si atom -5580.284645 kJ/mol
# Density = 1.640323 g / cm^3
# Si number density = 16.440654 Si / 1000 Ang^3
#
#
#
# Elastic Constant Matrix: (Units=GPa)
#
#
# Indices 1 2 3 4 5 6 
#
# 1 56.3089 54.3400 56.1403 0.0000 8.2267 0.0000
# 2 54.3400 135.5021 80.4999 0.0000 14.7793 0.0000
# 3 56.1403 80.4999 143.7135 0.0000 41.1478 0.0000
# 4 0.0000 0.0000 0.0000 8.5264 0.0000 -4.6988
# 5 8.2267 14.7793 41.1478 0.0000 25.9606 0.0000
# 6 0.0000 0.0000 0.0000 -4.6988 0.0000 16.8416
#
#
#
# Elastic Compliance Matrix: (Units=1/GPa)
#
#
# Indices 1 2 3 4 5 6 
#
# 1 0.038292 -0.008195 -0.015067 0.000000 0.016413 0.000000
# 2 -0.008195 0.013438 -0.005271 0.000000 0.003301 0.000000
# 3 -0.015067 -0.005271 0.024846 0.000000 -0.031606 0.000000
# 4 0.000000 0.000000 0.000000 0.138592 0.000000 0.038668
# 5 0.016413 0.003301 -0.031606 0.000000 0.081535 0.000000
# 6 0.000000 0.000000 0.000000 0.038668 0.000000 0.070165
#
#
# Mechanical properties :
#
#
# Convention : Reuss Voigt Hill
#
# Bulk Modulus (GPa) = 51.25839 79.72053 65.48946
# Shear Modulus (GPa) = 11.61609 19.90199 15.75904
#
# Velocity S-wave (km/s) = 2.66098 3.48305 3.09939
# Velocity P-wave (km/s) = 6.37860 8.04802 7.26145
#
# Compressibility (1/GPa) = 0.01950900
#
# Stress axis : x y z
#
# Youngs Moduli (GPa) = 26.11511 74.41761 40.24793
#
# Poissons Ratio (x) = 0.60985 0.60643
# Poissons Ratio (y) = 0.21401 0.21215
# Poissons Ratio (z) = 0.39349 0.39225
#
# Static dielectric constant tensor:
#      x y z
#    x 1.553740 0.000000 -0.004490 
#    y 0.000000 1.516280 0.000000 
#    z -0.004490 0.000000 1.545780 
# 
# From -- ./inp_files/4113.got.cif
#   From: 2010.05.17/outbox.cif.g08.bks.cpg/sg13_3_cif.got.tgz:4113.got - 2010.06.03 16:44:36.
