data_PCOD9227387
_publ_section_title
;
Structure prediction by ZEFSAII (Michael W. Deem and Ramdas Pophale) SiO2 
 PCOD9227387
Probable space group: P 2/C
;
_chemical_formula_sum "Si O2"
_cell_formula_units_Z 32
_cell_length_a 20.230036
_cell_length_b 12.415615
_cell_length_c 8.767126
_cell_angle_alpha 90.000000
_cell_angle_beta 122.817799
_cell_angle_gamma 90.000000
_cell_volume 1850.577579
_symmetry_space_group_name_H-M "P 2/C"
_symmetry_group_IT_number 13
_symmetry_cell_setting 'monoclinic'
loop_
_space_group_symop_operation_xyz
x,y,z
-x,y,1/2-z
-x,-y,-z
x,-y,1/2+z
loop_
_atom_site_type_symbol
_atom_site_label
_atom_site_fract_x
_atom_site_fract_y
_atom_site_fract_z
Si Si1 0.906295 0.921217 0.157268
Si Si2 0.138729 0.860933 0.058773
Si Si3 0.038389 0.646567 0.956849
Si Si4 0.555781 0.441967 0.193813
Si Si5 0.115245 0.291591 0.061602
Si Si6 0.770488 0.284573 0.012613
Si Si7 0.341451 0.408736 0.454704
Si Si8 0.813867 0.489234 0.870388
O O1 0.875452 0.900636 0.288205
O O2 0.000000 0.928142 0.250000
O O3 0.882886 0.815715 0.033258
O O4 0.874893 0.035385 0.061297
O O5 0.077318 0.761931 0.964880
O O6 0.219568 0.804515 0.105336
O O7 0.000000 0.604622 0.750000
O O8 0.971799 0.671055 0.997753
O O9 0.107394 0.566771 0.101052
O O10 0.500000 0.383628 0.250000
O O11 0.617236 0.385087 0.156267
O O12 0.603360 0.527416 0.357668
O O13 0.500000 0.500000 0.000000
O O14 0.163004 0.267315 0.276407
O O15 0.157449 0.393978 0.037372
O O16 0.689734 0.301730 0.000947
O O17 0.789018 0.399980 0.960299
O O18 0.264759 0.483221 0.322675
#
# Coordination Sequence:
#
# PCOD9227387 Si02
#       8
#     4   4   4   4   4   4   4   4
#     4  12  24  36  55  70  93 132 186 262 307 334
#     4  11  23  38  53  71  92 130 189 239 302 334
#     4  11  20  36  51  69 100 140 193 247 277 327
#     4   9  18  32  55  82 111 149 186 205 243 311
#     4  11  22  36  49  74  98 141 195 240 286 323
#     4  10  21  38  53  72 105 149 182 223 281 321
#     4  10  18  35  51  79 113 150 184 213 261 323
#     4  10  21  31  53  72 107 150 186 220 282 315
#
# _framework density 17.291899000000001
#
# number of rings (size 3 to 8) (size 9 to 14) (size 15 to 20)
#    0.000    1.500    5.000    1.875    0.000    4.500 
#    0.000    0.000    0.000    0.000    0.000    0.000 
#    0.000    0.000    0.000  131.625   29.250    4.750 
#
# Total GULP energy -178270.166325 kJ/mol
# GULP energy per Si atom -5570.942698 kJ/mol
# Density = 1.725254 g / cm^3
# Si number density = 17.291899 Si / 1000 Ang^3
#
#
#
# Elastic Constant Matrix: (Units=GPa)
#
#
# Indices 1 2 3 4 5 6 
#
# 1 105.8266 40.0981 42.3208 0.0000 -20.4940 0.0000
# 2 40.0981 96.2367 21.5134 0.0000 -9.1947 0.0000
# 3 42.3208 21.5134 62.0584 0.0000 -8.2570 0.0000
# 4 0.0000 0.0000 0.0000 -5.5658 0.0000 15.1934
# 5 -20.4940 -9.1947 -8.2570 0.0000 33.3116 0.0000
# 6 0.0000 0.0000 0.0000 15.1934 0.0000 -9.4147
#
#
#
# Elastic Compliance Matrix: (Units=1/GPa)
#
#
# Indices 1 2 3 4 5 6 
#
# 1 0.015547 -0.003997 -0.008367 0.000000 0.006388 0.000000
# 2 -0.003997 0.012452 -0.001510 0.000000 0.000603 0.000000
# 3 -0.008367 -0.001510 0.022340 0.000000 -0.000027 0.000000
# 4 0.000000 0.000000 0.000000 0.052761 0.000000 0.085146
# 5 0.006388 0.000603 -0.000027 0.000000 0.034109 0.000000
# 6 0.000000 0.000000 0.000000 0.085146 0.000000 0.031192
#
#
# Mechanical properties :
#
#
# Convention : Reuss Voigt Hill
#
# Bulk Modulus (GPa) = 44.26795 52.44295 48.35545
# Shear Modulus (GPa) = 24.54846 14.34552 19.44699
#
# Velocity S-wave (km/s) = 3.77191 2.88342 3.35719
# Velocity P-wave (km/s) = 6.68025 6.44045 6.56144
#
# Compressibility (1/GPa) = 0.02258971
#
# Stress axis : x y z
#
# Youngs Moduli (GPa) = 64.32173 80.30960 44.76370
#
# Poissons Ratio (x) = 0.32101 0.37452
# Poissons Ratio (y) = 0.25710 0.06761
# Poissons Ratio (z) = 0.53816 0.12130
#
# Static dielectric constant tensor:
#      x y z
#    x 1.708710 0.000000 -0.025810 
#    y 0.000000 1.565800 0.000000 
#    z -0.025810 0.000000 1.625190 
# 
# From -- ./inp_files/23242.got.cif
#   From: 2010.05.17/outbox.cif.g08.bks.cpg/sg13_12_cif.got.tgz:23242.got - 2010.06.03 16:44:36.
