data_PCOD9227229
_publ_section_title
;
Structure prediction by ZEFSAII (Michael W. Deem and Ramdas Pophale) SiO2 
 PCOD9227229
Probable space group: P 2/C
;
_chemical_formula_sum "Si O2"
_cell_formula_units_Z 26
_cell_length_a 20.184037
_cell_length_b 12.492714
_cell_length_c 5.221252
_cell_angle_alpha 90.000000
_cell_angle_beta 102.234633
_cell_angle_gamma 90.000000
_cell_volume 1286.654794
_symmetry_space_group_name_H-M "P 2/C"
_symmetry_group_IT_number 13
_symmetry_cell_setting 'monoclinic'
loop_
_space_group_symop_operation_xyz
x,y,z
-x,y,1/2-z
-x,-y,-z
x,-y,1/2+z
loop_
_atom_site_type_symbol
_atom_site_label
_atom_site_fract_x
_atom_site_fract_y
_atom_site_fract_z
Si Si1 0.957739 0.276565 0.946869
Si Si2 0.500000 0.897016 0.250000
Si Si3 0.162425 0.431076 0.514731
Si Si4 0.592816 0.744017 0.996459
Si Si5 0.500000 0.428317 0.250000
Si Si6 0.000000 0.074068 0.750000
Si Si7 0.320318 0.426826 0.664115
Si Si8 0.363656 0.038279 0.092079
O O1 0.890604 0.339160 0.964601
O O2 0.000000 0.334978 0.750000
O O3 0.943936 0.163001 0.791638
O O4 0.000000 0.262658 0.250000
O O5 0.533146 0.815498 0.074454
O O6 0.436424 0.972397 0.112685
O O7 0.152199 0.477253 0.221710
O O8 0.240922 0.397164 0.604140
O O9 0.635305 0.678898 0.243115
O O10 0.562632 0.651909 0.798195
O O11 0.630546 0.835443 0.868404
O O12 0.500000 0.500000 0.500000
O O13 0.000000 0.000000 0.500000
O O14 0.332635 0.490227 0.409956
O O15 0.328406 0.981310 0.295484
#
# Coordination Sequence:
#
# PCOD9227229 Si02
#       8
#     4   2   4   4   2   2   4   4
#     4  10  20  32  56  92 116 151 199 234 285 345
#     4  10  20  36  56  84 106 134 176 226 298 344
#     4  10  21  37  57  81 120 155 187 236 288 336
#     4  11  21  37  58  77 108 143 179 230 283 336
#     4  12  24  34  48  76 104 130 170 222 266 316
#     4  10  18  34  52  82 122 158 188 232 282 328
#     4  10  23  41  57  78 109 155 195 221 272 346
#     4  10  20  34  53  78 102 127 167 215 275 342
#
# _framework density 20.207438
#
# number of rings (size 3 to 8) (size 9 to 14) (size 15 to 20)
#    0.462    1.231    0.769    5.538    0.000    6.769 
#    0.000    0.000    0.000    3.692    0.000    0.000 
#    0.000    0.000    0.000    0.000    0.000    0.000 
#
# Total GULP energy -144815.307078 kJ/mol
# GULP energy per Si atom -5569.819503 kJ/mol
# Density = 2.016145 g / cm^3
# Si number density = 20.207438 Si / 1000 Ang^3
#
#
#
# Elastic Constant Matrix: (Units=GPa)
#
#
# Indices 1 2 3 4 5 6 
#
# 1 46.8303 32.3731 25.7693 0.0000 -3.8933 0.0000
# 2 32.3731 118.6956 38.9974 0.0000 4.5332 0.0000
# 3 25.7693 38.9974 107.2747 0.0000 -18.3424 0.0000
# 4 0.0000 0.0000 0.0000 29.4325 0.0000 -6.9723
# 5 -3.8933 4.5332 -18.3424 0.0000 23.7896 0.0000
# 6 0.0000 0.0000 0.0000 -6.9723 0.0000 14.6635
#
#
#
# Elastic Compliance Matrix: (Units=1/GPa)
#
#
# Indices 1 2 3 4 5 6 
#
# 1 0.028264 -0.006525 -0.003932 0.000000 0.002837 0.000000
# 2 -0.006525 0.011664 -0.003727 0.000000 -0.006164 0.000000
# 3 -0.003932 -0.003727 0.013399 0.000000 0.010398 0.000000
# 4 0.000000 0.000000 0.000000 0.038289 0.000000 0.018206
# 5 0.002837 -0.006164 0.010398 0.000000 0.051691 0.000000
# 6 0.000000 0.000000 0.000000 0.018206 0.000000 0.076853
#
#
# Mechanical properties :
#
#
# Convention : Reuss Voigt Hill
#
# Bulk Modulus (GPa) = 40.06579 51.89779 45.98179
# Shear Modulus (GPa) = 19.46669 25.28786 22.37728
#
# Velocity S-wave (km/s) = 3.10714 3.54137 3.33134
# Velocity P-wave (km/s) = 5.72213 6.51613 6.13200
#
# Compressibility (1/GPa) = 0.02495895
#
# Stress axis : x y z
#
# Youngs Moduli (GPa) = 35.38054 85.73059 74.63136
#
# Poissons Ratio (x) = 0.55940 0.29348
# Poissons Ratio (y) = 0.23086 0.27814
# Poissons Ratio (z) = 0.13913 0.31951
#
# Static dielectric constant tensor:
#      x y z
#    x 1.747430 0.000000 -0.023960 
#    y 0.000000 1.724940 0.000000 
#    z -0.023960 0.000000 1.838040 
# 
# From -- ./inp_files/6885.got.cif
#   From: 2010.05.17/outbox.cif.g08.bks.cpg/sg13_4_cif.got.tgz:6885.got - 2010.06.03 16:44:36.
