data_PCOD9227067
_publ_section_title
;
Structure prediction by ZEFSAII (Michael W. Deem and Ramdas Pophale) SiO2 
 PCOD9227067
Probable space group: P 2/C
;
_chemical_formula_sum "Si O2"
_cell_formula_units_Z 18
_cell_length_a 9.324572
_cell_length_b 7.825040
_cell_length_c 16.965484
_cell_angle_alpha 90.000000
_cell_angle_beta 50.442194
_cell_angle_gamma 90.000000
_cell_volume 954.390743
_symmetry_space_group_name_H-M "P 2/C"
_symmetry_group_IT_number 13
_symmetry_cell_setting 'monoclinic'
loop_
_space_group_symop_operation_xyz
x,y,z
-x,y,1/2-z
-x,-y,-z
x,-y,1/2+z
loop_
_atom_site_type_symbol
_atom_site_label
_atom_site_fract_x
_atom_site_fract_y
_atom_site_fract_z
Si Si1 0.601217 0.346249 0.288424
Si Si2 0.000000 0.122667 0.750000
Si Si3 0.326133 0.883483 0.582295
Si Si4 0.039760 0.450531 0.823093
Si Si5 0.649122 0.550037 0.015799
O O1 0.500000 0.260943 0.250000
O O2 0.636756 0.218630 0.348928
O O3 0.794481 0.439719 0.199548
O O4 0.459179 0.493410 0.368784
O O5 0.909326 0.256396 0.719174
O O6 0.849786 0.004360 0.843815
O O7 0.303903 0.745544 0.520150
O O8 0.500000 0.000000 0.500000
O O9 0.000000 0.531833 0.750000
O O10 0.844507 0.452406 0.936701
O O11 0.500000 0.500000 0.000000
#
# Coordination Sequence:
#
# PCOD9227067 Si02
#       5
#     4   2   4   4   4
#     4  11  23  38  57  86 118 149 188 240 287 330
#     4  10  18  32  58  88 106 138 196 240 268 322
#     4  11  19  33  58  85 111 148 190 233 278 342
#     4  10  18  36  61  85 106 151 203 228 268 338
#     4  10  18  35  58  81 107 151 198 227 266 343
#
# _framework density 18.860199000000001
#
# number of rings (size 3 to 8) (size 9 to 14) (size 15 to 20)
#    0.667    0.889    4.444    5.333    0.000    0.889 
#    0.000    4.444    0.000    5.333    0.000    0.000 
#    0.000    0.000    0.000    0.000    0.000    0.000 
#
# Total GULP energy -100272.039718 kJ/mol
# GULP energy per Si atom -5570.668873 kJ/mol
# Density = 1.881727 g / cm^3
# Si number density = 18.860199 Si / 1000 Ang^3
#
#
#
# Elastic Constant Matrix: (Units=GPa)
#
#
# Indices 1 2 3 4 5 6 
#
# 1 56.3471 3.0119 8.1211 0.0000 -4.0403 0.0000
# 2 3.0119 79.5622 5.3758 0.0000 -6.8700 0.0000
# 3 8.1211 5.3758 64.7943 0.0000 -34.1347 0.0000
# 4 0.0000 0.0000 0.0000 38.5384 0.0000 -13.8374
# 5 -4.0403 -6.8700 -34.1347 0.0000 30.9785 0.0000
# 6 0.0000 0.0000 0.0000 -13.8374 0.0000 11.4582
#
#
#
# Elastic Compliance Matrix: (Units=1/GPa)
#
#
# Indices 1 2 3 4 5 6 
#
# 1 0.018100 -0.000561 -0.002488 0.000000 -0.000506 0.000000
# 2 -0.000561 0.012861 0.001114 0.000000 0.004006 0.000000
# 3 -0.002488 0.001114 0.037215 0.000000 0.040929 0.000000
# 4 0.000000 0.000000 0.000000 0.045813 0.000000 0.055326
# 5 -0.000506 0.004006 0.040929 0.000000 0.078202 0.000000
# 6 0.000000 0.000000 0.000000 0.055326 0.000000 0.154087
#
#
# Mechanical properties :
#
#
# Convention : Reuss Voigt Hill
#
# Bulk Modulus (GPa) = 15.55093 25.96901 20.75997
# Shear Modulus (GPa) = 13.45591 28.47466 20.96529
#
# Velocity S-wave (km/s) = 2.67396 3.88980 3.33771
# Velocity P-wave (km/s) = 4.21861 5.82865 5.08772
#
# Compressibility (1/GPa) = 0.06430483
#
# Stress axis : x y z
#
# Youngs Moduli (GPa) = 55.25012 77.75636 26.87073
#
# Poissons Ratio (x) = 0.04360 0.06687
# Poissons Ratio (y) = 0.03098 -0.02993
# Poissons Ratio (z) = 0.13749 -0.08661
#
# Static dielectric constant tensor:
#      x y z
#    x 1.669510 0.000000 -0.002040 
#    y 0.000000 1.677880 0.000000 
#    z -0.002040 0.000000 1.682270 
# 
# From -- ./inp_files/52535.got.cif
#   From: 2010.05.17/outbox.cif.g08.bks.cpg/sg13_27_cif.got.tgz:52535.got - 2010.06.03 16:44:36.
