data_PCOD9227503
_publ_section_title
;
Structure prediction by ZEFSAII (Michael W. Deem and Ramdas Pophale) SiO2 
 PCOD9227503
Probable space group: P 2/C
;
_chemical_formula_sum "Si O2"
_cell_formula_units_Z 22
_cell_length_a 11.467859
_cell_length_b 8.934086
_cell_length_c 27.685256
_cell_angle_alpha 90.000000
_cell_angle_beta 158.070000
_cell_angle_gamma 90.000000
_cell_volume 1059.353392
_symmetry_space_group_name_H-M "P 2/C"
_symmetry_group_IT_number 13
_symmetry_cell_setting 'monoclinic'
loop_
_space_group_symop_operation_xyz
x,y,z
-x,y,1/2-z
-x,-y,-z
x,-y,1/2+z
loop_
_atom_site_type_symbol
_atom_site_label
_atom_site_fract_x
_atom_site_fract_y
_atom_site_fract_z
Si Si1 0.500000 0.937752 0.250000
Si Si2 0.428872 0.925368 0.112084
Si Si3 0.841314 0.225872 0.505473
Si Si4 0.055540 0.508294 0.897409
Si Si5 0.180327 0.721498 0.610710
Si Si6 0.281056 0.634777 0.320512
O O1 0.510326 0.978622 0.196839
O O2 0.815347 0.837502 0.371578
O O3 0.656628 0.798537 0.179002
O O4 0.376137 0.083913 0.065903
O O5 0.096541 0.838795 0.987312
O O6 0.848195 0.342403 0.550603
O O7 0.776853 0.309594 0.429450
O O8 0.876133 0.584806 0.874149
O O9 0.831351 0.483982 0.764615
O O10 0.391697 0.592943 0.026609
O O11 0.500000 0.798568 0.750000
O O12 0.000000 0.640372 0.250000
#
# Coordination Sequence:
#
# PCOD9227503 Si02
#       6
#     2   4   4   4   4   4
#     4  10  18  36  56  84 132 160 188 246 322 378
#     4  10  23  37  61  90 124 172 205 257 319 378
#     4  11  22  34  61  91 132 165 203 247 326 386
#     4  11  23  41  63  96 125 168 213 267 311 383
#     4  10  21  33  56  93 133 162 197 248 319 394
#     4  11  24  47  67  88 124 173 223 271 313 361
#
# _framework density 20.767385999999998
#
# number of rings (size 3 to 8) (size 9 to 14) (size 15 to 20)
#    0.000    1.455    1.818    4.364    6.364    0.000 
#    0.000    1.818    0.000    0.000    0.000    0.000 
#    0.000    0.000    0.000    0.000    0.000    0.000 
#
# Total GULP energy -122506.732904 kJ/mol
# GULP energy per Si atom -5568.487859 kJ/mol
# Density = 2.072012 g / cm^3
# Si number density = 20.767386 Si / 1000 Ang^3
#
#
#
# Elastic Constant Matrix: (Units=GPa)
#
#
# Indices 1 2 3 4 5 6 
#
# 1 46.8287 28.9088 29.5998 0.0000 3.8276 0.0000
# 2 28.9088 105.6280 30.9179 0.0000 4.2624 0.0000
# 3 29.5998 30.9179 118.1186 0.0000 1.2591 0.0000
# 4 0.0000 0.0000 0.0000 85.4349 0.0000 14.8952
# 5 3.8276 4.2624 1.2591 0.0000 31.9957 0.0000
# 6 0.0000 0.0000 0.0000 14.8952 0.0000 25.6503
#
#
#
# Elastic Compliance Matrix: (Units=1/GPa)
#
#
# Indices 1 2 3 4 5 6 
#
# 1 0.028903 -0.006173 -0.005601 0.000000 -0.002415 0.000000
# 2 -0.006173 0.011622 -0.001487 0.000000 -0.000751 0.000000
# 3 -0.005601 -0.001487 0.010254 0.000000 0.000465 0.000000
# 4 0.000000 0.000000 0.000000 0.013023 0.000000 -0.007563
# 5 -0.002415 -0.000751 0.000465 0.000000 0.031625 0.000000
# 6 0.000000 0.000000 0.000000 -0.007563 0.000000 0.043378
#
#
# Mechanical properties :
#
#
# Convention : Reuss Voigt Hill
#
# Bulk Modulus (GPa) = 41.22707 49.93649 45.58178
# Shear Modulus (GPa) = 28.83261 40.69279 34.76270
#
# Velocity S-wave (km/s) = 3.73011 4.43138 4.09578
# Velocity P-wave (km/s) = 6.20053 7.09088 6.66060
#
# Compressibility (1/GPa) = 0.02425591
#
# Stress axis : x y z
#
# Youngs Moduli (GPa) = 34.59803 86.04095 97.52250
#
# Poissons Ratio (x) = 0.53117 0.54626
# Poissons Ratio (y) = 0.21359 0.14503
# Poissons Ratio (z) = 0.19380 0.12796
#
# Static dielectric constant tensor:
#      x y z
#    x 1.711420 0.000000 -0.047950 
#    y 0.000000 1.601070 0.000000 
#    z -0.047950 0.000000 1.837470 
# 
# From -- ./inp_files/87231.got.cif
#   From: 2010.05.17/outbox.cif.g08.bks.cpg/sg13_44_cif.got.tgz:87231.got - 2010.06.03 16:44:36.
