data_PCOD9227509
_publ_section_title
;
Structure prediction by ZEFSAII (Michael W. Deem and Ramdas Pophale) SiO2 
 PCOD9227509
Probable space group: P 2/C
;
_chemical_formula_sum "Si O2"
_cell_formula_units_Z 26
_cell_length_a 11.807906
_cell_length_b 10.149906
_cell_length_c 15.100263
_cell_angle_alpha 90.000000
_cell_angle_beta 51.802947
_cell_angle_gamma 90.000000
_cell_volume 1422.264804
_symmetry_space_group_name_H-M "P 2/C"
_symmetry_group_IT_number 13
_symmetry_cell_setting 'monoclinic'
loop_
_space_group_symop_operation_xyz
x,y,z
-x,y,1/2-z
-x,-y,-z
x,-y,1/2+z
loop_
_atom_site_type_symbol
_atom_site_label
_atom_site_fract_x
_atom_site_fract_y
_atom_site_fract_z
Si Si1 0.868825 0.864785 0.744243
Si Si2 0.500000 0.397223 0.250000
Si Si3 0.313223 0.607036 0.107875
Si Si4 0.001876 0.282050 0.013549
Si Si5 0.886045 0.167606 0.724161
Si Si6 0.212188 0.505407 0.967249
Si Si7 0.611728 0.327628 0.374031
O O1 0.928203 0.808067 0.623001
O O2 0.732475 0.777414 0.839905
O O3 0.000000 0.853499 0.750000
O O4 0.830067 0.018143 0.752844
O O5 0.628464 0.486701 0.150387
O O6 0.553736 0.305315 0.303569
O O7 0.231370 0.722347 0.196738
O O8 0.322184 0.474584 0.160684
O O9 0.231499 0.558063 0.058209
O O10 0.473194 0.657057 0.004381
O O11 0.885919 0.389696 0.037164
O O12 0.048629 0.202492 0.903377
O O13 0.133930 0.365372 0.992798
O O14 0.000000 0.177090 0.750000
#
# Coordination Sequence:
#
# PCOD9227509 Si02
#       7
#     4   2   4   4   4   4   4
#     4  11  24  40  60  86 122 164 200 247 296 358
#     4  10  18  36  56  88 118 150 194 248 296 356
#     4  10  21  38  60  91 117 155 198 253 298 356
#     4  11  21  38  57  93 118 157 196 246 298 351
#     4  11  23  38  59  87 126 161 199 243 297 359
#     4  10  20  33  62  89 117 148 199 250 294 348
#     4  10  21  37  61  87 118 156 200 249 300 346
#
# _framework density 18.280702999999999
#
# number of rings (size 3 to 8) (size 9 to 14) (size 15 to 20)
#    0.000    1.538    3.077    2.308    2.154    1.231 
#    0.000    0.000    0.000    7.385    0.000    0.000 
#    0.000    0.000    0.000    0.000    0.000    0.000 
#
# Total GULP energy -145149.806656 kJ/mol
# GULP energy per Si atom -5582.684871 kJ/mol
# Density = 1.823909 g / cm^3
# Si number density = 18.280703 Si / 1000 Ang^3
#
#
#
# Elastic Constant Matrix: (Units=GPa)
#
#
# Indices 1 2 3 4 5 6 
#
# 1 69.2523 31.5339 17.6434 0.0000 -2.4902 0.0000
# 2 31.5339 111.1688 32.5496 0.0000 -8.7730 0.0000
# 3 17.6434 32.5496 60.8041 0.0000 9.0793 0.0000
# 4 0.0000 0.0000 0.0000 -0.0831 0.0000 15.7715
# 5 -2.4902 -8.7730 9.0793 0.0000 29.1743 0.0000
# 6 0.0000 0.0000 0.0000 15.7715 0.0000 5.8644
#
#
#
# Elastic Compliance Matrix: (Units=1/GPa)
#
#
# Indices 1 2 3 4 5 6 
#
# 1 0.017011 -0.003825 -0.003076 0.000000 0.001259 0.000000
# 2 -0.003825 0.012346 -0.006297 0.000000 0.005346 0.000000
# 3 -0.003076 -0.006297 0.022057 0.000000 -0.009021 0.000000
# 4 0.000000 0.000000 0.000000 -0.023530 0.000000 0.063282
# 5 0.001259 0.005346 -0.009021 0.000000 0.038799 0.000000
# 6 0.000000 0.000000 0.000000 0.063282 0.000000 0.000333
#
#
# Mechanical properties :
#
#
# Convention : Reuss Voigt Hill
#
# Bulk Modulus (GPa) = 39.97428 44.96435 42.46931
# Shear Modulus (GPa) = 49.13882 17.62434 33.38158
#
# Velocity S-wave (km/s) = 5.19023 3.10836 4.27787
# Velocity P-wave (km/s) = 7.60476 6.12638 6.90525
#
# Compressibility (1/GPa) = 0.02501609
#
# Stress axis : x y z
#
# Youngs Moduli (GPa) = 58.78632 80.99736 45.33708
#
# Poissons Ratio (x) = 0.30983 0.13947
# Poissons Ratio (y) = 0.22487 0.28551
# Poissons Ratio (z) = 0.18085 0.51007
#
# Static dielectric constant tensor:
#      x y z
#    x 1.663780 0.000000 0.011420 
#    y 0.000000 1.594340 0.000000 
#    z 0.011420 0.000000 1.629690 
# 
# From -- ./inp_files/49886.got.cif
#   From: 2010.05.17/outbox.cif.g08.bks.cpg/sg13_25_cif.got.tgz:49886.got - 2010.06.03 16:44:36.
