data_PCOD9227906
_publ_section_title
;
Structure prediction by ZEFSAII (Michael W. Deem and Ramdas Pophale) SiO2 
 PCOD9227906
Probable space group: P 2/C
;
_chemical_formula_sum "Si O2"
_cell_formula_units_Z 24
_cell_length_a 8.454971
_cell_length_b 5.231307
_cell_length_c 24.360893
_cell_angle_alpha 90.000000
_cell_angle_beta 109.551161
_cell_angle_gamma 90.000000
_cell_volume 1015.370557
_symmetry_space_group_name_H-M "P 2/C"
_symmetry_group_IT_number 13
_symmetry_cell_setting 'monoclinic'
loop_
_space_group_symop_operation_xyz
x,y,z
-x,y,1/2-z
-x,-y,-z
x,-y,1/2+z
loop_
_atom_site_type_symbol
_atom_site_label
_atom_site_fract_x
_atom_site_fract_y
_atom_site_fract_z
Si Si1 0.681384 0.451027 0.745035
Si Si2 0.935102 0.774101 0.612574
Si Si3 0.188545 0.382525 0.514648
Si Si4 0.008806 0.718986 0.316879
Si Si5 0.588746 0.045173 0.201287
Si Si6 0.720171 0.858117 0.912438
O O1 0.500000 0.499200 0.750000
O O2 0.808103 0.330125 0.803645
O O3 0.725178 0.732849 0.728007
O O4 0.659304 0.234866 0.696133
O O5 0.811563 0.725753 0.547142
O O6 0.913708 0.536583 0.650117
O O7 0.921873 0.036997 0.643928
O O8 0.124040 0.782986 0.609044
O O9 0.229423 0.134566 0.556517
O O10 0.000000 0.500000 0.500000
O O11 0.295716 0.629952 0.544699
O O12 0.000000 0.731999 0.250000
O O13 0.500000 0.000982 0.250000
O O14 0.450358 0.126220 0.141734
#
# Coordination Sequence:
#
# PCOD9227906 Si02
#       6
#     4   4   4   4   4   4
#     4  10  19  34  52  78 108 141 179 224 276 328
#     4  11  20  36  54  77 115 152 183 231 279 333
#     4  10  20  32  52  82 114 150 187 230 287 337
#     4  12  24  37  56  84 115 152 188 225 280 341
#     4  10  19  30  50  78 108 141 173 218 277 330
#     4  11  19  33  54  85 116 144 184 236 286 335
#
# _framework density 23.636689000000001
#
# number of rings (size 3 to 8) (size 9 to 14) (size 15 to 20)
#    0.000    1.333    0.000   11.500    0.000    0.000 
#    0.000    0.000    0.000    0.000    0.000   23.333 
#    0.000    0.000    0.000    0.000    0.000    0.000 
#
# Total GULP energy -134052.588787 kJ/mol
# GULP energy per Si atom -5585.524533 kJ/mol
# Density = 2.358289 g / cm^3
# Si number density = 23.636689 Si / 1000 Ang^3
#
#
#
# Elastic Constant Matrix: (Units=GPa)
#
#
# Indices 1 2 3 4 5 6 
#
# 1 14.7331 6.7607 16.6014 0.0000 -7.9076 0.0000
# 2 6.7607 221.4982 63.7648 0.0000 -4.8629 0.0000
# 3 16.6014 63.7648 133.7242 0.0000 4.2391 0.0000
# 4 0.0000 0.0000 0.0000 62.6817 0.0000 2.1618
# 5 -7.9076 -4.8629 4.2391 0.0000 28.6394 0.0000
# 6 0.0000 0.0000 0.0000 2.1618 0.0000 13.0792
#
#
#
# Elastic Compliance Matrix: (Units=1/GPa)
#
#
# Indices 1 2 3 4 5 6 
#
# 1 0.098786 0.001665 -0.013997 0.000000 0.029630 0.000000
# 2 0.001665 0.005307 -0.002794 0.000000 0.001774 0.000000
# 3 -0.013997 -0.002794 0.010736 0.000000 -0.005928 0.000000
# 4 0.000000 0.000000 0.000000 0.016045 0.000000 -0.002652
# 5 0.029630 0.001774 -0.005928 0.000000 0.044277 0.000000
# 6 0.000000 0.000000 0.000000 -0.002652 0.000000 0.076896
#
#
# Mechanical properties :
#
#
# Convention : Reuss Voigt Hill
#
# Bulk Modulus (GPa) = 11.82355 60.46768 36.14562
# Shear Modulus (GPa) = 16.10358 39.73529 27.91944
#
# Velocity S-wave (km/s) = 2.61300 4.10455 3.44057
# Velocity P-wave (km/s) = 3.75722 6.93547 5.57752
#
# Compressibility (1/GPa) = 0.08457694
#
# Stress axis : x y z
#
# Youngs Moduli (GPa) = 10.12293 188.42857 93.14679
#
# Poissons Ratio (x) = -0.31370 1.30378
# Poissons Ratio (y) = -0.01685 0.26021
# Poissons Ratio (z) = 0.14169 0.52638
#
# Static dielectric constant tensor:
#      x y z
#    x 2.218980 0.000000 -0.054110 
#    y 0.000000 1.945850 0.000000 
#    z -0.054110 0.000000 1.893070 
# 
# From -- ./inp_files/85629.got.cif
#   From: 2010.05.17/outbox.cif.g08.bks.cpg/sg13_43_cif.got.tgz:85629.got - 2010.06.03 16:44:36.
