data_PCOD9227621
_publ_section_title
;
Structure prediction by ZEFSAII (Michael W. Deem and Ramdas Pophale) SiO2 
 PCOD9227621
Probable space group: P 2/C
;
_chemical_formula_sum "Si O2"
_cell_formula_units_Z 32
_cell_length_a 8.741433
_cell_length_b 13.420386
_cell_length_c 12.554947
_cell_angle_alpha 90.000000
_cell_angle_beta 84.365286
_cell_angle_gamma 90.000000
_cell_volume 1465.746845
_symmetry_space_group_name_H-M "P 2/C"
_symmetry_group_IT_number 13
_symmetry_cell_setting 'monoclinic'
loop_
_space_group_symop_operation_xyz
x,y,z
-x,y,1/2-z
-x,-y,-z
x,-y,1/2+z
loop_
_atom_site_type_symbol
_atom_site_label
_atom_site_fract_x
_atom_site_fract_y
_atom_site_fract_z
Si Si1 0.830000 0.799939 0.944492
Si Si2 0.406137 0.910776 0.065820
Si Si3 0.874855 0.382341 0.926768
Si Si4 0.883852 0.080035 0.062407
Si Si5 0.111052 0.789728 0.323713
Si Si6 0.045951 0.606546 0.627792
Si Si7 0.606417 0.286901 0.835331
Si Si8 0.665064 0.928038 0.775727
O O1 0.822476 0.682347 0.923441
O O2 0.729268 0.862831 0.869341
O O3 0.007035 0.829875 0.910566
O O4 0.821253 0.829363 0.069658
O O5 0.471765 0.802372 0.090937
O O6 0.367775 0.962714 0.178705
O O7 0.247073 0.893278 0.014001
O O8 0.500000 0.000000 0.000000
O O9 0.906224 0.491281 0.877425
O O10 0.700422 0.354896 0.910415
O O11 0.998393 0.302049 0.869734
O O12 0.910285 0.385826 0.049797
O O13 0.786568 0.056962 0.173843
O O14 0.000000 0.000000 0.000000
O O15 0.254176 0.757258 0.244361
O O16 0.000000 0.850892 0.250000
O O17 0.000000 0.635224 0.750000
O O18 0.500000 0.332200 0.750000
O O19 0.500000 0.885730 0.750000
#
# Coordination Sequence:
#
# PCOD9227621 Si02
#       8
#     4   4   4   4   4   4   4   4
#     4  11  24  40  62 101 126 167 222 275 331 393
#     4  12  26  43  62  90 127 180 225 263 340 407
#     4   9  20  40  64 102 124 166 214 275 333 408
#     4  12  25  41  65  91 126 167 228 290 320 390
#     4   9  19  39  63  90 125 160 212 266 334 387
#     4  10  18  36  70  93 131 164 213 271 343 402
#     4  11  24  38  65  92 128 172 220 270 327 396
#     4  12  26  44  60  85 135 176 216 262 335 400
#
# _framework density 21.831873999999999
#
# number of rings (size 3 to 8) (size 9 to 14) (size 15 to 20)
#    0.000    1.250    2.500    4.875    3.500    0.000 
#    0.000    0.625    0.000   10.500    0.000    0.000 
#    0.000    0.000    0.000    0.000    0.000    0.000 
#
# Total GULP energy -178545.736389 kJ/mol
# GULP energy per Si atom -5579.554262 kJ/mol
# Density = 2.178218 g / cm^3
# Si number density = 21.831874 Si / 1000 Ang^3
#
#
#
# Elastic Constant Matrix: (Units=GPa)
#
#
# Indices 1 2 3 4 5 6 
#
# 1 106.5347 23.6325 35.1810 0.0000 29.7835 0.0000
# 2 23.6325 86.8259 19.9239 0.0000 17.2731 0.0000
# 3 35.1810 19.9239 142.8407 0.0000 15.5384 0.0000
# 4 0.0000 0.0000 0.0000 26.1501 0.0000 6.1037
# 5 29.7835 17.2731 15.5384 0.0000 53.3067 0.0000
# 6 0.0000 0.0000 0.0000 6.1037 0.0000 8.7970
#
#
#
# Elastic Compliance Matrix: (Units=1/GPa)
#
#
# Indices 1 2 3 4 5 6 
#
# 1 0.012010 -0.001679 -0.002120 0.000000 -0.005548 0.000000
# 2 -0.001679 0.012793 -0.001056 0.000000 -0.002900 0.000000
# 3 -0.002120 -0.001056 0.007750 0.000000 -0.000732 0.000000
# 4 0.000000 0.000000 0.000000 0.045631 0.000000 -0.031660
# 5 -0.005548 -0.002900 -0.000732 0.000000 0.023013 0.000000
# 6 0.000000 0.000000 0.000000 -0.031660 0.000000 0.135643
#
#
# Mechanical properties :
#
#
# Convention : Reuss Voigt Hill
#
# Bulk Modulus (GPa) = 43.77436 54.85291 49.31364
# Shear Modulus (GPa) = 19.67237 34.81501 27.24369
#
# Velocity S-wave (km/s) = 3.00506 3.99769 3.53637
# Velocity P-wave (km/s) = 5.66875 6.81824 6.26989
#
# Compressibility (1/GPa) = 0.02284442
#
# Stress axis : x y z
#
# Youngs Moduli (GPa) = 83.26154 78.16583 129.03330
#
# Poissons Ratio (x) = 0.13121 0.27360
# Poissons Ratio (y) = 0.13977 0.13620
# Poissons Ratio (z) = 0.17655 0.08251
#
# Static dielectric constant tensor:
#      x y z
#    x 1.839100 0.000000 0.000740 
#    y 0.000000 1.859520 0.000000 
#    z 0.000740 0.000000 1.857970 
# 
# From -- ./inp_files/30399.got.cif
#   From: 2010.05.17/outbox.cif.g08.bks.cpg/sg13_16_cif.got.tgz:30399.got - 2010.06.03 16:44:36.
