data_PCOD9227478
_publ_section_title
;
Structure prediction by ZEFSAII (Michael W. Deem and Ramdas Pophale) SiO2 
 PCOD9227478
Probable space group: P 2/C
;
_chemical_formula_sum "Si O2"
_cell_formula_units_Z 32
_cell_length_a 8.812910
_cell_length_b 10.420502
_cell_length_c 30.110939
_cell_angle_alpha 90.000000
_cell_angle_beta 151.307573
_cell_angle_gamma 90.000000
_cell_volume 1327.610925
_symmetry_space_group_name_H-M "P 2/C"
_symmetry_group_IT_number 13
_symmetry_cell_setting 'monoclinic'
loop_
_space_group_symop_operation_xyz
x,y,z
-x,y,1/2-z
-x,-y,-z
x,-y,1/2+z
loop_
_atom_site_type_symbol
_atom_site_label
_atom_site_fract_x
_atom_site_fract_y
_atom_site_fract_z
Si Si1 0.776570 0.807173 0.875812
Si Si2 0.932477 0.588716 0.439982
Si Si3 0.295185 0.039181 0.402755
Si Si4 0.581326 0.935693 0.227390
Si Si5 0.476218 0.270977 0.388876
Si Si6 0.763718 0.473292 0.719592
Si Si7 0.139886 0.565676 0.661362
Si Si8 0.286555 0.900436 0.062187
O O1 0.670670 0.946135 0.832552
O O2 0.520657 0.782737 0.849624
O O3 0.828206 0.711928 0.847829
O O4 0.107603 0.796562 0.986745
O O5 0.554817 0.596565 0.346891
O O6 0.033976 0.512949 0.421492
O O7 0.000000 0.500000 0.500000
O O8 0.164203 0.709576 0.501599
O O9 0.306788 0.184094 0.383190
O O10 0.938247 0.987766 0.316115
O O11 0.500000 0.000000 0.500000
O O12 0.469314 0.966126 0.407895
O O13 0.500000 0.852943 0.250000
O O14 0.473348 0.870858 0.154413
O O15 0.336484 0.409333 0.339247
O O16 0.931836 0.532040 0.806625
O O17 0.000000 0.391208 0.750000
O O18 0.500000 0.520922 0.750000
O O19 0.000000 0.000000 0.000000
#
# Coordination Sequence:
#
# PCOD9227478 Si02
#       8
#     4   4   4   4   4   4   4   4
#     4  11  20  35  65  93 124 170 220 273 344 399
#     4   9  18  38  60  90 126 176 214 272 344 403
#     4  12  25  40  64  96 131 170 225 279 345 411
#     4  11  24  38  63  91 129 166 220 279 342 402
#     4  11  22  37  66  93 127 170 222 279 337 409
#     4  10  22  35  64 100 135 167 225 286 339 394
#     4  10  18  35  64  96 126 167 222 272 331 403
#     4  10  21  38  58  89 125 169 209 276 340 395
#
# _framework density 24.103449999999999
#
# number of rings (size 3 to 8) (size 9 to 14) (size 15 to 20)
#    0.000    1.500    6.250    2.250    1.750    1.000 
#    0.000    2.500   13.750    0.000    0.000    0.000 
#    0.000    0.000    0.000    0.000    0.000    0.000 
#
# Total GULP energy -178313.560123 kJ/mol
# GULP energy per Si atom -5572.298754 kJ/mol
# Density = 2.404859 g / cm^3
# Si number density = 24.103450 Si / 1000 Ang^3
#
#
#
# Elastic Constant Matrix: (Units=GPa)
#
#
# Indices 1 2 3 4 5 6 
#
# 1 173.9752 27.3461 62.6064 0.0000 -13.4151 0.0000
# 2 27.3461 60.0518 22.2849 0.0000 -7.3227 0.0000
# 3 62.6064 22.2849 136.4034 0.0000 -15.8702 0.0000
# 4 0.0000 0.0000 0.0000 28.8326 0.0000 -5.5582
# 5 -13.4151 -7.3227 -15.8702 0.0000 47.0349 0.0000
# 6 0.0000 0.0000 0.0000 -5.5582 0.0000 20.9285
#
#
#
# Elastic Compliance Matrix: (Units=1/GPa)
#
#
# Indices 1 2 3 4 5 6 
#
# 1 0.007166 -0.002111 -0.002857 0.000000 0.000751 0.000000
# 2 -0.002111 0.018506 -0.001862 0.000000 0.001651 0.000000
# 3 -0.002857 -0.001862 0.009178 0.000000 0.001992 0.000000
# 4 0.000000 0.000000 0.000000 0.036554 0.000000 0.009708
# 5 0.000751 0.001651 0.001992 0.000000 0.022404 0.000000
# 6 0.000000 0.000000 0.000000 0.009708 0.000000 0.050360
#
#
# Mechanical properties :
#
#
# Convention : Reuss Voigt Hill
#
# Bulk Modulus (GPa) = 47.19290 66.10058 56.64674
# Shear Modulus (GPa) = 30.32278 36.57206 33.44742
#
# Velocity S-wave (km/s) = 3.55071 3.89947 3.72917
# Velocity P-wave (km/s) = 6.03589 6.91070 6.48805
#
# Compressibility (1/GPa) = 0.02118963
#
# Stress axis : x y z
#
# Youngs Moduli (GPa) = 139.55346 54.03610 108.95212
#
# Poissons Ratio (x) = 0.11409 0.31123
# Poissons Ratio (y) = 0.29466 0.20290
# Poissons Ratio (z) = 0.39864 0.10063
#
# Static dielectric constant tensor:
#      x y z
#    x 1.486770 0.000000 0.338270 
#    y 0.000000 2.171640 0.000000 
#    z 0.338270 0.000000 1.762450 
# 
# From -- ./inp_files/96148.got.cif
#   From: 2010.05.17/outbox.cif.g08.bks.cpg/sg13_49_cif.got.tgz:96148.got - 2010.06.03 16:44:36.
