data_PCOD9227376
_publ_section_title
;
Structure prediction by ZEFSAII (Michael W. Deem and Ramdas Pophale) SiO2 
 PCOD9227376
Probable space group: P 2/C
;
_chemical_formula_sum "Si O2"
_cell_formula_units_Z 18
_cell_length_a 5.273224
_cell_length_b 8.048843
_cell_length_c 21.738619
_cell_angle_alpha 90.000000
_cell_angle_beta 127.691624
_cell_angle_gamma 90.000000
_cell_volume 730.112671
_symmetry_space_group_name_H-M "P 2/C"
_symmetry_group_IT_number 13
_symmetry_cell_setting 'monoclinic'
loop_
_space_group_symop_operation_xyz
x,y,z
-x,y,1/2-z
-x,-y,-z
x,-y,1/2+z
loop_
_atom_site_type_symbol
_atom_site_label
_atom_site_fract_x
_atom_site_fract_y
_atom_site_fract_z
Si Si1 0.157357 0.150630 0.162511
Si Si2 0.000000 0.047775 0.750000
Si Si3 0.297166 0.505217 0.158658
Si Si4 0.639326 0.433188 0.957863
Si Si5 0.670692 0.161323 0.879444
O O1 0.500000 0.154346 0.250000
O O2 0.092779 0.336629 0.131733
O O3 0.182304 0.017415 0.111465
O O4 0.937687 0.069716 0.181979
O O5 0.321646 0.154336 0.795067
O O6 0.500000 0.508502 0.250000
O O7 0.516060 0.495953 0.129069
O O8 0.141127 0.688123 0.127354
O O9 0.636896 0.235732 0.942916
O O10 0.500000 0.500000 0.000000
O O11 0.000000 0.500000 0.000000
#
# Coordination Sequence:
#
# PCOD9227376 Si02
#       5
#     4   2   4   4   4
#     4   9  18  36  54  95 126 155 208 273 326 380
#     4  10  18  34  64  96 128 158 216 288 324 382
#     4   9  19  39  63  91 121 167 217 264 320 388
#     4  10  24  44  63  93 133 174 217 268 321 395
#     4   9  21  35  63  85 129 161 211 259 332 375
#
# _framework density 24.653728000000001
#
# number of rings (size 3 to 8) (size 9 to 14) (size 15 to 20)
#    1.333    1.333    0.000    2.000    3.111    0.000 
#   12.000    7.778    0.000    0.000    0.000    0.000 
#    0.000    0.000    0.000    0.000    0.000    0.000 
#
# Total GULP energy -100236.489592 kJ/mol
# GULP energy per Si atom -5568.693866 kJ/mol
# Density = 2.459761 g / cm^3
# Si number density = 24.653728 Si / 1000 Ang^3
#
#
#
# Elastic Constant Matrix: (Units=GPa)
#
#
# Indices 1 2 3 4 5 6 
#
# 1 95.6624 40.0487 41.8183 0.0000 -32.8836 0.0000
# 2 40.0487 157.8880 29.3382 0.0000 2.6647 0.0000
# 3 41.8183 29.3382 82.5309 0.0000 -29.8850 0.0000
# 4 0.0000 0.0000 0.0000 30.1191 0.0000 0.2119
# 5 -32.8836 2.6647 -29.8850 0.0000 41.8442 0.0000
# 6 0.0000 0.0000 0.0000 0.2119 0.0000 11.3313
#
#
#
# Elastic Compliance Matrix: (Units=1/GPa)
#
#
# Indices 1 2 3 4 5 6 
#
# 1 0.017622 -0.004075 -0.003199 0.000000 0.011823 0.000000
# 2 -0.004075 0.007996 -0.002862 0.000000 -0.005755 0.000000
# 3 -0.003199 -0.002862 0.018763 0.000000 0.011069 0.000000
# 4 0.000000 0.000000 0.000000 0.033206 0.000000 -0.000621
# 5 0.011823 -0.005755 0.011069 0.000000 0.041461 0.000000
# 6 0.000000 0.000000 0.000000 -0.000621 0.000000 0.088262
#
#
# Mechanical properties :
#
#
# Convention : Reuss Voigt Hill
#
# Bulk Modulus (GPa) = 41.47794 62.05464 51.76629
# Shear Modulus (GPa) = 21.22068 31.65066 26.43567
#
# Velocity S-wave (km/s) = 2.93704 3.58691 3.27812
# Velocity P-wave (km/s) = 5.32563 6.50997 5.94735
#
# Compressibility (1/GPa) = 0.02410920
#
# Stress axis : x y z
#
# Youngs Moduli (GPa) = 56.74698 125.06052 53.29608
#
# Poissons Ratio (x) = 0.50961 0.17051
# Poissons Ratio (y) = 0.23124 0.15252
# Poissons Ratio (z) = 0.18155 0.35790
#
# Static dielectric constant tensor:
#      x y z
#    x 1.996070 0.000000 -0.045010 
#    y 0.000000 1.980660 0.000000 
#    z -0.045010 0.000000 2.079920 
# 
# From -- ./inp_files/83156.got.cif
#   From: 2010.05.17/outbox.cif.g08.bks.cpg/sg13_42_cif.got.tgz:83156.got - 2010.06.03 16:44:36.
