data_PCOD9227163
_publ_section_title
;
Structure prediction by ZEFSAII (Michael W. Deem and Ramdas Pophale) SiO2 
 PCOD9227163
Probable space group: P 2/C
;
_chemical_formula_sum "Si O2"
_cell_formula_units_Z 24
_cell_length_a 11.619090
_cell_length_b 10.017091
_cell_length_c 19.060512
_cell_angle_alpha 90.000000
_cell_angle_beta 27.715481
_cell_angle_gamma 90.000000
_cell_volume 1031.756313
_symmetry_space_group_name_H-M "P 2/C"
_symmetry_group_IT_number 13
_symmetry_cell_setting 'monoclinic'
loop_
_space_group_symop_operation_xyz
x,y,z
-x,y,1/2-z
-x,-y,-z
x,-y,1/2+z
loop_
_atom_site_type_symbol
_atom_site_label
_atom_site_fract_x
_atom_site_fract_y
_atom_site_fract_z
Si Si1 0.287740 0.736054 0.012695
Si Si2 0.154087 0.021316 0.232369
Si Si3 0.842149 0.564204 0.907711
Si Si4 0.522388 0.210823 0.944584
Si Si5 0.207839 0.908226 0.927227
Si Si6 0.142305 0.749521 0.838701
O O1 0.293180 0.741713 0.094185
O O2 0.187206 0.861363 0.020133
O O3 0.574270 0.736365 0.835939
O O4 0.192565 0.588002 0.051507
O O5 0.000000 0.966822 0.250000
O O6 0.319258 0.126551 0.097351
O O7 0.037844 0.119921 0.352682
O O8 0.328317 0.908718 0.174269
O O9 0.602308 0.661190 0.024316
O O10 0.000000 0.573081 0.750000
O O11 0.990431 0.629834 0.890685
O O12 0.500000 0.945416 0.750000
O O13 0.150588 0.771236 0.916511
O O14 0.000000 0.000000 0.000000
#
# Coordination Sequence:
#
# PCOD9227163 Si02
#       6
#     4   4   4   4   4   4
#     4  10  23  40  59  91 128 172 217 267 336 398
#     4  10  18  33  56  90 121 158 202 264 334 379
#     4  12  21  39  62  89 130 174 211 270 332 407
#     4  10  20  34  59  90 129 160 213 265 330 396
#     4  10  24  46  71  96 130 176 221 282 333 397
#     4  10  21  41  64  86 130 167 218 274 335 390
#
# _framework density 23.261306999999999
#
# number of rings (size 3 to 8) (size 9 to 14) (size 15 to 20)
#    0.000    1.667    5.000    0.500    2.333    4.000 
#    0.000    1.667    0.000    0.000    0.000    0.000 
#    0.000    0.000    0.000    0.000    0.000    0.000 
#
# Total GULP energy -133642.880771 kJ/mol
# GULP energy per Si atom -5568.453365 kJ/mol
# Density = 2.320836 g / cm^3
# Si number density = 23.261307 Si / 1000 Ang^3
#
#
#
# Elastic Constant Matrix: (Units=GPa)
#
#
# Indices 1 2 3 4 5 6 
#
# 1 84.4276 11.2844 23.5710 0.0000 -13.1075 0.0000
# 2 11.2844 103.9842 8.6875 0.0000 -23.5340 0.0000
# 3 23.5710 8.6875 23.4174 0.0000 -22.6708 0.0000
# 4 0.0000 0.0000 0.0000 -1.6007 0.0000 18.3705
# 5 -13.1075 -23.5340 -22.6708 0.0000 31.9551 0.0000
# 6 0.0000 0.0000 0.0000 18.3705 0.0000 1.4008
#
#
#
# Elastic Compliance Matrix: (Units=1/GPa)
#
#
# Indices 1 2 3 4 5 6 
#
# 1 0.021065 -0.004656 -0.046081 0.000000 -0.027480 0.000000
# 2 -0.004656 0.013865 0.024202 0.000000 0.025472 0.000000
# 3 -0.046081 0.024202 0.252473 0.000000 0.178042 0.000000
# 4 0.000000 0.000000 0.000000 -0.004124 0.000000 0.054076
# 5 -0.027480 0.025472 0.178042 0.000000 0.165095 0.000000
# 6 0.000000 0.000000 0.000000 0.054076 0.000000 0.004712
#
#
# Mechanical properties :
#
#
# Convention : Reuss Voigt Hill
#
# Bulk Modulus (GPa) = 4.26737 33.21278 18.74008
# Shear Modulus (GPa) = 8.55774 17.57015 13.06395
#
# Velocity S-wave (km/s) = 1.92014 2.75132 2.37242
# Velocity P-wave (km/s) = 2.59893 4.93985 3.94694
#
# Compressibility (1/GPa) = 0.23433631
#
# Stress axis : x y z
#
# Youngs Moduli (GPa) = 47.47117 72.12435 3.96081
#
# Poissons Ratio (x) = 0.33578 0.18252
# Poissons Ratio (y) = 0.22100 -0.09586
# Poissons Ratio (z) = 2.18750 -1.74558
#
# Static dielectric constant tensor:
#      x y z
#    x 2.053790 0.000000 -0.062680 
#    y 0.000000 1.973730 0.000000 
#    z -0.062680 0.000000 2.048420 
# 
# From -- ./inp_files/86269.got.cif
#   From: 2010.05.17/outbox.cif.g08.bks.cpg/sg13_44_cif.got.tgz:86269.got - 2010.06.03 16:44:36.
