data_PCOD9227032
_publ_section_title
;
Structure prediction by ZEFSAII (Michael W. Deem and Ramdas Pophale) SiO2 
 PCOD9227032
Probable space group: P 2/C
;
_chemical_formula_sum "Si O2"
_cell_formula_units_Z 28
_cell_length_a 24.770972
_cell_length_b 9.059882
_cell_length_c 19.698903
_cell_angle_alpha 90.000000
_cell_angle_beta 159.633465
_cell_angle_gamma 90.000000
_cell_volume 1538.570872
_symmetry_space_group_name_H-M "P 2/C"
_symmetry_group_IT_number 13
_symmetry_cell_setting 'monoclinic'
loop_
_space_group_symop_operation_xyz
x,y,z
-x,y,1/2-z
-x,-y,-z
x,-y,1/2+z
loop_
_atom_site_type_symbol
_atom_site_label
_atom_site_fract_x
_atom_site_fract_y
_atom_site_fract_z
Si Si1 0.039654 0.828181 0.542688
Si Si2 0.442228 0.333673 0.291448
Si Si3 0.500000 0.084247 0.250000
Si Si4 0.477915 0.149812 0.930189
Si Si5 0.657811 0.162516 0.008430
Si Si6 0.260665 0.664735 0.256520
Si Si7 0.759676 0.665058 0.821221
Si Si8 0.500000 0.421916 0.750000
O O1 0.101661 0.766055 0.543683
O O2 0.890732 0.734124 0.388231
O O3 0.183468 0.816144 0.764264
O O4 0.000000 0.000000 0.500000
O O5 0.457273 0.190290 0.262108
O O6 0.596360 0.342885 0.520978
O O7 0.290078 0.329313 0.159149
O O8 0.439879 0.473810 0.239123
O O9 0.359356 0.977183 0.061403
O O10 0.519472 0.131689 0.900418
O O11 0.318550 0.226031 0.764683
O O12 0.608186 0.266048 0.106860
O O13 0.500000 0.000000 0.000000
O O14 0.625019 0.311473 0.929163
O O15 0.225559 0.502632 0.186472
#
# Coordination Sequence:
#
# PCOD9227032 Si02
#       8
#     4   4   2   4   4   4   4   2
#     4  11  22  36  57  83 111 140 175 233 285 322
#     4  10  19  35  57  83 105 139 184 219 272 316
#     4  10  20  32  56  78 108 146 182 222 248 328
#     4  10  18  32  56  83 110 139 180 232 271 314
#     4  10  20  36  54  81 109 143 184 215 272 321
#     4  11  20  34  59  86 111 137 176 235 283 320
#     4  10  20  34  54  82 110 138 179 230 274 319
#     4  10  20  34  58  78 110 146 180 222 250 332
#
# _framework density 18.198706000000001
#
# number of rings (size 3 to 8) (size 9 to 14) (size 15 to 20)
#    0.000    1.714    0.000    9.000    0.000    0.000 
#    0.000    0.000    0.000   29.143    0.000    0.000 
#    0.000    0.000    0.000    0.000    0.000    0.000 
#
# Total GULP energy -156144.873901 kJ/mol
# GULP energy per Si atom -5576.602639 kJ/mol
# Density = 1.815729 g / cm^3
# Si number density = 18.198706 Si / 1000 Ang^3
#
#
#
# Elastic Constant Matrix: (Units=GPa)
#
#
# Indices 1 2 3 4 5 6 
#
# 1 104.6133 61.0790 46.9989 0.0000 19.5291 0.0000
# 2 61.0790 152.7311 31.9140 0.0000 13.8740 0.0000
# 3 46.9989 31.9140 62.5515 0.0000 21.9166 0.0000
# 4 0.0000 0.0000 0.0000 20.3290 0.0000 -3.4016
# 5 19.5291 13.8740 21.9166 0.0000 35.0264 0.0000
# 6 0.0000 0.0000 0.0000 -3.4016 0.0000 27.3121
#
#
#
# Elastic Compliance Matrix: (Units=1/GPa)
#
#
# Indices 1 2 3 4 5 6 
#
# 1 0.016945 -0.004579 -0.009889 0.000000 -0.001446 0.000000
# 2 -0.004579 0.008580 -0.000821 0.000000 -0.000332 0.000000
# 3 -0.009889 -0.000821 0.027909 0.000000 -0.011624 0.000000
# 4 0.000000 0.000000 0.000000 0.050238 0.000000 0.006257
# 5 -0.001446 -0.000332 -0.011624 0.000000 0.036761 0.000000
# 6 0.000000 0.000000 0.000000 0.006257 0.000000 0.037393
#
#
# Mechanical properties :
#
#
# Convention : Reuss Voigt Hill
#
# Bulk Modulus (GPa) = 43.75125 66.65329 55.20227
# Shear Modulus (GPa) = 23.14569 28.52711 25.83640
#
# Velocity S-wave (km/s) = 3.57014 3.96351 3.77196
# Velocity P-wave (km/s) = 6.40996 7.59280 7.02632
#
# Compressibility (1/GPa) = 0.02285649
#
# Stress axis : x y z
#
# Youngs Moduli (GPa) = 59.01379 116.54609 35.83098
#
# Poissons Ratio (x) = 0.53364 0.35434
# Poissons Ratio (y) = 0.27021 0.02942
# Poissons Ratio (z) = 0.58359 0.09568
#
# Static dielectric constant tensor:
#      x y z
#    x 1.688430 0.000000 -0.010370 
#    y 0.000000 1.630080 0.000000 
#    z -0.010370 0.000000 1.612060 
# 
# From -- ./inp_files/82265.got.cif
#   From: 2010.05.17/outbox.cif.g08.bks.cpg/sg13_42_cif.got.tgz:82265.got - 2010.06.03 16:44:36.
