data_PCOD9227740
_publ_section_title
;
Structure prediction by ZEFSAII (Michael W. Deem and Ramdas Pophale) SiO2 
 PCOD9227740
Probable space group: P 2/C
;
_chemical_formula_sum "Si O2"
_cell_formula_units_Z 30
_cell_length_a 15.890008
_cell_length_b 6.702714
_cell_length_c 13.983123
_cell_angle_alpha 90.000000
_cell_angle_beta 77.937888
_cell_angle_gamma 90.000000
_cell_volume 1456.407940
_symmetry_space_group_name_H-M "P 2/C"
_symmetry_group_IT_number 13
_symmetry_cell_setting 'monoclinic'
loop_
_space_group_symop_operation_xyz
x,y,z
-x,y,1/2-z
-x,-y,-z
x,-y,1/2+z
loop_
_atom_site_type_symbol
_atom_site_label
_atom_site_fract_x
_atom_site_fract_y
_atom_site_fract_z
Si Si1 0.210056 0.483874 0.537202
Si Si2 0.343855 0.265623 0.880686
Si Si3 0.408898 0.908754 0.989941
Si Si4 0.328128 0.343958 0.665730
Si Si5 0.505110 0.561534 0.645575
Si Si6 0.035236 0.735228 0.576769
Si Si7 0.920570 0.809044 0.419777
Si Si8 0.000000 0.534696 0.250000
O O1 0.281106 0.586230 0.453717
O O2 0.250684 0.458889 0.632621
O O3 0.987992 0.742358 0.486019
O O4 0.172959 0.262995 0.520940
O O5 0.314512 0.271388 0.777208
O O6 0.438960 0.361999 0.857166
O O7 0.357048 0.056096 0.931824
O O8 0.352619 0.845184 0.094248
O O9 0.440541 0.704937 0.933754
O O10 0.500000 0.000000 0.000000
O O11 0.409664 0.495206 0.640914
O O12 0.500000 0.663979 0.750000
O O13 0.125699 0.620607 0.550517
O O14 0.977626 0.617479 0.668803
O O15 0.059986 0.959860 0.599999
O O16 0.935473 0.687018 0.318099
#
# Coordination Sequence:
#
# PCOD9227740 Si02
#       8
#     4   4   4   4   4   4   4   2
#     4  11  23  41  65  91 136 172 209 273 334 389
#     4  11  25  43  62  94 132 169 221 272 329 390
#     4  12  23  38  68  89 127 173 225 274 325 386
#     4  11  24  43  63  95 132 171 223 278 331 391
#     4  10  22  41  62  90 123 169 217 271 325 382
#     4  10  23  42  70  97 129 170 218 264 327 394
#     4  10  23  43  69  97 130 166 216 269 322 394
#     4  10  18  38  68  98 124 160 204 258 318 384
#
# _framework density 20.598624000000001
#
# number of rings (size 3 to 8) (size 9 to 14) (size 15 to 20)
#    0.000    1.333    2.667    3.200    3.733    4.267 
#    0.000    0.000    2.933    0.000    0.000    0.000 
#    0.000    0.000    0.000    0.000    0.000    0.000 
#
# Total GULP energy -167267.695624 kJ/mol
# GULP energy per Si atom -5575.589854 kJ/mol
# Density = 2.055174 g / cm^3
# Si number density = 20.598624 Si / 1000 Ang^3
#
#
#
# Elastic Constant Matrix: (Units=GPa)
#
#
# Indices 1 2 3 4 5 6 
#
# 1 115.6899 27.0566 32.7064 0.0000 10.7384 0.0000
# 2 27.0566 94.6196 45.7605 0.0000 9.1358 0.0000
# 3 32.7064 45.7605 118.3554 0.0000 16.4247 0.0000
# 4 0.0000 0.0000 0.0000 33.2080 0.0000 2.8241
# 5 10.7384 9.1358 16.4247 0.0000 24.4943 0.0000
# 6 0.0000 0.0000 0.0000 2.8241 0.0000 24.0853
#
#
#
# Elastic Compliance Matrix: (Units=1/GPa)
#
#
# Indices 1 2 3 4 5 6 
#
# 1 0.009757 -0.001737 -0.001677 0.000000 -0.002505 0.000000
# 2 -0.001737 0.013368 -0.004523 0.000000 -0.001191 0.000000
# 3 -0.001677 -0.004523 0.011385 0.000000 -0.005212 0.000000
# 4 0.000000 0.000000 0.000000 0.030417 0.000000 -0.003566
# 5 -0.002505 -0.001191 -0.005212 0.000000 0.045863 0.000000
# 6 0.000000 0.000000 0.000000 -0.003566 0.000000 0.041937
#
#
# Mechanical properties :
#
#
# Convention : Reuss Voigt Hill
#
# Bulk Modulus (GPa) = 53.66283 59.96800 56.81542
# Shear Modulus (GPa) = 28.60214 31.23359 29.91786
#
# Velocity S-wave (km/s) = 3.73036 3.89819 3.81520
# Velocity P-wave (km/s) = 6.68299 7.03114 6.85928
#
# Compressibility (1/GPa) = 0.01863487
#
# Stress axis : x y z
#
# Youngs Moduli (GPa) = 102.49426 74.80605 87.83784
#
# Poissons Ratio (x) = 0.12994 0.14730
# Poissons Ratio (y) = 0.17804 0.39731
# Poissons Ratio (z) = 0.17187 0.33836
#
# Static dielectric constant tensor:
#      x y z
#    x 1.775710 0.000000 -0.038090 
#    y 0.000000 1.789180 0.000000 
#    z -0.038090 0.000000 1.838470 
# 
# From -- ./inp_files/56554.got.cif
#   From: 2010.05.17/outbox.cif.g08.bks.cpg/sg13_29_cif.got.tgz:56554.got - 2010.06.03 16:44:36.
