data_PCOD9227048
_publ_section_title
;
Structure prediction by ZEFSAII (Michael W. Deem and Ramdas Pophale) SiO2 
 PCOD9227048
Probable space group: P 2/C
;
_chemical_formula_sum "Si O2"
_cell_formula_units_Z 24
_cell_length_a 7.749527
_cell_length_b 9.226588
_cell_length_c 16.869340
_cell_angle_alpha 90.000000
_cell_angle_beta 55.524958
_cell_angle_gamma 90.000000
_cell_volume 994.347277
_symmetry_space_group_name_H-M "P 2/C"
_symmetry_group_IT_number 13
_symmetry_cell_setting 'monoclinic'
loop_
_space_group_symop_operation_xyz
x,y,z
-x,y,1/2-z
-x,-y,-z
x,-y,1/2+z
loop_
_atom_site_type_symbol
_atom_site_label
_atom_site_fract_x
_atom_site_fract_y
_atom_site_fract_z
Si Si1 0.514174 0.167535 0.413895
Si Si2 0.596891 0.115778 0.641187
Si Si3 0.731315 0.666877 0.273859
Si Si4 0.817640 0.330542 0.231465
Si Si5 0.113005 0.141323 0.066894
Si Si6 0.094656 0.184811 0.610979
O O1 0.608945 0.252889 0.315498
O O2 0.675804 0.197192 0.443834
O O3 0.277980 0.207168 0.499251
O O4 0.516265 0.997767 0.390700
O O5 0.500000 0.060841 0.750000
O O6 0.504858 0.277965 0.661086
O O7 0.824768 0.113114 0.540383
O O8 0.770372 0.500417 0.245353
O O9 0.817051 0.726431 0.335738
O O10 0.859099 0.754165 0.173256
O O11 0.000000 0.306301 0.250000
O O12 0.923429 0.252579 0.128837
O O13 0.067222 0.989031 0.122882
#
# Coordination Sequence:
#
# PCOD9227048 Si02
#       6
#     4   4   4   4   4   4
#     4  10  19  36  57  86 111 149 191 242 284 329
#     4  11  22  39  60  83 112 155 198 232 278 342
#     4  11  20  34  52  90 117 146 183 236 286 340
#     4  10  21  32  57  89 121 143 184 238 293 336
#     4  10  19  36  58  85 114 150 187 242 287 325
#     4  10  18  32  57  81 115 140 189 233 289 321
#
# _framework density 24.136436
#
# number of rings (size 3 to 8) (size 9 to 14) (size 15 to 20)
#    0.000    1.667    5.000    2.000    4.667    2.000 
#    0.000    9.167    0.000    0.000    0.000    0.000 
#    0.000    0.000    0.000    0.000    0.000    0.000 
#
# Total GULP energy -133892.330256 kJ/mol
# GULP energy per Si atom -5578.847094 kJ/mol
# Density = 2.408150 g / cm^3
# Si number density = 24.136436 Si / 1000 Ang^3
#
#
#
# Elastic Constant Matrix: (Units=GPa)
#
#
# Indices 1 2 3 4 5 6 
#
# 1 48.1348 3.5230 54.0339 0.0000 -12.4020 0.0000
# 2 3.5230 154.9140 99.1241 0.0000 -21.4176 0.0000
# 3 54.0339 99.1241 204.4135 0.0000 -31.1408 0.0000
# 4 0.0000 0.0000 0.0000 -1.9947 0.0000 -26.7580
# 5 -12.4020 -21.4176 -31.1408 0.0000 51.8250 0.0000
# 6 0.0000 0.0000 0.0000 -26.7580 0.0000 15.8118
#
#
#
# Elastic Compliance Matrix: (Units=1/GPa)
#
#
# Indices 1 2 3 4 5 6 
#
# 1 0.035227 0.007723 -0.012423 0.000000 0.004156 0.000000
# 2 0.007723 0.011127 -0.007106 0.000000 0.002177 0.000000
# 3 -0.012423 -0.007106 0.011802 0.000000 0.001182 0.000000
# 4 0.000000 0.000000 0.000000 -0.021152 0.000000 -0.035795
# 5 0.004156 0.002177 0.001182 0.000000 0.021900 0.000000
# 6 0.000000 0.000000 0.000000 -0.035795 0.000000 0.002668
#
#
# Mechanical properties :
#
#
# Convention : Reuss Voigt Hill
#
# Bulk Modulus (GPa) = 28.94923 80.09158 54.52041
# Shear Modulus (GPa) = 51.70699 29.84718 40.77708
#
# Velocity S-wave (km/s) = 4.63350 3.52035 4.11474
# Velocity P-wave (km/s) = 6.37540 7.05540 6.72400
#
# Compressibility (1/GPa) = 0.03454323
#
# Stress axis : x y z
#
# Youngs Moduli (GPa) = 28.38760 89.87034 84.73361
#
# Poissons Ratio (x) = -0.69406 1.05268
# Poissons Ratio (y) = -0.21923 0.60208
# Poissons Ratio (z) = 0.35267 0.63858
#
# Static dielectric constant tensor:
#      x y z
#    x 2.149670 0.000000 0.050520 
#    y 0.000000 1.862020 0.000000 
#    z 0.050520 0.000000 1.924480 
# 
# From -- ./inp_files/53204.got.cif
#   From: 2010.05.17/outbox.cif.g08.bks.cpg/sg13_27_cif.got.tgz:53204.got - 2010.06.03 16:44:36.
