data_PCOD9227112
_publ_section_title
;
Structure prediction by ZEFSAII (Michael W. Deem and Ramdas Pophale) SiO2 
 PCOD9227112
Probable space group: P 2/C
;
_chemical_formula_sum "Si O2"
_cell_formula_units_Z 28
_cell_length_a 19.901802
_cell_length_b 11.419941
_cell_length_c 21.449182
_cell_angle_alpha 90.000000
_cell_angle_beta 19.653010
_cell_angle_gamma 90.000000
_cell_volume 1639.545923
_symmetry_space_group_name_H-M "P 2/C"
_symmetry_group_IT_number 13
_symmetry_cell_setting 'monoclinic'
loop_
_space_group_symop_operation_xyz
x,y,z
-x,y,1/2-z
-x,-y,-z
x,-y,1/2+z
loop_
_atom_site_type_symbol
_atom_site_label
_atom_site_fract_x
_atom_site_fract_y
_atom_site_fract_z
Si Si1 0.894860 0.336270 0.634459
Si Si2 0.349348 0.298885 0.825450
Si Si3 0.399476 0.975514 0.271384
Si Si4 0.004874 0.932660 0.062383
Si Si5 0.545708 0.326601 0.521030
Si Si6 0.027709 0.426130 0.382007
Si Si7 0.630481 0.946834 0.942554
O O1 0.653755 0.351400 0.844781
O O2 0.991165 0.433995 0.594800
O O3 0.942662 0.201733 0.606840
O O4 0.979543 0.368516 0.491794
O O5 0.500000 0.319065 0.750000
O O6 0.318272 0.158647 0.846587
O O7 0.462494 0.338487 0.663842
O O8 0.139875 0.366260 0.014580
O O9 0.500000 0.003125 0.250000
O O10 0.218658 0.057214 0.408083
O O11 0.550528 0.977592 0.081029
O O12 0.848222 0.001444 0.241998
O O13 0.000000 0.000000 0.000000
O O14 0.744535 0.399468 0.334906
O O15 0.612032 0.192454 0.452867
O O16 0.500000 0.000000 0.000000
#
# Coordination Sequence:
#
# PCOD9227112 Si02
#       7
#     4   4   4   4   4   4   4
#     4  10  21  33  50  80 110 132 175 223 263 322
#     4   9  19  36  54  77 105 135 180 223 258 321
#     4  10  22  37  54  82 115 144 177 225 280 328
#     4  12  20  34  58  82 110 144 180 229 275 322
#     4  10  18  33  53  79 106 134 172 225 270 315
#     4  10  20  34  52  76 105 141 173 215 277 310
#     4  11  19  32  56  86 106 137 187 220 272 332
#
# _framework density 17.077898999999999
#
# number of rings (size 3 to 8) (size 9 to 14) (size 15 to 20)
#    0.000    1.714    2.857    3.857    0.000    1.143 
#    0.000    5.000    0.000    1.714    0.000    0.000 
#    0.000    0.000    0.000    0.000    0.000    0.000 
#
# Total GULP energy -156151.022643 kJ/mol
# GULP energy per Si atom -5576.822237 kJ/mol
# Density = 1.703903 g / cm^3
# Si number density = 17.077899 Si / 1000 Ang^3
#
#
#
# Elastic Constant Matrix: (Units=GPa)
#
#
# Indices 1 2 3 4 5 6 
#
# 1 79.0719 37.1106 23.1071 0.0000 -11.0052 0.0000
# 2 37.1106 77.4434 46.8347 0.0000 -4.2870 0.0000
# 3 23.1071 46.8347 85.0637 0.0000 -11.0232 0.0000
# 4 0.0000 0.0000 0.0000 23.6986 0.0000 -4.1521
# 5 -11.0052 -4.2870 -11.0232 0.0000 20.4011 0.0000
# 6 0.0000 0.0000 0.0000 -4.1521 0.0000 16.1934
#
#
#
# Elastic Compliance Matrix: (Units=1/GPa)
#
#
# Indices 1 2 3 4 5 6 
#
# 1 0.017502 -0.008546 0.001012 0.000000 0.008193 0.000000
# 2 -0.008546 0.023594 -0.011424 0.000000 -0.005825 0.000000
# 3 0.001012 -0.011424 0.018850 0.000000 0.008331 0.000000
# 4 0.000000 0.000000 0.000000 0.044181 0.000000 0.011328
# 5 0.008193 -0.005825 0.008331 0.000000 0.056714 0.000000
# 6 0.000000 0.000000 0.000000 0.011328 0.000000 0.064658
#
#
# Mechanical properties :
#
#
# Convention : Reuss Voigt Hill
#
# Bulk Modulus (GPa) = 45.38859 50.63155 48.01007
# Shear Modulus (GPa) = 18.46670 21.02704 19.74687
#
# Velocity S-wave (km/s) = 3.29191 3.51271 3.40410
# Velocity P-wave (km/s) = 6.40968 6.79441 6.60485
#
# Compressibility (1/GPa) = 0.02203197
#
# Stress axis : x y z
#
# Youngs Moduli (GPa) = 57.13706 42.38371 53.04967
#
# Poissons Ratio (x) = 0.36219 -0.05371
# Poissons Ratio (y) = 0.48827 0.60603
# Poissons Ratio (z) = -0.05785 0.48419
#
# Static dielectric constant tensor:
#      x y z
#    x 1.577090 0.000000 -0.000520 
#    y 0.000000 1.574110 0.000000 
#    z -0.000520 0.000000 1.613780 
# 
# From -- ./inp_files/73590.got.cif
#   From: 2010.05.17/outbox.cif.g08.bks.cpg/sg13_37_cif.got.tgz:73590.got - 2010.06.03 16:44:36.
