data_PCOD9227129
_publ_section_title
;
Structure prediction by ZEFSAII (Michael W. Deem and Ramdas Pophale) SiO2 
 PCOD9227129
Probable space group: P 2/C
;
_chemical_formula_sum "Si O2"
_cell_formula_units_Z 20
_cell_length_a 12.537586
_cell_length_b 7.198436
_cell_length_c 13.043329
_cell_angle_alpha 90.000000
_cell_angle_beta 40.866273
_cell_angle_gamma 90.000000
_cell_volume 770.219720
_symmetry_space_group_name_H-M "P 2/C"
_symmetry_group_IT_number 13
_symmetry_cell_setting 'monoclinic'
loop_
_space_group_symop_operation_xyz
x,y,z
-x,y,1/2-z
-x,-y,-z
x,-y,1/2+z
loop_
_atom_site_type_symbol
_atom_site_label
_atom_site_fract_x
_atom_site_fract_y
_atom_site_fract_z
Si Si1 0.661342 0.785088 0.578606
Si Si2 0.426215 0.143273 0.969673
Si Si3 0.981233 0.054922 0.887038
Si Si4 0.906407 0.664721 0.716117
Si Si5 0.262847 0.315323 0.708542
O O1 0.500000 0.708622 0.750000
O O2 0.691830 0.685449 0.447010
O O3 0.624200 0.002577 0.581912
O O4 0.827549 0.812326 0.522154
O O5 0.571396 0.289939 0.849210
O O6 0.264437 0.242117 0.126017
O O7 0.500000 0.000000 0.000000
O O8 0.000000 0.067953 0.750000
O O9 0.983850 0.834464 0.904951
O O10 0.149794 0.136633 0.804903
O O11 0.847872 0.493473 0.690693
O O12 0.000000 0.593042 0.750000
#
# Coordination Sequence:
#
# PCOD9227129 Si02
#       5
#     4   4   4   4   4
#     4  10  19  35  55  80 114 147 177 220 281 325
#     4  10  18  33  54  82 107 139 182 228 263 318
#     4   9  16  33  53  76 101 140 186 215 259 318
#     4  11  17  31  59  82 100 138 188 226 260 310
#     4  10  20  33  58  80 106 137 190 230 259 313
#
# _framework density 25.966615000000001
#
# number of rings (size 3 to 8) (size 9 to 14) (size 15 to 20)
#    0.000    2.000    8.000    2.400    0.000    0.000 
#    0.000    2.000    0.000    1.200    0.000    0.000 
#    0.000    0.000    0.000    0.000    0.000    0.000 
#
# Total GULP energy -111820.725116 kJ/mol
# GULP energy per Si atom -5591.036256 kJ/mol
# Density = 2.590751 g / cm^3
# Si number density = 25.966615 Si / 1000 Ang^3
#
#
#
# Elastic Constant Matrix: (Units=GPa)
#
#
# Indices 1 2 3 4 5 6 
#
# 1 55.1534 4.2254 46.5098 0.0000 -24.8119 0.0000
# 2 4.2254 99.7676 10.5403 0.0000 -6.2972 0.0000
# 3 46.5098 10.5403 88.8457 0.0000 -18.2003 0.0000
# 4 0.0000 0.0000 0.0000 23.4103 0.0000 -29.3488
# 5 -24.8119 -6.2972 -18.2003 0.0000 50.7726 0.0000
# 6 0.0000 0.0000 0.0000 -29.3488 0.0000 24.5969
#
#
#
# Elastic Compliance Matrix: (Units=1/GPa)
#
#
# Indices 1 2 3 4 5 6 
#
# 1 0.038806 0.001042 -0.017836 0.000000 0.012699 0.000000
# 2 0.001042 0.010216 -0.001504 0.000000 0.001237 0.000000
# 3 -0.017836 -0.001504 0.020449 0.000000 -0.001573 0.000000
# 4 0.000000 0.000000 0.000000 -0.086144 0.000000 -0.102787
# 5 0.012699 0.001237 -0.001573 0.000000 0.025491 0.000000
# 6 0.000000 0.000000 0.000000 -0.102787 0.000000 -0.081988
#
#
# Mechanical properties :
#
#
# Convention : Reuss Voigt Hill
#
# Bulk Modulus (GPa) = 30.41906 40.70196 35.56051
# Shear Modulus (GPa) = -195.18795 31.92204 -81.63296
#
# Velocity S-wave (km/s) = -8.67940 3.51001 -5.61301
# Velocity P-wave (km/s) = 9.41820 5.66883 5.31822
#
# Compressibility (1/GPa) = 0.03287412
#
# Stress axis : x y z
#
# Youngs Moduli (GPa) = 25.76948 97.88407 48.90228
#
# Poissons Ratio (x) = -0.10204 0.87224
# Poissons Ratio (y) = -0.02686 0.07356
# Poissons Ratio (z) = 0.45964 0.14724
#
# Static dielectric constant tensor:
#      x y z
#    x 2.057070 0.000000 0.023800 
#    y 0.000000 2.031280 0.000000 
#    z 0.023800 0.000000 2.113130 
# 
# From -- ./inp_files/63220.got.cif
#   From: 2010.05.17/outbox.cif.g08.bks.cpg/sg13_32_cif.got.tgz:63220.got - 2010.06.03 16:44:36.
