data_PCOD9227110
_publ_section_title
;
Structure prediction by ZEFSAII (Michael W. Deem and Ramdas Pophale) SiO2 
 PCOD9227110
Probable space group: P 2/C
;
_chemical_formula_sum "Si O2"
_cell_formula_units_Z 32
_cell_length_a 6.257877
_cell_length_b 9.431964
_cell_length_c 23.273341
_cell_angle_alpha 90.000000
_cell_angle_beta 75.239631
_cell_angle_gamma 90.000000
_cell_volume 1328.355430
_symmetry_space_group_name_H-M "P 2/C"
_symmetry_group_IT_number 13
_symmetry_cell_setting 'monoclinic'
loop_
_space_group_symop_operation_xyz
x,y,z
-x,y,1/2-z
-x,-y,-z
x,-y,1/2+z
loop_
_atom_site_type_symbol
_atom_site_label
_atom_site_fract_x
_atom_site_fract_y
_atom_site_fract_z
Si Si1 0.001761 0.837331 0.482709
Si Si2 0.742485 0.251073 0.264166
Si Si3 0.482188 0.182163 0.393133
Si Si4 0.282015 0.924471 0.089424
Si Si5 0.496620 0.503670 0.585109
Si Si6 0.166868 0.411103 0.027481
Si Si7 0.812615 0.998797 0.673518
Si Si8 0.375911 0.752023 0.363898
O O1 0.061502 0.743605 0.533586
O O2 0.181388 0.789470 0.423042
O O3 0.000000 0.000000 0.500000
O O4 0.776430 0.830292 0.461982
O O5 0.500000 0.304116 0.250000
O O6 0.669233 0.226232 0.334266
O O7 0.781472 0.100392 0.230314
O O8 0.000000 0.315628 0.250000
O O9 0.578498 0.067307 0.430787
O O10 0.411247 0.336172 0.420053
O O11 0.305551 0.092764 0.368820
O O12 0.060002 0.974959 0.136036
O O13 0.410333 0.827456 0.125138
O O14 0.612877 0.414704 0.526439
O O15 0.241614 0.523981 0.582902
O O16 0.565700 0.414570 0.636786
O O17 0.000000 0.500000 0.000000
O O18 0.699778 0.154515 0.685131
#
# Coordination Sequence:
#
# PCOD9227110 Si02
#       8
#     4   4   4   4   4   4   4   4
#     4  10  20  32  49  76 108 146 196 250 296 351
#     4  10  19  36  61  93 121 152 194 257 315 370
#     4  10  20  33  58  87 110 151 196 253 301 377
#     4  10  18  33  53  77 108 141 193 242 295 360
#     4  10  21  37  54  82 117 156 202 242 307 367
#     4  10  21  36  53  76 116 161 198 247 301 365
#     4   9  19  35  57  85 109 146 192 242 304 361
#     4   9  20  35  53  78 111 151 191 241 300 367
#
# _framework density 24.089939000000001
#
# number of rings (size 3 to 8) (size 9 to 14) (size 15 to 20)
#    0.000    2.250    1.250    1.500    0.000    4.500 
#    0.000    0.000    0.000   11.250    0.000    0.000 
#    0.000    0.000    0.000    0.000    0.000    0.000 
#
# Total GULP energy -178241.502730 kJ/mol
# GULP energy per Si atom -5570.046960 kJ/mol
# Density = 2.403511 g / cm^3
# Si number density = 24.089939 Si / 1000 Ang^3
#
#
#
# Elastic Constant Matrix: (Units=GPa)
#
#
# Indices 1 2 3 4 5 6 
#
# 1 122.8129 23.2200 22.5308 0.0000 -0.6880 0.0000
# 2 23.2200 138.0986 11.7123 0.0000 14.2588 0.0000
# 3 22.5308 11.7123 43.3925 0.0000 -6.4751 0.0000
# 4 0.0000 0.0000 0.0000 25.9186 0.0000 6.1959
# 5 -0.6880 14.2588 -6.4751 0.0000 37.5156 0.0000
# 6 0.0000 0.0000 0.0000 6.1959 0.0000 29.7649
#
#
#
# Elastic Compliance Matrix: (Units=1/GPa)
#
#
# Indices 1 2 3 4 5 6 
#
# 1 0.009181 -0.001146 -0.004483 0.000000 -0.000170 0.000000
# 2 -0.001146 0.007960 -0.002061 0.000000 -0.003402 0.000000
# 3 -0.004483 -0.002061 0.026722 0.000000 0.005313 0.000000
# 4 0.000000 0.000000 0.000000 0.040603 0.000000 -0.008452
# 5 -0.000170 -0.003402 0.005313 0.000000 0.028863 0.000000
# 6 0.000000 0.000000 0.000000 -0.008452 0.000000 0.035356
#
#
# Mechanical properties :
#
#
# Convention : Reuss Voigt Hill
#
# Bulk Modulus (GPa) = 35.10882 46.58114 40.84498
# Shear Modulus (GPa) = 28.80873 35.09588 31.95231
#
# Velocity S-wave (km/s) = 3.46190 3.82104 3.64589
# Velocity P-wave (km/s) = 5.53041 6.23261 5.89198
#
# Compressibility (1/GPa) = 0.02848287
#
# Stress axis : x y z
#
# Youngs Moduli (GPa) = 108.92555 125.62868 37.42187
#
# Poissons Ratio (x) = 0.14396 0.16776
# Poissons Ratio (y) = 0.12482 0.07713
# Poissons Ratio (z) = 0.48830 0.25895
#
# Static dielectric constant tensor:
#      x y z
#    x 2.052620 0.000000 0.046590 
#    y 0.000000 1.992010 0.000000 
#    z 0.046590 0.000000 2.005080 
# 
# From -- ./inp_files/95062.got.cif
#   From: 2010.05.17/outbox.cif.g08.bks.cpg/sg13_48_cif.got.tgz:95062.got - 2010.06.03 16:44:36.
