data_PCOD9227316
_publ_section_title
;
Structure prediction by ZEFSAII (Michael W. Deem and Ramdas Pophale) SiO2 
 PCOD9227316
Probable space group: P 2/C
;
_chemical_formula_sum "Si O2"
_cell_formula_units_Z 30
_cell_length_a 7.781686
_cell_length_b 6.497922
_cell_length_c 28.838318
_cell_angle_alpha 90.000000
_cell_angle_beta 73.177048
_cell_angle_gamma 90.000000
_cell_volume 1395.797652
_symmetry_space_group_name_H-M "P 2/C"
_symmetry_group_IT_number 13
_symmetry_cell_setting 'monoclinic'
loop_
_space_group_symop_operation_xyz
x,y,z
-x,y,1/2-z
-x,-y,-z
x,-y,1/2+z
loop_
_atom_site_type_symbol
_atom_site_label
_atom_site_fract_x
_atom_site_fract_y
_atom_site_fract_z
Si Si1 0.684242 0.858529 0.036535
Si Si2 0.210780 0.337163 0.778702
Si Si3 0.715046 0.100988 0.121504
Si Si4 0.510858 0.475042 0.093154
Si Si5 0.000000 0.299682 0.250000
Si Si6 0.468962 0.240227 0.679935
Si Si7 0.310280 0.891352 0.566205
Si Si8 0.969698 0.013507 0.335868
O O1 0.626399 0.625153 0.051447
O O2 0.781751 0.956894 0.073473
O O3 0.496668 0.984378 0.049874
O O4 0.769518 0.884673 0.979361
O O5 0.143405 0.551268 0.763443
O O6 0.308106 0.220667 0.728511
O O7 0.364485 0.347708 0.805801
O O8 0.047395 0.202569 0.811384
O O9 0.645378 0.314153 0.106928
O O10 0.865049 0.116281 0.148835
O O11 0.547716 0.975711 0.156423
O O12 0.425172 0.617859 0.139557
O O13 0.364657 0.338669 0.077871
O O14 0.079759 0.156202 0.203605
O O15 0.187096 0.994691 0.614455
#
# Coordination Sequence:
#
# PCOD9227316 Si02
#       8
#     4   4   4   4   2   4   4   4
#     4   9  20  38  60  83 108 146 189 225 270 331
#     4  10  22  38  54  77 109 146 187 226 270 328
#     4   9  20  37  58  84 112 145 184 226 275 329
#     4  10  18  34  59  83 108 141 185 231 270 325
#     4  12  24  36  54  82 114 146 180 228 284 328
#     4   9  19  37  58  76 104 149 190 223 265 325
#     4  10  21  37  58  84 113 145 182 228 279 327
#     4  11  24  39  55  82 117 146 180 230 282 329
#
# _framework density 21.493088
#
# number of rings (size 3 to 8) (size 9 to 14) (size 15 to 20)
#    0.000    2.133    0.000    2.400    0.000    9.067 
#    0.000    3.333    0.000    0.000    0.000    0.000 
#    0.000    0.000    0.000    0.000    0.000    0.000 
#
# Total GULP energy -167676.690104 kJ/mol
# GULP energy per Si atom -5589.223003 kJ/mol
# Density = 2.144417 g / cm^3
# Si number density = 21.493088 Si / 1000 Ang^3
#
#
#
# Elastic Constant Matrix: (Units=GPa)
#
#
# Indices 1 2 3 4 5 6 
#
# 1 35.4164 16.1247 39.9324 0.0000 5.7859 0.0000
# 2 16.1247 70.6344 46.0768 0.0000 3.4915 0.0000
# 3 39.9324 46.0768 153.1151 0.0000 1.0709 0.0000
# 4 0.0000 0.0000 0.0000 17.5037 0.0000 8.3532
# 5 5.7859 3.4915 1.0709 0.0000 28.4980 0.0000
# 6 0.0000 0.0000 0.0000 8.3532 0.0000 22.4808
#
#
#
# Elastic Compliance Matrix: (Units=1/GPa)
#
#
# Indices 1 2 3 4 5 6 
#
# 1 0.042156 -0.002612 -0.010153 0.000000 -0.007857 0.000000
# 2 -0.002612 0.017887 -0.004691 0.000000 -0.001485 0.000000
# 3 -0.010153 -0.004691 0.010575 0.000000 0.002239 0.000000
# 4 0.000000 0.000000 0.000000 0.069445 0.000000 -0.025804
# 5 -0.007857 -0.001485 0.002239 0.000000 0.036783 0.000000
# 6 0.000000 0.000000 0.000000 -0.025804 0.000000 0.054070
#
#
# Mechanical properties :
#
#
# Convention : Reuss Voigt Hill
#
# Bulk Modulus (GPa) = 28.00668 51.49261 39.74964
# Shear Modulus (GPa) = 18.00295 24.16530 21.08412
#
# Velocity S-wave (km/s) = 2.89730 3.35674 3.13545
# Velocity P-wave (km/s) = 4.92456 6.24767 5.62515
#
# Compressibility (1/GPa) = 0.03570577
#
# Stress axis : x y z
#
# Youngs Moduli (GPa) = 23.72115 55.90566 94.56151
#
# Poissons Ratio (x) = 0.14602 0.96013
# Poissons Ratio (y) = 0.06196 0.44361
# Poissons Ratio (z) = 0.24085 0.26227
#
# Static dielectric constant tensor:
#      x y z
#    x 1.799390 0.000000 0.028510 
#    y 0.000000 1.755240 0.000000 
#    z 0.028510 0.000000 1.792950 
# 
# From -- ./inp_files/95617.got.cif
#   From: 2010.05.17/outbox.cif.g08.bks.cpg/sg13_48_cif.got.tgz:95617.got - 2010.06.03 16:44:36.
