data_PCOD9227125
_publ_section_title
;
Structure prediction by ZEFSAII (Michael W. Deem and Ramdas Pophale) SiO2 
 PCOD9227125
Probable space group: P 2/C
;
_chemical_formula_sum "Si O2"
_cell_formula_units_Z 32
_cell_length_a 12.571800
_cell_length_b 14.760626
_cell_length_c 16.005469
_cell_angle_alpha 90.000000
_cell_angle_beta 146.713659
_cell_angle_gamma 90.000000
_cell_volume 1630.059223
_symmetry_space_group_name_H-M "P 2/C"
_symmetry_group_IT_number 13
_symmetry_cell_setting 'monoclinic'
loop_
_space_group_symop_operation_xyz
x,y,z
-x,y,1/2-z
-x,-y,-z
x,-y,1/2+z
loop_
_atom_site_type_symbol
_atom_site_label
_atom_site_fract_x
_atom_site_fract_y
_atom_site_fract_z
Si Si1 0.504410 0.641847 0.154912
Si Si2 0.303622 0.988615 0.173901
Si Si3 0.526654 0.658214 0.668205
Si Si4 0.174116 0.501920 0.677455
Si Si5 0.692215 0.489888 0.565755
Si Si6 0.075415 0.100880 0.388498
Si Si7 0.313011 0.842646 0.802151
Si Si8 0.515359 0.159200 0.911869
O O1 0.500000 0.663086 0.250000
O O2 0.693125 0.582757 0.260893
O O3 0.516891 0.733768 0.111285
O O4 0.329540 0.575581 0.010294
O O5 0.500000 0.000897 0.250000
O O6 0.290502 0.076567 0.222095
O O7 0.347567 0.899434 0.258688
O O8 0.126444 0.971126 0.994229
O O9 0.500000 0.662941 0.750000
O O10 0.705376 0.592451 0.763411
O O11 0.344727 0.604132 0.507077
O O12 0.583391 0.755359 0.668500
O O13 0.139263 0.494815 0.754538
O O14 0.000000 0.500000 0.500000
O O15 0.500000 0.500000 0.500000
O O16 0.283556 0.145525 0.507035
O O17 0.000000 0.062208 0.250000
O O18 0.907005 0.169618 0.307495
O O19 0.440288 0.872662 0.965370
#
# Coordination Sequence:
#
# PCOD9227125 Si02
#       8
#     4   4   4   4   4   4   4   4
#     4  10  18  33  54  75 102 136 169 210 264 315
#     4  10  20  35  55  81 107 138 177 218 267 326
#     4  10  20  36  54  76 108 145 179 213 256 318
#     4  10  20  34  54  79 103 133 176 223 263 307
#     4   8  16  33  53  74 101 137 172 210 258 311
#     4   9  20  35  53  78 109 137 175 230 273 305
#     4  11  20  35  56  78 106 144 179 214 265 321
#     4  10  20  35  55  81 107 136 177 224 266 315
#
# _framework density 19.631188999999999
#
# number of rings (size 3 to 8) (size 9 to 14) (size 15 to 20)
#    0.000    2.500    0.000    6.000    0.000    2.000 
#    0.000    3.750    0.000    1.500    0.000    0.000 
#    0.000    0.000    0.000    0.000    0.000    0.000 
#
# Total GULP energy -178355.960935 kJ/mol
# GULP energy per Si atom -5573.623779 kJ/mol
# Density = 1.958651 g / cm^3
# Si number density = 19.631189 Si / 1000 Ang^3
#
#
#
# Elastic Constant Matrix: (Units=GPa)
#
#
# Indices 1 2 3 4 5 6 
#
# 1 50.8010 20.9352 25.8083 0.0000 -28.4789 0.0000
# 2 20.9352 109.0102 42.9178 0.0000 -11.0900 0.0000
# 3 25.8083 42.9178 139.7839 0.0000 -28.5572 0.0000
# 4 0.0000 0.0000 0.0000 12.9933 0.0000 -11.8388
# 5 -28.4789 -11.0900 -28.5572 0.0000 27.9880 0.0000
# 6 0.0000 0.0000 0.0000 -11.8388 0.0000 25.2809
#
#
#
# Elastic Compliance Matrix: (Units=1/GPa)
#
#
# Indices 1 2 3 4 5 6 
#
# 1 0.048647 -0.005384 0.002967 0.000000 0.050394 0.000000
# 2 -0.005384 0.011057 -0.003316 0.000000 -0.004481 0.000000
# 3 0.002967 -0.003316 0.010072 0.000000 0.011982 0.000000
# 4 0.000000 0.000000 0.000000 0.134241 0.000000 0.062864
# 5 0.050394 -0.004481 0.011982 0.000000 0.097457 0.000000
# 6 0.000000 0.000000 0.000000 0.062864 0.000000 0.068994
#
#
# Mechanical properties :
#
#
# Convention : Reuss Voigt Hill
#
# Bulk Modulus (GPa) = 17.14989 53.21307 35.18148
# Shear Modulus (GPa) = 12.45727 27.24803 19.85265
#
# Velocity S-wave (km/s) = 2.52179 3.72962 3.18351
# Velocity P-wave (km/s) = 4.15141 6.76107 5.61009
#
# Compressibility (1/GPa) = 0.05830941
#
# Stress axis : x y z
#
# Youngs Moduli (GPa) = 20.55626 90.43895 99.28381
#
# Poissons Ratio (x) = 0.48690 -0.29453
# Poissons Ratio (y) = 0.11067 0.32925
# Poissons Ratio (z) = -0.06098 0.29992
#
# Static dielectric constant tensor:
#      x y z
#    x 1.787770 0.000000 -0.141890 
#    y 0.000000 1.672610 0.000000 
#    z -0.141890 0.000000 2.162220 
# 
# From -- ./inp_files/51496.got.cif
#   From: 2010.05.17/outbox.cif.g08.bks.cpg/sg13_26_cif.got.tgz:51496.got - 2010.06.03 16:44:36.
