data_PCOD9227584
_publ_section_title
;
Structure prediction by ZEFSAII (Michael W. Deem and Ramdas Pophale) SiO2 
 PCOD9227584
Probable space group: P 2/C
;
_chemical_formula_sum "Si O2"
_cell_formula_units_Z 20
_cell_length_a 14.400832
_cell_length_b 8.983777
_cell_length_c 18.765912
_cell_angle_alpha 90.000000
_cell_angle_beta 23.332294
_cell_angle_gamma 90.000000
_cell_volume 961.569358
_symmetry_space_group_name_H-M "P 2/C"
_symmetry_group_IT_number 13
_symmetry_cell_setting 'monoclinic'
loop_
_space_group_symop_operation_xyz
x,y,z
-x,y,1/2-z
-x,-y,-z
x,-y,1/2+z
loop_
_atom_site_type_symbol
_atom_site_label
_atom_site_fract_x
_atom_site_fract_y
_atom_site_fract_z
Si Si1 0.000000 0.726251 0.250000
Si Si2 0.899409 0.197514 0.443479
Si Si3 0.072589 0.197726 0.484386
Si Si4 0.766601 0.037744 0.820502
Si Si5 0.500000 0.022090 0.250000
Si Si6 0.225786 0.539475 0.964148
O O1 0.185310 0.837287 0.155181
O O2 0.856224 0.630474 0.408396
O O3 0.845387 0.369635 0.471775
O O4 0.983350 0.186164 0.467095
O O5 0.676010 0.091250 0.586793
O O6 0.104242 0.118238 0.255579
O O7 0.326993 0.122969 0.323441
O O8 0.094355 0.368815 0.494200
O O9 0.888868 0.111429 0.664595
O O10 0.500000 0.000000 0.000000
O O11 0.500000 0.542923 0.750000
#
# Coordination Sequence:
#
# PCOD9227584 Si02
#       6
#     2   4   4   4   2   4
#     4  10  26  46  66  96 136 180 224 268 344 402
#     4  11  23  40  67 102 125 168 236 269 325 401
#     4  10  22  40  67  95 132 173 222 267 335 403
#     4  10  23  41  64  96 133 175 216 280 332 385
#     4  10  18  36  62  98 128 170 216 268 324 386
#     4  11  23  45  69  97 136 182 215 278 340 393
#
# _framework density 20.799332
#
# number of rings (size 3 to 8) (size 9 to 14) (size 15 to 20)
#    0.000    1.600    2.000    3.000    2.800    5.600 
#    3.600    2.000    0.000    0.000    0.000    0.000 
#    0.000    0.000    0.000    0.000    0.000    0.000 
#
# Total GULP energy -111689.634014 kJ/mol
# GULP energy per Si atom -5584.481701 kJ/mol
# Density = 2.075199 g / cm^3
# Si number density = 20.799332 Si / 1000 Ang^3
#
#
#
# Elastic Constant Matrix: (Units=GPa)
#
#
# Indices 1 2 3 4 5 6 
#
# 1 87.3100 39.6093 36.4691 0.0000 -2.2888 0.0000
# 2 39.6093 184.4209 72.4920 0.0000 -3.8691 0.0000
# 3 36.4691 72.4920 164.3572 0.0000 -24.6334 0.0000
# 4 0.0000 0.0000 0.0000 5.1356 0.0000 -7.1082
# 5 -2.2888 -3.8691 -24.6334 0.0000 15.0761 0.0000
# 6 0.0000 0.0000 0.0000 -7.1082 0.0000 17.8632
#
#
#
# Elastic Compliance Matrix: (Units=1/GPa)
#
#
# Indices 1 2 3 4 5 6 
#
# 1 0.013300 -0.001937 -0.002475 0.000000 -0.002522 0.000000
# 2 -0.001937 0.007032 -0.003239 0.000000 -0.003781 0.000000
# 3 -0.002475 -0.003239 0.010437 0.000000 0.015846 0.000000
# 4 0.000000 0.000000 0.000000 0.433455 0.000000 0.172483
# 5 -0.002522 -0.003781 0.015846 0.000000 0.090869 0.000000
# 6 0.000000 0.000000 0.000000 0.172483 0.000000 0.124617
#
#
# Mechanical properties :
#
#
# Convention : Reuss Voigt Hill
#
# Bulk Modulus (GPa) = 64.64692 81.46989 73.05840
# Shear Modulus (GPa) = 7.14117 26.78281 16.96199
#
# Velocity S-wave (km/s) = 1.85494 3.59231 2.85881
# Velocity P-wave (km/s) = 5.97800 7.51404 6.78960
#
# Compressibility (1/GPa) = 0.01546864
#
# Stress axis : x y z
#
# Youngs Moduli (GPa) = 75.19017 142.20749 95.81427
#
# Poissons Ratio (x) = 0.27539 0.23712
# Poissons Ratio (y) = 0.14561 0.31030
# Poissons Ratio (z) = 0.18608 0.46054
#
# Static dielectric constant tensor:
#      x y z
#    x 1.821230 0.000000 -0.009040 
#    y 0.000000 1.751980 0.000000 
#    z -0.009040 0.000000 1.762270 
# 
# From -- ./inp_files/54937.got.cif
#   From: 2010.05.17/outbox.cif.g08.bks.cpg/sg13_28_cif.got.tgz:54937.got - 2010.06.03 16:44:36.
