data_PCOD9227398
_publ_section_title
;
Structure prediction by ZEFSAII (Michael W. Deem and Ramdas Pophale) SiO2 
 PCOD9227398
Probable space group: P 2/C
;
_chemical_formula_sum "Si O2"
_cell_formula_units_Z 28
_cell_length_a 7.914942
_cell_length_b 31.291515
_cell_length_c 5.469488
_cell_angle_alpha 90.000000
_cell_angle_beta 120.375459
_cell_angle_gamma 90.000000
_cell_volume 1168.681232
_symmetry_space_group_name_H-M "P 2/C"
_symmetry_group_IT_number 13
_symmetry_cell_setting 'monoclinic'
loop_
_space_group_symop_operation_xyz
x,y,z
-x,y,1/2-z
-x,-y,-z
x,-y,1/2+z
loop_
_atom_site_type_symbol
_atom_site_label
_atom_site_fract_x
_atom_site_fract_y
_atom_site_fract_z
Si Si1 0.732673 0.980222 0.402402
Si Si2 0.221170 0.517499 0.152970
Si Si3 0.264128 0.383046 0.587680
Si Si4 0.260891 0.338684 0.087240
Si Si5 0.238671 0.793363 0.175316
Si Si6 0.874300 0.886096 0.409052
Si Si7 0.792454 0.241449 0.349330
O O1 0.500000 0.987789 0.250000
O O2 0.768923 0.931487 0.353446
O O3 0.807900 0.990728 0.731346
O O4 0.309711 0.504266 0.477198
O O5 0.217276 0.568074 0.113179
O O6 0.000000 0.500000 0.000000
O O7 0.500000 0.379589 0.750000
O O8 0.201326 0.369675 0.268075
O O9 0.199620 0.354021 0.771343
O O10 0.500000 0.336547 0.250000
O O11 0.185675 0.292032 0.107454
O O12 0.260894 0.844205 0.193747
O O13 0.309825 0.773955 0.479579
O O14 0.307290 0.771872 0.976122
O O15 0.004523 0.781872 0.003279
O O16 0.000000 0.885441 0.250000
O O17 0.000000 0.881824 0.750000
#
# Coordination Sequence:
#
# PCOD9227398 Si02
#       7
#     4   4   4   4   4   4   4
#     4  10  23  42  60  85 123 160 198 251 311 366
#     4  10  21  38  56  81 114 145 178 231 278 328
#     4  10  21  38  58  80 110 148 187 232 278 329
#     4  10  21  37  57  83 112 145 188 229 274 333
#     4  10  19  35  54  79 111 147 182 229 284 329
#     4  12  21  37  63  88 121 157 202 255 294 358
#     4  10  18  35  56  78 110 147 180 227 281 330
#
# _framework density 23.958628000000001
#
# number of rings (size 3 to 8) (size 9 to 14) (size 15 to 20)
#    0.000    1.714    2.857    2.571    0.000    2.286 
#    0.000   18.571    0.000    0.000    0.000    0.000 
#    0.000    0.000    0.000    0.000    0.000    0.000 
#
# Total GULP energy -156698.803246 kJ/mol
# GULP energy per Si atom -5596.385830 kJ/mol
# Density = 2.390410 g / cm^3
# Si number density = 23.958628 Si / 1000 Ang^3
#
#
#
# Elastic Constant Matrix: (Units=GPa)
#
#
# Indices 1 2 3 4 5 6 
#
# 1 124.5219 32.6040 54.9232 0.0000 -38.3074 0.0000
# 2 32.6040 180.5727 41.4092 0.0000 -49.3971 0.0000
# 3 54.9232 41.4092 184.3918 0.0000 -56.3619 0.0000
# 4 0.0000 0.0000 0.0000 83.3881 0.0000 74.5991
# 5 -38.3074 -49.3971 -56.3619 0.0000 54.6585 0.0000
# 6 0.0000 0.0000 0.0000 74.5991 0.0000 228.6396
#
#
#
# Elastic Compliance Matrix: (Units=1/GPa)
#
#
# Indices 1 2 3 4 5 6 
#
# 1 0.010440 0.000066 -0.001270 0.000000 0.006067 0.000000
# 2 0.000066 0.007396 0.000550 0.000000 0.007298 0.000000
# 3 -0.001270 0.000550 0.008116 0.000000 0.007976 0.000000
# 4 0.000000 0.000000 0.000000 0.016935 0.000000 -0.005526
# 5 0.006067 0.007298 0.007976 0.000000 0.037367 0.000000
# 6 0.000000 0.000000 0.000000 -0.005526 0.000000 0.006177
#
#
# Mechanical properties :
#
#
# Convention : Reuss Voigt Hill
#
# Bulk Modulus (GPa) = 40.57841 83.03991 61.80916
# Shear Modulus (GPa) = 52.10841 97.37389 74.74115
#
# Velocity S-wave (km/s) = 4.66868 6.38206 5.59139
# Velocity P-wave (km/s) = 6.78496 9.43624 8.21822
#
# Compressibility (1/GPa) = 0.02464364
#
# Stress axis : x y z
#
# Youngs Moduli (GPa) = 95.78537 135.20412 123.21418
#
# Poissons Ratio (x) = -0.00890 0.15649
# Poissons Ratio (y) = -0.00630 -0.06777
# Poissons Ratio (z) = 0.12166 -0.07436
#
# Static dielectric constant tensor:
#      x y z
#    x 1.888330 0.000000 0.017240 
#    y 0.000000 1.827130 0.000000 
#    z 0.017240 0.000000 1.942360 
# 
# From -- ./inp_files/2752.got.cif
#   From: 2010.05.17/outbox.cif.g08.bks.cpg/sg13_2_cif.got.tgz:2752.got - 2010.06.03 16:44:36.
