data_PCOD9227953
_publ_section_title
;
Structure prediction by ZEFSAII (Michael W. Deem and Ramdas Pophale) SiO2 
 PCOD9227953
Probable space group: P 2/C
;
_chemical_formula_sum "Si O2"
_cell_formula_units_Z 32
_cell_length_a 18.161880
_cell_length_b 11.879888
_cell_length_c 9.175383
_cell_angle_alpha 90.000000
_cell_angle_beta 114.456704
_cell_angle_gamma 90.000000
_cell_volume 1802.061748
_symmetry_space_group_name_H-M "P 2/C"
_symmetry_group_IT_number 13
_symmetry_cell_setting 'monoclinic'
loop_
_space_group_symop_operation_xyz
x,y,z
-x,y,1/2-z
-x,-y,-z
x,-y,1/2+z
loop_
_atom_site_type_symbol
_atom_site_label
_atom_site_fract_x
_atom_site_fract_y
_atom_site_fract_z
Si Si1 0.680894 0.394366 0.257213
Si Si2 0.056325 0.567993 0.160465
Si Si3 0.892304 0.049083 0.040594
Si Si4 0.818499 0.739338 0.370139
Si Si5 0.161479 0.351977 0.289951
Si Si6 0.330857 0.363309 0.906094
Si Si7 0.494015 0.379050 0.418505
Si Si8 0.073102 0.135616 0.128905
O O1 0.761833 0.345853 0.253146
O O2 0.683137 0.390496 0.434345
O O3 0.675656 0.522107 0.193433
O O4 0.597333 0.335801 0.133737
O O5 0.104405 0.674633 0.136723
O O6 0.123871 0.476315 0.263124
O O7 0.000000 0.599541 0.250000
O O8 0.000000 0.500000 0.000000
O O9 0.831058 0.128412 0.904655
O O10 0.896585 0.920499 0.994727
O O11 0.883331 0.067528 0.204544
O O12 0.979153 0.105914 0.071508
O O13 0.813386 0.685366 0.527795
O O14 0.739542 0.714842 0.211547
O O15 0.094242 0.264664 0.174616
O O16 0.423087 0.317756 0.967578
O O17 0.500000 0.396492 0.250000
O O18 0.500000 0.500000 0.500000
#
# Coordination Sequence:
#
# PCOD9227953 Si02
#       8
#     4   4   4   4   4   4   4   4
#     4  10  19  31  48  72 100 133 168 201 245 298
#     4  12  24  36  48  67 100 140 171 198 242 299
#     4   9  19  37  53  72  95 127 169 214 251 293
#     4  11  22  36  50  74 103 132 168 208 250 293
#     4  11  22  35  52  72 104 134 165 209 252 294
#     4  10  19  31  48  71 101 133 167 204 243 296
#     4   8  16  30  46  66  96 131 164 200 241 289
#     4   9  19  36  55  70  95 128 168 213 255 289
#
# _framework density 17.757436999999999
#
# number of rings (size 3 to 8) (size 9 to 14) (size 15 to 20)
#    0.000    2.000    2.500    1.500    3.500    2.000 
#    4.500    0.000    0.000    0.000    0.000    0.875 
#    0.000    0.000    0.000    0.000    0.000    0.000 
#
# Total GULP energy -178396.399320 kJ/mol
# GULP energy per Si atom -5574.887479 kJ/mol
# Density = 1.771702 g / cm^3
# Si number density = 17.757437 Si / 1000 Ang^3
#
#
#
# Elastic Constant Matrix: (Units=GPa)
#
#
# Indices 1 2 3 4 5 6 
#
# 1 77.3698 -5.1108 21.7608 0.0000 10.6164 0.0000
# 2 -5.1108 19.3061 7.0511 0.0000 -2.3392 0.0000
# 3 21.7608 7.0511 61.9268 0.0000 19.3742 0.0000
# 4 0.0000 0.0000 0.0000 16.9699 0.0000 -0.9347
# 5 10.6164 -2.3392 19.3742 0.0000 25.8862 0.0000
# 6 0.0000 0.0000 0.0000 -0.9347 0.0000 11.2624
#
#
#
# Elastic Compliance Matrix: (Units=1/GPa)
#
#
# Indices 1 2 3 4 5 6 
#
# 1 0.015058 0.005791 -0.005461 0.000000 -0.001565 0.000000
# 2 0.005791 0.059497 -0.012729 0.000000 0.012528 0.000000
# 3 -0.005461 -0.012729 0.025038 0.000000 -0.017650 0.000000
# 4 0.000000 0.000000 0.000000 0.059198 0.000000 0.004913
# 5 -0.001565 0.012528 -0.017650 0.000000 0.053615 0.000000
# 6 0.000000 0.000000 0.000000 0.004913 0.000000 0.089199
#
#
# Mechanical properties :
#
#
# Convention : Reuss Voigt Hill
#
# Bulk Modulus (GPa) = 13.36971 22.88943 18.12957
# Shear Modulus (GPa) = 14.23141 19.81714 17.02428
#
# Velocity S-wave (km/s) = 2.83403 3.34427 3.09967
# Velocity P-wave (km/s) = 4.27252 5.27544 4.80024
#
# Compressibility (1/GPa) = 0.07479596
#
# Stress axis : x y z
#
# Youngs Moduli (GPa) = 66.40886 16.80758 39.93860
#
# Poissons Ratio (x) = -0.09734 0.21811
# Poissons Ratio (y) = -0.38459 0.50837
# Poissons Ratio (z) = 0.36267 0.21394
#
# Static dielectric constant tensor:
#      x y z
#    x 1.648490 0.000000 0.014730 
#    y 0.000000 1.583160 0.000000 
#    z 0.014730 0.000000 1.638790 
# 
# From -- ./inp_files/23252.got.cif
#   From: 2010.05.17/outbox.cif.g08.bks.cpg/sg13_12_cif.got.tgz:23252.got - 2010.06.03 16:44:36.
