data_PCOD9227071
_publ_section_title
;
Structure prediction by ZEFSAII (Michael W. Deem and Ramdas Pophale) SiO2 
 PCOD9227071
Probable space group: P 2/C
;
_chemical_formula_sum "Si O2"
_cell_formula_units_Z 20
_cell_length_a 18.519099
_cell_length_b 7.323145
_cell_length_c 8.843146
_cell_angle_alpha 90.000000
_cell_angle_beta 53.525121
_cell_angle_gamma 90.000000
_cell_volume 964.370327
_symmetry_space_group_name_H-M "P 2/C"
_symmetry_group_IT_number 13
_symmetry_cell_setting 'monoclinic'
loop_
_space_group_symop_operation_xyz
x,y,z
-x,y,1/2-z
-x,-y,-z
x,-y,1/2+z
loop_
_atom_site_type_symbol
_atom_site_label
_atom_site_fract_x
_atom_site_fract_y
_atom_site_fract_z
Si Si1 0.408345 0.778329 0.303695
Si Si2 0.074313 0.487809 0.782574
Si Si3 0.778073 0.213752 0.339581
Si Si4 0.222854 0.806110 0.025492
Si Si5 0.591100 0.809939 0.561656
O O1 0.500000 0.688688 0.250000
O O2 0.314103 0.700677 0.479166
O O3 0.408020 0.977398 0.386445
O O4 0.409791 0.796314 0.119591
O O5 0.139634 0.661136 0.712353
O O6 0.141139 0.316230 0.686997
O O7 0.000000 0.480666 0.750000
O O8 0.000000 0.500000 0.000000
O O9 0.788128 0.013390 0.401307
O O10 0.773061 0.199930 0.162839
O O11 0.316921 0.737084 0.980287
O O12 0.500000 0.734250 0.750000
#
# Coordination Sequence:
#
# PCOD9227071 Si02
#       5
#     4   4   4   4   4
#     4  10  18  32  58  91 130 168 207 256 311 376
#     4  12  28  48  67  93 128 168 216 274 327 377
#     4  11  24  42  68  97 131 168 215 263 319 386
#     4  11  24  42  68  98 129 170 214 263 320 383
#     4  10  18  32  58  91 130 167 209 255 310 378
#
# _framework density 20.738921999999999
#
# number of rings (size 3 to 8) (size 9 to 14) (size 15 to 20)
#    0.000    1.200    2.000    8.400    5.600    1.600 
#    0.000    1.000    0.000    4.800    0.000    0.000 
#    0.000    0.000    0.000    0.000    0.000    0.000 
#
# Total GULP energy -111516.838531 kJ/mol
# GULP energy per Si atom -5575.841927 kJ/mol
# Density = 2.069172 g / cm^3
# Si number density = 20.738922 Si / 1000 Ang^3
#
#
#
# Elastic Constant Matrix: (Units=GPa)
#
#
# Indices 1 2 3 4 5 6 
#
# 1 278.4094 78.9343 168.5104 0.0000 15.3668 0.0000
# 2 78.9343 110.7910 68.9453 0.0000 -9.8932 0.0000
# 3 168.5104 68.9453 261.2171 0.0000 20.7664 0.0000
# 4 0.0000 0.0000 0.0000 38.4193 0.0000 -26.8931
# 5 15.3668 -9.8932 20.7664 0.0000 89.2592 0.0000
# 6 0.0000 0.0000 0.0000 -26.8931 0.0000 43.8969
#
#
#
# Elastic Compliance Matrix: (Units=1/GPa)
#
#
# Indices 1 2 3 4 5 6 
#
# 1 0.006403 -0.002479 -0.003430 0.000000 -0.000579 0.000000
# 2 -0.002479 0.012084 -0.001763 0.000000 0.002176 0.000000
# 3 -0.003430 -0.001763 0.006597 0.000000 -0.001140 0.000000
# 4 0.000000 0.000000 0.000000 0.045572 0.000000 0.027919
# 5 -0.000579 0.002176 -0.001140 0.000000 0.011809 0.000000
# 6 0.000000 0.000000 0.000000 0.027919 0.000000 0.039885
#
#
# Mechanical properties :
#
#
# Convention : Reuss Voigt Hill
#
# Bulk Modulus (GPa) = 102.68001 142.57750 122.62875
# Shear Modulus (GPa) = 35.47604 56.58358 46.02981
#
# Velocity S-wave (km/s) = 4.14043 5.22905 4.71626
# Velocity P-wave (km/s) = 8.51327 10.26427 9.42950
#
# Compressibility (1/GPa) = 0.00973899
#
# Stress axis : x y z
#
# Youngs Moduli (GPa) = 156.18499 82.75606 151.58507
#
# Poissons Ratio (x) = 0.20514 0.51994
# Poissons Ratio (y) = 0.38716 0.26729
# Poissons Ratio (z) = 0.53572 0.14592
#
# Static dielectric constant tensor:
#      x y z
#    x 1.718060 0.000000 -0.032620 
#    y 0.000000 1.783310 0.000000 
#    z -0.032620 0.000000 1.716180 
# 
# From -- ./inp_files/21050.got.cif
#   From: 2010.05.17/outbox.cif.g08.bks.cpg/sg13_11_cif.got.tgz:21050.got - 2010.06.03 16:44:36.
