data_PCOD9227444
_publ_section_title
;
Structure prediction by ZEFSAII (Michael W. Deem and Ramdas Pophale) SiO2 
 PCOD9227444
Probable space group: P 2/C
;
_chemical_formula_sum "Si O2"
_cell_formula_units_Z 24
_cell_length_a 11.040992
_cell_length_b 8.821228
_cell_length_c 19.738487
_cell_angle_alpha 90.000000
_cell_angle_beta 154.059732
_cell_angle_gamma 90.000000
_cell_volume 840.936953
_symmetry_space_group_name_H-M "P 2/C"
_symmetry_group_IT_number 13
_symmetry_cell_setting 'monoclinic'
loop_
_space_group_symop_operation_xyz
x,y,z
-x,y,1/2-z
-x,-y,-z
x,-y,1/2+z
loop_
_atom_site_type_symbol
_atom_site_label
_atom_site_fract_x
_atom_site_fract_y
_atom_site_fract_z
Si Si1 0.226964 0.746173 0.303496
Si Si2 0.241319 0.915474 0.815600
Si Si3 0.627045 0.585204 0.650670
Si Si4 0.844430 0.064350 0.987613
Si Si5 0.235746 0.751614 0.544441
Si Si6 0.977545 0.639492 0.539203
O O1 0.387907 0.584494 0.385519
O O2 0.000000 0.735974 0.250000
O O3 0.370090 0.912929 0.382030
O O4 0.051626 0.751219 0.144080
O O5 0.390035 0.749990 0.894638
O O6 0.000000 0.916091 0.750000
O O7 0.064112 0.912760 0.657391
O O8 0.405734 0.612796 0.598745
O O9 0.922687 0.591971 0.837079
O O10 0.734071 0.235548 0.921142
O O11 0.652779 0.922756 0.912352
O O12 0.000000 0.000000 0.000000
O O13 0.201398 0.734641 0.607365
O O14 0.000000 0.500000 0.500000
#
# Coordination Sequence:
#
# PCOD9227444 Si02
#       6
#     4   4   4   4   4   4
#     4  10  21  39  57  80 118 154 192 243 291 340
#     4   9  19  37  57  81 113 155 195 239 297 350
#     4  11  21  36  60  85 115 151 197 241 290 355
#     4   8  17  33  57  79 109 152 186 235 292 339
#     4  10  20  37  57  85 116 150 195 239 290 348
#     4  10  18  35  60  83 113 149 188 239 297 349
#
# _framework density 28.539594999999998
#
# number of rings (size 3 to 8) (size 9 to 14) (size 15 to 20)
#    0.000    2.333    1.667    1.000    0.000    0.667 
#    3.000    7.500    0.000    0.000    0.000    0.000 
#    0.000    0.000    0.000    0.000    0.000    0.000 
#
# Total GULP energy -133884.226065 kJ/mol
# GULP energy per Si atom -5578.509419 kJ/mol
# Density = 2.847464 g / cm^3
# Si number density = 28.539595 Si / 1000 Ang^3
#
#
#
# Elastic Constant Matrix: (Units=GPa)
#
#
# Indices 1 2 3 4 5 6 
#
# 1 110.9632 40.0411 16.2048 0.0000 -21.8322 0.0000
# 2 40.0411 315.7271 41.8158 0.0000 -16.6442 0.0000
# 3 16.2048 41.8158 64.4350 0.0000 -14.9785 0.0000
# 4 0.0000 0.0000 0.0000 52.8929 0.0000 -3.6296
# 5 -21.8322 -16.6442 -14.9785 0.0000 39.9296 0.0000
# 6 0.0000 0.0000 0.0000 -3.6296 0.0000 61.5071
#
#
#
# Elastic Compliance Matrix: (Units=1/GPa)
#
#
# Indices 1 2 3 4 5 6 
#
# 1 0.010464 -0.000950 -0.000851 0.000000 0.005006 0.000000
# 2 -0.000950 0.003567 -0.002028 0.000000 0.000207 0.000000
# 3 -0.000851 -0.002028 0.018345 0.000000 0.005571 0.000000
# 4 0.000000 0.000000 0.000000 0.018983 0.000000 0.001120
# 5 0.005006 0.000207 0.005571 0.000000 0.029957 0.000000
# 6 0.000000 0.000000 0.000000 0.001120 0.000000 0.016324
#
#
# Mechanical properties :
#
#
# Convention : Reuss Voigt Hill
#
# Bulk Modulus (GPa) = 40.45808 76.36097 58.40953
# Shear Modulus (GPa) = 44.03781 57.07014 50.55398
#
# Velocity S-wave (km/s) = 3.93242 4.47663 4.21332
# Velocity P-wave (km/s) = 5.90131 7.31673 6.64680
#
# Compressibility (1/GPa) = 0.02471694
#
# Stress axis : x y z
#
# Youngs Moduli (GPa) = 95.56381 280.32291 54.51188
#
# Poissons Ratio (x) = 0.26644 0.04640
# Poissons Ratio (y) = 0.09083 0.11055
# Poissons Ratio (z) = 0.08134 0.56849
#
# Static dielectric constant tensor:
#      x y z
#    x 2.283110 0.000000 0.065800 
#    y 0.000000 2.453580 0.000000 
#    z 0.065800 0.000000 2.307290 
# 
# From -- ./inp_files/86271.got.cif
#   From: 2010.05.17/outbox.cif.g08.bks.cpg/sg13_44_cif.got.tgz:86271.got - 2010.06.03 16:44:36.
