data_PCOD9227832
_publ_section_title
;
Structure prediction by ZEFSAII (Michael W. Deem and Ramdas Pophale) SiO2 
 PCOD9227832
Probable space group: P 2/C
;
_chemical_formula_sum "Si O2"
_cell_formula_units_Z 28
_cell_length_a 10.100086
_cell_length_b 25.461332
_cell_length_c 5.546720
_cell_angle_alpha 90.000000
_cell_angle_beta 116.471528
_cell_angle_gamma 90.000000
_cell_volume 1276.853738
_symmetry_space_group_name_H-M "P 2/C"
_symmetry_group_IT_number 13
_symmetry_cell_setting 'monoclinic'
loop_
_space_group_symop_operation_xyz
x,y,z
-x,y,1/2-z
-x,-y,-z
x,-y,1/2+z
loop_
_atom_site_type_symbol
_atom_site_label
_atom_site_fract_x
_atom_site_fract_y
_atom_site_fract_z
Si Si1 0.192973 0.140659 0.298362
Si Si2 0.791152 0.176414 0.689759
Si Si3 0.819155 0.293597 0.605811
Si Si4 0.179442 0.350570 0.393807
Si Si5 0.168252 0.018471 0.382975
Si Si6 0.488530 0.100244 0.990813
Si Si7 0.819498 0.472100 0.108079
O O1 0.147063 0.175859 0.487543
O O2 0.159120 0.080367 0.332198
O O3 0.371461 0.140169 0.407436
O O4 0.129790 0.155540 0.987676
O O5 0.753361 0.235697 0.588218
O O6 0.657908 0.134944 0.615945
O O7 0.776244 0.319498 0.314368
O O8 0.000000 0.288265 0.750000
O O9 0.777332 0.326315 0.811884
O O10 0.226231 0.411280 0.417389
O O11 0.000000 0.349989 0.250000
O O12 0.000000 0.995977 0.250000
O O13 0.235946 0.006338 0.697693
O O14 0.500000 0.070173 0.250000
O O15 0.500000 0.070108 0.750000
O O16 0.772581 0.501596 0.316201
O O17 0.000000 0.473387 0.250000
#
# Coordination Sequence:
#
# PCOD9227832 Si02
#       7
#     4   4   4   4   4   4   4
#     4  10  19  33  53  71  92 119 152 187 224 266
#     4  10  19  31  49  69  91 119 155 189 224 272
#     4  10  19  29  41  61  90 122 154 187 230 278
#     4   9  17  28  39  55  86 121 153 196 238 273
#     4  10  21  36  53  74  99 125 151 182 223 267
#     4   8  16  30  48  67  88 114 146 182 222 262
#     4   9  15  23  37  55  74 106 157 203 232 264
#
# _framework density 21.928902000000001
#
# number of rings (size 3 to 8) (size 9 to 14) (size 15 to 20)
#    0.000    2.571    0.000    2.571    0.000    4.571 
#    0.000    0.000    0.000   23.143    0.000    0.000 
#    0.000    0.000    0.000    0.000    0.000  450.000 
#
# Total GULP energy -156125.904140 kJ/mol
# GULP energy per Si atom -5575.925148 kJ/mol
# Density = 2.187899 g / cm^3
# Si number density = 21.928902 Si / 1000 Ang^3
#
#
#
# Elastic Constant Matrix: (Units=GPa)
#
#
# Indices 1 2 3 4 5 6 
#
# 1 54.4280 10.0545 43.2281 0.0000 -23.2419 0.0000
# 2 10.0545 134.6254 61.3354 0.0000 -41.0703 0.0000
# 3 43.2281 61.3354 204.8160 0.0000 -75.3953 0.0000
# 4 0.0000 0.0000 0.0000 33.6059 0.0000 -16.6858
# 5 -23.2419 -41.0703 -75.3953 0.0000 49.2498 0.0000
# 6 0.0000 0.0000 0.0000 -16.6858 0.0000 14.8786
#
#
#
# Elastic Compliance Matrix: (Units=1/GPa)
#
#
# Indices 1 2 3 4 5 6 
#
# 1 0.023831 0.002184 -0.002001 0.000000 0.010004 0.000000
# 2 0.002184 0.010165 -0.000012 0.000000 0.009489 0.000000
# 3 -0.002001 -0.000012 0.011357 0.000000 0.016432 0.000000
# 4 0.000000 0.000000 0.000000 0.067144 0.000000 0.075300
# 5 0.010004 0.009489 0.016432 0.000000 0.058095 0.000000
# 6 0.000000 0.000000 0.000000 0.075300 0.000000 0.151657
#
#
# Mechanical properties :
#
#
# Convention : Reuss Voigt Hill
#
# Bulk Modulus (GPa) = 21.88440 69.23394 45.55917
# Shear Modulus (GPa) = 14.83069 38.16361 26.49715
#
# Velocity S-wave (km/s) = 2.60341 4.17626 3.47986
# Velocity P-wave (km/s) = 4.36330 7.40914 6.08004
#
# Compressibility (1/GPa) = 0.04569465
#
# Stress axis : x y z
#
# Youngs Moduli (GPa) = 41.96273 98.37424 88.04946
#
# Poissons Ratio (x) = -0.21483 0.17620
# Poissons Ratio (y) = -0.09164 0.00105
# Poissons Ratio (z) = 0.08397 0.00117
#
# Static dielectric constant tensor:
#      x y z
#    x 1.849210 0.000000 0.014010 
#    y 0.000000 1.744890 0.000000 
#    z 0.014010 0.000000 1.911290 
# 
# From -- ./inp_files/4102.got.cif
#   From: 2010.05.17/outbox.cif.g08.bks.cpg/sg13_3_cif.got.tgz:4102.got - 2010.06.03 16:44:36.
