data_PCOD9227073
_publ_section_title
;
Structure prediction by ZEFSAII (Michael W. Deem and Ramdas Pophale) SiO2 
 PCOD9227073
Probable space group: P 2/C
;
_chemical_formula_sum "Si O2"
_cell_formula_units_Z 28
_cell_length_a 16.292380
_cell_length_b 5.551945
_cell_length_c 21.259921
_cell_angle_alpha 90.000000
_cell_angle_beta 38.085254
_cell_angle_gamma 90.000000
_cell_volume 1186.203390
_symmetry_space_group_name_H-M "P 2/C"
_symmetry_group_IT_number 13
_symmetry_cell_setting 'monoclinic'
loop_
_space_group_symop_operation_xyz
x,y,z
-x,y,1/2-z
-x,-y,-z
x,-y,1/2+z
loop_
_atom_site_type_symbol
_atom_site_label
_atom_site_fract_x
_atom_site_fract_y
_atom_site_fract_z
Si Si1 0.718659 0.427679 0.284209
Si Si2 0.747150 0.924947 0.339606
Si Si3 0.306513 0.956402 0.422179
Si Si4 0.500000 0.412361 0.750000
Si Si5 0.408917 0.314448 0.461775
Si Si6 0.000000 0.724269 0.250000
Si Si7 0.763374 0.669718 0.621338
Si Si8 0.839224 0.564659 0.941977
O O1 0.748171 0.696596 0.291088
O O2 0.556588 0.415026 0.376657
O O3 0.802424 0.383364 0.168979
O O4 0.745893 0.189963 0.310424
O O5 0.624384 0.860914 0.460010
O O6 0.877970 0.887556 0.302572
O O7 0.418040 0.756245 0.345929
O O8 0.179690 0.846460 0.534045
O O9 0.379507 0.161810 0.416757
O O10 0.254580 0.051979 0.386600
O O11 0.613849 0.567876 0.711714
O O12 0.288016 0.504408 0.526958
O O13 0.040487 0.550412 0.167803
O O14 0.830036 0.551622 0.518495
#
# Coordination Sequence:
#
# PCOD9227073 Si02
#       8
#     4   4   4   2   4   2   4   4
#     4  12  25  42  66 104 142 175 210 278 344 412
#     4  11  28  44  69  96 130 186 226 277 342 379
#     4  10  19  34  63  97 127 186 209 271 324 392
#     4  10  18  32  58  92 140 180 214 250 334 394
#     4  10  22  39  63 101 140 171 226 266 335 406
#     4  10  24  54  70  92 124 168 248 280 324 408
#     4  10  21  36  57  98 134 172 223 260 334 404
#     4   9  21  40  70  95 128 181 223 276 327 380
#
# _framework density 23.604717999999998
#
# number of rings (size 3 to 8) (size 9 to 14) (size 15 to 20)
#    0.000    1.714    0.000    4.714   12.000    0.571 
#    5.143    1.429    0.000    0.000    0.000    0.000 
#    0.000    0.000    0.000    0.000    0.000    0.000 
#
# Total GULP energy -156258.497126 kJ/mol
# GULP energy per Si atom -5580.660612 kJ/mol
# Density = 2.355099 g / cm^3
# Si number density = 23.604718 Si / 1000 Ang^3
#
#
#
# Elastic Constant Matrix: (Units=GPa)
#
#
# Indices 1 2 3 4 5 6 
#
# 1 39.6413 2.6221 14.1683 0.0000 9.0266 0.0000
# 2 2.6221 55.9789 -3.6746 0.0000 7.4127 0.0000
# 3 14.1683 -3.6746 99.8482 0.0000 24.2488 0.0000
# 4 0.0000 0.0000 0.0000 18.1775 0.0000 2.6945
# 5 9.0266 7.4127 24.2488 0.0000 36.3020 0.0000
# 6 0.0000 0.0000 0.0000 2.6945 0.0000 12.7217
#
#
#
# Elastic Compliance Matrix: (Units=1/GPa)
#
#
# Indices 1 2 3 4 5 6 
#
# 1 0.027355 -0.000826 -0.002747 0.000000 -0.004799 0.000000
# 2 -0.000826 0.018690 0.002008 0.000000 -0.004952 0.000000
# 3 -0.002747 0.002008 0.012429 0.000000 -0.008029 0.000000
# 4 0.000000 0.000000 0.000000 0.056796 0.000000 -0.012030
# 5 -0.004799 -0.004952 -0.008029 0.000000 0.035114 0.000000
# 6 0.000000 0.000000 0.000000 -0.012030 0.000000 0.081154
#
#
# Mechanical properties :
#
#
# Convention : Reuss Voigt Hill
#
# Bulk Modulus (GPa) = 18.06890 24.63334 21.35112
# Shear Modulus (GPa) = 19.75371 25.59707 22.67539
#
# Velocity S-wave (km/s) = 2.89598 3.29660 3.10276
# Velocity P-wave (km/s) = 4.34208 4.99485 4.67986
#
# Compressibility (1/GPa) = 0.05534371
#
# Stress axis : x y z
#
# Youngs Moduli (GPa) = 36.55604 53.50420 80.45855
#
# Poissons Ratio (x) = 0.04421 0.22100
# Poissons Ratio (y) = 0.03020 -0.16154
# Poissons Ratio (z) = 0.10041 -0.10742
#
# Static dielectric constant tensor:
#      x y z
#    x 1.921200 0.000000 0.066210 
#    y 0.000000 1.945110 0.000000 
#    z 0.066210 0.000000 2.010860 
# 
# From -- ./inp_files/80649.got.cif
#   From: 2010.05.17/outbox.cif.g08.bks.cpg/sg13_41_cif.got.tgz:80649.got - 2010.06.03 16:44:36.
