data_PCOD9227941
_publ_section_title
;
Structure prediction by ZEFSAII (Michael W. Deem and Ramdas Pophale) SiO2 
 PCOD9227941
Probable space group: P 2/C
;
_chemical_formula_sum "Si O2"
_cell_formula_units_Z 24
_cell_length_a 34.172806
_cell_length_b 5.263269
_cell_length_c 5.137605
_cell_angle_alpha 90.000000
_cell_angle_beta 98.882695
_cell_angle_gamma 90.000000
_cell_volume 912.970493
_symmetry_space_group_name_H-M "P 2/C"
_symmetry_group_IT_number 13
_symmetry_cell_setting 'monoclinic'
loop_
_space_group_symop_operation_xyz
x,y,z
-x,y,1/2-z
-x,-y,-z
x,-y,1/2+z
loop_
_atom_site_type_symbol
_atom_site_label
_atom_site_fract_x
_atom_site_fract_y
_atom_site_fract_z
Si Si1 0.835900 0.345427 0.520190
Si Si2 0.251659 0.844170 0.446779
Si Si3 0.500000 0.330695 0.250000
Si Si4 0.588415 0.856172 0.898149
Si Si5 0.332084 0.821512 0.675155
Si Si6 0.083131 0.678459 0.251978
Si Si7 0.000000 0.316291 0.750000
O O1 0.838712 0.413891 0.220398
O O2 0.792124 0.250873 0.537229
O O3 0.874853 0.188925 0.647155
O O4 0.290436 0.684705 0.573695
O O5 0.254421 0.084269 0.647699
O O6 0.500000 0.500000 0.500000
O O7 0.457389 0.200302 0.201914
O O8 0.593180 0.096678 0.708162
O O9 0.625655 0.688970 0.836837
O O10 0.331678 0.046759 0.455386
O O11 0.082771 0.448567 0.466708
O O12 0.042122 0.824673 0.268794
O O13 0.000000 0.500000 0.500000
#
# Coordination Sequence:
#
# PCOD9227941 Si02
#       7
#     4   4   2   4   4   4   2
#     4  10  19  31  46  69  97 124 153 193 238 283
#     4  10  19  33  51  72  96 126 160 196 235 281
#     4  12  24  36  50  78 112 132 152 198 250 284
#     4  10  19  36  58  75  93 130 173 199 226 280
#     4   8  16  30  51  73  92 118 162 205 229 262
#     4   8  14  23  37  57  84 112 144 185 229 269
#     4   8  12  20  34  54  78 108 142 182 226 266
#
# _framework density 26.287813
#
# number of rings (size 3 to 8) (size 9 to 14) (size 15 to 20)
#    0.000    2.667    0.000    2.500    0.000    0.000 
#    0.000    1.667    0.000    0.000    0.000    1.167 
#    0.000    0.000    0.000    0.000    0.000    0.000 
#
# Total GULP energy -133880.902833 kJ/mol
# GULP energy per Si atom -5578.370951 kJ/mol
# Density = 2.622798 g / cm^3
# Si number density = 26.287813 Si / 1000 Ang^3
#
#
#
# Elastic Constant Matrix: (Units=GPa)
#
#
# Indices 1 2 3 4 5 6 
#
# 1 308.7929 19.6705 13.5525 0.0000 8.0651 0.0000
# 2 19.6705 33.0061 31.2202 0.0000 -2.2181 0.0000
# 3 13.5525 31.2202 156.8590 0.0000 -15.9231 0.0000
# 4 0.0000 0.0000 0.0000 36.6725 0.0000 -8.5520
# 5 8.0651 -2.2181 -15.9231 0.0000 48.2706 0.0000
# 6 0.0000 0.0000 0.0000 -8.5520 0.0000 -1.2838
#
#
#
# Elastic Compliance Matrix: (Units=1/GPa)
#
#
# Indices 1 2 3 4 5 6 
#
# 1 0.003388 -0.002123 0.000065 0.000000 -0.000642 0.000000
# 2 -0.002123 0.038682 -0.007552 0.000000 -0.000359 0.000000
# 3 0.000065 -0.007552 0.008108 0.000000 0.002317 0.000000
# 4 0.000000 0.000000 0.000000 0.010679 0.000000 -0.071139
# 5 -0.000642 -0.000359 0.002317 0.000000 0.021572 0.000000
# 6 0.000000 0.000000 0.000000 -0.071139 0.000000 -0.305054
#
#
# Mechanical properties :
#
#
# Convention : Reuss Voigt Hill
#
# Bulk Modulus (GPa) = 32.30351 69.72715 51.01533
# Shear Modulus (GPa) = -25.89518 45.67952 9.89217
#
# Velocity S-wave (km/s) = -3.14198 4.17306 1.94196
# Velocity P-wave (km/s) = 0.92067 7.05700 4.94741
#
# Compressibility (1/GPa) = 0.03095639
#
# Stress axis : x y z
#
# Youngs Moduli (GPa) = 295.19374 25.85176 123.33743
#
# Poissons Ratio (x) = 0.05489 -0.00798
# Poissons Ratio (y) = 0.62678 0.93145
# Poissons Ratio (z) = -0.01911 0.19523
#
# Static dielectric constant tensor:
#      x y z
#    x 2.359310 0.000000 0.043270 
#    y 0.000000 1.985820 0.000000 
#    z 0.043270 0.000000 1.956490 
# 
# From -- ./inp_files/7750.got.cif
#   From: 2010.05.17/outbox.cif.g08.bks.cpg/sg13_4_cif.got.tgz:7750.got - 2010.06.03 16:44:36.
