data_PCOD9227140
_publ_section_title
;
Structure prediction by ZEFSAII (Michael W. Deem and Ramdas Pophale) SiO2 
 PCOD9227140
Probable space group: P 2/C
;
_chemical_formula_sum "Si O2"
_cell_formula_units_Z 26
_cell_length_a 8.546206
_cell_length_b 7.220238
_cell_length_c 20.682049
_cell_angle_alpha 90.000000
_cell_angle_beta 53.497975
_cell_angle_gamma 90.000000
_cell_volume 1025.854570
_symmetry_space_group_name_H-M "P 2/C"
_symmetry_group_IT_number 13
_symmetry_cell_setting 'monoclinic'
loop_
_space_group_symop_operation_xyz
x,y,z
-x,y,1/2-z
-x,-y,-z
x,-y,1/2+z
loop_
_atom_site_type_symbol
_atom_site_label
_atom_site_fract_x
_atom_site_fract_y
_atom_site_fract_z
Si Si1 0.000000 0.137088 0.750000
Si Si2 0.047429 0.786736 0.670823
Si Si3 0.386359 0.256629 0.464448
Si Si4 0.379326 0.243219 0.220564
Si Si5 0.948386 0.302139 0.544141
Si Si6 0.341347 0.308972 0.992840
Si Si7 0.696618 0.667474 0.232834
O O1 0.173620 0.242230 0.742927
O O2 0.109443 0.993068 0.674812
O O3 0.182432 0.681656 0.589525
O O4 0.000000 0.681731 0.750000
O O5 0.830322 0.821087 0.703101
O O6 0.526761 0.191209 0.371303
O O7 0.159528 0.208273 0.505874
O O8 0.477560 0.215730 0.513300
O O9 0.395810 0.482593 0.459858
O O10 0.500000 0.173259 0.250000
O O11 0.369868 0.466362 0.225906
O O12 0.000000 0.500000 0.500000
O O13 0.782161 0.220798 0.536150
O O14 0.845263 0.343205 0.636823
O O15 0.500000 0.753383 0.250000
#
# Coordination Sequence:
#
# PCOD9227140 Si02
#       7
#     2   4   4   4   4   4   4
#     4  10  26  42  62  84 130 172 210 250 302 374
#     4  10  21  40  59  89 119 164 214 251 300 363
#     4  10  19  31  55  92 122 153 184 251 327 357
#     4  11  20  35  65  97 121 154 212 267 312 363
#     4  10  20  35  56  89 124 150 191 253 311 363
#     4  10  18  33  55  81 121 152 195 249 298 362
#     4  11  24  41  64  95 125 162 206 256 316 367
#
# _framework density 25.344723999999999
#
# number of rings (size 3 to 8) (size 9 to 14) (size 15 to 20)
#    0.462    1.231    1.538    6.462    1.077    5.538 
#    0.000    0.769    0.000   11.077    0.000    0.000 
#    0.000    0.000    0.000    0.000    0.000    0.000 
#
# Total GULP energy -145010.848250 kJ/mol
# GULP energy per Si atom -5577.340317 kJ/mol
# Density = 2.528704 g / cm^3
# Si number density = 25.344724 Si / 1000 Ang^3
#
#
#
# Elastic Constant Matrix: (Units=GPa)
#
#
# Indices 1 2 3 4 5 6 
#
# 1 246.4450 26.6574 25.4494 0.0000 -7.2039 0.0000
# 2 26.6574 66.2626 10.0762 0.0000 -3.1208 0.0000
# 3 25.4494 10.0762 115.7812 0.0000 -8.0132 0.0000
# 4 0.0000 0.0000 0.0000 -86.1905 0.0000 -180.0677
# 5 -7.2039 -3.1208 -8.0132 0.0000 39.2694 0.0000
# 6 0.0000 0.0000 0.0000 -180.0677 0.0000 -306.9455
#
#
#
# Elastic Compliance Matrix: (Units=1/GPa)
#
#
# Indices 1 2 3 4 5 6 
#
# 1 0.004326 -0.001598 -0.000777 0.000000 0.000508 0.000000
# 2 -0.001598 0.015920 -0.000981 0.000000 0.000772 0.000000
# 3 -0.000777 -0.000981 0.009005 0.000000 0.001617 0.000000
# 4 0.000000 0.000000 0.000000 0.051427 0.000000 -0.030169
# 5 0.000508 0.000772 0.001617 0.000000 0.025950 0.000000
# 6 0.000000 0.000000 0.000000 -0.030169 0.000000 0.014441
#
#
# Mechanical properties :
#
#
# Convention : Reuss Voigt Hill
#
# Bulk Modulus (GPa) = 44.36659 61.42831 52.89745
# Shear Modulus (GPa) = 36.95714 -46.35294 -4.69790
#
# Velocity S-wave (km/s) = 3.82275 -4.28120 -1.36295
# Velocity P-wave (km/s) = 6.08505 0.38539 4.29414
#
# Compressibility (1/GPa) = 0.02253948
#
# Stress axis : x y z
#
# Youngs Moduli (GPa) = 231.18100 62.81443 111.05016
#
# Poissons Ratio (x) = 0.10039 0.08624
# Poissons Ratio (y) = 0.36947 0.10891
# Poissons Ratio (z) = 0.17952 0.06161
#
# Static dielectric constant tensor:
#      x y z
#    x 2.188310 0.000000 0.107990 
#    y 0.000000 1.993910 0.000000 
#    z 0.107990 0.000000 1.789510 
# 
# From -- ./inp_files/75931.got.cif
#   From: 2010.05.17/outbox.cif.g08.bks.cpg/sg13_38_cif.got.tgz:75931.got - 2010.06.03 16:44:36.
