data_PCOD9227289
_publ_section_title
;
Structure prediction by ZEFSAII (Michael W. Deem and Ramdas Pophale) SiO2 
 PCOD9227289
Probable space group: P 2/C
;
_chemical_formula_sum "Si O2"
_cell_formula_units_Z 24
_cell_length_a 6.332048
_cell_length_b 15.088122
_cell_length_c 14.296289
_cell_angle_alpha 90.000000
_cell_angle_beta 45.651169
_cell_angle_gamma 90.000000
_cell_volume 976.714886
_symmetry_space_group_name_H-M "P 2/C"
_symmetry_group_IT_number 13
_symmetry_cell_setting 'monoclinic'
loop_
_space_group_symop_operation_xyz
x,y,z
-x,y,1/2-z
-x,-y,-z
x,-y,1/2+z
loop_
_atom_site_type_symbol
_atom_site_label
_atom_site_fract_x
_atom_site_fract_y
_atom_site_fract_z
Si Si1 0.890193 0.600506 0.687072
Si Si2 0.500000 0.166783 0.750000
Si Si3 0.457392 0.312675 0.918105
Si Si4 0.487980 0.750809 0.594569
Si Si5 0.000000 0.096848 0.250000
Si Si6 0.500000 0.545040 0.250000
Si Si7 0.952447 0.986767 0.124489
Si Si8 0.500000 0.863262 0.750000
O O1 0.653900 0.671059 0.801160
O O2 0.767445 0.524278 0.658942
O O3 0.000000 0.557244 0.750000
O O4 0.147799 0.654439 0.557262
O O5 0.430314 0.228837 0.859242
O O6 0.228794 0.102058 0.809451
O O7 0.557434 0.392768 0.820947
O O8 0.640321 0.286658 0.954859
O O9 0.238362 0.821894 0.641855
O O10 0.657021 0.806888 0.621397
O O11 0.181005 0.014287 0.130801
O O12 0.749910 0.074852 0.218384
O O13 0.000000 0.000000 0.000000
#
# Coordination Sequence:
#
# PCOD9227289 Si02
#       8
#     4   2   4   4   2   2   4   2
#     4  10  21  38  63  89 119 159 205 250 304 368
#     4  10  22  38  58  86 120 160 202 236 314 348
#     4  10  21  39  63  83 125 160 190 259 299 364
#     4  10  18  36  59  84 115 156 200 241 297 353
#     4  10  18  34  58  80 116 154 198 232 294 348
#     4  11  23  39  63  94 120 160 207 241 319 363
#     4  10  21  35  56  84 118 157 197 249 288 356
#     4   9  21  33  55  90 108 154 213 235 291 361
#
# _framework density 24.572164999999998
#
# number of rings (size 3 to 8) (size 9 to 14) (size 15 to 20)
#    0.000    2.000    2.500    2.000    2.333    4.000 
#    0.000    6.667    7.333    0.000    0.000    0.000 
#    0.000    0.000    0.000    0.000    0.000    0.000 
#
# Total GULP energy -133632.875555 kJ/mol
# GULP energy per Si atom -5568.036481 kJ/mol
# Density = 2.451624 g / cm^3
# Si number density = 24.572165 Si / 1000 Ang^3
#
#
#
# Elastic Constant Matrix: (Units=GPa)
#
#
# Indices 1 2 3 4 5 6 
#
# 1 50.4510 40.3381 32.5097 0.0000 27.2825 0.0000
# 2 40.3381 159.6895 59.0654 0.0000 22.3730 0.0000
# 3 32.5097 59.0654 120.8816 0.0000 43.4163 0.0000
# 4 0.0000 0.0000 0.0000 5.7490 0.0000 -1.3367
# 5 27.2825 22.3730 43.4163 0.0000 36.4537 0.0000
# 6 0.0000 0.0000 0.0000 -1.3367 0.0000 26.6795
#
#
#
# Elastic Compliance Matrix: (Units=1/GPa)
#
#
# Indices 1 2 3 4 5 6 
#
# 1 0.038793 -0.006997 0.003270 0.000000 -0.028633 0.000000
# 2 -0.006997 0.008909 -0.004174 0.000000 0.004740 0.000000
# 3 0.003270 -0.004174 0.016412 0.000000 -0.019432 0.000000
# 4 0.000000 0.000000 0.000000 0.175993 0.000000 0.008818
# 5 -0.028633 0.004740 -0.019432 0.000000 0.069097 0.000000
# 6 0.000000 0.000000 0.000000 0.008818 0.000000 0.037924
#
#
# Mechanical properties :
#
#
# Convention : Reuss Voigt Hill
#
# Bulk Modulus (GPa) = 20.69863 66.09429 43.39646
# Shear Modulus (GPa) = 13.19146 27.05036 20.12091
#
# Velocity S-wave (km/s) = 2.31951 3.32151 2.86466
# Velocity P-wave (km/s) = 3.95163 6.45495 5.35172
#
# Compressibility (1/GPa) = 0.04831237
#
# Stress axis : x y z
#
# Youngs Moduli (GPa) = 25.77811 112.24086 60.93112
#
# Poissons Ratio (x) = 0.78536 -0.19926
# Poissons Ratio (y) = 0.18037 0.25432
# Poissons Ratio (z) = -0.08430 0.46848
#
# Static dielectric constant tensor:
#      x y z
#    x 2.667570 0.000000 0.222960 
#    y 0.000000 1.935280 0.000000 
#    z 0.222960 0.000000 2.122010 
# 
# From -- ./inp_files/47421.got.cif
#   From: 2010.05.17/outbox.cif.g08.bks.cpg/sg13_24_cif.got.tgz:47421.got - 2010.06.03 16:44:36.
