data_PCOD9227819
_publ_section_title
;
Structure prediction by ZEFSAII (Michael W. Deem and Ramdas Pophale) SiO2 
 PCOD9227819
Probable space group: P 2/C
;
_chemical_formula_sum "Si O2"
_cell_formula_units_Z 20
_cell_length_a 9.257881
_cell_length_b 5.733181
_cell_length_c 26.619163
_cell_angle_alpha 90.000000
_cell_angle_beta 32.902116
_cell_angle_gamma 90.000000
_cell_volume 767.477704
_symmetry_space_group_name_H-M "P 2/C"
_symmetry_group_IT_number 13
_symmetry_cell_setting 'monoclinic'
loop_
_space_group_symop_operation_xyz
x,y,z
-x,y,1/2-z
-x,-y,-z
x,-y,1/2+z
loop_
_atom_site_type_symbol
_atom_site_label
_atom_site_fract_x
_atom_site_fract_y
_atom_site_fract_z
Si Si1 0.000000 0.974005 0.250000
Si Si2 0.871993 0.596197 0.164192
Si Si3 0.497599 0.138590 0.659648
Si Si4 0.235998 0.047154 0.508603
Si Si5 0.500000 0.217576 0.250000
Si Si6 0.732415 0.719306 0.905823
O O1 0.735134 0.840861 0.314397
O O2 0.950343 0.135290 0.312035
O O3 0.773287 0.365310 0.165519
O O4 0.968846 0.809413 0.100970
O O5 0.129112 0.527911 0.123041
O O6 0.607821 0.654322 0.273763
O O7 0.741658 0.079246 0.551609
O O8 0.479875 0.929338 0.704785
O O9 0.470478 0.244596 0.447962
O O10 0.302169 0.854241 0.531590
#
# Coordination Sequence:
#
# PCOD9227819 Si02
#       6
#     2   4   4   4   2   4
#     4  10  18  44  70  96 140 174 224 296 338 398
#     4  12  23  44  72  99 142 189 236 284 349 430
#     4  11  25  45  70 101 143 185 227 291 355 402
#     4  10  23  44  68 107 143 178 229 300 350 408
#     4  12  26  46  66 102 144 192 236 282 352 420
#     4  10  21  41  67 106 141 174 230 289 353 412
#
# _framework density 26.059391999999999
#
# number of rings (size 3 to 8) (size 9 to 14) (size 15 to 20)
#    0.000    1.200    4.000    1.200    0.000    3.200 
#    0.000    7.000    0.000    0.000    0.000    0.000 
#    0.000    0.000    0.000    0.000    0.000    0.000 
#
# Total GULP energy -111620.786569 kJ/mol
# GULP energy per Si atom -5581.039328 kJ/mol
# Density = 2.600008 g / cm^3
# Si number density = 26.059392 Si / 1000 Ang^3
#
#
#
# Elastic Constant Matrix: (Units=GPa)
#
#
# Indices 1 2 3 4 5 6 
#
# 1 87.9745 18.1974 32.1376 0.0000 0.7400 0.0000
# 2 18.1974 48.6606 12.4647 0.0000 0.4668 0.0000
# 3 32.1376 12.4647 121.4719 0.0000 22.9587 0.0000
# 4 0.0000 0.0000 0.0000 909.7401 0.0000 -397.0573
# 5 0.7400 0.4668 22.9587 0.0000 54.9609 0.0000
# 6 0.0000 0.0000 0.0000 -397.0573 0.0000 211.2467
#
#
#
# Elastic Compliance Matrix: (Units=1/GPa)
#
#
# Indices 1 2 3 4 5 6 
#
# 1 0.013451 -0.004180 -0.003368 0.000000 0.001261 0.000000
# 2 -0.004180 0.022435 -0.001271 0.000000 0.000397 0.000000
# 3 -0.003368 -0.001271 0.010036 0.000000 -0.004136 0.000000
# 4 0.000000 0.000000 0.000000 0.006119 0.000000 0.011501
# 5 0.001261 0.000397 -0.004136 0.000000 0.019902 0.000000
# 6 0.000000 0.000000 0.000000 0.011501 0.000000 0.026350
#
#
# Mechanical properties :
#
#
# Convention : Reuss Voigt Hill
#
# Bulk Modulus (GPa) = 35.35595 42.63403 38.99499
# Shear Modulus (GPa) = 39.88515 248.21003 144.04759
#
# Velocity S-wave (km/s) = 3.91647 9.77009 7.44289
# Velocity P-wave (km/s) = 5.83511 11.98619 9.42648
#
# Compressibility (1/GPa) = 0.02828378
#
# Stress axis : x y z
#
# Youngs Moduli (GPa) = 74.34205 44.57237 99.64429
#
# Poissons Ratio (x) = 0.18630 0.33563
# Poissons Ratio (y) = 0.31072 0.12669
# Poissons Ratio (z) = 0.25041 0.05667
#
# Static dielectric constant tensor:
#      x y z
#    x 2.100850 0.000000 -0.073600 
#    y 0.000000 2.125570 0.000000 
#    z -0.073600 0.000000 2.137160 
# 
# From -- ./inp_files/56411.got.cif
#   From: 2010.05.17/outbox.cif.g08.bks.cpg/sg13_29_cif.got.tgz:56411.got - 2010.06.03 16:44:36.
