data_PCOD9227798
_publ_section_title
;
Structure prediction by ZEFSAII (Michael W. Deem and Ramdas Pophale) SiO2 
 PCOD9227798
Probable space group: P 2/C
;
_chemical_formula_sum "Si O2"
_cell_formula_units_Z 28
_cell_length_a 14.885879
_cell_length_b 8.012177
_cell_length_c 14.052419
_cell_angle_alpha 90.000000
_cell_angle_beta 44.535563
_cell_angle_gamma 90.000000
_cell_volume 1175.471352
_symmetry_space_group_name_H-M "P 2/C"
_symmetry_group_IT_number 13
_symmetry_cell_setting 'monoclinic'
loop_
_space_group_symop_operation_xyz
x,y,z
-x,y,1/2-z
-x,-y,-z
x,-y,1/2+z
loop_
_atom_site_type_symbol
_atom_site_label
_atom_site_fract_x
_atom_site_fract_y
_atom_site_fract_z
Si Si1 0.372324 0.290534 0.121937
Si Si2 0.447582 0.521568 0.396700
Si Si3 0.243877 0.280117 0.481055
Si Si4 0.825131 0.830656 0.154843
Si Si5 0.413971 0.023713 0.231945
Si Si6 0.850152 0.537409 0.625842
Si Si7 0.030785 0.992992 0.628074
O O1 0.436033 0.443720 0.131161
O O2 0.443801 0.132814 0.115189
O O3 0.219834 0.314329 0.261174
O O4 0.399388 0.316319 0.990469
O O5 0.500000 0.542307 0.250000
O O6 0.330837 0.385915 0.487762
O O7 0.344552 0.166426 0.347972
O O8 0.192540 0.420338 0.448474
O O9 0.127284 0.147962 0.582742
O O10 0.808223 0.640699 0.195868
O O11 0.904711 0.928635 0.174741
O O12 0.687053 0.896529 0.232858
O O13 0.906070 0.871340 0.997420
O O14 0.500000 0.945755 0.250000
O O15 0.000000 0.500000 0.500000
O O16 0.000000 0.904591 0.750000
#
# Coordination Sequence:
#
# PCOD9227798 Si02
#       7
#     4   4   4   4   4   4   4
#     4  10  22  36  67  94 129 172 219 280 334 392
#     4  11  19  38  63  98 124 168 224 279 328 392
#     4  10  19  36  67  87 126 167 216 267 331 388
#     4  10  23  40  64  94 132 172 219 275 330 394
#     4  10  18  41  64  92 125 177 222 268 337 405
#     4  11  21  40  63  99 134 166 216 283 329 389
#     4  10  22  41  64  91 130 178 213 263 336 414
#
# _framework density 23.820232000000001
#
# number of rings (size 3 to 8) (size 9 to 14) (size 15 to 20)
#    0.000    1.714    5.714    0.000    4.000    0.000 
#    5.143    0.714    0.000    6.857    0.000    0.000 
#    0.000    0.000    0.000    0.000    0.000    0.000 
#
# Total GULP energy -156092.102820 kJ/mol
# GULP energy per Si atom -5574.717958 kJ/mol
# Density = 2.376602 g / cm^3
# Si number density = 23.820232 Si / 1000 Ang^3
#
#
#
# Elastic Constant Matrix: (Units=GPa)
#
#
# Indices 1 2 3 4 5 6 
#
# 1 97.7680 12.9232 60.7737 0.0000 -8.1976 0.0000
# 2 12.9232 42.6596 9.9756 0.0000 2.9929 0.0000
# 3 60.7737 9.9756 86.9425 0.0000 20.2814 0.0000
# 4 0.0000 0.0000 0.0000 6.5311 0.0000 -2.1723
# 5 -8.1976 2.9929 20.2814 0.0000 36.5934 0.0000
# 6 0.0000 0.0000 0.0000 -2.1723 0.0000 25.6830
#
#
#
# Elastic Compliance Matrix: (Units=1/GPa)
#
#
# Indices 1 2 3 4 5 6 
#
# 1 0.025919 -0.004008 -0.021923 0.000000 0.018285 0.000000
# 2 -0.004008 0.024716 0.000743 0.000000 -0.003331 0.000000
# 3 -0.021923 0.000743 0.032044 0.000000 -0.022732 0.000000
# 4 0.000000 0.000000 0.000000 0.157545 0.000000 0.013326
# 5 0.018285 -0.003331 -0.022732 0.000000 0.044295 0.000000
# 6 0.000000 0.000000 0.000000 0.013326 0.000000 0.040063
#
#
# Mechanical properties :
#
#
# Convention : Reuss Voigt Hill
#
# Bulk Modulus (GPa) = 30.95799 43.85723 37.40761
# Shear Modulus (GPa) = 12.96261 23.34133 18.15197
#
# Velocity S-wave (km/s) = 2.33531 3.13372 2.76350
# Velocity P-wave (km/s) = 4.50514 5.61653 5.09125
#
# Compressibility (1/GPa) = 0.03230184
#
# Stress axis : x y z
#
# Youngs Moduli (GPa) = 38.58214 40.46039 31.20739
#
# Poissons Ratio (x) = 0.16217 0.68416
# Poissons Ratio (y) = 0.15464 -0.02318
# Poissons Ratio (z) = 0.84583 -0.03006
#
# Static dielectric constant tensor:
#      x y z
#    x 1.907110 0.000000 -0.191490 
#    y 0.000000 1.722880 0.000000 
#    z -0.191490 0.000000 1.692600 
# 
# From -- ./inp_files/52982.got.cif
#   From: 2010.05.17/outbox.cif.g08.bks.cpg/sg13_27_cif.got.tgz:52982.got - 2010.06.03 16:44:36.
