data_PCOD9227743
_publ_section_title
;
Structure prediction by ZEFSAII (Michael W. Deem and Ramdas Pophale) SiO2 
 PCOD9227743
Probable space group: P 2/C
;
_chemical_formula_sum "Si O2"
_cell_formula_units_Z 28
_cell_length_a 27.878072
_cell_length_b 7.572189
_cell_length_c 9.944802
_cell_angle_alpha 90.000000
_cell_angle_beta 147.881230
_cell_angle_gamma 90.000000
_cell_volume 1116.162513
_symmetry_space_group_name_H-M "P 2/C"
_symmetry_group_IT_number 13
_symmetry_cell_setting 'monoclinic'
loop_
_space_group_symop_operation_xyz
x,y,z
-x,y,1/2-z
-x,-y,-z
x,-y,1/2+z
loop_
_atom_site_type_symbol
_atom_site_label
_atom_site_fract_x
_atom_site_fract_y
_atom_site_fract_z
Si Si1 0.500000 0.380309 0.750000
Si Si2 0.192337 0.160321 0.861873
Si Si3 0.327605 0.361992 0.042970
Si Si4 0.104207 0.991684 0.891866
Si Si5 0.982648 0.361264 0.043331
Si Si6 0.000000 0.666913 0.250000
Si Si7 0.335598 0.626890 0.271492
Si Si8 0.520975 0.199199 0.528713
O O1 0.416190 0.487484 0.491961
O O2 0.541520 0.275363 0.724298
O O3 0.159036 0.088448 0.642438
O O4 0.124326 0.323820 0.725448
O O5 0.170333 0.023931 0.924800
O O6 0.292058 0.223119 0.068426
O O7 0.297856 0.544972 0.043962
O O8 0.433097 0.311963 0.271976
O O9 0.284859 0.355800 0.791720
O O10 0.028744 0.842172 0.671514
O O11 0.074255 0.185007 0.878996
O O12 0.000000 0.427972 0.250000
O O13 0.018689 0.398329 0.967122
O O14 0.393838 0.794008 0.367695
O O15 0.500000 0.000000 0.500000
#
# Coordination Sequence:
#
# PCOD9227743 Si02
#       8
#     2   4   4   4   4   2   4   4
#     4  10  18  38  70  96 122 176 234 270 318 398
#     4  12  26  46  67 105 144 180 227 299 361 402
#     4  11  25  42  70  97 141 179 223 284 356 399
#     4  12  25  47  71 103 141 185 239 297 341 430
#     4  12  23  41  75 104 134 186 247 277 353 429
#     4  12  20  40  78 102 130 182 244 290 330 428
#     4  11  20  46  69  97 131 186 231 274 329 429
#     4  11  23  39  70 103 132 179 234 279 333 411
#
# _framework density 25.085953
#
# number of rings (size 3 to 8) (size 9 to 14) (size 15 to 20)
#    0.000    0.571    7.143    2.143    2.000    3.429 
#    2.571    2.857    0.000    0.000    0.000    0.000 
#    0.000    0.000    0.000    0.000    0.000    0.000 
#
# Total GULP energy -155930.096170 kJ/mol
# GULP energy per Si atom -5568.932006 kJ/mol
# Density = 2.502886 g / cm^3
# Si number density = 25.085953 Si / 1000 Ang^3
#
#
#
# Elastic Constant Matrix: (Units=GPa)
#
#
# Indices 1 2 3 4 5 6 
#
# 1 178.3924 49.2247 28.6792 0.0000 -31.1537 0.0000
# 2 49.2247 134.4391 17.3285 0.0000 -17.3609 0.0000
# 3 28.6792 17.3285 18.0857 0.0000 -15.5740 0.0000
# 4 0.0000 0.0000 0.0000 10.3294 0.0000 -10.5942
# 5 -31.1537 -17.3609 -15.5740 0.0000 36.0670 0.0000
# 6 0.0000 0.0000 0.0000 -10.5942 0.0000 61.4445
#
#
#
# Elastic Compliance Matrix: (Units=1/GPa)
#
#
# Indices 1 2 3 4 5 6 
#
# 1 0.007855 -0.001406 -0.009311 0.000000 0.002087 0.000000
# 2 -0.001406 0.008757 -0.005694 0.000000 0.000542 0.000000
# 3 -0.009311 -0.005694 0.105430 0.000000 0.034742 0.000000
# 4 0.000000 0.000000 0.000000 0.117610 0.000000 0.020278
# 5 0.002087 0.000542 0.034742 0.000000 0.044792 0.000000
# 6 0.000000 0.000000 0.000000 0.020278 0.000000 0.019771
#
#
# Mechanical properties :
#
#
# Convention : Reuss Voigt Hill
#
# Bulk Modulus (GPa) = 11.20830 57.93133 34.56982
# Shear Modulus (GPa) = 13.63226 37.28049 25.45638
#
# Velocity S-wave (km/s) = 2.33367 3.85919 3.18900
# Velocity P-wave (km/s) = 3.42622 6.55752 5.23164
#
# Compressibility (1/GPa) = 0.08921957
#
# Stress axis : x y z
#
# Youngs Moduli (GPa) = 127.30496 114.19266 9.48499
#
# Poissons Ratio (x) = 0.16060 0.08832
# Poissons Ratio (y) = 0.17905 0.05400
# Poissons Ratio (z) = 1.18536 0.65017
#
# Static dielectric constant tensor:
#      x y z
#    x 2.010220 0.000000 0.030600 
#    y 0.000000 2.110950 0.000000 
#    z 0.030600 0.000000 2.007250 
# 
# From -- ./inp_files/24623.got.cif
#   From: 2010.05.17/outbox.cif.g08.bks.cpg/sg13_13_cif.got.tgz:24623.got - 2010.06.03 16:44:36.
