data_PCOD9227029
_publ_section_title
;
Structure prediction by ZEFSAII (Michael W. Deem and Ramdas Pophale) SiO2 
 PCOD9227029
Probable space group: P 2/C
;
_chemical_formula_sum "Si O2"
_cell_formula_units_Z 28
_cell_length_a 14.727423
_cell_length_b 9.463673
_cell_length_c 11.245294
_cell_angle_alpha 90.000000
_cell_angle_beta 68.234469
_cell_angle_gamma 90.000000
_cell_volume 1455.583048
_symmetry_space_group_name_H-M "P 2/C"
_symmetry_group_IT_number 13
_symmetry_cell_setting 'monoclinic'
loop_
_space_group_symop_operation_xyz
x,y,z
-x,y,1/2-z
-x,-y,-z
x,-y,1/2+z
loop_
_atom_site_type_symbol
_atom_site_label
_atom_site_fract_x
_atom_site_fract_y
_atom_site_fract_z
Si Si1 0.806728 0.029315 0.954004
Si Si2 0.816895 0.532506 0.560023
Si Si3 0.655620 0.510390 0.834656
Si Si4 0.897465 0.788335 0.619896
Si Si5 0.000000 0.043713 0.250000
Si Si6 0.779019 0.284234 0.416539
Si Si7 0.661862 0.264306 0.998671
Si Si8 0.500000 0.331076 0.250000
O O1 0.900044 0.039148 0.819715
O O2 0.772553 0.867145 0.983118
O O3 0.844377 0.101778 0.057609
O O4 0.717955 0.120752 0.945429
O O5 0.753175 0.489225 0.706620
O O6 0.905417 0.637108 0.551295
O O7 0.836685 0.397108 0.469569
O O8 0.742937 0.636343 0.524472
O O9 0.683135 0.628413 0.921250
O O10 0.569545 0.571596 0.796663
O O11 0.628808 0.361739 0.906114
O O12 0.831251 0.754450 0.767116
O O13 0.990138 0.861364 0.635847
O O14 0.572327 0.242904 0.131575
#
# Coordination Sequence:
#
# PCOD9227029 Si02
#       8
#     4   4   4   4   2   4   4   2
#     4  10  20  35  55  78 108 149 187 226 272 325
#     4   8  16  31  53  77 104 141 180 222 272 322
#     4   9  17  32  54  81 110 141 183 228 274 329
#     4   9  18  34  53  78 109 140 183 230 270 323
#     4  10  20  34  56  82 110 148 188 228 276 328
#     4   9  18  33  55  80 109 148 184 223 274 324
#     4   9  18  32  53  78 106 142 184 224 271 327
#     4  10  18  32  56  82 110 146 180 230 282 328
#
# _framework density 19.236279
#
# number of rings (size 3 to 8) (size 9 to 14) (size 15 to 20)
#    0.000    2.857    0.000    1.714    0.000    2.286 
#    0.000    3.571    0.000   49.714    0.000    3.000 
#    0.000    0.000    0.000    0.000    0.000    0.000 
#
# Total GULP energy -155876.964675 kJ/mol
# GULP energy per Si atom -5567.034453 kJ/mol
# Density = 1.919250 g / cm^3
# Si number density = 19.236279 Si / 1000 Ang^3
#
#
#
# Elastic Constant Matrix: (Units=GPa)
#
#
# Indices 1 2 3 4 5 6 
#
# 1 69.1670 37.0425 22.6682 0.0000 6.1786 0.0000
# 2 37.0425 133.6358 44.7397 0.0000 10.3095 0.0000
# 3 22.6682 44.7397 58.6989 0.0000 1.5843 0.0000
# 4 0.0000 0.0000 0.0000 29.5595 0.0000 6.2088
# 5 6.1786 10.3095 1.5843 0.0000 21.2407 0.0000
# 6 0.0000 0.0000 0.0000 6.2088 0.0000 26.8943
#
#
#
# Elastic Compliance Matrix: (Units=1/GPa)
#
#
# Indices 1 2 3 4 5 6 
#
# 1 0.017923 -0.003256 -0.004350 0.000000 -0.003308 0.000000
# 2 -0.003256 0.011049 -0.007059 0.000000 -0.003889 0.000000
# 3 -0.004350 -0.007059 0.024018 0.000000 0.002900 0.000000
# 4 0.000000 0.000000 0.000000 0.035554 0.000000 -0.008208
# 5 -0.003308 -0.003889 0.002900 0.000000 0.049713 0.000000
# 6 0.000000 0.000000 0.000000 -0.008208 0.000000 0.039077
#
#
# Mechanical properties :
#
#
# Convention : Reuss Voigt Hill
#
# Bulk Modulus (GPa) = 42.26724 52.26695 47.26710
# Shear Modulus (GPa) = 23.30442 26.00899 24.65671
#
# Velocity S-wave (km/s) = 3.48441 3.68105 3.58408
# Velocity P-wave (km/s) = 6.18131 6.73030 6.46163
#
# Compressibility (1/GPa) = 0.02365898
#
# Stress axis : x y z
#
# Youngs Moduli (GPa) = 55.79438 90.50652 41.63565
#
# Poissons Ratio (x) = 0.29473 0.18112
# Poissons Ratio (y) = 0.18169 0.29390
# Poissons Ratio (z) = 0.24271 0.63887
#
# Static dielectric constant tensor:
#      x y z
#    x 1.707760 0.000000 0.026590 
#    y 0.000000 1.703160 0.000000 
#    z 0.026590 0.000000 1.703370 
# 
# From -- ./inp_files/36190.got.cif
#   From: 2010.05.17/outbox.cif.g08.bks.cpg/sg13_19_cif.got.tgz:36190.got - 2010.06.03 16:44:36.
