data_PCOD9227709
_publ_section_title
;
Structure prediction by ZEFSAII (Michael W. Deem and Ramdas Pophale) SiO2 
 PCOD9227709
Probable space group: P 2/C
;
_chemical_formula_sum "Si O2"
_cell_formula_units_Z 22
_cell_length_a 17.531845
_cell_length_b 7.288237
_cell_length_c 27.460950
_cell_angle_alpha 90.000000
_cell_angle_beta 164.462251
_cell_angle_gamma 90.000000
_cell_volume 939.928748
_symmetry_space_group_name_H-M "P 2/C"
_symmetry_group_IT_number 13
_symmetry_cell_setting 'monoclinic'
loop_
_space_group_symop_operation_xyz
x,y,z
-x,y,1/2-z
-x,-y,-z
x,-y,1/2+z
loop_
_atom_site_type_symbol
_atom_site_label
_atom_site_fract_x
_atom_site_fract_y
_atom_site_fract_z
Si Si1 0.872344 0.834485 0.750008
Si Si2 0.293904 0.739856 0.342342
Si Si3 0.344069 0.488624 0.205177
Si Si4 0.561783 0.793325 0.651339
Si Si5 0.000000 0.316825 0.750000
Si Si6 0.512592 0.211715 0.638711
O O1 0.615018 0.772690 0.557622
O O2 0.813142 0.756353 0.767540
O O3 0.847043 0.057065 0.739639
O O4 0.180659 0.782549 0.921373
O O5 0.310070 0.691667 0.295677
O O6 0.134057 0.606833 0.282035
O O7 0.500000 0.444783 0.250000
O O8 0.451164 0.345215 0.312095
O O9 0.445079 0.687873 0.284891
O O10 0.000000 0.500000 0.000000
O O11 0.278699 0.784458 0.443216
O O12 0.595609 0.999511 0.691062
#
# Coordination Sequence:
#
# PCOD9227709 Si02
#       6
#     4   4   4   4   2   4
#     4   9  17  34  60 101 138 172 211 263 332 424
#     4   9  18  30  62  98 141 172 206 260 332 415
#     4  12  30  50  69  96 135 183 247 298 328 396
#     4  10  23  42  69  99 138 176 215 281 352 411
#     4  10  18  38  64 108 138 164 214 264 344 434
#     4  11  22  40  70  97 132 178 229 273 344 404
#
# _framework density 23.406027999999999
#
# number of rings (size 3 to 8) (size 9 to 14) (size 15 to 20)
#    0.000    1.818    1.818    2.727    2.545    1.455 
#    3.273    1.818    0.000    0.000    0.000    0.000 
#    0.000    0.000    0.000    0.000    0.000    0.000 
#
# Total GULP energy -122861.799749 kJ/mol
# GULP energy per Si atom -5584.627261 kJ/mol
# Density = 2.335275 g / cm^3
# Si number density = 23.406028 Si / 1000 Ang^3
#
#
#
# Elastic Constant Matrix: (Units=GPa)
#
#
# Indices 1 2 3 4 5 6 
#
# 1 183.5107 41.3388 24.1379 0.0000 14.5004 0.0000
# 2 41.3388 81.8401 11.0676 0.0000 -6.6371 0.0000
# 3 24.1379 11.0676 73.6142 0.0000 15.9778 0.0000
# 4 0.0000 0.0000 0.0000 19.5840 0.0000 -6.4704
# 5 14.5004 -6.6371 15.9778 0.0000 38.9105 0.0000
# 6 0.0000 0.0000 0.0000 -6.4704 0.0000 31.6488
#
#
#
# Elastic Compliance Matrix: (Units=1/GPa)
#
#
# Indices 1 2 3 4 5 6 
#
# 1 0.006555 -0.003373 -0.001084 0.000000 -0.002573 0.000000
# 2 -0.003373 0.014578 -0.002084 0.000000 0.004599 0.000000
# 3 -0.001084 -0.002084 0.015636 0.000000 -0.006372 0.000000
# 4 0.000000 0.000000 0.000000 0.054761 0.000000 0.011196
# 5 -0.002573 0.004599 -0.006372 0.000000 0.030060 0.000000
# 6 0.000000 0.000000 0.000000 0.011196 0.000000 0.033886
#
#
# Mechanical properties :
#
#
# Convention : Reuss Voigt Hill
#
# Bulk Modulus (GPa) = 42.21708 54.67263 48.44485
# Shear Modulus (GPa) = 28.33619 35.52335 31.92977
#
# Velocity S-wave (km/s) = 3.48319 3.89999 3.69747
# Velocity P-wave (km/s) = 5.85259 6.60977 6.24267
#
# Compressibility (1/GPa) = 0.02368709
#
# Stress axis : x y z
#
# Youngs Moduli (GPa) = 152.55517 68.59839 63.95468
#
# Poissons Ratio (x) = 0.23139 0.06931
# Poissons Ratio (y) = 0.51459 0.13327
# Poissons Ratio (z) = 0.16533 0.14295
#
# Static dielectric constant tensor:
#      x y z
#    x 1.917600 0.000000 0.035600 
#    y 0.000000 1.916290 0.000000 
#    z 0.035600 0.000000 1.894710 
# 
# From -- ./inp_files/87369.got.cif
#   From: 2010.05.17/outbox.cif.g08.bks.cpg/sg13_44_cif.got.tgz:87369.got - 2010.06.03 16:44:36.
