data_PCOD9227162
_publ_section_title
;
Structure prediction by ZEFSAII (Michael W. Deem and Ramdas Pophale) SiO2 
 PCOD9227162
Probable space group: P 2/C
;
_chemical_formula_sum "Si O2"
_cell_formula_units_Z 26
_cell_length_a 31.654689
_cell_length_b 5.419216
_cell_length_c 22.600775
_cell_angle_alpha 90.000000
_cell_angle_beta 165.113095
_cell_angle_gamma 90.000000
_cell_volume 996.052201
_symmetry_space_group_name_H-M "P 2/C"
_symmetry_group_IT_number 13
_symmetry_cell_setting 'monoclinic'
loop_
_space_group_symop_operation_xyz
x,y,z
-x,y,1/2-z
-x,-y,-z
x,-y,1/2+z
loop_
_atom_site_type_symbol
_atom_site_label
_atom_site_fract_x
_atom_site_fract_y
_atom_site_fract_z
Si Si1 0.225619 0.214063 0.712974
Si Si2 0.679974 0.888644 0.026226
Si Si3 0.696624 0.387401 0.004297
Si Si4 0.000000 0.492339 0.250000
Si Si5 0.874365 0.716524 0.970296
Si Si6 0.682931 0.246110 0.851714
Si Si7 0.568341 0.261144 0.145174
O O1 0.134690 0.473475 0.582494
O O2 0.116486 0.975816 0.550433
O O3 0.309809 0.186304 0.891251
O O4 0.379056 0.212616 0.874376
O O5 0.500000 0.913498 0.750000
O O6 0.765874 0.659873 0.109177
O O7 0.754374 0.162780 0.123439
O O8 0.500000 0.418595 0.750000
O O9 0.719334 0.286947 0.969570
O O10 0.994814 0.664632 0.300535
O O11 0.152801 0.311495 0.461092
O O12 0.700772 0.722879 0.772172
O O13 0.567094 0.476024 0.677199
O O14 0.622862 0.972600 0.758138
#
# Coordination Sequence:
#
# PCOD9227162 Si02
#       7
#     4   4   4   2   4   4   4
#     4  12  22  38  62  94 128 159 199 262 323 363
#     4  10  20  34  56  87 123 153 191 240 310 379
#     4  10  18  33  56  89 118 152 196 248 304 351
#     4  10  26  46  62  88 122 174 220 240 300 370
#     4  11  24  39  61  86 125 168 209 256 298 371
#     4  11  22  38  65  90 126 164 207 256 296 376
#     4  11  21  37  59  94 126 157 198 256 328 372
#
# _framework density 26.103048999999999
#
# number of rings (size 3 to 8) (size 9 to 14) (size 15 to 20)
#    0.000    1.231    0.000    9.231    0.000    5.538 
#    0.000    0.000    0.000    5.538    0.000    0.000 
#    0.000    0.000    0.000    0.000    0.000    0.000 
#
# Total GULP energy -145574.139434 kJ/mol
# GULP energy per Si atom -5599.005363 kJ/mol
# Density = 2.604364 g / cm^3
# Si number density = 26.103049 Si / 1000 Ang^3
#
#
#
# Elastic Constant Matrix: (Units=GPa)
#
#
# Indices 1 2 3 4 5 6 
#
# 1 58.1982 18.3695 9.4806 0.0000 -22.9773 0.0000
# 2 18.3695 199.8833 33.6461 0.0000 -16.7479 0.0000
# 3 9.4806 33.6461 79.4892 0.0000 -16.2224 0.0000
# 4 0.0000 0.0000 0.0000 26.9160 0.0000 -14.8362
# 5 -22.9773 -16.7479 -16.2224 0.0000 37.9717 0.0000
# 6 0.0000 0.0000 0.0000 -14.8362 0.0000 37.3651
#
#
#
# Elastic Compliance Matrix: (Units=1/GPa)
#
#
# Indices 1 2 3 4 5 6 
#
# 1 0.022774 -0.001041 0.000486 0.000000 0.013529 0.000000
# 2 -0.001041 0.005517 -0.002019 0.000000 0.000941 0.000000
# 3 0.000486 -0.002019 0.014521 0.000000 0.005607 0.000000
# 4 0.000000 0.000000 0.000000 0.047562 0.000000 0.018885
# 5 0.013529 0.000941 0.005607 0.000000 0.037332 0.000000
# 6 0.000000 0.000000 0.000000 0.018885 0.000000 0.034261
#
#
# Mechanical properties :
#
#
# Convention : Reuss Voigt Hill
#
# Bulk Modulus (GPa) = 26.55145 51.17368 38.86257
# Shear Modulus (GPa) = 27.82850 38.85552 33.34201
#
# Velocity S-wave (km/s) = 3.26866 3.86235 3.57784
# Velocity P-wave (km/s) = 4.94362 6.28788 5.65583
#
# Compressibility (1/GPa) = 0.03766272
#
# Stress axis : x y z
#
# Youngs Moduli (GPa) = 43.91065 181.24753 68.86390
#
# Poissons Ratio (x) = 0.18869 -0.03343
# Poissons Ratio (y) = 0.04571 0.13905
# Poissons Ratio (z) = -0.02132 0.36597
#
# Static dielectric constant tensor:
#      x y z
#    x 2.109410 0.000000 0.026600 
#    y 0.000000 2.089600 0.000000 
#    z 0.026600 0.000000 2.089420 
# 
# From -- ./inp_files/82685.got.cif
#   From: 2010.05.17/outbox.cif.g08.bks.cpg/sg13_42_cif.got.tgz:82685.got - 2010.06.03 16:44:36.
