data_PCOD9227561
_publ_section_title
;
Structure prediction by ZEFSAII (Michael W. Deem and Ramdas Pophale) SiO2 
 PCOD9227561
Probable space group: P 2/C
;
_chemical_formula_sum "Si O2"
_cell_formula_units_Z 24
_cell_length_a 11.523091
_cell_length_b 11.399012
_cell_length_c 13.354837
_cell_angle_alpha 90.000000
_cell_angle_beta 47.688743
_cell_angle_gamma 90.000000
_cell_volume 1297.216006
_symmetry_space_group_name_H-M "P 2/C"
_symmetry_group_IT_number 13
_symmetry_cell_setting 'monoclinic'
loop_
_space_group_symop_operation_xyz
x,y,z
-x,y,1/2-z
-x,-y,-z
x,-y,1/2+z
loop_
_atom_site_type_symbol
_atom_site_label
_atom_site_fract_x
_atom_site_fract_y
_atom_site_fract_z
Si Si1 0.000000 0.393430 0.750000
Si Si2 0.407010 0.067969 0.700642
Si Si3 0.000000 0.204731 0.250000
Si Si4 0.776714 0.292256 0.719484
Si Si5 0.866389 0.600239 0.962701
Si Si6 0.661101 0.146358 0.385435
Si Si7 0.446326 0.379241 0.983050
O O1 0.872285 0.314976 0.766150
O O2 0.931395 0.480505 0.875820
O O3 0.500000 0.074735 0.750000
O O4 0.256837 0.155792 0.787432
O O5 0.534000 0.105323 0.542073
O O6 0.356594 0.936702 0.699756
O O7 0.970469 0.293360 0.359059
O O8 0.838324 0.136977 0.324362
O O9 0.850633 0.371871 0.588772
O O10 0.600051 0.334964 0.838358
O O11 0.694297 0.610600 0.013800
O O12 0.616808 0.283646 0.399883
O O13 0.500000 0.500000 0.000000
#
# Coordination Sequence:
#
# PCOD9227561 Si02
#       7
#     2   4   2   4   4   4   4
#     4  11  22  35  52  84 124 145 193 254 294 356
#     4  10  20  39  61  80 111 153 202 239 281 348
#     4   9  18  35  58  82 114 149 183 232 298 352
#     4  11  21  36  58  82 111 157 196 236 300 350
#     4  10  20  36  56  82 117 154 189 236 297 360
#     4   9  20  36  59  84 111 149 191 239 288 342
#     4  10  18  36  61  82 112 150 194 235 285 347
#
# _framework density 18.501158
#
# number of rings (size 3 to 8) (size 9 to 14) (size 15 to 20)
#    0.000    2.000    1.667    4.000    0.000    0.667 
#    0.000   10.000    0.000    0.000    0.000    0.000 
#    0.000    0.000    0.000    0.000    0.000    0.000 
#
# Total GULP energy -133665.304501 kJ/mol
# GULP energy per Si atom -5569.387688 kJ/mol
# Density = 1.845905 g / cm^3
# Si number density = 18.501158 Si / 1000 Ang^3
#
#
#
# Elastic Constant Matrix: (Units=GPa)
#
#
# Indices 1 2 3 4 5 6 
#
# 1 92.9128 51.8439 27.0546 0.0000 3.1931 0.0000
# 2 51.8439 94.4146 17.3645 0.0000 14.5057 0.0000
# 3 27.0546 17.3645 57.7276 0.0000 1.8631 0.0000
# 4 0.0000 0.0000 0.0000 8.6342 0.0000 2.4887
# 5 3.1931 14.5057 1.8631 0.0000 30.3159 0.0000
# 6 0.0000 0.0000 0.0000 2.4887 0.0000 13.6826
#
#
#
# Elastic Compliance Matrix: (Units=1/GPa)
#
#
# Indices 1 2 3 4 5 6 
#
# 1 0.017214 -0.008868 -0.005489 0.000000 0.002767 0.000000
# 2 -0.008868 0.016651 -0.000627 0.000000 -0.006995 0.000000
# 3 -0.005489 -0.000627 0.020095 0.000000 -0.000357 0.000000
# 4 0.000000 0.000000 0.000000 0.122226 0.000000 -0.022231
# 5 0.002767 -0.006995 -0.000357 0.000000 0.036063 0.000000
# 6 0.000000 0.000000 0.000000 -0.022231 0.000000 0.077129
#
#
# Mechanical properties :
#
#
# Convention : Reuss Voigt Hill
#
# Bulk Modulus (GPa) = 41.68023 48.62012 45.15018
# Shear Modulus (GPa) = 15.27440 20.44601 17.86021
#
# Velocity S-wave (km/s) = 2.87643 3.32794 3.11039
# Velocity P-wave (km/s) = 5.79734 6.41120 6.11198
#
# Compressibility (1/GPa) = 0.02399219
#
# Stress axis : x y z
#
# Youngs Moduli (GPa) = 58.09086 60.05602 49.76244
#
# Poissons Ratio (x) = 0.53259 0.27317
# Poissons Ratio (y) = 0.51516 0.03119
# Poissons Ratio (z) = 0.31889 0.03764
#
# Static dielectric constant tensor:
#      x y z
#    x 1.602540 0.000000 -0.010800 
#    y 0.000000 1.733150 0.000000 
#    z -0.010800 0.000000 1.638660 
# 
# From -- ./inp_files/33755.got.cif
#   From: 2010.05.17/outbox.cif.g08.bks.cpg/sg13_17_cif.got.tgz:33755.got - 2010.06.03 16:44:36.
