data_PCOD9227483
_publ_section_title
;
Structure prediction by ZEFSAII (Michael W. Deem and Ramdas Pophale) SiO2 
 PCOD9227483
Probable space group: P 2/C
;
_chemical_formula_sum "Si O2"
_cell_formula_units_Z 30
_cell_length_a 13.141070
_cell_length_b 6.507865
_cell_length_c 15.980688
_cell_angle_alpha 90.000000
_cell_angle_beta 66.184566
_cell_angle_gamma 90.000000
_cell_volume 1250.302416
_symmetry_space_group_name_H-M "P 2/C"
_symmetry_group_IT_number 13
_symmetry_cell_setting 'monoclinic'
loop_
_space_group_symop_operation_xyz
x,y,z
-x,y,1/2-z
-x,-y,-z
x,-y,1/2+z
loop_
_atom_site_type_symbol
_atom_site_label
_atom_site_fract_x
_atom_site_fract_y
_atom_site_fract_z
Si Si1 0.226581 0.257587 0.847929
Si Si2 0.013468 0.328095 0.568451
Si Si3 0.564052 0.878846 0.306444
Si Si4 0.000000 0.437505 0.250000
Si Si5 0.230815 0.432583 0.202538
Si Si6 0.617605 0.862214 0.926937
Si Si7 0.742727 0.240167 0.961030
Si Si8 0.401458 0.426570 0.918020
O O1 0.307324 0.125279 0.761814
O O2 0.221228 0.467943 0.796271
O O3 0.299761 0.306927 0.905177
O O4 0.099057 0.191347 0.903960
O O5 0.138765 0.237925 0.529921
O O6 0.000000 0.500000 0.500000
O O7 0.004405 0.425874 0.664660
O O8 0.500000 0.974052 0.250000
O O9 0.513736 0.646632 0.334077
O O10 0.536664 0.992470 0.401544
O O11 0.115286 0.320426 0.217047
O O12 0.324772 0.266690 0.165797
O O13 0.245388 0.611258 0.125945
O O14 0.702172 0.018546 0.944219
O O15 0.582908 0.678579 0.997725
O O16 0.647114 0.348063 0.049548
#
# Coordination Sequence:
#
# PCOD9227483 Si02
#       8
#     4   4   4   2   4   4   4   4
#     4  10  19  41  64  89 127 173 209 261 315 387
#     4  10  18  35  67  93 127 171 213 259 326 386
#     4  10  22  42  62  90 126 169 217 262 319 384
#     4   8  18  34  58  90 124 170 202 260 314 378
#     4   9  19  38  62  84 126 162 211 255 315 382
#     4  11  22  41  63  94 124 163 214 269 322 381
#     4  10  20  39  63  93 123 164 211 260 326 380
#     4  10  22  40  65  88 129 165 213 265 318 382
#
# _framework density 23.994195999999999
#
# number of rings (size 3 to 8) (size 9 to 14) (size 15 to 20)
#    0.000    2.133    2.667    0.400    0.000    0.533 
#    9.600    1.333    0.000    0.000    0.000    0.000 
#    0.000    0.000    0.000    0.000    0.000    0.000 
#
# Total GULP energy -167227.659849 kJ/mol
# GULP energy per Si atom -5574.255328 kJ/mol
# Density = 2.393958 g / cm^3
# Si number density = 23.994196 Si / 1000 Ang^3
#
#
#
# Elastic Constant Matrix: (Units=GPa)
#
#
# Indices 1 2 3 4 5 6 
#
# 1 115.0491 30.3636 16.7360 0.0000 -0.4027 0.0000
# 2 30.3636 55.9681 14.7247 0.0000 -1.7911 0.0000
# 3 16.7360 14.7247 76.9885 0.0000 15.7482 0.0000
# 4 0.0000 0.0000 0.0000 30.5281 0.0000 1.4579
# 5 -0.4027 -1.7911 15.7482 0.0000 40.0258 0.0000
# 6 0.0000 0.0000 0.0000 1.4579 0.0000 24.2693
#
#
#
# Elastic Compliance Matrix: (Units=1/GPa)
#
#
# Indices 1 2 3 4 5 6 
#
# 1 0.010259 -0.005208 -0.001313 0.000000 0.000387 0.000000
# 2 -0.005208 0.021682 -0.003483 0.000000 0.002288 0.000000
# 3 -0.001313 -0.003483 0.015198 0.000000 -0.006149 0.000000
# 4 0.000000 0.000000 0.000000 0.032851 0.000000 -0.001973
# 5 0.000387 0.002288 -0.006149 0.000000 0.027509 0.000000
# 6 0.000000 0.000000 0.000000 -0.001973 0.000000 0.041323
#
#
# Mechanical properties :
#
#
# Convention : Reuss Voigt Hill
#
# Bulk Modulus (GPa) = 36.85727 41.29490 39.07608
# Shear Modulus (GPa) = 28.10984 31.37674 29.74329
#
# Velocity S-wave (km/s) = 3.42647 3.62011 3.52462
# Velocity P-wave (km/s) = 5.57212 5.89248 5.73454
#
# Compressibility (1/GPa) = 0.02713169
#
# Stress axis : x y z
#
# Youngs Moduli (GPa) = 97.47810 46.12102 65.79678
#
# Poissons Ratio (x) = 0.24018 0.08640
# Poissons Ratio (y) = 0.50763 0.22916
# Poissons Ratio (z) = 0.12801 0.16063
#
# Static dielectric constant tensor:
#      x y z
#    x 1.956370 0.000000 -0.120670 
#    y 0.000000 1.839900 0.000000 
#    z -0.120670 0.000000 1.910800 
# 
# From -- ./inp_files/67561.got.cif
#   From: 2010.05.17/outbox.cif.g08.bks.cpg/sg13_34_cif.got.tgz:67561.got - 2010.06.03 16:44:36.
