data_PCOD9227335
_publ_section_title
;
Structure prediction by ZEFSAII (Michael W. Deem and Ramdas Pophale) SiO2 
 PCOD9227335
Probable space group: P 2/C
;
_chemical_formula_sum "Si O2"
_cell_formula_units_Z 26
_cell_length_a 7.262943
_cell_length_b 11.393029
_cell_length_c 20.885983
_cell_angle_alpha 90.000000
_cell_angle_beta 45.351779
_cell_angle_gamma 90.000000
_cell_volume 1229.537829
_symmetry_space_group_name_H-M "P 2/C"
_symmetry_group_IT_number 13
_symmetry_cell_setting 'monoclinic'
loop_
_space_group_symop_operation_xyz
x,y,z
-x,y,1/2-z
-x,-y,-z
x,-y,1/2+z
loop_
_atom_site_type_symbol
_atom_site_label
_atom_site_fract_x
_atom_site_fract_y
_atom_site_fract_z
Si Si1 0.999986 0.034276 0.076547
Si Si2 0.500000 0.177697 0.250000
Si Si3 0.747799 0.251331 0.517012
Si Si4 0.222050 0.192923 0.843390
Si Si5 0.598936 0.530017 0.389638
Si Si6 0.689657 0.630125 0.620890
Si Si7 0.870383 0.549233 0.183908
O O1 0.741321 0.098421 0.168192
O O2 0.993358 0.907639 0.111366
O O3 0.224999 0.131159 0.029995
O O4 0.000000 0.000000 0.000000
O O5 0.520044 0.273392 0.303432
O O6 0.712692 0.215086 0.598745
O O7 0.539102 0.351018 0.554162
O O8 0.034731 0.306816 0.448041
O O9 0.500000 0.153431 0.750000
O O10 0.136444 0.315160 0.833989
O O11 0.392762 0.427722 0.425826
O O12 0.724834 0.543133 0.287737
O O13 0.839695 0.502807 0.375804
O O14 0.740649 0.526906 0.659902
#
# Coordination Sequence:
#
# PCOD9227335 Si02
#       7
#     4   2   4   4   4   4   4
#     4   9  20  34  58  92 110 152 205 246 290 350
#     4  10  18  34  60  86 116 160 196 238 304 352
#     4  10  21  35  58  87 117 147 196 244 289 349
#     4  11  18  36  60  83 114 150 198 238 291 350
#     4  11  21  36  54  88 117 149 197 237 283 358
#     4  11  20  38  57  85 124 152 190 240 295 352
#     4  11  22  34  59  86 112 160 192 232 298 351
#
# _framework density 21.146155
#
# number of rings (size 3 to 8) (size 9 to 14) (size 15 to 20)
#    0.000    1.538    5.385    0.462    0.000    0.615 
#    0.000    0.769    0.000    0.000   28.000    0.000 
#    0.000    0.000    0.000    0.000    0.000    0.000 
#
# Total GULP energy -144880.258167 kJ/mol
# GULP energy per Si atom -5572.317622 kJ/mol
# Density = 2.109803 g / cm^3
# Si number density = 21.146155 Si / 1000 Ang^3
#
#
#
# Elastic Constant Matrix: (Units=GPa)
#
#
# Indices 1 2 3 4 5 6 
#
# 1 62.9908 9.9025 16.7066 0.0000 -10.0360 0.0000
# 2 9.9025 100.1536 26.4574 0.0000 3.5617 0.0000
# 3 16.7066 26.4574 86.3329 0.0000 3.8653 0.0000
# 4 0.0000 0.0000 0.0000 44.5657 0.0000 -7.4330
# 5 -10.0360 3.5617 3.8653 0.0000 20.7298 0.0000
# 6 0.0000 0.0000 0.0000 -7.4330 0.0000 4.8184
#
#
#
# Elastic Compliance Matrix: (Units=1/GPa)
#
#
# Indices 1 2 3 4 5 6 
#
# 1 0.018620 -0.001223 -0.003672 0.000000 0.009910 0.000000
# 2 -0.001223 0.010977 -0.003042 0.000000 -0.001911 0.000000
# 3 -0.003672 -0.003042 0.013394 0.000000 -0.003753 0.000000
# 4 0.000000 0.000000 0.000000 0.030212 0.000000 0.046606
# 5 0.009910 -0.001911 -0.003753 0.000000 0.054065 0.000000
# 6 0.000000 0.000000 0.000000 0.046606 0.000000 0.279433
#
#
# Mechanical properties :
#
#
# Convention : Reuss Voigt Hill
#
# Bulk Modulus (GPa) = 36.87727 39.51227 38.19477
# Shear Modulus (GPa) = 11.58438 27.11683 19.35060
#
# Velocity S-wave (km/s) = 2.34310 3.58488 3.02832
# Velocity P-wave (km/s) = 4.97969 5.98841 5.50719
#
# Compressibility (1/GPa) = 0.02711698
#
# Stress axis : x y z
#
# Youngs Moduli (GPa) = 53.70445 91.09863 74.66119
#
# Poissons Ratio (x) = 0.11145 0.27416
# Poissons Ratio (y) = 0.06570 0.22710
# Poissons Ratio (z) = 0.19721 0.27710
#
# Static dielectric constant tensor:
#      x y z
#    x 1.774370 0.000000 0.078940 
#    y 0.000000 1.815720 0.000000 
#    z 0.078940 0.000000 2.098570 
# 
# From -- ./inp_files/85094.got.cif
#   From: 2010.05.17/outbox.cif.g08.bks.cpg/sg13_43_cif.got.tgz:85094.got - 2010.06.03 16:44:36.
