data_PCOD9227844
_publ_section_title
;
Structure prediction by ZEFSAII (Michael W. Deem and Ramdas Pophale) SiO2 
 PCOD9227844
Probable space group: P 2/C
;
_chemical_formula_sum "Si O2"
_cell_formula_units_Z 28
_cell_length_a 17.799277
_cell_length_b 17.721424
_cell_length_c 5.491974
_cell_angle_alpha 90.000000
_cell_angle_beta 64.429936
_cell_angle_gamma 90.000000
_cell_volume 1562.658183
_symmetry_space_group_name_H-M "P 2/C"
_symmetry_group_IT_number 13
_symmetry_cell_setting 'monoclinic'
loop_
_space_group_symop_operation_xyz
x,y,z
-x,y,1/2-z
-x,-y,-z
x,-y,1/2+z
loop_
_atom_site_type_symbol
_atom_site_label
_atom_site_fract_x
_atom_site_fract_y
_atom_site_fract_z
Si Si1 0.245353 0.521849 0.645352
Si Si2 0.710176 0.171703 0.376519
Si Si3 0.378094 0.982332 0.516675
Si Si4 0.409068 0.587022 0.917302
Si Si5 0.645033 0.339900 0.507758
Si Si6 0.965783 0.085289 0.547778
Si Si7 0.227894 0.892643 0.213889
O O1 0.201888 0.497939 0.458096
O O2 0.332991 0.473022 0.528883
O O3 0.271946 0.608472 0.600275
O O4 0.642771 0.105177 0.472381
O O5 0.669321 0.252906 0.467535
O O6 0.764295 0.151828 0.541161
O O7 0.752106 0.158452 0.052536
O O8 0.420566 0.004403 0.210758
O O9 0.293716 0.036794 0.632288
O O10 0.500000 0.550758 0.750000
O O11 0.396305 0.637531 0.692664
O O12 0.403301 0.634083 0.178343
O O13 0.866322 0.080280 0.683568
O O14 0.000000 0.121149 0.750000
O O15 0.000000 0.000000 0.500000
O O16 0.000000 0.121296 0.250000
#
# Coordination Sequence:
#
# PCOD9227844 Si02
#       7
#     4   4   4   4   4   4   4
#     4   8  16  27  42  62  88 118 146 174 206 258
#     4  10  19  29  45  59  88 121 149 194 228 255
#     4   8  16  25  42  55  78 105 146 180 222 242
#     4  10  19  31  48  67  94 123 147 177 220 274
#     4  10  19  30  43  67  91 115 158 183 218 271
#     4  10  21  27  43  64  90 117 154 194 214 261
#     4  10  19  31  44  62  88 119 157 192 223 257
#
# _framework density 17.918185000000001
#
# number of rings (size 3 to 8) (size 9 to 14) (size 15 to 20)
#    0.000    2.571    0.000    2.143   12.000    5.143 
#    0.000    0.000    0.000    0.000    0.000    0.000 
#    0.000  102.857    0.000    0.000    0.000  450.000 
#
# Total GULP energy -155895.747204 kJ/mol
# GULP energy per Si atom -5567.705257 kJ/mol
# Density = 1.787740 g / cm^3
# Si number density = 17.918185 Si / 1000 Ang^3
#
#
#
# Elastic Constant Matrix: (Units=GPa)
#
#
# Indices 1 2 3 4 5 6 
#
# 1 51.6742 17.2979 39.6237 0.0000 18.3423 0.0000
# 2 17.2979 85.0465 31.8831 0.0000 8.9828 0.0000
# 3 39.6237 31.8831 122.3519 0.0000 47.0551 0.0000
# 4 0.0000 0.0000 0.0000 19.9489 0.0000 3.5438
# 5 18.3423 8.9828 47.0551 0.0000 43.7047 0.0000
# 6 0.0000 0.0000 0.0000 3.5438 0.0000 10.7102
#
#
#
# Elastic Compliance Matrix: (Units=1/GPa)
#
#
# Indices 1 2 3 4 5 6 
#
# 1 0.026487 -0.002558 -0.006551 0.000000 -0.003538 0.000000
# 2 -0.002558 0.013350 -0.003427 0.000000 0.002019 0.000000
# 3 -0.006551 -0.003427 0.016827 0.000000 -0.014663 0.000000
# 4 0.000000 0.000000 0.000000 0.053258 0.000000 -0.017622
# 5 -0.003538 0.002019 -0.014663 0.000000 0.039738 0.000000
# 6 0.000000 0.000000 0.000000 -0.017622 0.000000 0.099200
#
#
# Mechanical properties :
#
#
# Convention : Reuss Voigt Hill
#
# Bulk Modulus (GPa) = 31.65294 48.52022 40.08658
# Shear Modulus (GPa) = 17.57702 26.22396 21.90049
#
# Velocity S-wave (km/s) = 3.13543 3.82977 3.49986
# Velocity P-wave (km/s) = 5.55081 6.83328 6.22516
#
# Compressibility (1/GPa) = 0.03159264
#
# Stress axis : x y z
#
# Youngs Moduli (GPa) = 37.75423 74.90630 59.42829
#
# Poissons Ratio (x) = 0.19160 0.38930
# Poissons Ratio (y) = 0.09657 0.20367
# Poissons Ratio (z) = 0.24732 0.25671
#
# Static dielectric constant tensor:
#      x y z
#    x 1.645080 0.000000 0.081910 
#    y 0.000000 1.575830 0.000000 
#    z 0.081910 0.000000 1.729580 
# 
# From -- ./inp_files/5217.got.cif
#   From: 2010.05.17/outbox.cif.g08.bks.cpg/sg13_3_cif.got.tgz:5217.got - 2010.06.03 16:44:36.
