data_PCOD9227602
_publ_section_title
;
Structure prediction by ZEFSAII (Michael W. Deem and Ramdas Pophale) SiO2 
 PCOD9227602
Probable space group: P 2/C
;
_chemical_formula_sum "Si O2"
_cell_formula_units_Z 28
_cell_length_a 7.929253
_cell_length_b 8.384246
_cell_length_c 21.799009
_cell_angle_alpha 90.000000
_cell_angle_beta 57.378175
_cell_angle_gamma 90.000000
_cell_volume 1220.597755
_symmetry_space_group_name_H-M "P 2/C"
_symmetry_group_IT_number 13
_symmetry_cell_setting 'monoclinic'
loop_
_space_group_symop_operation_xyz
x,y,z
-x,y,1/2-z
-x,-y,-z
x,-y,1/2+z
loop_
_atom_site_type_symbol
_atom_site_label
_atom_site_fract_x
_atom_site_fract_y
_atom_site_fract_z
Si Si1 0.832172 0.210310 0.728947
Si Si2 0.489985 0.395341 0.637458
Si Si3 0.057778 0.663980 0.070513
Si Si4 0.267784 0.702075 0.651667
Si Si5 0.505832 0.308000 0.988781
Si Si6 0.827296 0.165167 0.208462
Si Si7 0.857384 0.642027 0.585291
O O1 0.622266 0.287432 0.791236
O O2 0.000000 0.239216 0.750000
O O3 0.892975 0.281037 0.651043
O O4 0.824342 0.021960 0.719485
O O5 0.310878 0.513944 0.649541
O O6 0.566322 0.285656 0.566219
O O7 0.328477 0.517395 0.884669
O O8 0.262508 0.735988 0.055649
O O9 0.037346 0.471005 0.074600
O O10 0.070566 0.701692 0.995393
O O11 0.398614 0.763828 0.568894
O O12 0.315427 0.764779 0.710600
O O13 0.045112 0.759339 0.680672
O O14 0.500000 0.500000 0.000000
O O15 0.794809 0.224508 0.145822
#
# Coordination Sequence:
#
# PCOD9227602 Si02
#       7
#     4   4   4   4   4   4   4
#     4  12  25  45  70 103 137 183 232 288 343 409
#     4  11  23  40  74 102 132 172 238 293 335 397
#     4  11  23  41  72 101 134 181 235 288 339 405
#     4  10  21  40  68 101 126 183 235 278 327 408
#     4  10  18  36  65 101 130 163 232 289 326 383
#     4  11  25  44  66  97 146 183 226 274 357 421
#     4  11  24  44  67 103 139 180 228 285 351 412
#
# _framework density 22.939578999999998
#
# number of rings (size 3 to 8) (size 9 to 14) (size 15 to 20)
#    0.000    1.143    5.714    2.571    4.000    2.857 
#    0.000    5.714    0.000    0.000    0.000    0.000 
#    0.000    0.000    0.000    0.000    0.000    0.000 
#
# Total GULP energy -156224.718575 kJ/mol
# GULP energy per Si atom -5579.454235 kJ/mol
# Density = 2.288737 g / cm^3
# Si number density = 22.939579 Si / 1000 Ang^3
#
#
#
# Elastic Constant Matrix: (Units=GPa)
#
#
# Indices 1 2 3 4 5 6 
#
# 1 66.8448 14.1141 34.7037 0.0000 -8.3601 0.0000
# 2 14.1141 51.3329 56.0988 0.0000 11.5128 0.0000
# 3 34.7037 56.0988 250.0458 0.0000 8.7988 0.0000
# 4 0.0000 0.0000 0.0000 -38.4392 0.0000 33.8097
# 5 -8.3601 11.5128 8.7988 0.0000 34.4366 0.0000
# 6 0.0000 0.0000 0.0000 33.8097 0.0000 1.8364
#
#
#
# Elastic Compliance Matrix: (Units=1/GPa)
#
#
# Indices 1 2 3 4 5 6 
#
# 1 0.017516 -0.004372 -0.001666 0.000000 0.006140 0.000000
# 2 -0.004372 0.028807 -0.005530 0.000000 -0.009279 0.000000
# 3 -0.001666 -0.005530 0.005469 0.000000 0.000047 0.000000
# 4 0.000000 0.000000 0.000000 -0.001513 0.000000 0.027857
# 5 0.006140 -0.009279 0.000047 0.000000 0.033620 0.000000
# 6 0.000000 0.000000 0.000000 0.027857 0.000000 0.031671
#
#
# Mechanical properties :
#
#
# Convention : Reuss Voigt Hill
#
# Bulk Modulus (GPa) = 34.89612 64.22852 49.56232
# Shear Modulus (GPa) = 33.72476 17.12055 25.42266
#
# Velocity S-wave (km/s) = 3.83842 2.73487 3.33264
# Velocity P-wave (km/s) = 5.90676 6.16705 6.03831
#
# Compressibility (1/GPa) = 0.02865648
#
# Stress axis : x y z
#
# Youngs Moduli (GPa) = 57.09022 34.71381 182.83329
#
# Poissons Ratio (x) = 0.15178 0.30463
# Poissons Ratio (y) = 0.24961 1.01100
# Poissons Ratio (z) = 0.09512 0.19195
#
# Static dielectric constant tensor:
#      x y z
#    x 1.999870 0.000000 0.026860 
#    y 0.000000 1.816520 0.000000 
#    z 0.026860 0.000000 1.942530 
# 
# From -- ./inp_files/77994.got.cif
#   From: 2010.05.17/outbox.cif.g08.bks.cpg/sg13_39_cif.got.tgz:77994.got - 2010.06.03 16:44:36.
