data_PCOD9227326
_publ_section_title
;
Structure prediction by ZEFSAII (Michael W. Deem and Ramdas Pophale) SiO2 
 PCOD9227326
Probable space group: P 2/C
;
_chemical_formula_sum "Si O2"
_cell_formula_units_Z 20
_cell_length_a 9.608567
_cell_length_b 7.277506
_cell_length_c 21.955476
_cell_angle_alpha 90.000000
_cell_angle_beta 38.213502
_cell_angle_gamma 90.000000
_cell_volume 949.706592
_symmetry_space_group_name_H-M "P 2/C"
_symmetry_group_IT_number 13
_symmetry_cell_setting 'monoclinic'
loop_
_space_group_symop_operation_xyz
x,y,z
-x,y,1/2-z
-x,-y,-z
x,-y,1/2+z
loop_
_atom_site_type_symbol
_atom_site_label
_atom_site_fract_x
_atom_site_fract_y
_atom_site_fract_z
Si Si1 0.791297 0.116249 0.240311
Si Si2 0.404157 0.459513 0.131387
Si Si3 0.318709 0.280364 0.761654
Si Si4 0.242737 0.001773 0.108319
Si Si5 0.842466 0.592511 0.399521
O O1 0.658819 0.307307 0.295403
O O2 0.711288 0.941963 0.228194
O O3 0.768867 0.048689 0.317435
O O4 0.060803 0.130374 0.135830
O O5 0.405400 0.652591 0.165878
O O6 0.224699 0.470026 0.136802
O O7 0.641525 0.425877 0.017029
O O8 0.500000 0.329362 0.750000
O O9 0.086059 0.397160 0.847640
O O10 0.160020 0.796909 0.126712
O O11 0.500000 0.000000 0.000000
#
# Coordination Sequence:
#
# PCOD9227326 Si02
#       5
#     4   4   4   4   4
#     4  10  22  36  60  86 120 155 199 244 303 356
#     4  11  22  39  66  92 117 155 209 259 303 356
#     4  11  25  43  58  85 132 166 197 245 301 371
#     4  10  18  34  59  92 117 147 193 256 306 345
#     4  10  22  38  63  95 120 150 205 261 307 351
#
# _framework density 21.059132999999999
#
# number of rings (size 3 to 8) (size 9 to 14) (size 15 to 20)
#    0.000    1.600    4.000    0.600    5.600    1.600 
#    0.000    1.000    0.000    0.000    0.000    0.000 
#    0.000    0.000    0.000    0.000    0.000    0.000 
#
# Total GULP energy -111368.836921 kJ/mol
# GULP energy per Si atom -5568.441846 kJ/mol
# Density = 2.101120 g / cm^3
# Si number density = 21.059133 Si / 1000 Ang^3
#
#
#
# Elastic Constant Matrix: (Units=GPa)
#
#
# Indices 1 2 3 4 5 6 
#
# 1 116.3421 24.7085 41.0589 0.0000 -36.5028 0.0000
# 2 24.7085 78.4401 15.4547 0.0000 -4.8036 0.0000
# 3 41.0589 15.4547 107.0272 0.0000 -21.2440 0.0000
# 4 0.0000 0.0000 0.0000 24.0973 0.0000 3.8651
# 5 -36.5028 -4.8036 -21.2440 0.0000 19.2838 0.0000
# 6 0.0000 0.0000 0.0000 3.8651 0.0000 23.4542
#
#
#
# Elastic Compliance Matrix: (Units=1/GPa)
#
#
# Indices 1 2 3 4 5 6 
#
# 1 0.022691 -0.004631 0.000333 0.000000 0.042166 0.000000
# 2 -0.004631 0.014102 -0.001667 0.000000 -0.007090 0.000000
# 3 0.000333 -0.001667 0.012158 0.000000 0.013609 0.000000
# 4 0.000000 0.000000 0.000000 0.042625 0.000000 -0.007024
# 5 0.042166 -0.007090 0.013609 0.000000 0.144901 0.000000
# 6 0.000000 0.000000 0.000000 -0.007024 0.000000 0.043794
#
#
# Mechanical properties :
#
#
# Convention : Reuss Voigt Hill
#
# Bulk Modulus (GPa) = 27.01177 51.58373 39.29775
# Shear Modulus (GPa) = 16.41820 28.07288 22.24554
#
# Velocity S-wave (km/s) = 2.79520 3.65506 3.25366
# Velocity P-wave (km/s) = 4.82411 6.50849 5.72855
#
# Compressibility (1/GPa) = 0.03702090
#
# Stress axis : x y z
#
# Youngs Moduli (GPa) = 44.07030 70.91381 82.25335
#
# Poissons Ratio (x) = 0.32841 -0.02742
# Poissons Ratio (y) = 0.20409 0.13711
# Poissons Ratio (z) = -0.01469 0.11821
#
# Static dielectric constant tensor:
#      x y z
#    x 1.773000 0.000000 -0.096260 
#    y 0.000000 1.855630 0.000000 
#    z -0.096260 0.000000 1.838530 
# 
# From -- ./inp_files/84497.got.cif
#   From: 2010.05.17/outbox.cif.g08.bks.cpg/sg13_43_cif.got.tgz:84497.got - 2010.06.03 16:44:36.
