data_PCOD9227872
_publ_section_title
;
Structure prediction by ZEFSAII (Michael W. Deem and Ramdas Pophale) SiO2 
 PCOD9227872
Probable space group: P 2/C
;
_chemical_formula_sum "Si O2"
_cell_formula_units_Z 26
_cell_length_a 34.725576
_cell_length_b 6.607799
_cell_length_c 5.133461
_cell_angle_alpha 90.000000
_cell_angle_beta 106.945278
_cell_angle_gamma 90.000000
_cell_volume 1126.780859
_symmetry_space_group_name_H-M "P 2/C"
_symmetry_group_IT_number 13
_symmetry_cell_setting 'monoclinic'
loop_
_space_group_symop_operation_xyz
x,y,z
-x,y,1/2-z
-x,-y,-z
x,-y,1/2+z
loop_
_atom_site_type_symbol
_atom_site_label
_atom_site_fract_x
_atom_site_fract_y
_atom_site_fract_z
Si Si1 0.000000 0.146930 0.250000
Si Si2 0.626945 0.277254 0.120596
Si Si3 0.085511 0.858019 0.989018
Si Si4 0.744570 0.861302 0.180946
Si Si5 0.339510 0.277061 0.813263
Si Si6 0.170084 0.140071 0.539937
Si Si7 0.543043 0.137849 0.781823
O O1 0.956710 0.255951 0.146459
O O2 0.000000 0.000000 0.500000
O O3 0.657826 0.186360 0.970315
O O4 0.643703 0.500110 0.208867
O O5 0.582364 0.268541 0.919570
O O6 0.629633 0.186284 0.414561
O O7 0.085635 0.956563 0.277371
O O8 0.127928 0.749269 0.016059
O O9 0.705072 0.731507 0.161523
O O10 0.743794 0.956292 0.891997
O O11 0.787424 0.753461 0.318854
O O12 0.170013 0.046712 0.249628
O O13 0.500000 0.242517 0.750000
O O14 0.543937 0.045315 0.494903
#
# Coordination Sequence:
#
# PCOD9227872 Si02
#       7
#     2   4   4   4   4   4   4
#     4   8  12  16  24  38  56  84 124 164 204 254
#     4  10  21  37  53  73 101 128 154 183 224 272
#     4   8  12  18  27  40  61  90 125 167 211 256
#     4  10  19  30  46  68  91 119 157 197 232 267
#     4  10  21  35  50  72  99 128 158 189 228 271
#     4   8  14  23  34  50  74 102 135 178 223 261
#     4  10  21  37  58  82 104 125 151 185 223 265
#
# _framework density 23.074581999999999
#
# number of rings (size 3 to 8) (size 9 to 14) (size 15 to 20)
#    0.000    2.769    0.000    1.846    0.000    3.692 
#    0.000    3.077    0.000    0.000    0.000    0.000 
#    0.000    0.000    0.000    0.000    0.000    6.154 
#
# Total GULP energy -144863.872007 kJ/mol
# GULP energy per Si atom -5571.687385 kJ/mol
# Density = 2.302206 g / cm^3
# Si number density = 23.074582 Si / 1000 Ang^3
#
#
#
# Elastic Constant Matrix: (Units=GPa)
#
#
# Indices 1 2 3 4 5 6 
#
# 1 200.6359 2.4360 9.2698 0.0000 40.3116 0.0000
# 2 2.4360 34.0202 -17.4398 0.0000 5.8798 0.0000
# 3 9.2698 -17.4398 135.6189 0.0000 -13.1843 0.0000
# 4 0.0000 0.0000 0.0000 7.4359 0.0000 -4.5041
# 5 40.3116 5.8798 -13.1843 0.0000 52.6643 0.0000
# 6 0.0000 0.0000 0.0000 -4.5041 0.0000 2.6502
#
#
#
# Elastic Compliance Matrix: (Units=1/GPa)
#
#
# Indices 1 2 3 4 5 6 
#
# 1 0.005990 -0.000052 -0.000883 0.000000 -0.004800 0.000000
# 2 -0.000052 0.031810 0.003846 0.000000 -0.002549 0.000000
# 3 -0.000883 0.003846 0.008151 0.000000 0.002287 0.000000
# 4 0.000000 0.000000 0.000000 -4.565940 0.000000 -7.759905
# 5 -0.004800 -0.002549 0.002287 0.000000 0.023520 0.000000
# 6 0.000000 0.000000 0.000000 -7.759905 0.000000-12.810785
#
#
# Mechanical properties :
#
#
# Convention : Reuss Voigt Hill
#
# Bulk Modulus (GPa) = 19.31443 39.86746 29.59095
# Shear Modulus (GPa) = -0.28909 37.61734 18.66413
#
# Velocity S-wave (km/s) = -0.35434 4.04202 2.84713
# Velocity P-wave (km/s) = 2.86726 6.25292 4.86417
#
# Compressibility (1/GPa) = 0.05177477
#
# Stress axis : x y z
#
# Youngs Moduli (GPa) = 166.94420 31.43639 122.68618
#
# Poissons Ratio (x) = 0.00163 0.10830
# Poissons Ratio (y) = 0.00865 -0.47189
# Poissons Ratio (z) = 0.14737 -0.12092
#
# Static dielectric constant tensor:
#      x y z
#    x 1.973280 0.000000 0.008840 
#    y 0.000000 0.966510 0.000000 
#    z 0.008840 0.000000 1.930300 
# 
# From -- ./inp_files/8017.got.cif
#   From: 2010.05.17/outbox.cif.g08.bks.cpg/sg13_5_cif.got.tgz:8017.got - 2010.06.03 16:44:36.
