data_PCOD9227408
_publ_section_title
;
Structure prediction by ZEFSAII (Michael W. Deem and Ramdas Pophale) SiO2 
 PCOD9227408
Probable space group: P 2/C
;
_chemical_formula_sum "Si O2"
_cell_formula_units_Z 30
_cell_length_a 10.429362
_cell_length_b 12.898927
_cell_length_c 13.762137
_cell_angle_alpha 90.000000
_cell_angle_beta 127.870428
_cell_angle_gamma 90.000000
_cell_volume 1461.486784
_symmetry_space_group_name_H-M "P 2/C"
_symmetry_group_IT_number 13
_symmetry_cell_setting 'monoclinic'
loop_
_space_group_symop_operation_xyz
x,y,z
-x,y,1/2-z
-x,-y,-z
x,-y,1/2+z
loop_
_atom_site_type_symbol
_atom_site_label
_atom_site_fract_x
_atom_site_fract_y
_atom_site_fract_z
Si Si1 0.951862 0.090601 0.902797
Si Si2 0.601468 0.583018 0.387443
Si Si3 0.894363 0.678571 0.438891
Si Si4 0.500000 0.018856 0.750000
Si Si5 0.289324 0.641763 0.339139
Si Si6 0.652530 0.886768 0.141779
Si Si7 0.311308 0.135029 0.048110
Si Si8 0.247319 0.634284 0.538791
O O1 0.888260 0.196104 0.925746
O O2 0.819166 0.062181 0.759855
O O3 0.121148 0.126798 0.934750
O O4 0.000000 0.000000 0.000000
O O5 0.500000 0.630039 0.250000
O O6 0.774382 0.641933 0.468995
O O7 0.469319 0.592943 0.411192
O O8 0.647354 0.464853 0.385392
O O9 0.821286 0.624198 0.307148
O O10 0.083192 0.645738 0.525531
O O11 0.644721 0.939870 0.843136
O O12 0.471506 0.088169 0.830516
O O13 0.314819 0.764807 0.348576
O O14 0.210869 0.616741 0.406537
O O15 0.600609 0.907805 0.007135
O O16 0.340050 0.255240 0.085731
#
# Coordination Sequence:
#
# PCOD9227408 Si02
#       8
#     4   4   4   2   4   4   4   4
#     4  10  18  35  57  82 106 146 186 231 274 329
#     4  10  20  32  52  81 108 140 179 227 274 321
#     4   9  19  32  53  79 106 135 184 225 266 326
#     4  12  22  34  56  78 116 144 182 226 288 334
#     4   9  19  33  54  80 104 134 182 230 270 318
#     4  10  21  35  57  80 111 141 185 231 278 330
#     4  10  22  36  53  82 109 148 188 227 274 336
#     4  10  19  35  53  74 108 145 179 220 274 327
#
# _framework density 20.527041000000001
#
# number of rings (size 3 to 8) (size 9 to 14) (size 15 to 20)
#    0.000    2.133    1.333    2.000    5.600    3.200 
#    0.000    0.000    0.000    0.000    0.000    0.000 
#    0.000    0.000    0.000    0.000    0.000    0.000 
#
# Total GULP energy -167070.190564 kJ/mol
# GULP energy per Si atom -5569.006352 kJ/mol
# Density = 2.048032 g / cm^3
# Si number density = 20.527041 Si / 1000 Ang^3
#
#
#
# Elastic Constant Matrix: (Units=GPa)
#
#
# Indices 1 2 3 4 5 6 
#
# 1 80.8848 31.3995 4.1886 0.0000 6.4485 0.0000
# 2 31.3995 60.9631 14.2880 0.0000 -3.0796 0.0000
# 3 4.1886 14.2880 34.9409 0.0000 2.3150 0.0000
# 4 0.0000 0.0000 0.0000 25.0539 0.0000 1.3278
# 5 6.4485 -3.0796 2.3150 0.0000 20.4696 0.0000
# 6 0.0000 0.0000 0.0000 1.3278 0.0000 21.7499
#
#
#
# Elastic Compliance Matrix: (Units=1/GPa)
#
#
# Indices 1 2 3 4 5 6 
#
# 1 0.016415 -0.009340 0.002305 0.000000 -0.006837 0.000000
# 2 -0.009340 0.023723 -0.009081 0.000000 0.007538 0.000000
# 3 0.002305 -0.009081 0.032438 0.000000 -0.005761 0.000000
# 4 0.000000 0.000000 0.000000 0.040043 0.000000 -0.002445
# 5 -0.006837 0.007538 -0.005761 0.000000 0.052792 0.000000
# 6 0.000000 0.000000 0.000000 -0.002445 0.000000 0.046126
#
#
# Mechanical properties :
#
#
# Convention : Reuss Voigt Hill
#
# Bulk Modulus (GPa) = 24.78679 30.72675 27.75677
# Shear Modulus (GPa) = 19.43871 21.91555 20.67713
#
# Velocity S-wave (km/s) = 3.08064 3.27103 3.17726
# Velocity P-wave (km/s) = 4.97546 5.40995 5.19725
#
# Compressibility (1/GPa) = 0.04034408
#
# Stress axis : x y z
#
# Youngs Moduli (GPa) = 60.92062 42.15312 30.82766
#
# Poissons Ratio (x) = 0.39371 -0.07104
# Poissons Ratio (y) = 0.56900 0.27993
# Poissons Ratio (z) = -0.14040 0.38278
#
# Static dielectric constant tensor:
#      x y z
#    x 1.828240 0.000000 0.005370 
#    y 0.000000 1.729480 0.000000 
#    z 0.005370 0.000000 1.762340 
# 
# From -- ./inp_files/51195.got.cif
#   From: 2010.05.17/outbox.cif.g08.bks.cpg/sg13_26_cif.got.tgz:51195.got - 2010.06.03 16:44:36.
