data_PCOD9227498
_publ_section_title
;
Structure prediction by ZEFSAII (Michael W. Deem and Ramdas Pophale) SiO2 
 PCOD9227498
Probable space group: P 2/C
;
_chemical_formula_sum "Si O2"
_cell_formula_units_Z 30
_cell_length_a 7.914495
_cell_length_b 14.344795
_cell_length_c 19.257987
_cell_angle_alpha 90.000000
_cell_angle_beta 143.586355
_cell_angle_gamma 90.000000
_cell_volume 1297.866609
_symmetry_space_group_name_H-M "P 2/C"
_symmetry_group_IT_number 13
_symmetry_cell_setting 'monoclinic'
loop_
_space_group_symop_operation_xyz
x,y,z
-x,y,1/2-z
-x,-y,-z
x,-y,1/2+z
loop_
_atom_site_type_symbol
_atom_site_label
_atom_site_fract_x
_atom_site_fract_y
_atom_site_fract_z
Si Si1 0.808331 0.927616 0.549053
Si Si2 0.500000 0.353045 0.750000
Si Si3 0.773409 0.302611 0.614393
Si Si4 0.882869 0.447091 0.538712
Si Si5 0.121371 0.360611 0.103107
Si Si6 0.647664 0.767363 0.418970
Si Si7 0.788897 0.780258 0.746836
Si Si8 0.326233 0.870361 0.501203
O O1 0.671442 0.876607 0.436723
O O2 0.581065 0.909270 0.535848
O O3 0.071892 0.865096 0.662625
O O4 0.853396 0.035675 0.547459
O O5 0.215412 0.413649 0.649434
O O6 0.537917 0.282475 0.699334
O O7 0.474962 0.272938 0.549663
O O8 0.848809 0.209562 0.596041
O O9 0.000000 0.320760 0.750000
O O10 0.743085 0.390101 0.554319
O O11 0.746554 0.416050 0.419801
O O12 0.901909 0.557723 0.554399
O O13 0.244901 0.308339 0.212084
O O14 0.956188 0.276461 0.011322
O O15 0.493447 0.819214 0.618566
O O16 0.000000 0.760378 0.750000
#
# Coordination Sequence:
#
# PCOD9227498 Si02
#       8
#     4   2   4   4   4   4   4   4
#     4   8  16  31  54  79 111 149 185 222 277 344
#     4  10  18  36  56  76 110 152 182 226 280 352
#     4  11  21  35  54  88 115 142 189 248 274 329
#     4  10  21  38  57  81 112 150 197 229 289 339
#     4   9  20  39  58  78 111 156 189 232 285 350
#     4   9  18  34  58  80 110 146 186 228 283 331
#     4   9  17  34  55  83 113 149 189 231 281 338
#     4   9  18  31  53  85 115 143 189 231 285 327
#
# _framework density 23.114857000000001
#
# number of rings (size 3 to 8) (size 9 to 14) (size 15 to 20)
#    0.000    2.667    1.333    0.800    0.000    4.800 
#    7.200    0.000    2.933    2.400    0.000    0.000 
#    0.000    0.000    0.000    0.000    0.000    0.000 
#
# Total GULP energy -167135.070979 kJ/mol
# GULP energy per Si atom -5571.169033 kJ/mol
# Density = 2.306225 g / cm^3
# Si number density = 23.114857 Si / 1000 Ang^3
#
#
#
# Elastic Constant Matrix: (Units=GPa)
#
#
# Indices 1 2 3 4 5 6 
#
# 1 49.7790 33.7888 26.1465 0.0000 -9.8573 0.0000
# 2 33.7888 145.0784 54.4013 0.0000 -35.6592 0.0000
# 3 26.1465 54.4013 82.0902 0.0000 -24.5875 0.0000
# 4 0.0000 0.0000 0.0000 32.1337 0.0000 -9.3230
# 5 -9.8573 -35.6592 -24.5875 0.0000 30.2624 0.0000
# 6 0.0000 0.0000 0.0000 -9.3230 0.0000 1.6102
#
#
#
# Elastic Compliance Matrix: (Units=1/GPa)
#
#
# Indices 1 2 3 4 5 6 
#
# 1 0.025691 -0.004090 -0.005828 0.000000 -0.001185 0.000000
# 2 -0.004090 0.011444 -0.003491 0.000000 0.009317 0.000000
# 3 -0.005828 -0.003491 0.019231 0.000000 0.009612 0.000000
# 4 0.000000 0.000000 0.000000 -0.045776 0.000000 -0.265039
# 5 -0.001185 0.009317 0.009612 0.000000 0.051446 0.000000
# 6 0.000000 0.000000 0.000000 -0.265039 0.000000 -0.913517
#
#
# Mechanical properties :
#
#
# Convention : Reuss Voigt Hill
#
# Bulk Modulus (GPa) = 33.84191 56.18008 45.01100
# Shear Modulus (GPa) = -6.13636 23.64201 8.75282
#
# Velocity S-wave (km/s) = -1.63110 3.20160 1.94805
# Velocity P-wave (km/s) = 3.33545 6.16640 4.95731
#
# Compressibility (1/GPa) = 0.02954916
#
# Stress axis : x y z
#
# Youngs Moduli (GPa) = 38.92421 87.37945 52.00053
#
# Poissons Ratio (x) = 0.35734 0.30304
# Poissons Ratio (y) = 0.15918 0.18154
# Poissons Ratio (z) = 0.22684 0.30505
#
# Static dielectric constant tensor:
#      x y z
#    x 1.974200 0.000000 0.013260 
#    y 0.000000 1.856040 0.000000 
#    z 0.013260 0.000000 1.936500 
# 
# From -- ./inp_files/76577.got.cif
#   From: 2010.05.17/outbox.cif.g08.bks.cpg/sg13_39_cif.got.tgz:76577.got - 2010.06.03 16:44:36.
