data_PCOD9227297
_publ_section_title
;
Structure prediction by ZEFSAII (Michael W. Deem and Ramdas Pophale) SiO2 
 PCOD9227297
Probable space group: P 2/C
;
_chemical_formula_sum "Si O2"
_cell_formula_units_Z 20
_cell_length_a 18.664815
_cell_length_b 5.350665
_cell_length_c 18.389679
_cell_angle_alpha 90.000000
_cell_angle_beta 155.019862
_cell_angle_gamma 90.000000
_cell_volume 775.587595
_symmetry_space_group_name_H-M "P 2/C"
_symmetry_group_IT_number 13
_symmetry_cell_setting 'monoclinic'
loop_
_space_group_symop_operation_xyz
x,y,z
-x,y,1/2-z
-x,-y,-z
x,-y,1/2+z
loop_
_atom_site_type_symbol
_atom_site_label
_atom_site_fract_x
_atom_site_fract_y
_atom_site_fract_z
Si Si1 0.000000 0.833750 0.250000
Si Si2 0.540730 0.379713 0.443335
Si Si3 0.105495 0.511435 0.211563
Si Si4 0.287493 0.220899 0.768887
Si Si5 0.500000 0.524738 0.750000
Si Si6 0.210311 0.833982 0.048413
O O1 0.142402 0.988858 0.423202
O O2 0.920777 0.670667 0.240317
O O3 0.699493 0.577449 0.600013
O O4 0.600614 0.171615 0.555766
O O5 0.375199 0.528513 0.316099
O O6 0.535750 0.314217 0.354486
O O7 0.113521 0.693085 0.148668
O O8 0.956548 0.314243 0.077195
O O9 0.275306 0.052224 0.685656
O O10 0.653757 0.347912 0.864601
#
# Coordination Sequence:
#
# PCOD9227297 Si02
#       6
#     2   4   4   4   2   4
#     4  12  24  34  56  88 124 150 192 238 288 344
#     4   8  16  33  61  88 110 150 187 235 282 347
#     4  10  20  39  60  88 114 151 197 240 287 345
#     4   8  18  36  62  87 113 151 198 231 293 341
#     4  10  18  34  58  84 116 146 196 236 290 338
#     4  11  22  38  60  84 115 159 190 242 287 346
#
# _framework density 25.786902999999999
#
# number of rings (size 3 to 8) (size 9 to 14) (size 15 to 20)
#    1.200    1.200    0.000    3.600    0.000    0.800 
#    0.000    6.000    0.000   12.000    0.000    0.000 
#    0.000    0.000    0.000    0.000    0.000    0.000 
#
# Total GULP energy -111551.264669 kJ/mol
# GULP energy per Si atom -5577.563233 kJ/mol
# Density = 2.572821 g / cm^3
# Si number density = 25.786903 Si / 1000 Ang^3
#
#
#
# Elastic Constant Matrix: (Units=GPa)
#
#
# Indices 1 2 3 4 5 6 
#
# 1 215.0768 36.2706 57.9788 0.0000 -40.7426 0.0000
# 2 36.2706 37.5762 21.8610 0.0000 -5.0923 0.0000
# 3 57.9788 21.8610 84.9270 0.0000 -35.0279 0.0000
# 4 0.0000 0.0000 0.0000 18.4925 0.0000 -3.1493
# 5 -40.7426 -5.0923 -35.0279 0.0000 84.6883 0.0000
# 6 0.0000 0.0000 0.0000 -3.1493 0.0000 66.3225
#
#
#
# Elastic Compliance Matrix: (Units=1/GPa)
#
#
# Indices 1 2 3 4 5 6 
#
# 1 0.006418 -0.004508 -0.002483 0.000000 0.001790 0.000000
# 2 -0.004508 0.034682 -0.007095 0.000000 -0.003018 0.000000
# 3 -0.002483 -0.007095 0.017636 0.000000 0.005673 0.000000
# 4 0.000000 0.000000 0.000000 0.054517 0.000000 0.002589
# 5 0.001790 -0.003018 0.005673 0.000000 0.014834 0.000000
# 6 0.000000 0.000000 0.000000 0.002589 0.000000 0.015201
#
#
# Mechanical properties :
#
#
# Convention : Reuss Voigt Hill
#
# Bulk Modulus (GPa) = 32.71685 63.31121 48.01403
# Shear Modulus (GPa) = 27.52572 48.66530 38.09551
#
# Velocity S-wave (km/s) = 3.27070 4.34892 3.84776
# Velocity P-wave (km/s) = 5.19406 7.05850 6.19680
#
# Compressibility (1/GPa) = 0.03056529
#
# Stress axis : x y z
#
# Youngs Moduli (GPa) = 155.80920 28.83300 56.70164
#
# Poissons Ratio (x) = 0.12998 0.14079
# Poissons Ratio (y) = 0.70239 0.40228
# Poissons Ratio (z) = 0.38689 0.20456
#
# Static dielectric constant tensor:
#      x y z
#    x 2.008480 0.000000 -0.007180 
#    y 0.000000 1.993720 0.000000 
#    z -0.007180 0.000000 2.253330 
# 
# From -- ./inp_files/69213.got.cif
#   From: 2010.05.17/outbox.cif.g08.bks.cpg/sg13_35_cif.got.tgz:69213.got - 2010.06.03 16:44:36.
