data_PCOD9227044
_publ_section_title
;
Structure prediction by ZEFSAII (Michael W. Deem and Ramdas Pophale) SiO2 
 PCOD9227044
Probable space group: P 2/C
;
_chemical_formula_sum "Si O2"
_cell_formula_units_Z 26
_cell_length_a 11.615071
_cell_length_b 8.414690
_cell_length_c 14.215992
_cell_angle_alpha 90.000000
_cell_angle_beta 114.661002
_cell_angle_gamma 90.000000
_cell_volume 1262.704825
_symmetry_space_group_name_H-M "P 2/C"
_symmetry_group_IT_number 13
_symmetry_cell_setting 'monoclinic'
loop_
_space_group_symop_operation_xyz
x,y,z
-x,y,1/2-z
-x,-y,-z
x,-y,1/2+z
loop_
_atom_site_type_symbol
_atom_site_label
_atom_site_fract_x
_atom_site_fract_y
_atom_site_fract_z
Si Si1 0.808631 0.381024 0.423002
Si Si2 0.247037 0.215298 0.404969
Si Si3 0.576709 0.576767 0.402875
Si Si4 0.969464 0.457006 0.141133
Si Si5 0.456490 0.750468 0.845200
Si Si6 0.318913 0.950819 0.572848
Si Si7 0.500000 0.161252 0.750000
O O1 0.686438 0.497761 0.373341
O O2 0.885853 0.436749 0.542033
O O3 0.762921 0.200022 0.421674
O O4 0.903429 0.408451 0.369707
O O5 0.340301 0.337402 0.490827
O O6 0.112459 0.300767 0.360865
O O7 0.315268 0.201738 0.326916
O O8 0.251519 0.058962 0.471761
O O9 0.491776 0.424475 0.392869
O O10 0.488381 0.714790 0.331221
O O11 0.000000 0.540331 0.250000
O O12 0.500000 0.754648 0.750000
O O13 0.552829 0.874021 0.926105
O O14 0.377243 0.059003 0.677724
#
# Coordination Sequence:
#
# PCOD9227044 Si02
#       7
#     4   4   4   4   4   4   2
#     4   9  21  41  60  89 121 160 202 252 305 346
#     4  10  22  37  56  87 119 153 195 251 304 356
#     4   9  19  35  57  85 121 154 196 244 295 359
#     4  10  22  39  65  86 114 158 215 256 289 358
#     4  11  20  34  58  85 118 157 194 239 300 370
#     4  10  21  37  59  85 128 154 188 244 309 372
#     4  10  18  32  56  96 114 160 194 234 304 364
#
# _framework density 20.590717000000001
#
# number of rings (size 3 to 8) (size 9 to 14) (size 15 to 20)
#    0.000    2.154    1.538    0.923    4.308    0.615 
#    0.000    3.846    3.385    0.000    0.000    0.000 
#    0.000    0.000    0.000    0.000    0.000    0.000 
#
# Total GULP energy -144852.562160 kJ/mol
# GULP energy per Si atom -5571.252391 kJ/mol
# Density = 2.054385 g / cm^3
# Si number density = 20.590717 Si / 1000 Ang^3
#
#
#
# Elastic Constant Matrix: (Units=GPa)
#
#
# Indices 1 2 3 4 5 6 
#
# 1 106.6360 42.9940 33.4302 0.0000 -14.9463 0.0000
# 2 42.9940 107.7438 29.7174 0.0000 -0.4373 0.0000
# 3 33.4302 29.7174 83.2644 0.0000 -3.5657 0.0000
# 4 0.0000 0.0000 0.0000 20.7797 0.0000 4.9255
# 5 -14.9463 -0.4373 -3.5657 0.0000 26.2785 0.0000
# 6 0.0000 0.0000 0.0000 4.9255 0.0000 14.7303
#
#
#
# Elastic Compliance Matrix: (Units=1/GPa)
#
#
# Indices 1 2 3 4 5 6 
#
# 1 0.013156 -0.004267 -0.003462 0.000000 0.006942 0.000000
# 2 -0.004267 0.011681 -0.002567 0.000000 -0.002581 0.000000
# 3 -0.003462 -0.002567 0.014313 0.000000 -0.000070 0.000000
# 4 0.000000 0.000000 0.000000 0.052267 0.000000 -0.017477
# 5 0.006942 -0.002581 -0.000070 0.000000 0.041950 0.000000
# 6 0.000000 0.000000 0.000000 -0.017477 0.000000 0.073731
#
#
# Mechanical properties :
#
#
# Convention : Reuss Voigt Hill
#
# Bulk Modulus (GPa) = 53.87987 56.65859 55.26923
# Shear Modulus (GPa) = 21.37885 25.12453 23.25169
#
# Velocity S-wave (km/s) = 3.22572 3.49691 3.36405
# Velocity P-wave (km/s) = 6.33227 6.62426 6.47991
#
# Compressibility (1/GPa) = 0.01855981
#
# Stress axis : x y z
#
# Youngs Moduli (GPa) = 76.00862 85.60671 69.86681
#
# Poissons Ratio (x) = 0.36527 0.24188
# Poissons Ratio (y) = 0.32432 0.17931
# Poissons Ratio (z) = 0.26315 0.21971
#
# Static dielectric constant tensor:
#      x y z
#    x 1.730590 0.000000 -0.016360 
#    y 0.000000 1.747200 0.000000 
#    z -0.016360 0.000000 1.839050 
# 
# From -- ./inp_files/49782.got.cif
#   From: 2010.05.17/outbox.cif.g08.bks.cpg/sg13_25_cif.got.tgz:49782.got - 2010.06.03 16:44:36.
