data_PCOD9227742
_publ_section_title
;
Structure prediction by ZEFSAII (Michael W. Deem and Ramdas Pophale) SiO2 
 PCOD9227742
Probable space group: P 2/C
;
_chemical_formula_sum "Si O2"
_cell_formula_units_Z 20
_cell_length_a 12.704866
_cell_length_b 5.984961
_cell_length_c 17.910742
_cell_angle_alpha 90.000000
_cell_angle_beta 34.793054
_cell_angle_gamma 90.000000
_cell_volume 777.118819
_symmetry_space_group_name_H-M "P 2/C"
_symmetry_group_IT_number 13
_symmetry_cell_setting 'monoclinic'
loop_
_space_group_symop_operation_xyz
x,y,z
-x,y,1/2-z
-x,-y,-z
x,-y,1/2+z
loop_
_atom_site_type_symbol
_atom_site_label
_atom_site_fract_x
_atom_site_fract_y
_atom_site_fract_z
Si Si1 0.828188 0.584719 0.251722
Si Si2 0.000000 0.281771 0.250000
Si Si3 0.199395 0.734183 0.871496
Si Si4 0.500000 0.587553 0.250000
Si Si5 0.148216 0.082604 0.558136
Si Si6 0.460309 0.078580 0.638142
O O1 0.867866 0.454266 0.149573
O O2 0.656897 0.756919 0.347764
O O3 0.820078 0.410817 0.324007
O O4 0.016696 0.716248 0.158239
O O5 0.056337 0.135837 0.146367
O O6 0.327727 0.575481 0.847328
O O7 0.312743 0.900601 0.753038
O O8 0.129646 0.900363 0.978654
O O9 0.488212 0.748059 0.326866
O O10 0.351756 0.066930 0.476208
#
# Coordination Sequence:
#
# PCOD9227742 Si02
#       6
#     4   2   4   2   4   4
#     4  11  28  45  74 113 146 198 248 300 376 438
#     4  12  30  50  66 104 158 204 254 294 358 444
#     4  11  22  44  77 114 144 184 245 311 371 434
#     4  10  18  38  70 116 140 176 238 298 376 428
#     4  12  25  49  76 107 154 194 247 310 363 447
#     4  11  23  45  77 111 146 186 247 310 372 434
#
# _framework density 25.736090000000001
#
# number of rings (size 3 to 8) (size 9 to 14) (size 15 to 20)
#    0.000    0.800    4.000    2.400    2.800    4.000 
#    0.000    7.000    0.000    0.000    0.000    0.000 
#    0.000    0.000    0.000    0.000    0.000    0.000 
#
# Total GULP energy -111530.792474 kJ/mol
# GULP energy per Si atom -5576.539624 kJ/mol
# Density = 2.567751 g / cm^3
# Si number density = 25.736090 Si / 1000 Ang^3
#
#
#
# Elastic Constant Matrix: (Units=GPa)
#
#
# Indices 1 2 3 4 5 6 
#
# 1 152.8095 83.0915 77.8936 0.0000 7.7878 0.0000
# 2 83.0915 114.3569 31.5268 0.0000 -2.9791 0.0000
# 3 77.8936 31.5268 28.7041 0.0000 -39.2445 0.0000
# 4 0.0000 0.0000 0.0000 -18.0554 0.0000 19.3784
# 5 7.7878 -2.9791 -39.2445 0.0000 -0.6892 0.0000
# 6 0.0000 0.0000 0.0000 19.3784 0.0000 29.8012
#
#
#
# Elastic Compliance Matrix: (Units=1/GPa)
#
#
# Indices 1 2 3 4 5 6 
#
# 1 0.008306 -0.006222 0.001894 0.000000 0.012872 0.000000
# 2 -0.006222 0.013805 -0.002232 0.000000 -0.002891 0.000000
# 3 0.001894 -0.002232 0.000946 0.000000 -0.022822 0.000000
# 4 0.000000 0.000000 0.000000 -0.032620 0.000000 0.021211
# 5 0.012872 -0.002891 -0.022822 0.000000 0.006535 0.000000
# 6 0.000000 0.000000 0.000000 0.021211 0.000000 0.019763
#
#
# Mechanical properties :
#
#
# Convention : Reuss Voigt Hill
#
# Bulk Modulus (GPa) = 100.61793 75.65491 88.13642
# Shear Modulus (GPa) = 150.75732 9.10189 79.92960
#
# Velocity S-wave (km/s) = 7.66194 1.88263 5.57896
# Velocity P-wave (km/s) = 10.83765 5.84688 8.70749
#
# Compressibility (1/GPa) = 0.00993859
#
# Stress axis : x y z
#
# Youngs Moduli (GPa) = 120.40212 72.43651 1056.90193
#
# Poissons Ratio (x) = 0.45068 -2.00219
# Poissons Ratio (y) = 0.74910 2.35884
# Poissons Ratio (z) = -0.22809 0.16167
#
# Static dielectric constant tensor:
#      x y z
#    x 2.032830 0.000000 -0.010290 
#    y 0.000000 2.070420 0.000000 
#    z -0.010290 0.000000 2.097730 
# 
# From -- ./inp_files/79213.got.cif
#   From: 2010.05.17/outbox.cif.g08.bks.cpg/sg13_40_cif.got.tgz:79213.got - 2010.06.03 16:44:36.
