data_PCOD9227010
_publ_section_title
;
Structure prediction by ZEFSAII (Michael W. Deem and Ramdas Pophale) SiO2 
 PCOD9227010
Probable space group: P 2/C
;
_chemical_formula_sum "Si O2"
_cell_formula_units_Z 22
_cell_length_a 10.338124
_cell_length_b 5.618886
_cell_length_c 21.043226
_cell_angle_alpha 90.000000
_cell_angle_beta 132.606458
_cell_angle_gamma 90.000000
_cell_volume 899.693036
_symmetry_space_group_name_H-M "P 2/C"
_symmetry_group_IT_number 13
_symmetry_cell_setting 'monoclinic'
loop_
_space_group_symop_operation_xyz
x,y,z
-x,y,1/2-z
-x,-y,-z
x,-y,1/2+z
loop_
_atom_site_type_symbol
_atom_site_label
_atom_site_fract_x
_atom_site_fract_y
_atom_site_fract_z
Si Si1 0.094722 0.463094 0.874893
Si Si2 0.847375 0.074819 0.858224
Si Si3 0.000000 0.826303 0.750000
Si Si4 0.571202 0.553802 0.093597
Si Si5 0.121036 0.304234 0.506986
Si Si6 0.368195 0.951627 0.832110
O O1 0.222148 0.422032 0.857971
O O2 0.966000 0.256683 0.855559
O O3 0.981475 0.677073 0.808540
O O4 0.198668 0.559204 0.971806
O O5 0.774674 0.196190 0.898772
O O6 0.694217 0.985363 0.761185
O O7 0.988967 0.889434 0.933247
O O8 0.811779 0.950242 0.685425
O O9 0.549735 0.310493 0.127636
O O10 0.528699 0.812342 0.109667
O O11 0.500000 0.500000 0.000000
O O12 0.000000 0.500000 0.500000
#
# Coordination Sequence:
#
# PCOD9227010 Si02
#       6
#     4   4   2   4   4   4
#     4  10  19  33  54  83 120 146 183 236 281 351
#     4  10  18  33  55  89 112 146 181 228 304 330
#     4  10  18  32  54  90 110 140 184 230 312 334
#     4  11  25  39  56  83 114 159 195 230 280 331
#     4   9  19  31  52  86 120 142 176 228 291 355
#     4  11  21  36  59  82 116 145 186 241 280 349
#
# _framework density 24.452784000000001
#
# number of rings (size 3 to 8) (size 9 to 14) (size 15 to 20)
#    0.000    1.818    1.818    3.818    5.091    0.727 
#    0.000    0.000    0.000    1.091    0.000    0.000 
#    0.000    0.000    0.000    0.000    0.000    0.000 
#
# Total GULP energy -122651.477175 kJ/mol
# GULP energy per Si atom -5575.067144 kJ/mol
# Density = 2.439713 g / cm^3
# Si number density = 24.452784 Si / 1000 Ang^3
#
#
#
# Elastic Constant Matrix: (Units=GPa)
#
#
# Indices 1 2 3 4 5 6 
#
# 1 58.7132 15.9377 -2.1218 0.0000 -23.4593 0.0000
# 2 15.9377 178.2551 77.2542 0.0000 -17.0747 0.0000
# 3 -2.1218 77.2542 158.5990 0.0000 -33.3400 0.0000
# 4 0.0000 0.0000 0.0000 54.6503 0.0000 -15.8094
# 5 -23.4593 -17.0747 -33.3400 0.0000 38.7506 0.0000
# 6 0.0000 0.0000 0.0000 -15.8094 0.0000 22.9958
#
#
#
# Elastic Compliance Matrix: (Units=1/GPa)
#
#
# Indices 1 2 3 4 5 6 
#
# 1 0.025785 -0.002997 0.005871 0.000000 0.019340 0.000000
# 2 -0.002997 0.007461 -0.004107 0.000000 -0.002061 0.000000
# 3 0.005871 -0.004107 0.010683 0.000000 0.010936 0.000000
# 4 0.000000 0.000000 0.000000 0.022841 0.000000 0.015703
# 5 0.019340 -0.002061 0.010936 0.000000 0.046015 0.000000
# 6 0.000000 0.000000 0.000000 0.015703 0.000000 0.054282
#
#
# Mechanical properties :
#
#
# Convention : Reuss Voigt Hill
#
# Bulk Modulus (GPa) = 24.11890 64.18972 44.15431
# Shear Modulus (GPa) = 27.26942 43.57915 35.42428
#
# Velocity S-wave (km/s) = 3.34306 4.22616 3.81028
# Velocity P-wave (km/s) = 4.97858 7.07965 6.11995
#
# Compressibility (1/GPa) = 0.04146126
#
# Stress axis : x y z
#
# Youngs Moduli (GPa) = 38.78180 134.03719 93.60340
#
# Poissons Ratio (x) = 0.40172 -0.54950
# Poissons Ratio (y) = 0.11623 0.38447
# Poissons Ratio (z) = -0.22767 0.55055
#
# Static dielectric constant tensor:
#      x y z
#    x 2.005970 0.000000 0.055510 
#    y 0.000000 2.117040 0.000000 
#    z 0.055510 0.000000 1.994320 
# 
# From -- ./inp_files/78873.got.cif
#   From: 2010.05.17/outbox.cif.g08.bks.cpg/sg13_40_cif.got.tgz:78873.got - 2010.06.03 16:44:36.
