data_PCOD9227738
_publ_section_title
;
Structure prediction by ZEFSAII (Michael W. Deem and Ramdas Pophale) SiO2 
 PCOD9227738
Probable space group: P 2/C
;
_chemical_formula_sum "Si O2"
_cell_formula_units_Z 22
_cell_length_a 7.611125
_cell_length_b 9.091824
_cell_length_c 19.147240
_cell_angle_alpha 90.000000
_cell_angle_beta 52.714723
_cell_angle_gamma 90.000000
_cell_volume 1054.184810
_symmetry_space_group_name_H-M "P 2/C"
_symmetry_group_IT_number 13
_symmetry_cell_setting 'monoclinic'
loop_
_space_group_symop_operation_xyz
x,y,z
-x,y,1/2-z
-x,-y,-z
x,-y,1/2+z
loop_
_atom_site_type_symbol
_atom_site_label
_atom_site_fract_x
_atom_site_fract_y
_atom_site_fract_z
Si Si1 0.500000 0.775656 0.250000
Si Si2 0.321060 0.872142 0.532147
Si Si3 0.742126 0.359786 0.329829
Si Si4 0.500000 0.734106 0.750000
Si Si5 0.000000 0.896323 0.250000
Si Si6 0.158552 0.978834 0.849200
Si Si7 0.626370 0.680845 0.367684
O O1 0.691257 0.879529 0.170216
O O2 0.599874 0.685888 0.290017
O O3 0.293294 0.777319 0.609766
O O4 0.417540 0.756292 0.453758
O O5 0.500000 0.000000 0.500000
O O6 0.088945 0.946946 0.565851
O O7 0.606459 0.345798 0.290434
O O8 0.672123 0.515638 0.380282
O O9 0.000000 0.368175 0.250000
O O10 0.308478 0.838591 0.826822
O O11 0.130681 0.997040 0.272349
O O12 0.166156 0.789527 0.168649
#
# Coordination Sequence:
#
# PCOD9227738 Si02
#       7
#     2   4   4   2   2   4   4
#     4   9  23  40  68  98 132 180 234 272 336 402
#     4  12  25  41  68 103 136 174 225 286 339 387
#     4  12  25  46  71  96 138 181 222 273 339 411
#     4  11  23  42  72  96 128 180 236 262 328 412
#     4  10  18  38  68  94 128 184 216 268 336 396
#     4  10  20  38  64 100 133 168 228 281 324 391
#     4  11  23  43  66  98 135 177 223 273 340 399
#
# _framework density 20.869206999999999
#
# number of rings (size 3 to 8) (size 9 to 14) (size 15 to 20)
#    0.000    1.091    4.545    2.182    5.091    0.727 
#    0.000    0.909    0.000    0.000    0.000    0.000 
#    0.000    0.000    0.000    0.000    0.000    0.000 
#
# Total GULP energy -122860.057992 kJ/mol
# GULP energy per Si atom -5584.548091 kJ/mol
# Density = 2.082171 g / cm^3
# Si number density = 20.869207 Si / 1000 Ang^3
#
#
#
# Elastic Constant Matrix: (Units=GPa)
#
#
# Indices 1 2 3 4 5 6 
#
# 1 102.7640 35.4383 27.7141 0.0000 -19.2726 0.0000
# 2 35.4383 115.1755 42.5881 0.0000 -15.4880 0.0000
# 3 27.7141 42.5881 78.7306 0.0000 -25.7990 0.0000
# 4 0.0000 0.0000 0.0000 23.7042 0.0000 -12.0467
# 5 -19.2726 -15.4880 -25.7990 0.0000 44.3152 0.0000
# 6 0.0000 0.0000 0.0000 -12.0467 0.0000 -31.4538
#
#
#
# Elastic Compliance Matrix: (Units=1/GPa)
#
#
# Indices 1 2 3 4 5 6 
#
# 1 0.011660 -0.002534 -0.001683 0.000000 0.003205 0.000000
# 2 -0.002534 0.011412 -0.005357 0.000000 -0.000233 0.000000
# 3 -0.001683 -0.005357 0.018954 0.000000 0.008430 0.000000
# 4 0.000000 0.000000 0.000000 0.035313 0.000000 -0.013525
# 5 0.003205 -0.000233 0.008430 0.000000 0.028786 0.000000
# 6 0.000000 0.000000 0.000000 -0.013525 0.000000 -0.026613
#
#
# Mechanical properties :
#
#
# Convention : Reuss Voigt Hill
#
# Bulk Modulus (GPa) = 43.71216 56.46124 50.08670
# Shear Modulus (GPa) = 47.04203 20.04177 33.54190
#
# Velocity S-wave (km/s) = 4.75292 3.10232 4.01339
# Velocity P-wave (km/s) = 7.14924 6.32029 6.74751
#
# Compressibility (1/GPa) = 0.02287693
#
# Stress axis : x y z
#
# Youngs Moduli (GPa) = 85.76296 87.62880 52.75810
#
# Poissons Ratio (x) = 0.22207 0.08881
# Poissons Ratio (y) = 0.21734 0.28263
# Poissons Ratio (z) = 0.14437 0.46944
#
# Static dielectric constant tensor:
#      x y z
#    x 2.071850 0.000000 -0.072960 
#    y 0.000000 1.748370 0.000000 
#    z -0.072960 0.000000 1.784430 
# 
# From -- ./inp_files/45781.got.cif
#   From: 2010.05.17/outbox.cif.g08.bks.cpg/sg13_23_cif.got.tgz:45781.got - 2010.06.03 16:44:36.
