data_PCOD9227571
_publ_section_title
;
Structure prediction by ZEFSAII (Michael W. Deem and Ramdas Pophale) SiO2 
 PCOD9227571
Probable space group: P 2/C
;
_chemical_formula_sum "Si O2"
_cell_formula_units_Z 28
_cell_length_a 12.607400
_cell_length_b 11.813683
_cell_length_c 21.299132
_cell_angle_alpha 90.000000
_cell_angle_beta 27.124872
_cell_angle_gamma 90.000000
_cell_volume 1446.345878
_symmetry_space_group_name_H-M "P 2/C"
_symmetry_group_IT_number 13
_symmetry_cell_setting 'monoclinic'
loop_
_space_group_symop_operation_xyz
x,y,z
-x,y,1/2-z
-x,-y,-z
x,-y,1/2+z
loop_
_atom_site_type_symbol
_atom_site_label
_atom_site_fract_x
_atom_site_fract_y
_atom_site_fract_z
Si Si1 0.235394 0.655599 0.366101
Si Si2 0.796630 0.065122 0.905342
Si Si3 0.427165 0.155747 0.006940
Si Si4 0.102157 0.596463 0.132717
Si Si5 0.073080 0.556987 0.869399
Si Si6 0.416736 0.618421 0.575807
Si Si7 0.870980 0.804693 0.192534
O O1 0.500000 0.663843 0.250000
O O2 0.201847 0.538555 0.343745
O O3 0.166979 0.759694 0.357366
O O4 0.051509 0.645150 0.519729
O O5 0.552282 0.110026 0.005288
O O6 0.000000 0.101642 0.750000
O O7 0.907640 0.113897 0.910843
O O8 0.768185 0.930161 0.914256
O O9 0.630876 0.150182 0.847592
O O10 0.347496 0.283975 0.063260
O O11 0.000000 0.542428 0.250000
O O12 0.128520 0.508342 0.063073
O O13 0.921086 0.690302 0.205957
O O14 0.340569 0.657459 0.021413
O O15 0.239443 0.600401 0.726287
O O16 0.500000 0.500000 0.500000
#
# Coordination Sequence:
#
# PCOD9227571 Si02
#       7
#     4   4   4   4   4   4   4
#     4  10  21  40  56  81 117 170 217 246 288 359
#     4   9  18  36  58  87 117 145 196 250 307 366
#     4  10  19  33  59  92 115 150 192 243 305 371
#     4  11  17  33  54  83 124 162 185 225 304 380
#     4  10  22  34  55  85 125 164 204 246 293 354
#     4  12  20  32  53  91 133 156 182 235 309 373
#     4  10  18  36  62  80 112 160 201 243 302 361
#
# _framework density 19.359131999999999
#
# number of rings (size 3 to 8) (size 9 to 14) (size 15 to 20)
#    0.000    1.714    4.286    2.143    0.000    0.000 
#    5.143    0.000    0.000    0.857    0.000    0.000 
#    0.000    0.000    0.000    0.000    0.000    0.000 
#
# Total GULP energy -155993.786215 kJ/mol
# GULP energy per Si atom -5571.206651 kJ/mol
# Density = 1.931507 g / cm^3
# Si number density = 19.359132 Si / 1000 Ang^3
#
#
#
# Elastic Constant Matrix: (Units=GPa)
#
#
# Indices 1 2 3 4 5 6 
#
# 1 105.4776 48.3741 39.7081 0.0000 2.5137 0.0000
# 2 48.3741 90.3844 26.4534 0.0000 11.0229 0.0000
# 3 39.7081 26.4534 83.5271 0.0000 13.4236 0.0000
# 4 0.0000 0.0000 0.0000 19.4013 0.0000 1.7307
# 5 2.5137 11.0229 13.4236 0.0000 23.1494 0.0000
# 6 0.0000 0.0000 0.0000 1.7307 0.0000 29.2005
#
#
#
# Elastic Compliance Matrix: (Units=1/GPa)
#
#
# Indices 1 2 3 4 5 6 
#
# 1 0.014557 -0.006756 -0.005562 0.000000 0.004861 0.000000
# 2 -0.006756 0.015663 -0.000737 0.000000 -0.006297 0.000000
# 3 -0.005562 -0.000737 0.016206 0.000000 -0.008443 0.000000
# 4 0.000000 0.000000 0.000000 0.051817 0.000000 -0.003071
# 5 0.004861 -0.006297 -0.008443 0.000000 0.050564 0.000000
# 6 0.000000 0.000000 0.000000 -0.003071 0.000000 0.034428
#
#
# Mechanical properties :
#
#
# Convention : Reuss Voigt Hill
#
# Bulk Modulus (GPa) = 49.21911 56.49556 52.85734
# Shear Modulus (GPa) = 23.13551 25.34048 24.23799
#
# Velocity S-wave (km/s) = 3.46073 3.62189 3.54223
# Velocity P-wave (km/s) = 6.43803 6.83645 6.64023
#
# Compressibility (1/GPa) = 0.02031731
#
# Stress axis : x y z
#
# Youngs Moduli (GPa) = 68.69473 63.84308 61.70381
#
# Poissons Ratio (x) = 0.43133 0.34319
# Poissons Ratio (y) = 0.46411 0.04546
# Poissons Ratio (z) = 0.38208 0.04704
#
# Static dielectric constant tensor:
#      x y z
#    x 1.737860 0.000000 -0.031490 
#    y 0.000000 1.759070 0.000000 
#    z -0.031490 0.000000 1.691230 
# 
# From -- ./inp_files/78536.got.cif
#   From: 2010.05.17/outbox.cif.g08.bks.cpg/sg13_40_cif.got.tgz:78536.got - 2010.06.03 16:44:36.
