data_PCOD9227083
_publ_section_title
;
Structure prediction by ZEFSAII (Michael W. Deem and Ramdas Pophale) SiO2 
 PCOD9227083
Probable space group: P 2/C
;
_chemical_formula_sum "Si O2"
_cell_formula_units_Z 30
_cell_length_a 15.803313
_cell_length_b 6.767682
_cell_length_c 27.233430
_cell_angle_alpha 90.000000
_cell_angle_beta 26.282776
_cell_angle_gamma 90.000000
_cell_volume 1289.732614
_symmetry_space_group_name_H-M "P 2/C"
_symmetry_group_IT_number 13
_symmetry_cell_setting 'monoclinic'
loop_
_space_group_symop_operation_xyz
x,y,z
-x,y,1/2-z
-x,-y,-z
x,-y,1/2+z
loop_
_atom_site_type_symbol
_atom_site_label
_atom_site_fract_x
_atom_site_fract_y
_atom_site_fract_z
Si Si1 0.317772 0.211728 0.088944
Si Si2 0.424962 0.737709 0.877306
Si Si3 0.269390 0.356150 0.637460
Si Si4 0.133073 0.201219 0.083362
Si Si5 0.724913 0.985011 0.786920
Si Si6 0.522990 0.726624 0.326247
Si Si7 0.109912 0.335368 0.615133
Si Si8 0.500000 0.006541 0.750000
O O1 0.513115 0.302128 0.965078
O O2 0.233235 0.408201 0.158188
O O3 0.196490 0.137630 0.105721
O O4 0.242439 0.687151 0.093975
O O5 0.491467 0.508272 0.837453
O O6 0.399911 0.852397 0.839136
O O7 0.588095 0.840644 0.825586
O O8 0.315440 0.192205 0.952402
O O9 0.334190 0.940509 0.625231
O O10 0.094765 0.264298 0.758694
O O11 0.095080 0.434874 0.108666
O O12 0.226493 0.754614 0.009945
O O13 0.941770 0.089627 0.167409
O O14 0.670061 0.196010 0.790841
O O15 0.590188 0.838027 0.241819
#
# Coordination Sequence:
#
# PCOD9227083 Si02
#       8
#     4   4   4   4   4   4   4   2
#     4  10  18  32  60  94 139 188 227 261 313 385
#     4  10  21  41  70 103 129 173 227 278 344 409
#     4   9  16  27  54  97 134 176 226 258 302 388
#     4  10  21  37  61  91 139 185 218 273 329 385
#     4  11  21  40  66  95 138 184 221 272 334 388
#     4  10  24  43  69  99 131 168 222 288 339 416
#     4   9  16  30  56  96 133 174 219 270 316 386
#     4  10  22  46  76  96 128 170 218 290 366 404
#
# _framework density 23.260634
#
# number of rings (size 3 to 8) (size 9 to 14) (size 15 to 20)
#    0.000    2.133    2.667    0.800    1.867    0.533 
#    0.000   10.667    0.000   16.000    0.000    0.000 
#    0.000    0.000    0.000    0.000    0.000    0.000 
#
# Total GULP energy -167610.340405 kJ/mol
# GULP energy per Si atom -5587.011347 kJ/mol
# Density = 2.320769 g / cm^3
# Si number density = 23.260634 Si / 1000 Ang^3
#
#
#
# Elastic Constant Matrix: (Units=GPa)
#
#
# Indices 1 2 3 4 5 6 
#
# 1 98.9883 10.8667 59.0040 0.0000 17.5296 0.0000
# 2 10.8667 123.3319 24.4954 0.0000 7.3671 0.0000
# 3 59.0040 24.4954 133.3235 0.0000 -0.9891 0.0000
# 4 0.0000 0.0000 0.0000 43.5095 0.0000 7.9870
# 5 17.5296 7.3671 -0.9891 0.0000 42.7737 0.0000
# 6 0.0000 0.0000 0.0000 7.9870 0.0000 37.2906
#
#
#
# Elastic Compliance Matrix: (Units=1/GPa)
#
#
# Indices 1 2 3 4 5 6 
#
# 1 0.015327 0.000410 -0.006907 0.000000 -0.006512 0.000000
# 2 0.000410 0.008522 -0.001760 0.000000 -0.001677 0.000000
# 3 -0.006907 -0.001760 0.010906 0.000000 0.003386 0.000000
# 4 0.000000 0.000000 0.000000 0.023924 0.000000 -0.005124
# 5 -0.006512 -0.001677 0.003386 0.000000 0.026415 0.000000
# 6 0.000000 0.000000 0.000000 -0.005124 0.000000 0.027914
#
#
# Mechanical properties :
#
#
# Convention : Reuss Voigt Hill
#
# Bulk Modulus (GPa) = 54.81842 60.48621 57.65232
# Shear Modulus (GPa) = 36.87282 42.13326 39.50304
#
# Velocity S-wave (km/s) = 3.98578 4.26062 4.12549
# Velocity P-wave (km/s) = 6.69329 7.08971 6.89435
#
# Compressibility (1/GPa) = 0.01824204
#
# Stress axis : x y z
#
# Youngs Moduli (GPa) = 65.24244 117.34750 91.69442
#
# Poissons Ratio (x) = -0.04815 0.63334
# Poissons Ratio (y) = -0.02677 0.16136
# Poissons Ratio (z) = 0.45063 0.20650
#
# Static dielectric constant tensor:
#      x y z
#    x 1.900130 0.000000 -0.007780 
#    y 0.000000 2.050550 0.000000 
#    z -0.007780 0.000000 1.884340 
# 
# From -- ./inp_files/96800.got.cif
#   From: 2010.05.17/outbox.cif.g08.bks.cpg/sg13_49_cif.got.tgz:96800.got - 2010.06.03 16:44:36.
