data_PCOD9227437
_publ_section_title
;
Structure prediction by ZEFSAII (Michael W. Deem and Ramdas Pophale) SiO2 
 PCOD9227437
Probable space group: P 2/C
;
_chemical_formula_sum "Si O2"
_cell_formula_units_Z 26
_cell_length_a 16.528321
_cell_length_b 9.324416
_cell_length_c 8.346720
_cell_angle_alpha 90.000000
_cell_angle_beta 87.212953
_cell_angle_gamma 90.000000
_cell_volume 1284.849375
_symmetry_space_group_name_H-M "P 2/C"
_symmetry_group_IT_number 13
_symmetry_cell_setting 'monoclinic'
loop_
_space_group_symop_operation_xyz
x,y,z
-x,y,1/2-z
-x,-y,-z
x,-y,1/2+z
loop_
_atom_site_type_symbol
_atom_site_label
_atom_site_fract_x
_atom_site_fract_y
_atom_site_fract_z
Si Si1 0.388442 0.576392 0.515781
Si Si2 0.830324 0.382294 0.659770
Si Si3 0.938892 0.566404 0.878702
Si Si4 0.710305 0.635528 0.664857
Si Si5 0.500000 0.270380 0.250000
Si Si6 0.354369 0.102239 0.434691
Si Si7 0.329047 0.802619 0.291111
O O1 0.317402 0.614552 0.649877
O O2 0.361249 0.423806 0.446814
O O3 0.464832 0.624336 0.614505
O O4 0.383634 0.677032 0.360754
O O5 0.891932 0.436847 0.791132
O O6 0.876437 0.342396 0.491302
O O7 0.783908 0.531406 0.625900
O O8 0.760629 0.268524 0.713242
O O9 0.000000 0.643609 0.750000
O O10 0.000000 0.500000 0.000000
O O11 0.719443 0.800953 0.625408
O O12 0.431246 0.163966 0.327916
O O13 0.360850 0.138637 0.620249
O O14 0.336544 0.936512 0.409604
#
# Coordination Sequence:
#
# PCOD9227437 Si02
#       7
#     4   4   4   4   2   4   4
#     4  10  21  36  55  81 110 148 195 243 307 354
#     4  10  18  35  59  85 119 149 178 235 285 326
#     4   9  18  31  55  94 123 144 176 218 278 347
#     4  10  19  35  57  83 113 149 196 241 285 351
#     4  10  24  40  58  80 116 154 192 262 318 354
#     4  11  23  38  56  82 111 148 202 247 296 353
#     4  11  23  38  57  81 110 150 200 245 287 350
#
# _framework density 20.235835999999999
#
# number of rings (size 3 to 8) (size 9 to 14) (size 15 to 20)
#    0.000    1.846    0.000    6.462    0.000    5.538 
#    0.000    0.000    0.000    0.000    0.000   67.846 
#    0.000    0.000    0.000    0.000    0.000    0.000 
#
# Total GULP energy -144947.706519 kJ/mol
# GULP energy per Si atom -5574.911789 kJ/mol
# Density = 2.018978 g / cm^3
# Si number density = 20.235836 Si / 1000 Ang^3
#
#
#
# Elastic Constant Matrix: (Units=GPa)
#
#
# Indices 1 2 3 4 5 6 
#
# 1 93.1387 8.2769 25.9052 0.0000 10.8118 0.0000
# 2 8.2769 63.8524 -5.5401 0.0000 5.2908 0.0000
# 3 25.9052 -5.5401 96.7347 0.0000 -0.4710 0.0000
# 4 0.0000 0.0000 0.0000 31.9451 0.0000 3.1265
# 5 10.8118 5.2908 -0.4710 0.0000 36.5998 0.0000
# 6 0.0000 0.0000 0.0000 3.1265 0.0000 12.4185
#
#
#
# Elastic Compliance Matrix: (Units=1/GPa)
#
#
# Indices 1 2 3 4 5 6 
#
# 1 0.012215 -0.001593 -0.003379 0.000000 -0.003422 0.000000
# 2 -0.001593 0.016137 0.001342 0.000000 -0.001845 0.000000
# 3 -0.003379 0.001342 0.011324 0.000000 0.000950 0.000000
# 4 0.000000 0.000000 0.000000 0.032095 0.000000 -0.008080
# 5 -0.003422 -0.001845 0.000950 0.000000 0.028612 0.000000
# 6 0.000000 0.000000 0.000000 -0.008080 0.000000 0.082559
#
#
# Mechanical properties :
#
#
# Convention : Reuss Voigt Hill
#
# Bulk Modulus (GPa) = 30.84955 34.55665 32.70310
# Shear Modulus (GPa) = 24.87466 31.19828 28.03647
#
# Velocity S-wave (km/s) = 3.50985 3.93075 3.72625
# Velocity P-wave (km/s) = 5.63059 6.14126 5.89146
#
# Compressibility (1/GPa) = 0.03241538
#
# Stress axis : x y z
#
# Youngs Moduli (GPa) = 81.86462 61.96979 88.30854
#
# Poissons Ratio (x) = 0.09872 0.29840
# Poissons Ratio (y) = 0.13042 -0.11849
# Poissons Ratio (z) = 0.27663 -0.08315
#
# Static dielectric constant tensor:
#      x y z
#    x 1.806160 0.000000 -0.015120 
#    y 0.000000 1.688610 0.000000 
#    z -0.015120 0.000000 1.805010 
# 
# From -- ./inp_files/21166.got.cif
#   From: 2010.05.17/outbox.cif.g08.bks.cpg/sg13_11_cif.got.tgz:21166.got - 2010.06.03 16:44:36.
