data_PCOD9227932
_publ_section_title
;
Structure prediction by ZEFSAII (Michael W. Deem and Ramdas Pophale) SiO2 
 PCOD9227932
Probable space group: P 2/C
;
_chemical_formula_sum "Si O2"
_cell_formula_units_Z 30
_cell_length_a 14.801318
_cell_length_b 5.638107
_cell_length_c 18.820716
_cell_angle_alpha 90.000000
_cell_angle_beta 110.838686
_cell_angle_gamma 90.000000
_cell_volume 1467.874663
_symmetry_space_group_name_H-M "P 2/C"
_symmetry_group_IT_number 13
_symmetry_cell_setting 'monoclinic'
loop_
_space_group_symop_operation_xyz
x,y,z
-x,y,1/2-z
-x,-y,-z
x,-y,1/2+z
loop_
_atom_site_type_symbol
_atom_site_label
_atom_site_fract_x
_atom_site_fract_y
_atom_site_fract_z
Si Si1 0.971097 0.554778 0.106471
Si Si2 0.249664 0.584446 0.503121
Si Si3 0.707840 0.092183 0.976924
Si Si4 0.387806 0.923072 0.200571
Si Si5 0.095897 0.125538 0.555270
Si Si6 0.712441 0.423636 0.314257
Si Si7 0.111639 0.191817 0.191289
Si Si8 0.000000 0.889119 0.250000
O O1 0.981085 0.729397 0.176130
O O2 0.052111 0.630415 0.071670
O O3 0.006912 0.300424 0.142647
O O4 0.863544 0.574262 0.047515
O O5 0.301767 0.347262 0.488673
O O6 0.261865 0.581570 0.593325
O O7 0.292197 0.834278 0.487717
O O8 0.634715 0.081350 0.890180
O O9 0.817114 0.115916 0.975165
O O10 0.500000 0.907342 0.250000
O O11 0.336551 0.678969 0.213079
O O12 0.348674 0.181231 0.215359
O O13 0.136153 0.988548 0.635031
O O14 0.000000 0.000000 0.500000
O O15 0.807056 0.390823 0.291375
O O16 0.093001 0.049853 0.257523
#
# Coordination Sequence:
#
# PCOD9227932 Si02
#       8
#     4   4   4   4   4   4   4   2
#     4  11  21  33  49  66 102 145 182 221 261 305
#     4  10  19  31  50  74 103 136 176 210 261 312
#     4  10  19  31  45  80 105 134 171 205 254 316
#     4  10  19  33  52  79 115 143 166 209 271 331
#     4  11  18  28  48  75 102 136 170 207 256 318
#     4  10  20  34  54  81 108 140 175 216 264 329
#     4  11  21  35  49  69 105 147 184 223 258 307
#     4  10  26  36  46  70  98 148 196 234 256 296
#
# _framework density 20.437712000000001
#
# number of rings (size 3 to 8) (size 9 to 14) (size 15 to 20)
#    0.000    1.600    4.000    3.200    3.733    1.600 
#    0.000    0.000    0.000    0.000    0.000    0.000 
#    0.000   25.600    0.000    0.000    0.000    0.000 
#
# Total GULP energy -167323.513819 kJ/mol
# GULP energy per Si atom -5577.450461 kJ/mol
# Density = 2.039119 g / cm^3
# Si number density = 20.437712 Si / 1000 Ang^3
#
#
#
# Elastic Constant Matrix: (Units=GPa)
#
#
# Indices 1 2 3 4 5 6 
#
# 1 41.5441 27.3388 32.7977 0.0000 19.2862 0.0000
# 2 27.3388 163.5677 26.1741 0.0000 10.3761 0.0000
# 3 32.7977 26.1741 42.1893 0.0000 25.8687 0.0000
# 4 0.0000 0.0000 0.0000 27.0913 0.0000 4.2633
# 5 19.2862 10.3761 25.8687 0.0000 34.7531 0.0000
# 6 0.0000 0.0000 0.0000 4.2633 0.0000 28.5785
#
#
#
# Elastic Compliance Matrix: (Units=1/GPa)
#
#
# Indices 1 2 3 4 5 6 
#
# 1 0.063698 -0.002950 -0.048849 0.000000 0.001893 0.000000
# 2 -0.002950 0.007004 -0.003262 0.000000 0.001974 0.000000
# 3 -0.048849 -0.003262 0.085510 0.000000 -0.035567 0.000000
# 4 0.000000 0.000000 0.000000 0.037800 0.000000 -0.005639
# 5 0.001893 0.001974 -0.035567 0.000000 0.053609 0.000000
# 6 0.000000 0.000000 0.000000 -0.005639 0.000000 0.035833
#
#
# Mechanical properties :
#
#
# Convention : Reuss Voigt Hill
#
# Bulk Modulus (GPa) = 21.69710 46.65803 34.17756
# Shear Modulus (GPa) = 12.22682 28.81728 20.52205
#
# Velocity S-wave (km/s) = 2.44856 3.75908 3.17223
# Velocity P-wave (km/s) = 4.31662 6.45909 5.49332
#
# Compressibility (1/GPa) = 0.04608911
#
# Stress axis : x y z
#
# Youngs Moduli (GPa) = 15.69912 142.78547 11.69459
#
# Poissons Ratio (x) = 0.42119 0.57127
# Poissons Ratio (y) = 0.04631 0.03815
# Poissons Ratio (z) = 0.76688 0.46583
#
# Static dielectric constant tensor:
#      x y z
#    x 1.704240 0.000000 -0.001680 
#    y 0.000000 1.872640 0.000000 
#    z -0.001680 0.000000 1.736290 
# 
# From -- ./inp_files/79348.got.cif
#   From: 2010.05.17/outbox.cif.g08.bks.cpg/sg13_40_cif.got.tgz:79348.got - 2010.06.03 16:44:36.
