data_PCOD9227870
_publ_section_title
;
Structure prediction by ZEFSAII (Michael W. Deem and Ramdas Pophale) SiO2 
 PCOD9227870
Probable space group: P 2/C
;
_chemical_formula_sum "Si O2"
_cell_formula_units_Z 24
_cell_length_a 13.198349
_cell_length_b 21.772429
_cell_length_c 5.139005
_cell_angle_alpha 90.000000
_cell_angle_beta 86.332047
_cell_angle_gamma 90.000000
_cell_volume 1473.720047
_symmetry_space_group_name_H-M "P 2/C"
_symmetry_group_IT_number 13
_symmetry_cell_setting 'monoclinic'
loop_
_space_group_symop_operation_xyz
x,y,z
-x,y,1/2-z
-x,-y,-z
x,-y,1/2+z
loop_
_atom_site_type_symbol
_atom_site_label
_atom_site_fract_x
_atom_site_fract_y
_atom_site_fract_z
Si Si1 0.880095 0.459308 0.292836
Si Si2 0.380095 0.959308 0.292836
Si Si3 0.805342 0.325548 0.216602
Si Si4 0.115327 0.258068 0.798023
Si Si5 0.305342 0.825548 0.216602
Si Si6 0.615327 0.241932 0.298023
O O1 0.860941 0.490136 0.573944
O O2 0.817620 0.397572 0.258177
O O3 0.000000 0.442961 0.250000
O O4 0.500000 0.942961 0.250000
O O5 0.317620 0.897572 0.258177
O O6 0.360941 0.990136 0.573944
O O7 0.871209 0.289656 0.423765
O O8 0.691548 0.299596 0.269294
O O9 0.844903 0.305887 0.926542
O O10 0.191548 0.200404 0.769294
O O11 0.000000 0.242587 0.750000
O O12 0.371209 0.789656 0.423765
O O13 0.344903 0.805887 0.926542
O O14 0.500000 0.257413 0.250000
#
# Coordination Sequence:
#
# PCOD9227870 Si02
#       6
#     4   4   4   4   4   4
#     4  10  19  30  46  67  93 124 154 189 232 277
#     4  10  19  30  46  67  93 124 154 189 232 277
#     4  10  20  32  49  73  97 124 157 193 236 281
#     4  10  19  32  51  72  96 124 155 196 238 278
#     4  10  20  32  49  73  97 124 157 193 236 281
#     4  10  19  32  51  72  96 124 155 196 238 278
#
# _framework density 16.285316999999999
#
# number of rings (size 3 to 8) (size 9 to 14) (size 15 to 20)
#    0.000    2.000    0.000    5.000    0.000    2.667 
#    0.000    0.000    0.000    2.000    0.000    0.000 
#    0.000    0.000    0.000    0.000    0.000    0.000 
#
# Total GULP energy -133989.238553 kJ/mol
# GULP energy per Si atom -5582.884940 kJ/mol
# Density = 1.624825 g / cm^3
# Si number density = 16.285317 Si / 1000 Ang^3
#
#
#
# Elastic Constant Matrix: (Units=GPa)
#
#
# Indices 1 2 3 4 5 6 
#
# 1 88.4146 28.7297 -10.1712 0.0000 18.2120 0.0000
# 2 28.7297 73.2159 -22.1421 0.0000 6.9510 0.0000
# 3 -10.1712 -22.1421 37.2801 0.0000 7.6876 0.0000
# 4 0.0000 0.0000 0.0000 9.1799 0.0000 6.5070
# 5 18.2120 6.9510 7.6876 0.0000 17.9722 0.0000
# 6 0.0000 0.0000 0.0000 6.5070 0.0000 13.3729
#
#
#
# Elastic Compliance Matrix: (Units=1/GPa)
#
#
# Indices 1 2 3 4 5 6 
#
# 1 0.016919 -0.002739 0.006916 0.000000 -0.019043 0.000000
# 2 -0.002739 0.019685 0.013097 0.000000 -0.010440 0.000000
# 3 0.006916 0.013097 0.042751 0.000000 -0.030361 0.000000
# 4 0.000000 0.000000 0.000000 0.166285 0.000000 -0.080911
# 5 -0.019043 -0.010440 -0.030361 0.000000 0.091964 0.000000
# 6 0.000000 0.000000 0.000000 -0.080911 0.000000 0.114147
#
#
# Mechanical properties :
#
#
# Convention : Reuss Voigt Hill
#
# Bulk Modulus (GPa) = 8.77944 21.30480 15.04212
# Shear Modulus (GPa) = 10.98490 21.60462 16.29476
#
# Velocity S-wave (km/s) = 2.59998 3.64625 3.16663
# Velocity P-wave (km/s) = 3.79683 5.55315 4.75675
#
# Compressibility (1/GPa) = 0.11390251
#
# Stress axis : x y z
#
# Youngs Moduli (GPa) = 59.10607 50.79940 23.39147
#
# Poissons Ratio (x) = 0.13916 -0.16177
# Poissons Ratio (y) = 0.16191 -0.30637
# Poissons Ratio (z) = -0.40877 -0.66534
#
# Static dielectric constant tensor:
#      x y z
#    x 1.535440 0.000000 0.006710 
#    y 0.000000 1.511940 0.000000 
#    z 0.006710 0.000000 1.551910 
# 
# From -- ./inp_files/3633.got.cif
#   From: 2010.05.17/outbox.cif.g08.bks.cpg/sg13_2_cif.got.tgz:3633.got - 2010.06.03 16:44:36.
