data_PCOD9227476
_publ_section_title
;
Structure prediction by ZEFSAII (Michael W. Deem and Ramdas Pophale) SiO2 
 PCOD9227476
Probable space group: P 2/C
;
_chemical_formula_sum "Si O2"
_cell_formula_units_Z 30
_cell_length_a 9.477383
_cell_length_b 12.844796
_cell_length_c 11.667658
_cell_angle_alpha 90.000000
_cell_angle_beta 58.712032
_cell_angle_gamma 90.000000
_cell_volume 1213.796592
_symmetry_space_group_name_H-M "P 2/C"
_symmetry_group_IT_number 13
_symmetry_cell_setting 'monoclinic'
loop_
_space_group_symop_operation_xyz
x,y,z
-x,y,1/2-z
-x,-y,-z
x,-y,1/2+z
loop_
_atom_site_type_symbol
_atom_site_label
_atom_site_fract_x
_atom_site_fract_y
_atom_site_fract_z
Si Si1 0.131824 0.292260 0.018376
Si Si2 0.037718 0.026754 0.850555
Si Si3 0.639433 0.330293 0.923364
Si Si4 0.500000 0.834320 0.750000
Si Si5 0.311082 0.330319 0.171530
Si Si6 0.174387 0.798022 0.980241
Si Si7 0.699517 0.466830 0.693173
Si Si8 0.657571 0.145851 0.742043
O O1 0.185289 0.406760 0.946900
O O2 0.248870 0.214424 0.894497
O O3 0.181104 0.295751 0.130635
O O4 0.950565 0.245422 0.064597
O O5 0.227621 0.055188 0.762824
O O6 0.000000 0.963055 0.750000
O O7 0.935443 0.134197 0.888057
O O8 0.000000 0.000000 0.000000
O O9 0.730184 0.404869 0.797901
O O10 0.608595 0.225230 0.863012
O O11 0.466092 0.377741 0.034957
O O12 0.749862 0.298868 0.983789
O O13 0.596300 0.763684 0.803445
O O14 0.332129 0.871474 0.882271
O O15 0.262503 0.415582 0.286451
O O16 0.500000 0.457167 0.750000
O O17 0.500000 0.098091 0.750000
#
# Coordination Sequence:
#
# PCOD9227476 Si02
#       8
#     4   4   4   2   4   4   4   4
#     4  10  21  35  60  90 121 172 230 274 333 399
#     4  11  24  47  73 106 143 176 216 277 354 419
#     4  10  18  35  64  87 120 172 228 266 321 400
#     4  10  24  42  64  90 126 182 234 280 354 394
#     4  11  20  36  58  85 131 170 223 285 341 394
#     4  10  23  44  67  92 129 175 226 282 332 420
#     4  11  20  32  56  92 125 170 224 281 343 391
#     4  10  18  38  67 101 124 167 228 264 320 414
#
# _framework density 24.715838000000002
#
# number of rings (size 3 to 8) (size 9 to 14) (size 15 to 20)
#    0.000    1.600    4.667    1.200    0.000    0.533 
#    6.000    4.667    0.000    0.000    0.000    0.000 
#    0.000    0.000    0.000    0.000    0.000    0.000 
#
# Total GULP energy -167414.200084 kJ/mol
# GULP energy per Si atom -5580.473336 kJ/mol
# Density = 2.465958 g / cm^3
# Si number density = 24.715838 Si / 1000 Ang^3
#
#
#
# Elastic Constant Matrix: (Units=GPa)
#
#
# Indices 1 2 3 4 5 6 
#
# 1 176.3176 24.4814 47.0501 0.0000 14.3221 0.0000
# 2 24.4814 33.7984 18.6898 0.0000 8.9933 0.0000
# 3 47.0501 18.6898 99.5953 0.0000 22.6717 0.0000
# 4 0.0000 0.0000 0.0000 22.5622 0.0000 1.8996
# 5 14.3221 8.9933 22.6717 0.0000 49.1608 0.0000
# 6 0.0000 0.0000 0.0000 1.8996 0.0000 15.8507
#
#
#
# Elastic Compliance Matrix: (Units=1/GPa)
#
#
# Indices 1 2 3 4 5 6 
#
# 1 0.006851 -0.003511 -0.002536 0.000000 -0.000184 0.000000
# 2 -0.003511 0.035378 -0.004179 0.000000 -0.003522 0.000000
# 3 -0.002536 -0.004179 0.013050 0.000000 -0.004515 0.000000
# 4 0.000000 0.000000 0.000000 0.044774 0.000000 -0.005366
# 5 -0.000184 -0.003522 -0.004515 0.000000 0.023122 0.000000
# 6 0.000000 0.000000 0.000000 -0.005366 0.000000 0.063732
#
#
# Mechanical properties :
#
#
# Convention : Reuss Voigt Hill
#
# Bulk Modulus (GPa) = 28.71163 54.46153 41.58658
# Shear Modulus (GPa) = 22.83454 32.14742 27.49098
#
# Velocity S-wave (km/s) = 3.04284 3.61041 3.33871
# Velocity P-wave (km/s) = 4.89766 6.28196 5.63250
#
# Compressibility (1/GPa) = 0.03482909
#
# Stress axis : x y z
#
# Youngs Moduli (GPa) = 145.97150 28.26592 76.62554
#
# Poissons Ratio (x) = 0.09924 0.19429
# Poissons Ratio (y) = 0.51252 0.32018
# Poissons Ratio (z) = 0.37011 0.11811
#
# Static dielectric constant tensor:
#      x y z
#    x 1.999540 0.000000 -0.004770 
#    y 0.000000 2.005510 0.000000 
#    z -0.004770 0.000000 2.093640 
# 
# From -- ./inp_files/30363.got.cif
#   From: 2010.05.17/outbox.cif.g08.bks.cpg/sg13_16_cif.got.tgz:30363.got - 2010.06.03 16:44:36.
