data_PCOD9227079
_publ_section_title
;
Structure prediction by ZEFSAII (Michael W. Deem and Ramdas Pophale) SiO2 
 PCOD9227079
Probable space group: P 2/C
;
_chemical_formula_sum "Si O2"
_cell_formula_units_Z 30
_cell_length_a 8.678867
_cell_length_b 11.345138
_cell_length_c 14.061209
_cell_angle_alpha 90.000000
_cell_angle_beta 59.380476
_cell_angle_gamma 90.000000
_cell_volume 1191.464024
_symmetry_space_group_name_H-M "P 2/C"
_symmetry_group_IT_number 13
_symmetry_cell_setting 'monoclinic'
loop_
_space_group_symop_operation_xyz
x,y,z
-x,y,1/2-z
-x,-y,-z
x,-y,1/2+z
loop_
_atom_site_type_symbol
_atom_site_label
_atom_site_fract_x
_atom_site_fract_y
_atom_site_fract_z
Si Si1 0.710293 0.024990 0.457416
Si Si2 0.830752 0.712415 0.922556
Si Si3 0.212237 0.788391 0.814834
Si Si4 0.801403 0.769945 0.449914
Si Si5 0.467155 0.352088 0.102334
Si Si6 0.188590 0.705487 0.342749
Si Si7 0.290579 0.035551 0.818759
Si Si8 0.500000 0.468352 0.750000
O O1 0.765275 0.156477 0.409282
O O2 0.752136 0.035935 0.556628
O O3 0.500000 0.000000 0.500000
O O4 0.805882 0.900795 0.403758
O O5 0.704080 0.620072 0.909315
O O6 0.041846 0.711568 0.838739
O O7 0.808077 0.703019 0.043004
O O8 0.216089 0.781946 0.928724
O O9 0.382283 0.738411 0.706459
O O10 0.189170 0.927661 0.802194
O O11 0.616564 0.704187 0.486988
O O12 0.983223 0.699259 0.374633
O O13 0.547953 0.452685 0.143540
O O14 0.256247 0.834948 0.291183
O O15 0.331683 0.608703 0.269770
O O16 0.500000 0.006653 0.750000
#
# Coordination Sequence:
#
# PCOD9227079 Si02
#       8
#     4   4   4   4   4   4   4   2
#     4  10  18  32  59  97 132 157 189 249 315 390
#     4  10  22  37  62  93 127 158 203 258 325 375
#     4  10  19  36  60  97 123 157 198 253 314 387
#     4  10  19  37  63  91 123 161 206 246 316 379
#     4  12  22  39  63  92 124 164 210 268 314 367
#     4  10  23  43  63  88 119 170 215 260 304 378
#     4  10  19  34  63  89 127 165 201 243 315 382
#     4  12  26  44  66  84 122 168 234 266 306 362
#
# _framework density 25.179107999999999
#
# number of rings (size 3 to 8) (size 9 to 14) (size 15 to 20)
#    0.000    1.600    3.333    2.800    0.000    4.267 
#    0.000    0.000    2.933    1.600    0.000    0.000 
#    0.000    0.000    0.000    0.000    0.000    0.000 
#
# Total GULP energy -167752.235426 kJ/mol
# GULP energy per Si atom -5591.741181 kJ/mol
# Density = 2.512180 g / cm^3
# Si number density = 25.179108 Si / 1000 Ang^3
#
#
#
# Elastic Constant Matrix: (Units=GPa)
#
#
# Indices 1 2 3 4 5 6 
#
# 1 87.2758 6.0580 6.1271 0.0000 -14.6132 0.0000
# 2 6.0580 70.1407 18.2798 0.0000 -12.6132 0.0000
# 3 6.1271 18.2798 44.3621 0.0000 8.4926 0.0000
# 4 0.0000 0.0000 0.0000 18.2549 0.0000 -3.4894
# 5 -14.6132 -12.6132 8.4926 0.0000 50.5289 0.0000
# 6 0.0000 0.0000 0.0000 -3.4894 0.0000 25.0330
#
#
#
# Elastic Compliance Matrix: (Units=1/GPa)
#
#
# Indices 1 2 3 4 5 6 
#
# 1 0.012302 0.000358 -0.002630 0.000000 0.004089 0.000000
# 2 0.000358 0.017463 -0.008369 0.000000 0.005869 0.000000
# 3 -0.002630 -0.008369 0.027793 0.000000 -0.007521 0.000000
# 4 0.000000 0.000000 0.000000 0.056279 0.000000 0.007845
# 5 0.004089 0.005869 -0.007521 0.000000 0.023702 0.000000
# 6 0.000000 0.000000 0.000000 0.007845 0.000000 0.041041
#
#
# Mechanical properties :
#
#
# Convention : Reuss Voigt Hill
#
# Bulk Modulus (GPa) = 27.56505 29.18984 28.37744
# Shear Modulus (GPa) = 23.59008 30.18427 26.88717
#
# Velocity S-wave (km/s) = 3.06419 3.46610 3.27132
# Velocity P-wave (km/s) = 4.84668 5.25704 5.05603
#
# Compressibility (1/GPa) = 0.03627783
#
# Stress axis : x y z
#
# Youngs Moduli (GPa) = 81.28512 57.26530 35.98015
#
# Poissons Ratio (x) = -0.02051 0.09461
# Poissons Ratio (y) = -0.02911 0.30111
# Poissons Ratio (z) = 0.21374 0.47923
#
# Static dielectric constant tensor:
#      x y z
#    x 1.989150 0.000000 0.040150 
#    y 0.000000 2.003570 0.000000 
#    z 0.040150 0.000000 2.088880 
# 
# From -- ./inp_files/64438.got.cif
#   From: 2010.05.17/outbox.cif.g08.bks.cpg/sg13_33_cif.got.tgz:64438.got - 2010.06.03 16:44:36.
