data_PCOD9227833
_publ_section_title
;
Structure prediction by ZEFSAII (Michael W. Deem and Ramdas Pophale) SiO2 
 PCOD9227833
Probable space group: P 2/C
;
_chemical_formula_sum "Si O2"
_cell_formula_units_Z 30
_cell_length_a 8.569289
_cell_length_b 6.867523
_cell_length_c 18.814556
_cell_angle_alpha 90.000000
_cell_angle_beta 108.080404
_cell_angle_gamma 90.000000
_cell_volume 1052.559647
_symmetry_space_group_name_H-M "P 2/C"
_symmetry_group_IT_number 13
_symmetry_cell_setting 'monoclinic'
loop_
_space_group_symop_operation_xyz
x,y,z
-x,y,1/2-z
-x,-y,-z
x,-y,1/2+z
loop_
_atom_site_type_symbol
_atom_site_label
_atom_site_fract_x
_atom_site_fract_y
_atom_site_fract_z
Si Si1 0.000000 0.868420 0.250000
Si Si2 0.925264 0.775742 0.638469
Si Si3 0.735699 0.232813 0.356369
Si Si4 0.479384 0.216535 0.968215
Si Si5 0.847627 0.729204 0.023578
Si Si6 0.190584 0.717673 0.031117
Si Si7 0.407596 0.272472 0.363226
Si Si8 0.654213 0.107147 0.733760
O O1 0.039231 0.022212 0.318407
O O2 0.178021 0.776445 0.258405
O O3 0.851741 0.820863 0.550247
O O4 0.783691 0.670123 0.663937
O O5 0.097966 0.668801 0.649195
O O6 0.782363 0.160872 0.442897
O O7 0.562083 0.342220 0.338745
O O8 0.701968 0.055751 0.299253
O O9 0.286318 0.253296 0.933747
O O10 0.616902 0.254464 0.928591
O O11 0.536449 0.326628 0.049002
O O12 0.500000 0.000000 0.000000
O O13 0.040168 0.766704 0.061844
O O14 0.831851 0.507957 0.993206
O O15 0.395525 0.040423 0.338980
O O16 0.500000 0.209322 0.750000
#
# Coordination Sequence:
#
# PCOD9227833 Si02
#       8
#     2   4   4   4   4   4   4   4
#     4   8  12  18  30  50  76  98 120 160 206 244
#     4   8  13  21  34  53  77 102 128 161 205 246
#     4   8  13  21  35  55  77  99 125 163 206 245
#     4  10  19  29  42  61  87 116 145 177 211 250
#     4   9  17  29  44  62  86 113 143 176 213 256
#     4   9  17  29  44  61  85 116 144 174 213 257
#     4   8  14  23  34  51  77 104 128 160 202 245
#     4   8  12  19  32  50  74  98 121 157 206 245
#
# _framework density 28.501947999999999
#
# number of rings (size 3 to 8) (size 9 to 14) (size 15 to 20)
#    0.000    3.467    0.000    0.400    0.000    0.533 
#    0.000    0.000    0.000    0.000    0.000    0.000 
#    0.000  106.667    0.000   10.000    0.000    0.667 
#
# Total GULP energy -167407.439423 kJ/mol
# GULP energy per Si atom -5580.247981 kJ/mol
# Density = 2.843708 g / cm^3
# Si number density = 28.501948 Si / 1000 Ang^3
#
#
#
# Elastic Constant Matrix: (Units=GPa)
#
#
# Indices 1 2 3 4 5 6 
#
# 1 438.5206 38.9985 6.1016 0.0000 -20.2369 0.0000
# 2 38.9985 61.0599 23.2439 0.0000 -1.5038 0.0000
# 3 6.1016 23.2439 120.0267 0.0000 1.8595 0.0000
# 4 0.0000 0.0000 0.0000 26.2223 0.0000 -1.0967
# 5 -20.2369 -1.5038 1.8595 0.0000 14.4397 0.0000
# 6 0.0000 0.0000 0.0000 -1.0967 0.0000 11.9023
#
#
#
# Elastic Compliance Matrix: (Units=1/GPa)
#
#
# Indices 1 2 3 4 5 6 
#
# 1 0.002580 -0.001612 0.000128 0.000000 0.003432 0.000000
# 2 -0.001612 0.018764 -0.003554 0.000000 0.000152 0.000000
# 3 0.000128 -0.003554 0.009034 0.000000 -0.001354 0.000000
# 4 0.000000 0.000000 0.000000 0.038283 0.000000 0.003528
# 5 0.003432 0.000152 -0.001354 0.000000 0.074254 0.000000
# 6 0.000000 0.000000 0.000000 0.003528 0.000000 0.084342
#
#
# Mechanical properties :
#
#
# Convention : Reuss Voigt Hill
#
# Bulk Modulus (GPa) = 49.25757 84.03281 66.64519
# Shear Modulus (GPa) = 20.48328 47.26374 33.87351
#
# Velocity S-wave (km/s) = 2.68370 4.07660 3.45115
# Velocity P-wave (km/s) = 5.18871 7.19064 6.27009
#
# Compressibility (1/GPa) = 0.02030145
#
# Stress axis : x y z
#
# Youngs Moduli (GPa) = 387.54105 53.29417 110.68995
#
# Poissons Ratio (x) = 0.08592 -0.01415
# Poissons Ratio (y) = 0.62480 0.39341
# Poissons Ratio (z) = -0.04956 0.18941
#
# Static dielectric constant tensor:
#      x y z
#    x 2.275940 0.000000 0.010310 
#    y 0.000000 2.261240 0.000000 
#    z 0.010310 0.000000 2.242120 
# 
# From -- ./inp_files/84812.got.cif
#   From: 2010.05.17/outbox.cif.g08.bks.cpg/sg13_43_cif.got.tgz:84812.got - 2010.06.03 16:44:36.
