data_PCOD9227778
_publ_section_title
;
Structure prediction by ZEFSAII (Michael W. Deem and Ramdas Pophale) SiO2 
 PCOD9227778
Probable space group: P 2/C
;
_chemical_formula_sum "Si O2"
_cell_formula_units_Z 24
_cell_length_a 18.528734
_cell_length_b 11.930296
_cell_length_c 14.433390
_cell_angle_alpha 90.000000
_cell_angle_beta 20.633241
_cell_angle_gamma 90.000000
_cell_volume 1124.300243
_symmetry_space_group_name_H-M "P 2/C"
_symmetry_group_IT_number 13
_symmetry_cell_setting 'monoclinic'
loop_
_space_group_symop_operation_xyz
x,y,z
-x,y,1/2-z
-x,-y,-z
x,-y,1/2+z
loop_
_atom_site_type_symbol
_atom_site_label
_atom_site_fract_x
_atom_site_fract_y
_atom_site_fract_z
Si Si1 0.762184 0.626406 0.190804
Si Si2 0.327209 0.603535 0.782182
Si Si3 0.827440 0.291723 0.227085
Si Si4 0.808687 0.095779 0.133863
Si Si5 0.000000 0.245091 0.750000
Si Si6 0.500000 0.800419 0.250000
Si Si7 0.652756 0.130700 0.758542
O O1 0.572259 0.611818 0.490372
O O2 0.741135 0.524895 0.144097
O O3 0.738203 0.745906 0.170644
O O4 0.978144 0.634893 0.981531
O O5 0.267451 0.655975 0.752752
O O6 0.198052 0.673458 0.012195
O O7 0.873477 0.159602 0.149873
O O8 0.665588 0.280403 0.503222
O O9 0.562905 0.122420 0.426055
O O10 0.801910 0.965390 0.117314
O O11 0.952380 0.161584 0.890436
O O12 0.405239 0.875618 0.280751
#
# Coordination Sequence:
#
# PCOD9227778 Si02
#       7
#     4   4   4   4   2   2   4
#     4  11  21  39  67  87 130 174 208 260 334 378
#     4  10  22  41  59  93 133 165 212 268 314 387
#     4  10  21  40  61  92 126 166 208 265 323 383
#     4   9  20  39  63  85 130 162 203 274 316 372
#     4  10  18  40  64  84 126 168 200 268 314 368
#     4  10  20  38  60  92 130 156 218 272 316 396
#     4  10  20  40  62  91 123 166 211 265 324 382
#
# _framework density 21.346610999999999
#
# number of rings (size 3 to 8) (size 9 to 14) (size 15 to 20)
#    0.000    2.000    5.000    0.500    0.000    4.000 
#    0.000   11.667    0.000    0.000    0.000    0.000 
#    0.000    0.000    0.000    0.000    0.000    0.000 
#
# Total GULP energy -133707.902013 kJ/mol
# GULP energy per Si atom -5571.162584 kJ/mol
# Density = 2.129803 g / cm^3
# Si number density = 21.346611 Si / 1000 Ang^3
#
#
#
# Elastic Constant Matrix: (Units=GPa)
#
#
# Indices 1 2 3 4 5 6 
#
# 1 26.8441 23.3057 44.1646 0.0000 -3.7968 0.0000
# 2 23.3057 166.3508 39.8706 0.0000 -1.5858 0.0000
# 3 44.1646 39.8706 138.8774 0.0000 5.3372 0.0000
# 4 0.0000 0.0000 0.0000 25.6375 0.0000 19.4207
# 5 -3.7968 -1.5858 5.3372 0.0000 25.5286 0.0000
# 6 0.0000 0.0000 0.0000 19.4207 0.0000 -25.8097
#
#
#
# Elastic Compliance Matrix: (Units=1/GPa)
#
#
# Indices 1 2 3 4 5 6 
#
# 1 0.091186 -0.005872 -0.028045 0.000000 0.019060 0.000000
# 2 -0.005872 0.006850 -0.000083 0.000000 -0.000430 0.000000
# 3 -0.028045 -0.000083 0.016436 0.000000 -0.007612 0.000000
# 4 0.000000 0.000000 0.000000 0.024844 0.000000 0.018694
# 5 0.019060 -0.000430 -0.007612 0.000000 0.043571 0.000000
# 6 0.000000 0.000000 0.000000 0.018694 0.000000 -0.024678
#
#
# Mechanical properties :
#
#
# Convention : Reuss Voigt Hill
#
# Bulk Modulus (GPa) = 21.51811 60.75048 41.13429
# Shear Modulus (GPa) = 20.68699 20.05337 20.37018
#
# Velocity S-wave (km/s) = 3.11641 3.06832 3.09246
# Velocity P-wave (km/s) = 4.80121 6.40887 5.66238
#
# Compressibility (1/GPa) = 0.04647249
#
# Stress axis : x y z
#
# Youngs Moduli (GPa) = 10.96660 145.99110 60.84387
#
# Poissons Ratio (x) = 0.85721 1.70636
# Poissons Ratio (y) = 0.06439 0.00503
# Poissons Ratio (z) = 0.30756 0.01207
#
# Static dielectric constant tensor:
#      x y z
#    x 1.797270 0.000000 -0.000620 
#    y 0.000000 1.835970 0.000000 
#    z -0.000620 0.000000 1.845910 
# 
# From -- ./inp_files/57699.got.cif
#   From: 2010.05.17/outbox.cif.g08.bks.cpg/sg13_29_cif.got.tgz:57699.got - 2010.06.03 16:44:36.
