data_PCOD9227754
_publ_section_title
;
Structure prediction by ZEFSAII (Michael W. Deem and Ramdas Pophale) SiO2 
 PCOD9227754
Probable space group: P 2/C
;
_chemical_formula_sum "Si O2"
_cell_formula_units_Z 32
_cell_length_a 11.796196
_cell_length_b 15.064296
_cell_length_c 25.055129
_cell_angle_alpha 90.000000
_cell_angle_beta 158.819735
_cell_angle_gamma 90.000000
_cell_volume 1608.642484
_symmetry_space_group_name_H-M "P 2/C"
_symmetry_group_IT_number 13
_symmetry_cell_setting 'monoclinic'
loop_
_space_group_symop_operation_xyz
x,y,z
-x,y,1/2-z
-x,-y,-z
x,-y,1/2+z
loop_
_atom_site_type_symbol
_atom_site_label
_atom_site_fract_x
_atom_site_fract_y
_atom_site_fract_z
Si Si1 0.810586 0.939842 0.274972
Si Si2 0.658632 0.065853 0.027063
Si Si3 0.517740 0.689130 0.387191
Si Si4 0.834942 0.755281 0.061617
Si Si5 0.234387 0.756305 0.589451
Si Si6 0.796275 0.587294 0.418919
Si Si7 0.678724 0.153278 0.879629
Si Si8 0.304424 0.737264 0.916014
O O1 0.533842 0.931293 0.197689
O O2 0.040107 0.856316 0.382304
O O3 0.620687 0.924257 0.137540
O O4 0.034297 0.024301 0.366673
O O5 0.746663 0.159288 0.091360
O O6 0.500000 0.000000 0.000000
O O7 0.669881 0.606502 0.423043
O O8 0.656058 0.778572 0.419292
O O9 0.602421 0.691937 0.486755
O O10 0.148636 0.697171 0.210252
O O11 0.679014 0.749206 0.934661
O O12 0.593535 0.735513 0.002239
O O13 0.500000 0.749303 0.750000
O O14 0.006561 0.672386 0.497314
O O15 0.034901 0.845538 0.516101
O O16 0.500000 0.583730 0.250000
O O17 0.000000 0.500000 0.500000
O O18 0.500000 0.193774 0.750000
O O19 0.000000 0.703777 0.750000
#
# Coordination Sequence:
#
# PCOD9227754 Si02
#       8
#     4   4   4   4   4   4   4   4
#     4  11  23  38  59  83 120 170 219 280 345 389
#     4  12  23  38  56  85 126 166 223 284 335 391
#     4  10  20  40  65  92 134 172 214 267 321 387
#     4  11  21  40  66  90 125 176 222 264 337 393
#     4  11  22  38  69 102 128 165 215 274 320 391
#     4  11  22  42  70 108 139 170 205 259 320 390
#     4  10  18  39  64  83 121 163 215 270 333 394
#     4  12  25  37  61  97 128 169 228 283 325 387
#
# _framework density 19.892548999999999
#
# number of rings (size 3 to 8) (size 9 to 14) (size 15 to 20)
#    0.000    1.000    7.500    2.625    3.500    0.000 
#    0.000    0.625    0.000    0.750    0.000    0.000 
#    0.000    0.000    0.000    0.000    0.000    0.000 
#
# Total GULP energy -178490.364365 kJ/mol
# GULP energy per Si atom -5577.823886 kJ/mol
# Density = 1.984727 g / cm^3
# Si number density = 19.892549 Si / 1000 Ang^3
#
#
#
# Elastic Constant Matrix: (Units=GPa)
#
#
# Indices 1 2 3 4 5 6 
#
# 1 160.4999 39.7963 54.9587 0.0000 -20.4174 0.0000
# 2 39.7963 50.7509 26.6156 0.0000 8.6283 0.0000
# 3 54.9587 26.6156 126.0455 0.0000 -32.9003 0.0000
# 4 0.0000 0.0000 0.0000 7.9067 0.0000 14.6334
# 5 -20.4174 8.6283 -32.9003 0.0000 41.7184 0.0000
# 6 0.0000 0.0000 0.0000 14.6334 0.0000 26.0481
#
#
#
# Elastic Compliance Matrix: (Units=1/GPa)
#
#
# Indices 1 2 3 4 5 6 
#
# 1 0.009097 -0.007470 -0.001037 0.000000 0.005179 0.000000
# 2 -0.007470 0.032583 -0.007979 0.000000 -0.016687 0.000000
# 3 -0.001037 -0.007979 0.013057 0.000000 0.011439 0.000000
# 4 0.000000 0.000000 0.000000 -3.183717 0.000000 1.788559
# 5 0.005179 -0.016687 0.011439 0.000000 0.038977 0.000000
# 6 0.000000 0.000000 0.000000 1.788559 0.000000 -0.966391
#
#
# Mechanical properties :
#
#
# Convention : Reuss Voigt Hill
#
# Bulk Modulus (GPa) = 45.94623 64.44862 55.19743
# Shear Modulus (GPa) = -1.24497 29.52969 14.14236
#
# Velocity S-wave (km/s) = -0.79196 3.85705 2.66923
# Velocity P-wave (km/s) = 4.72346 7.23218 6.10801
#
# Compressibility (1/GPa) = 0.02176457
#
# Stress axis : x y z
#
# Youngs Moduli (GPa) = 109.93078 30.69119 76.58971
#
# Poissons Ratio (x) = 0.22925 0.07945
# Poissons Ratio (y) = 0.82114 0.61109
# Poissons Ratio (z) = 0.11403 0.24488
#
# Static dielectric constant tensor:
#      x y z
#    x 1.778220 0.000000 -0.001710 
#    y 0.000000 1.741870 0.000000 
#    z -0.001710 0.000000 1.905390 
# 
# From -- ./inp_files/86681.got.cif
#   From: 2010.05.17/outbox.cif.g08.bks.cpg/sg13_44_cif.got.tgz:86681.got - 2010.06.03 16:44:36.
