data_PCOD9227160
_publ_section_title
;
Structure prediction by ZEFSAII (Michael W. Deem and Ramdas Pophale) SiO2 
 PCOD9227160
Probable space group: P 2/C
;
_chemical_formula_sum "Si O2"
_cell_formula_units_Z 24
_cell_length_a 17.368921
_cell_length_b 12.958817
_cell_length_c 10.114316
_cell_angle_alpha 90.000000
_cell_angle_beta 24.560412
_cell_angle_gamma 90.000000
_cell_volume 946.248218
_symmetry_space_group_name_H-M "P 2/C"
_symmetry_group_IT_number 13
_symmetry_cell_setting 'monoclinic'
loop_
_space_group_symop_operation_xyz
x,y,z
-x,y,1/2-z
-x,-y,-z
x,-y,1/2+z
loop_
_atom_site_type_symbol
_atom_site_label
_atom_site_fract_x
_atom_site_fract_y
_atom_site_fract_z
Si Si1 0.726377 0.671102 0.403801
Si Si2 0.725760 0.433702 0.401437
Si Si3 0.692593 0.951281 0.877457
Si Si4 0.281252 0.737948 0.797516
Si Si5 0.176047 0.049304 0.062764
Si Si6 0.731042 0.272319 0.608427
O O1 0.500000 0.671951 0.750000
O O2 0.787328 0.551602 0.306734
O O3 0.782647 0.725438 0.451885
O O4 0.789014 0.721566 0.169840
O O5 0.500000 0.437586 0.750000
O O6 0.779036 0.360581 0.195399
O O7 0.780798 0.373300 0.447941
O O8 0.768146 0.845848 0.694219
O O9 0.670362 0.028671 0.789741
O O10 0.500000 0.925256 0.250000
O O11 0.799724 0.003491 0.833634
O O12 0.507003 0.735837 0.448936
O O13 0.183854 0.169494 0.084695
O O14 0.000000 0.021864 0.250000
#
# Coordination Sequence:
#
# PCOD9227160 Si02
#       6
#     4   4   4   4   4   4
#     4   9  18  27  52  91 122 156 196 256 299 357
#     4   9  15  30  51  83 124 157 198 252 307 346
#     4  12  24  44  67  93 120 162 209 261 305 366
#     4  10  18  33  56  87 123 154 203 253 305 349
#     4  12  27  44  64  91 126 164 204 256 317 371
#     4  10  19  34  55  84 122 157 202 246 305 361
#
# _framework density 25.363323999999999
#
# number of rings (size 3 to 8) (size 9 to 14) (size 15 to 20)
#    0.000    1.667    3.333    2.500    2.333    4.667 
#    0.000    0.000    0.000    1.000    0.000    0.000 
#    0.000    0.000    0.000    0.000    0.000    0.000 
#
# Total GULP energy -134303.815658 kJ/mol
# GULP energy per Si atom -5595.992319 kJ/mol
# Density = 2.530560 g / cm^3
# Si number density = 25.363324 Si / 1000 Ang^3
#
#
#
# Elastic Constant Matrix: (Units=GPa)
#
#
# Indices 1 2 3 4 5 6 
#
# 1 156.2574 17.4004 44.9312 0.0000 33.7666 0.0000
# 2 17.4004 80.6502 7.1876 0.0000 9.3071 0.0000
# 3 44.9312 7.1876 45.3914 0.0000 1.5757 0.0000
# 4 0.0000 0.0000 0.0000 18.8037 0.0000 10.0508
# 5 33.7666 9.3071 1.5757 0.0000 41.2854 0.0000
# 6 0.0000 0.0000 0.0000 10.0508 0.0000 38.0372
#
#
#
# Elastic Compliance Matrix: (Units=1/GPa)
#
#
# Indices 1 2 3 4 5 6 
#
# 1 0.011562 -0.000479 -0.011059 0.000000 -0.008926 0.000000
# 2 -0.000479 0.012919 -0.001486 0.000000 -0.002464 0.000000
# 3 -0.011059 -0.001486 0.032931 0.000000 0.008123 0.000000
# 4 0.000000 0.000000 0.000000 0.061927 0.000000 -0.016363
# 5 -0.008926 -0.002464 0.008123 0.000000 0.031768 0.000000
# 6 0.000000 0.000000 0.000000 -0.016363 0.000000 0.030614
#
#
# Mechanical properties :
#
#
# Convention : Reuss Voigt Hill
#
# Bulk Modulus (GPa) = 31.88370 46.81527 39.34949
# Shear Modulus (GPa) = 22.91223 33.81060 28.36141
#
# Velocity S-wave (km/s) = 3.00886 3.65506 3.34759
# Velocity P-wave (km/s) = 4.96679 6.02582 5.52176
#
# Compressibility (1/GPa) = 0.03136398
#
# Stress axis : x y z
#
# Youngs Moduli (GPa) = 86.49072 77.40333 30.36660
#
# Poissons Ratio (x) = 0.03706 0.33583
# Poissons Ratio (y) = 0.04141 0.04513
# Poissons Ratio (z) = 0.95650 0.11504
#
# Static dielectric constant tensor:
#      x y z
#    x 2.042290 0.000000 -0.100090 
#    y 0.000000 1.906150 0.000000 
#    z -0.100090 0.000000 2.152290 
# 
# From -- ./inp_files/19464.got.cif
#   From: 2010.05.17/outbox.cif.g08.bks.cpg/sg13_10_cif.got.tgz:19464.got - 2010.06.03 16:44:36.
