data_PCOD9227558
_publ_section_title
;
Structure prediction by ZEFSAII (Michael W. Deem and Ramdas Pophale) SiO2 
 PCOD9227558
Probable space group: P 2/C
;
_chemical_formula_sum "Si O2"
_cell_formula_units_Z 24
_cell_length_a 13.183384
_cell_length_b 5.250121
_cell_length_c 20.792181
_cell_angle_alpha 90.000000
_cell_angle_beta 136.887531
_cell_angle_gamma 90.000000
_cell_volume 983.539917
_symmetry_space_group_name_H-M "P 2/C"
_symmetry_group_IT_number 13
_symmetry_cell_setting 'monoclinic'
loop_
_space_group_symop_operation_xyz
x,y,z
-x,y,1/2-z
-x,-y,-z
x,-y,1/2+z
loop_
_atom_site_type_symbol
_atom_site_label
_atom_site_fract_x
_atom_site_fract_y
_atom_site_fract_z
Si Si1 0.133514 0.687321 0.941250
Si Si2 0.751976 0.658408 0.223660
Si Si3 0.000000 0.542789 0.750000
Si Si4 0.169741 0.147347 0.156754
Si Si5 0.500000 0.316548 0.750000
Si Si6 0.294017 0.294350 0.084422
Si Si7 0.535390 0.910948 0.398345
O O1 0.067342 0.701372 0.839727
O O2 0.005831 0.795317 0.927779
O O3 0.162032 0.401892 0.980229
O O4 0.298579 0.803288 0.016560
O O5 0.865430 0.614830 0.218072
O O6 0.759477 0.391645 0.269336
O O7 0.592789 0.765166 0.122361
O O8 0.813053 0.891338 0.294413
O O9 0.235019 0.117280 0.114785
O O10 0.631481 0.489240 0.837270
O O11 0.529204 0.147393 0.702355
O O12 0.421367 0.204885 0.092924
#
# Coordination Sequence:
#
# PCOD9227558 Si02
#       7
#     4   4   2   4   2   4   4
#     4  10  26  44  70 102 144 188 246 295 359 423
#     4  11  25  46  76 102 143 196 242 292 363 423
#     4  10  26  54  70  94 142 200 252 302 344 426
#     4  11  24  45  72 107 146 192 230 293 370 440
#     4  10  18  36  60  98 148 172 212 284 358 432
#     4  11  22  39  68 107 145 182 230 293 362 439
#     4  11  23  39  69 109 139 186 232 297 362 430
#
# _framework density 24.401651999999999
#
# number of rings (size 3 to 8) (size 9 to 14) (size 15 to 20)
#    0.000    1.333    1.667    3.000    9.333    4.000 
#    0.000    0.833    0.000    0.000    0.000    0.000 
#    0.000    0.000    0.000    0.000    0.000    0.000 
#
# Total GULP energy -133772.803420 kJ/mol
# GULP energy per Si atom -5573.866809 kJ/mol
# Density = 2.434611 g / cm^3
# Si number density = 24.401652 Si / 1000 Ang^3
#
#
#
# Elastic Constant Matrix: (Units=GPa)
#
#
# Indices 1 2 3 4 5 6 
#
# 1 124.1069 -4.9536 15.6465 0.0000 31.2369 0.0000
# 2 -4.9536 60.6285 4.9702 0.0000 6.0076 0.0000
# 3 15.6465 4.9702 104.5369 0.0000 25.0814 0.0000
# 4 0.0000 0.0000 0.0000 442.1786 0.0000 290.9444
# 5 31.2369 6.0076 25.0814 0.0000 50.2710 0.0000
# 6 0.0000 0.0000 0.0000 290.9444 0.0000 214.5668
#
#
#
# Elastic Compliance Matrix: (Units=1/GPa)
#
#
# Indices 1 2 3 4 5 6 
#
# 1 0.009668 0.001403 -0.000037 0.000000 -0.006157 0.000000
# 2 0.001403 0.016907 -0.000363 0.000000 -0.002711 0.000000
# 3 -0.000037 -0.000363 0.010875 0.000000 -0.005359 0.000000
# 4 0.000000 0.000000 0.000000 0.020978 0.000000 -0.028445
# 5 -0.006157 -0.002711 -0.005359 0.000000 0.026716 0.000000
# 6 0.000000 0.000000 0.000000 -0.028445 0.000000 0.043231
#
#
# Mechanical properties :
#
#
# Convention : Reuss Voigt Hill
#
# Bulk Modulus (GPa) = 25.34510 35.62206 30.48358
# Shear Modulus (GPa) = 35.83714 159.64388 97.74051
#
# Velocity S-wave (km/s) = 3.83644 8.09725 6.33576
# Velocity P-wave (km/s) = 5.48028 10.10200 8.12662
#
# Compressibility (1/GPa) = 0.03945536
#
# Stress axis : x y z
#
# Youngs Moduli (GPa) = 103.43637 59.14730 91.95708
#
# Poissons Ratio (x) = -0.08298 0.00336
# Poissons Ratio (y) = -0.14512 0.03342
# Poissons Ratio (z) = 0.00378 0.02149
#
# Static dielectric constant tensor:
#      x y z
#    x 1.127820 0.000000 0.017970 
#    y 0.000000 2.097170 0.000000 
#    z 0.017970 0.000000 1.904450 
# 
# From -- ./inp_files/79259.got.cif
#   From: 2010.05.17/outbox.cif.g08.bks.cpg/sg13_40_cif.got.tgz:79259.got - 2010.06.03 16:44:36.
