data_PCOD9227825
_publ_section_title
;
Structure prediction by ZEFSAII (Michael W. Deem and Ramdas Pophale) SiO2 
 PCOD9227825
Probable space group: P 2/C
;
_chemical_formula_sum "Si O2"
_cell_formula_units_Z 24
_cell_length_a 12.053586
_cell_length_b 5.113976
_cell_length_c 19.921108
_cell_angle_alpha 90.000000
_cell_angle_beta 132.887770
_cell_angle_gamma 90.000000
_cell_volume 899.720538
_symmetry_space_group_name_H-M "P 2/C"
_symmetry_group_IT_number 13
_symmetry_cell_setting 'monoclinic'
loop_
_space_group_symop_operation_xyz
x,y,z
-x,y,1/2-z
-x,-y,-z
x,-y,1/2+z
loop_
_atom_site_type_symbol
_atom_site_label
_atom_site_fract_x
_atom_site_fract_y
_atom_site_fract_z
Si Si1 0.675221 0.699567 0.321879
Si Si2 0.848732 0.212458 0.379498
Si Si3 0.090579 0.820615 0.437731
Si Si4 0.771922 0.497504 0.112200
Si Si5 0.365596 0.196297 0.552175
Si Si6 0.638432 0.002765 0.613010
O O1 0.500000 0.628777 0.250000
O O2 0.783693 0.492146 0.330387
O O3 0.708724 0.671010 0.414570
O O4 0.712735 0.002422 0.326661
O O5 0.910677 0.240985 0.482403
O O6 0.966603 0.051344 0.382564
O O7 0.093376 0.586833 0.383633
O O8 0.247858 0.968904 0.485719
O O9 0.737726 0.742641 0.143583
O O10 0.749659 0.242244 0.150124
O O11 0.637572 0.426103 0.003770
O O12 0.529175 0.067253 0.630904
O O13 0.500000 0.000000 0.500000
#
# Coordination Sequence:
#
# PCOD9227825 Si02
#       6
#     4   4   4   4   4   4
#     4  11  23  39  55  74 107 150 196 231 266 322
#     4  10  23  35  53  78 108 145 186 227 278 339
#     4  10  20  32  54  79 114 143 174 222 294 339
#     4  11  18  30  47  80 113 138 168 218 279 348
#     4  10  20  32  52  78 112 144 175 226 273 336
#     4  10  19  27  46  75 116 135 172 209 279 343
#
# _framework density 26.674949999999999
#
# number of rings (size 3 to 8) (size 9 to 14) (size 15 to 20)
#    0.000    1.667    5.000    2.500    2.333    2.000 
#    0.000    0.000    0.000    0.000    0.000    1.167 
#   10.000    0.000    0.000    0.000    0.000    0.000 
#
# Total GULP energy -133796.062108 kJ/mol
# GULP energy per Si atom -5574.835921 kJ/mol
# Density = 2.661424 g / cm^3
# Si number density = 26.674950 Si / 1000 Ang^3
#
#
#
# Elastic Constant Matrix: (Units=GPa)
#
#
# Indices 1 2 3 4 5 6 
#
# 1 148.8828 60.1389 3.7753 0.0000 21.2134 0.0000
# 2 60.1389 195.0547 5.1296 0.0000 12.2170 0.0000
# 3 3.7753 5.1296 24.9785 0.0000 3.7798 0.0000
# 4 0.0000 0.0000 0.0000 -7.7649 0.0000 8.0057
# 5 21.2134 12.2170 3.7798 0.0000 18.3441 0.0000
# 6 0.0000 0.0000 0.0000 8.0057 0.0000 69.8382
#
#
#
# Elastic Compliance Matrix: (Units=1/GPa)
#
#
# Indices 1 2 3 4 5 6 
#
# 1 0.008853 -0.002185 0.000454 0.000000 -0.008875 0.000000
# 2 -0.002185 0.005898 -0.000690 0.000000 -0.001258 0.000000
# 3 0.000454 -0.000690 0.041408 0.000000 -0.008597 0.000000
# 4 0.000000 0.000000 0.000000 -0.115173 0.000000 0.013202
# 5 -0.008875 -0.001258 -0.008597 0.000000 0.067386 0.000000
# 6 0.000000 0.000000 0.000000 0.013202 0.000000 0.012805
#
#
# Mechanical properties :
#
#
# Convention : Reuss Voigt Hill
#
# Bulk Modulus (GPa) = 19.48770 56.33374 37.91072
# Shear Modulus (GPa) = 115.94029 36.07498 76.00763
#
# Velocity S-wave (km/s) = 6.59988 3.68148 5.34377
# Velocity P-wave (km/s) = 8.08699 6.26382 7.23308
#
# Compressibility (1/GPa) = 0.05131443
#
# Stress axis : x y z
#
# Youngs Moduli (GPa) = 112.96198 169.56231 24.14965
#
# Poissons Ratio (x) = 0.37057 -0.01096
# Poissons Ratio (y) = 0.24687 0.01667
# Poissons Ratio (z) = -0.05126 0.11707
#
# Static dielectric constant tensor:
#      x y z
#    x 2.282550 0.000000 -0.005310 
#    y 0.000000 2.116040 0.000000 
#    z -0.005310 0.000000 1.694670 
# 
# From -- ./inp_files/85874.got.cif
#   From: 2010.05.17/outbox.cif.g08.bks.cpg/sg13_43_cif.got.tgz:85874.got - 2010.06.03 16:44:36.
