data_PCOD9227925
_publ_section_title
;
Structure prediction by ZEFSAII (Michael W. Deem and Ramdas Pophale) SiO2 
 PCOD9227925
Probable space group: P 2/C
;
_chemical_formula_sum "Si O2"
_cell_formula_units_Z 14
_cell_length_a 8.926184
_cell_length_b 15.942715
_cell_length_c 5.233082
_cell_angle_alpha 90.000000
_cell_angle_beta 59.708951
_cell_angle_gamma 90.000000
_cell_volume 643.035728
_symmetry_space_group_name_H-M "P 2/C"
_symmetry_group_IT_number 13
_symmetry_cell_setting 'monoclinic'
loop_
_space_group_symop_operation_xyz
x,y,z
-x,y,1/2-z
-x,-y,-z
x,-y,1/2+z
loop_
_atom_site_type_symbol
_atom_site_label
_atom_site_fract_x
_atom_site_fract_y
_atom_site_fract_z
Si Si1 0.301710 0.032618 0.115863
Si Si2 0.811917 0.688557 0.487015
Si Si3 0.701436 0.222068 0.582725
Si Si4 0.500000 0.442571 0.250000
O O1 0.221310 0.025770 0.465669
O O2 0.296442 0.125299 0.005104
O O3 0.500000 0.000000 0.000000
O O4 0.767524 0.758724 0.309878
O O5 0.667137 0.617315 0.597619
O O6 0.000000 0.655294 0.250000
O O7 0.803255 0.727497 0.777014
O O8 0.500000 0.249477 0.750000
O O9 0.500000 0.500000 0.500000
#
# Coordination Sequence:
#
# PCOD9227925 Si02
#       4
#     4   4   4   2
#     4  10  19  30  56 100 124 171 237 280 334 385
#     4  12  27  46  70 103 139 177 221 277 337 402
#     4  12  21  40  70  99 131 183 238 275 329 404
#     4  12  26  46  76 106 134 170 218 268 334 414
#
# _framework density 21.771730999999999
#
# number of rings (size 3 to 8) (size 9 to 14) (size 15 to 20)
#    0.000    0.571    5.714    4.286    4.000    1.143 
#    0.000    0.000    0.000   17.143    0.000    0.000 
#    0.000    0.000    0.000    0.000    0.000    0.000 
#
# Total GULP energy -78277.412813 kJ/mol
# GULP energy per Si atom -5591.243772 kJ/mol
# Density = 2.172218 g / cm^3
# Si number density = 21.771731 Si / 1000 Ang^3
#
#
#
# Elastic Constant Matrix: (Units=GPa)
#
#
# Indices 1 2 3 4 5 6 
#
# 1 74.1809 34.1054 52.3770 0.0000 9.9030 0.0000
# 2 34.1054 122.4718 47.0636 0.0000 2.3589 0.0000
# 3 52.3770 47.0636 139.0181 0.0000 13.1269 0.0000
# 4 0.0000 0.0000 0.0000 24.8879 0.0000 19.9591
# 5 9.9030 2.3589 13.1269 0.0000 67.7589 0.0000
# 6 0.0000 0.0000 0.0000 19.9591 0.0000 -6.3552
#
#
#
# Elastic Compliance Matrix: (Units=1/GPa)
#
#
# Indices 1 2 3 4 5 6 
#
# 1 0.019413 -0.003014 -0.006148 0.000000 -0.001541 0.000000
# 2 -0.003014 0.009860 -0.002253 0.000000 0.000534 0.000000
# 3 -0.006148 -0.002253 0.010370 0.000000 -0.001032 0.000000
# 4 0.000000 0.000000 0.000000 0.011419 0.000000 0.035863
# 5 -0.001541 0.000534 -0.001032 0.000000 0.015165 0.000000
# 6 0.000000 0.000000 0.000000 0.035863 0.000000 -0.044720
#
#
# Mechanical properties :
#
#
# Convention : Reuss Voigt Hill
#
# Bulk Modulus (GPa) = 59.47803 66.97363 63.22583
# Shear Modulus (GPa) = 100.11707 30.73331 65.42519
#
# Velocity S-wave (km/s) = 6.78857 3.76122 5.48778
# Velocity P-wave (km/s) = 9.42468 7.04918 8.32212
#
# Compressibility (1/GPa) = 0.01681293
#
# Stress axis : x y z
#
# Youngs Moduli (GPa) = 51.51182 101.42128 96.43264
#
# Poissons Ratio (x) = 0.30565 0.59290
# Poissons Ratio (y) = 0.15524 0.21726
# Poissons Ratio (z) = 0.31671 0.22850
#
# Static dielectric constant tensor:
#      x y z
#    x 1.803680 0.000000 -0.032240 
#    y 0.000000 1.781720 0.000000 
#    z -0.032240 0.000000 1.977500 
# 
# From -- ./inp_files/1010.got.cif
#   From: 2010.05.17/outbox.cif.g08.bks.cpg/sg13_1_cif.got.tgz:1010.got - 2010.06.03 16:44:36.
