data_PCOD9227786
_publ_section_title
;
Structure prediction by ZEFSAII (Michael W. Deem and Ramdas Pophale) SiO2 
 PCOD9227786
Probable space group: P 2/C
;
_chemical_formula_sum "Si O2"
_cell_formula_units_Z 28
_cell_length_a 9.349107
_cell_length_b 14.870525
_cell_length_c 12.755651
_cell_angle_alpha 90.000000
_cell_angle_beta 126.003844
_cell_angle_gamma 90.000000
_cell_volume 1434.615550
_symmetry_space_group_name_H-M "P 2/C"
_symmetry_group_IT_number 13
_symmetry_cell_setting 'monoclinic'
loop_
_space_group_symop_operation_xyz
x,y,z
-x,y,1/2-z
-x,-y,-z
x,-y,1/2+z
loop_
_atom_site_type_symbol
_atom_site_label
_atom_site_fract_x
_atom_site_fract_y
_atom_site_fract_z
Si Si1 0.304239 0.926853 0.827305
Si Si2 0.603072 0.412229 0.083243
Si Si3 0.687483 0.121230 0.590372
Si Si4 0.129410 0.195731 0.424694
Si Si5 0.000000 0.366162 0.250000
Si Si6 0.795262 0.161513 0.413942
Si Si7 0.509300 0.736947 0.369694
Si Si8 0.500000 0.686705 0.750000
O O1 0.177918 0.858062 0.838028
O O2 0.299040 0.911832 0.701011
O O3 0.255154 0.028442 0.832845
O O4 0.497988 0.901244 0.953511
O O5 0.532300 0.374153 0.162579
O O6 0.817348 0.420452 0.186948
O O7 0.500000 0.500000 0.000000
O O8 0.556695 0.335878 0.977892
O O9 0.805514 0.146590 0.541783
O O10 0.650348 0.201946 0.655357
O O11 0.054256 0.294981 0.364046
O O12 0.318838 0.199660 0.561618
O O13 0.987379 0.159970 0.444523
O O14 0.672225 0.249594 0.340831
O O15 0.500000 0.696093 0.250000
#
# Coordination Sequence:
#
# PCOD9227786 Si02
#       8
#     4   4   4   4   2   4   4   2
#     4  10  19  32  52  87 121 159 210 264 291 365
#     4  11  24  41  70 102 122 161 217 266 325 391
#     4  10  21  33  55  85 120 164 212 249 320 356
#     4  10  19  35  63  90 116 168 217 253 311 375
#     4  10  18  40  66  94 126 162 212 260 318 392
#     4  12  18  36  61  88 117 163 217 263 303 369
#     4  10  22  43  61  85 129 170 200 255 332 393
#     4  12  20  40  68  94 126 164 208 266 306 390
#
# _framework density 19.517423999999998
#
# number of rings (size 3 to 8) (size 9 to 14) (size 15 to 20)
#    0.000    1.429    5.714    0.857    1.000    4.000 
#    0.000    4.286    0.000    0.000    0.000    0.000 
#    0.000    0.000    0.000    0.000    0.000    0.000 
#
# Total GULP energy -156054.258895 kJ/mol
# GULP energy per Si atom -5573.366389 kJ/mol
# Density = 1.947300 g / cm^3
# Si number density = 19.517424 Si / 1000 Ang^3
#
#
#
# Elastic Constant Matrix: (Units=GPa)
#
#
# Indices 1 2 3 4 5 6 
#
# 1 126.9071 37.4747 35.5613 0.0000 -21.3942 0.0000
# 2 37.4747 78.3841 22.4660 0.0000 -10.6858 0.0000
# 3 35.5613 22.4660 62.2950 0.0000 -32.4160 0.0000
# 4 0.0000 0.0000 0.0000 3.7045 0.0000 -2.4044
# 5 -21.3942 -10.6858 -32.4160 0.0000 37.5208 0.0000
# 6 0.0000 0.0000 0.0000 -2.4044 0.0000 17.3791
#
#
#
# Elastic Compliance Matrix: (Units=1/GPa)
#
#
# Indices 1 2 3 4 5 6 
#
# 1 0.010261 -0.003622 -0.003713 0.000000 0.001612 0.000000
# 2 -0.003622 0.015517 -0.004185 0.000000 -0.001262 0.000000
# 3 -0.003713 -0.004185 0.032628 0.000000 0.024880 0.000000
# 4 0.000000 0.000000 0.000000 0.296574 0.000000 0.041031
# 5 0.001612 -0.001262 0.024880 0.000000 0.048707 0.000000
# 6 0.000000 0.000000 0.000000 0.041031 0.000000 0.063217
#
#
# Mechanical properties :
#
#
# Convention : Reuss Voigt Hill
#
# Bulk Modulus (GPa) = 28.27500 50.95446 39.61473
# Shear Modulus (GPa) = 9.96547 23.19316 16.57932
#
# Velocity S-wave (km/s) = 2.26208 3.45096 2.91772
# Velocity P-wave (km/s) = 4.61965 6.48403 5.62956
#
# Compressibility (1/GPa) = 0.03536694
#
# Stress axis : x y z
#
# Youngs Moduli (GPa) = 97.45223 64.44635 30.64855
#
# Poissons Ratio (x) = 0.23343 0.11379
# Poissons Ratio (y) = 0.35297 0.12826
# Poissons Ratio (z) = 0.36182 0.26969
#
# Static dielectric constant tensor:
#      x y z
#    x 1.724960 0.000000 0.033480 
#    y 0.000000 1.688400 0.000000 
#    z 0.033480 0.000000 1.741210 
# 
# From -- ./inp_files/30525.got.cif
#   From: 2010.05.17/outbox.cif.g08.bks.cpg/sg13_16_cif.got.tgz:30525.got - 2010.06.03 16:44:36.
