data_PCOD9227780
_publ_section_title
;
Structure prediction by ZEFSAII (Michael W. Deem and Ramdas Pophale) SiO2 
 PCOD9227780
Probable space group: P 2/C
;
_chemical_formula_sum "Si O2"
_cell_formula_units_Z 18
_cell_length_a 17.009383
_cell_length_b 7.651409
_cell_length_c 8.382889
_cell_angle_alpha 90.000000
_cell_angle_beta 42.163507
_cell_angle_gamma 90.000000
_cell_volume 732.330459
_symmetry_space_group_name_H-M "P 2/C"
_symmetry_group_IT_number 13
_symmetry_cell_setting 'monoclinic'
loop_
_space_group_symop_operation_xyz
x,y,z
-x,y,1/2-z
-x,-y,-z
x,-y,1/2+z
loop_
_atom_site_type_symbol
_atom_site_label
_atom_site_fract_x
_atom_site_fract_y
_atom_site_fract_z
Si Si1 0.138809 0.180633 0.340536
Si Si2 0.719485 0.370613 0.132976
Si Si3 0.000000 0.110949 0.250000
Si Si4 0.618893 0.326924 0.973818
Si Si5 0.383971 0.922756 0.516950
O O1 0.167830 0.331967 0.426062
O O2 0.084441 0.021331 0.524752
O O3 0.065320 0.216419 0.292025
O O4 0.266818 0.114951 0.092393
O O5 0.727560 0.356739 0.932962
O O6 0.651085 0.544763 0.283418
O O7 0.636405 0.206253 0.305107
O O8 0.500000 0.375503 0.250000
O O9 0.611599 0.124244 0.943684
O O10 0.500000 0.874693 0.250000
#
# Coordination Sequence:
#
# PCOD9227780 Si02
#       5
#     4   4   2   4   4
#     4   9  21  37  66  89 122 164 205 268 300 375
#     4  10  23  38  59  94 123 169 205 251 312 369
#     4  10  18  40  64  92 116 162 222 250 320 352
#     4  11  22  37  60  90 134 170 197 254 307 384
#     4   9  21  38  61  95 127 160 204 249 316 378
#
# _framework density 24.579066999999998
#
# number of rings (size 3 to 8) (size 9 to 14) (size 15 to 20)
#    1.333    0.889    0.000    2.667    0.000    7.111 
#    0.000    0.000    0.000   22.667    0.000    0.000 
#    0.000    0.000    0.000    0.000    0.000    0.000 
#
# Total GULP energy -100584.997140 kJ/mol
# GULP energy per Si atom -5588.055397 kJ/mol
# Density = 2.452312 g / cm^3
# Si number density = 24.579067 Si / 1000 Ang^3
#
#
#
# Elastic Constant Matrix: (Units=GPa)
#
#
# Indices 1 2 3 4 5 6 
#
# 1 151.1587 1.4197 18.7196 0.0000 8.9268 0.0000
# 2 1.4197 75.1330 -1.8559 0.0000 8.9646 0.0000
# 3 18.7196 -1.8559 57.0889 0.0000 -2.6750 0.0000
# 4 0.0000 0.0000 0.0000 15.5384 0.0000 0.4703
# 5 8.9268 8.9646 -2.6750 0.0000 35.7071 0.0000
# 6 0.0000 0.0000 0.0000 0.4703 0.0000 19.9637
#
#
#
# Elastic Compliance Matrix: (Units=1/GPa)
#
#
# Indices 1 2 3 4 5 6 
#
# 1 0.007027 0.000040 -0.002394 0.000000 -0.001946 0.000000
# 2 0.000040 0.013726 0.000272 0.000000 -0.003436 0.000000
# 3 -0.002394 0.000272 0.018400 0.000000 0.001909 0.000000
# 4 0.000000 0.000000 0.000000 0.064402 0.000000 -0.001517
# 5 -0.001946 -0.003436 0.001909 0.000000 0.029498 0.000000
# 6 0.000000 0.000000 0.000000 -0.001517 0.000000 0.050127
#
#
# Mechanical properties :
#
#
# Convention : Reuss Voigt Hill
#
# Bulk Modulus (GPa) = 28.58059 35.54971 32.06515
# Shear Modulus (GPa) = 25.12502 31.91500 28.52001
#
# Velocity S-wave (km/s) = 3.20067 3.60733 3.41007
# Velocity P-wave (km/s) = 5.03114 5.64316 5.34591
#
# Compressibility (1/GPa) = 0.03498878
#
# Stress axis : x y z
#
# Youngs Moduli (GPa) = 142.31684 72.85651 54.34845
#
# Poissons Ratio (x) = -0.00294 0.13011
# Poissons Ratio (y) = -0.00573 -0.01478
# Poissons Ratio (z) = 0.34069 -0.01982
#
# Static dielectric constant tensor:
#      x y z
#    x 2.113100 0.000000 0.025400 
#    y 0.000000 1.889900 0.000000 
#    z 0.025400 0.000000 1.974360 
# 
# From -- ./inp_files/14554.got.cif
#   From: 2010.05.17/outbox.cif.g08.bks.cpg/sg13_8_cif.got.tgz:14554.got - 2010.06.03 16:44:36.
