data_PCOD9227627
_publ_section_title
;
Structure prediction by ZEFSAII (Michael W. Deem and Ramdas Pophale) SiO2 
 PCOD9227627
Probable space group: P 2/C
;
_chemical_formula_sum "Si O2"
_cell_formula_units_Z 22
_cell_length_a 10.437893
_cell_length_b 5.505329
_cell_length_c 27.147243
_cell_angle_alpha 90.000000
_cell_angle_beta 41.020363
_cell_angle_gamma 90.000000
_cell_volume 1023.863969
_symmetry_space_group_name_H-M "P 2/C"
_symmetry_group_IT_number 13
_symmetry_cell_setting 'monoclinic'
loop_
_space_group_symop_operation_xyz
x,y,z
-x,y,1/2-z
-x,-y,-z
x,-y,1/2+z
loop_
_atom_site_type_symbol
_atom_site_label
_atom_site_fract_x
_atom_site_fract_y
_atom_site_fract_z
Si Si1 0.897426 0.550891 0.581791
Si Si2 0.669688 0.537937 0.387041
Si Si3 0.940082 0.067806 0.858765
Si Si4 0.718570 0.934713 0.168382
Si Si5 0.000000 0.716606 0.750000
Si Si6 0.274718 0.297840 0.027509
O O1 0.796164 0.817469 0.618571
O O2 0.000000 0.500000 0.500000
O O3 0.080839 0.556401 0.567462
O O4 0.753126 0.321417 0.630427
O O5 0.794814 0.426798 0.306687
O O6 0.648079 0.353391 0.439468
O O7 0.457515 0.649874 0.439488
O O8 0.820266 0.730240 0.365612
O O9 0.803143 0.974194 0.943482
O O10 0.146773 0.111995 0.822927
O O11 0.979847 0.867896 0.805435
O O12 0.500000 0.971859 0.250000
#
# Coordination Sequence:
#
# PCOD9227627 Si02
#       6
#     4   4   4   4   2   4
#     4  11  23  44  65  96 129 162 222 273 307 375
#     4  10  18  37  58  81 122 151 201 244 309 369
#     4  10  20  38  58  84 125 156 204 251 308 374
#     4  11  24  44  68  91 128 176 212 260 328 379
#     4  10  22  34  54  92 120 156 196 256 304 372
#     4   9  20  35  61  85 109 165 197 246 311 367
#
# _framework density 21.487228999999999
#
# number of rings (size 3 to 8) (size 9 to 14) (size 15 to 20)
#    0.000    1.818    1.818    2.182    0.000    1.455 
#    6.545    0.000    0.000    0.000    0.000    0.000 
#    0.000    0.000    0.000    0.000    0.000    0.000 
#
# Total GULP energy -122509.034712 kJ/mol
# GULP energy per Si atom -5568.592487 kJ/mol
# Density = 2.143832 g / cm^3
# Si number density = 21.487229 Si / 1000 Ang^3
#
#
#
# Elastic Constant Matrix: (Units=GPa)
#
#
# Indices 1 2 3 4 5 6 
#
# 1 25.7124 5.4111 5.2997 0.0000 -13.7963 0.0000
# 2 5.4111 92.8734 28.9611 0.0000 -1.7327 0.0000
# 3 5.2997 28.9611 100.6094 0.0000 -13.0476 0.0000
# 4 0.0000 0.0000 0.0000 24.5988 0.0000 -1.9678
# 5 -13.7963 -1.7327 -13.0476 0.0000 30.0262 0.0000
# 6 0.0000 0.0000 0.0000 -1.9678 0.0000 13.5473
#
#
#
# Elastic Compliance Matrix: (Units=1/GPa)
#
#
# Indices 1 2 3 4 5 6 
#
# 1 0.052376 -0.002992 0.001273 0.000000 0.024446 0.000000
# 2 -0.002992 0.012020 -0.003593 0.000000 -0.002243 0.000000
# 3 0.001273 -0.003593 0.011610 0.000000 0.005422 0.000000
# 4 0.000000 0.000000 0.000000 0.041130 0.000000 0.005974
# 5 0.024446 -0.002243 0.005422 0.000000 0.046763 0.000000
# 6 0.000000 0.000000 0.000000 0.005974 0.000000 0.074683
#
#
# Mechanical properties :
#
#
# Convention : Reuss Voigt Hill
#
# Bulk Modulus (GPa) = 15.29518 33.17099 24.23308
# Shear Modulus (GPa) = 18.45000 25.60269 22.02634
#
# Velocity S-wave (km/s) = 2.93345 3.45560 3.20518
# Velocity P-wave (km/s) = 4.31361 5.60291 4.99999
#
# Compressibility (1/GPa) = 0.06538007
#
# Stress axis : x y z
#
# Youngs Moduli (GPa) = 19.09279 83.19205 86.13283
#
# Poissons Ratio (x) = 0.24894 -0.10962
# Poissons Ratio (y) = 0.05713 0.30951
# Poissons Ratio (z) = -0.02430 0.29894
#
# Static dielectric constant tensor:
#      x y z
#    x 1.807570 0.000000 -0.008840 
#    y 0.000000 1.897760 0.000000 
#    z -0.008840 0.000000 1.835390 
# 
# From -- ./inp_files/48867.got.cif
#   From: 2010.05.17/outbox.cif.g08.bks.cpg/sg13_25_cif.got.tgz:48867.got - 2010.06.03 16:44:36.
