data_PCOD9227114
_publ_section_title
;
Structure prediction by ZEFSAII (Michael W. Deem and Ramdas Pophale) SiO2 
 PCOD9227114
Probable space group: P 2/C
;
_chemical_formula_sum "Si O2"
_cell_formula_units_Z 24
_cell_length_a 6.623990
_cell_length_b 13.560376
_cell_length_c 14.439738
_cell_angle_alpha 90.000000
_cell_angle_beta 116.120593
_cell_angle_gamma 90.000000
_cell_volume 1164.565399
_symmetry_space_group_name_H-M "P 2/C"
_symmetry_group_IT_number 13
_symmetry_cell_setting 'monoclinic'
loop_
_space_group_symop_operation_xyz
x,y,z
-x,y,1/2-z
-x,-y,-z
x,-y,1/2+z
loop_
_atom_site_type_symbol
_atom_site_label
_atom_site_fract_x
_atom_site_fract_y
_atom_site_fract_z
Si Si1 0.107944 0.038613 0.368478
Si Si2 0.035976 0.356345 0.963730
Si Si3 0.496300 0.901355 0.640029
Si Si4 0.535718 0.677372 0.649829
Si Si5 0.005866 0.133979 0.534515
Si Si6 0.759179 0.534143 0.568201
O O1 0.359201 0.018207 0.384421
O O2 0.000000 0.076131 0.250000
O O3 0.127674 0.109868 0.461869
O O4 0.966068 0.945753 0.378299
O O5 0.287134 0.341632 0.056966
O O6 0.958560 0.245572 0.926106
O O7 0.865478 0.405006 0.003469
O O8 0.083177 0.437494 0.893796
O O9 0.500000 0.921313 0.750000
O O10 0.598938 0.791530 0.648432
O O11 0.250053 0.887682 0.549254
O O12 0.500000 0.659163 0.750000
O O13 0.726806 0.607802 0.646606
O O14 0.500000 0.500000 0.500000
#
# Coordination Sequence:
#
# PCOD9227114 Si02
#       6
#     4   4   4   4   4   4
#     4  11  21  34  54  77 108 140 183 228 265 323
#     4   9  18  33  53  74 101 138 173 210 263 319
#     4  10  18  33  53  79 109 139 177 228 271 320
#     4   9  18  29  49  80 106 129 169 216 266 317
#     4  10  21  35  54  78 106 145 179 218 276 318
#     4   9  17  32  53  73 101 133 168 215 254 316
#
# _framework density 20.608543999999998
#
# number of rings (size 3 to 8) (size 9 to 14) (size 15 to 20)
#    0.000    2.333    1.667    1.500    0.000    0.667 
#    0.000    0.000   11.000    0.000    0.000    0.000 
#    0.000    0.000    0.000    0.000    0.000    0.000 
#
# Total GULP energy -133615.885011 kJ/mol
# GULP energy per Si atom -5567.328542 kJ/mol
# Density = 2.056164 g / cm^3
# Si number density = 20.608544 Si / 1000 Ang^3
#
#
#
# Elastic Constant Matrix: (Units=GPa)
#
#
# Indices 1 2 3 4 5 6 
#
# 1 84.3738 38.5338 17.2104 0.0000 -25.3839 0.0000
# 2 38.5338 109.8003 15.8996 0.0000 -25.9635 0.0000
# 3 17.2104 15.8996 49.7655 0.0000 -15.2468 0.0000
# 4 0.0000 0.0000 0.0000 18.1781 0.0000 -8.1954
# 5 -25.3839 -25.9635 -15.2468 0.0000 32.7799 0.0000
# 6 0.0000 0.0000 0.0000 -8.1954 0.0000 28.3646
#
#
#
# Elastic Compliance Matrix: (Units=1/GPa)
#
#
# Indices 1 2 3 4 5 6 
#
# 1 0.016553 -0.003342 -0.001797 0.000000 0.009336 0.000000
# 2 -0.003342 0.011924 -0.000645 0.000000 0.006557 0.000000
# 3 -0.001797 -0.000645 0.023719 0.000000 0.009130 0.000000
# 4 0.000000 0.000000 0.000000 0.063250 0.000000 0.018275
# 5 0.009336 0.006557 0.009130 0.000000 0.047176 0.000000
# 6 0.000000 0.000000 0.000000 0.018275 0.000000 0.040535
#
#
# Mechanical properties :
#
#
# Convention : Reuss Voigt Hill
#
# Bulk Modulus (GPa) = 24.61274 43.02523 33.81899
# Shear Modulus (GPa) = 21.90408 27.35092 24.62750
#
# Velocity S-wave (km/s) = 3.26370 3.64698 3.46065
# Velocity P-wave (km/s) = 5.11578 6.21745 5.69332
#
# Compressibility (1/GPa) = 0.04062936
#
# Stress axis : x y z
#
# Youngs Moduli (GPa) = 60.41064 83.86466 42.16049
#
# Poissons Ratio (x) = 0.28023 0.07575
# Poissons Ratio (y) = 0.20186 0.02720
# Poissons Ratio (z) = 0.10854 0.05411
#
# Static dielectric constant tensor:
#      x y z
#    x 1.777750 0.000000 0.011260 
#    y 0.000000 1.816350 0.000000 
#    z 0.011260 0.000000 1.750800 
# 
# From -- ./inp_files/44085.got.cif
#   From: 2010.05.17/outbox.cif.g08.bks.cpg/sg13_23_cif.got.tgz:44085.got - 2010.06.03 16:44:36.
