data_PCOD9227808
_publ_section_title
;
Structure prediction by ZEFSAII (Michael W. Deem and Ramdas Pophale) SiO2 
 PCOD9227808
Probable space group: P 2/C
;
_chemical_formula_sum "Si O2"
_cell_formula_units_Z 24
_cell_length_a 9.873750
_cell_length_b 14.963979
_cell_length_c 18.719579
_cell_angle_alpha 90.000000
_cell_angle_beta 156.275136
_cell_angle_gamma 90.000000
_cell_volume 1112.817660
_symmetry_space_group_name_H-M "P 2/C"
_symmetry_group_IT_number 13
_symmetry_cell_setting 'monoclinic'
loop_
_space_group_symop_operation_xyz
x,y,z
-x,y,1/2-z
-x,-y,-z
x,-y,1/2+z
loop_
_atom_site_type_symbol
_atom_site_label
_atom_site_fract_x
_atom_site_fract_y
_atom_site_fract_z
Si Si1 0.705332 0.803249 0.776189
Si Si2 0.072042 0.017504 0.451768
Si Si3 0.360052 0.408000 0.462323
Si Si4 0.588299 0.779492 0.564438
Si Si5 0.702631 0.131791 0.708463
Si Si6 0.601324 0.308718 0.878011
O O1 0.500000 0.802013 0.750000
O O2 0.814736 0.903374 0.809006
O O3 0.522020 0.773754 0.616032
O O4 0.039114 0.742549 0.946471
O O5 0.422463 0.067230 0.608552
O O6 0.026097 0.927360 0.384107
O O7 0.000000 0.000000 0.500000
O O8 0.500000 0.500000 0.500000
O O9 0.535977 0.316818 0.522660
O O10 0.366232 0.390821 0.550539
O O11 0.000000 0.401073 0.250000
O O12 0.402581 0.851262 0.424526
O O13 0.000000 0.789586 0.750000
O O14 0.657803 0.229122 0.723380
O O15 0.500000 0.337390 0.750000
#
# Coordination Sequence:
#
# PCOD9227808 Si02
#       6
#     4   4   4   4   4   4
#     4  11  21  37  61  87 124 165 208 252 304 350
#     4  11  20  33  53  89 122 164 208 258 298 345
#     4  10  20  42  70  90 117 160 198 244 311 385
#     4  10  18  42  63  83 118 171 198 239 316 374
#     4  10  20  34  60  82 123 168 213 247 299 357
#     4  10  20  39  64  91 124 165 202 247 310 369
#
# _framework density 21.566875
#
# number of rings (size 3 to 8) (size 9 to 14) (size 15 to 20)
#    0.000    1.667    6.667    3.500    0.000    0.667 
#    3.000    1.667    0.000    2.000    0.000    0.000 
#    0.000    0.000    0.000    0.000    0.000    0.000 
#
# Total GULP energy -133899.156560 kJ/mol
# GULP energy per Si atom -5579.131523 kJ/mol
# Density = 2.151779 g / cm^3
# Si number density = 21.566875 Si / 1000 Ang^3
#
#
#
# Elastic Constant Matrix: (Units=GPa)
#
#
# Indices 1 2 3 4 5 6 
#
# 1 107.0873 35.5883 40.0826 0.0000 -33.3506 0.0000
# 2 35.5883 106.6482 40.9509 0.0000 -11.0038 0.0000
# 3 40.0826 40.9509 76.7334 0.0000 -30.7647 0.0000
# 4 0.0000 0.0000 0.0000 -10.9313 0.0000 -5.5697
# 5 -33.3506 -11.0038 -30.7647 0.0000 46.4259 0.0000
# 6 0.0000 0.0000 0.0000 -5.5697 0.0000 32.8006
#
#
#
# Elastic Compliance Matrix: (Units=1/GPa)
#
#
# Indices 1 2 3 4 5 6 
#
# 1 0.013519 -0.002729 -0.002684 0.000000 0.007286 0.000000
# 2 -0.002729 0.012465 -0.006575 0.000000 -0.003363 0.000000
# 3 -0.002684 -0.006575 0.022532 0.000000 0.011444 0.000000
# 4 0.000000 0.000000 0.000000 -0.084196 0.000000 -0.014297
# 5 0.007286 -0.003363 0.011444 0.000000 0.033560 0.000000
# 6 0.000000 0.000000 0.000000 -0.014297 0.000000 0.028059
#
#
# Mechanical properties :
#
#
# Convention : Reuss Voigt Hill
#
# Bulk Modulus (GPa) = 40.75163 58.19027 49.47095
# Shear Modulus (GPa) = 86.06532 25.24885 55.65709
#
# Velocity S-wave (km/s) = 6.32399 3.42530 5.08555
# Velocity P-wave (km/s) = 8.50061 6.53326 7.58102
#
# Compressibility (1/GPa) = 0.02453889
#
# Stress axis : x y z
#
# Youngs Moduli (GPa) = 73.97095 80.22486 44.38207
#
# Poissons Ratio (x) = 0.21891 0.11914
# Poissons Ratio (y) = 0.20185 0.29182
# Poissons Ratio (z) = 0.19856 0.52749
#
# Static dielectric constant tensor:
#      x y z
#    x 1.878690 0.000000 0.045730 
#    y 0.000000 1.827170 0.000000 
#    z 0.045730 0.000000 2.069350 
# 
# From -- ./inp_files/78745.got.cif
#   From: 2010.05.17/outbox.cif.g08.bks.cpg/sg13_40_cif.got.tgz:78745.got - 2010.06.03 16:44:36.
