data_PCOD9227691
_publ_section_title
;
Structure prediction by ZEFSAII (Michael W. Deem and Ramdas Pophale) SiO2 
 PCOD9227691
Probable space group: P 2/C
;
_chemical_formula_sum "Si O2"
_cell_formula_units_Z 18
_cell_length_a 19.542128
_cell_length_b 9.141065
_cell_length_c 13.540661
_cell_angle_alpha 90.000000
_cell_angle_beta 157.272910
_cell_angle_gamma 90.000000
_cell_volume 934.502886
_symmetry_space_group_name_H-M "P 2/C"
_symmetry_group_IT_number 13
_symmetry_cell_setting 'monoclinic'
loop_
_space_group_symop_operation_xyz
x,y,z
-x,y,1/2-z
-x,-y,-z
x,-y,1/2+z
loop_
_atom_site_type_symbol
_atom_site_label
_atom_site_fract_x
_atom_site_fract_y
_atom_site_fract_z
Si Si1 0.922329 0.339469 0.749272
Si Si2 0.424955 0.824402 0.793549
Si Si3 0.500000 0.913415 0.250000
Si Si4 0.349953 0.447733 0.970739
Si Si5 0.714918 0.750481 0.689770
O O1 0.753979 0.245965 0.489599
O O2 0.834250 0.441316 0.714704
O O3 0.000000 0.405492 0.750000
O O4 0.077936 0.246205 0.007369
O O5 0.390590 0.831124 0.863780
O O6 0.446500 0.975704 0.765808
O O7 0.584806 0.709444 0.983848
O O8 0.654288 0.814790 0.503989
O O9 0.336317 0.578322 0.874862
O O10 0.500000 0.487894 0.250000
#
# Coordination Sequence:
#
# PCOD9227691 Si02
#       5
#     4   4   2   4   4
#     4   9  19  36  61  85 114 146 188 234 290 329
#     4  10  21  40  59  81 116 158 184 229 292 338
#     4  12  22  38  58  82 124 150 192 226 282 346
#     4  10  18  38  61  85 114 146 191 240 285 330
#     4  11  22  35  62  87 111 147 198 237 275 337
#
# _framework density 19.261578
#
# number of rings (size 3 to 8) (size 9 to 14) (size 15 to 20)
#    0.000    1.778    4.444    2.000    0.000    0.889 
#    0.000    0.000    0.000    0.000    0.000    0.000 
#    0.000    0.000    0.000    0.000    0.000    0.000 
#
# Total GULP energy -100254.137682 kJ/mol
# GULP energy per Si atom -5569.674316 kJ/mol
# Density = 1.921774 g / cm^3
# Si number density = 19.261578 Si / 1000 Ang^3
#
#
#
# Elastic Constant Matrix: (Units=GPa)
#
#
# Indices 1 2 3 4 5 6 
#
# 1 100.3578 31.8084 48.9194 0.0000 4.4669 0.0000
# 2 31.8084 57.3969 31.3366 0.0000 -5.4685 0.0000
# 3 48.9194 31.3366 73.0151 0.0000 0.3752 0.0000
# 4 0.0000 0.0000 0.0000 14.8283 0.0000 -12.6866
# 5 4.4669 -5.4685 0.3752 0.0000 32.2695 0.0000
# 6 0.0000 0.0000 0.0000 -12.6866 0.0000 18.9333
#
#
#
# Elastic Compliance Matrix: (Units=1/GPa)
#
#
# Indices 1 2 3 4 5 6 
#
# 1 0.015643 -0.004205 -0.008662 0.000000 -0.002777 0.000000
# 2 -0.004205 0.024405 -0.007682 0.000000 0.004807 0.000000
# 3 -0.008662 -0.007682 0.022798 0.000000 -0.000368 0.000000
# 4 0.000000 0.000000 0.000000 0.158044 0.000000 0.105901
# 5 -0.002777 0.004807 -0.000368 0.000000 0.032192 0.000000
# 6 0.000000 0.000000 0.000000 0.105901 0.000000 0.123778
#
#
# Mechanical properties :
#
#
# Convention : Reuss Voigt Hill
#
# Bulk Modulus (GPa) = 45.97863 50.54429 48.26146
# Shear Modulus (GPa) = 11.75905 21.11991 16.43948
#
# Velocity S-wave (km/s) = 2.47350 3.31490 2.92462
# Velocity P-wave (km/s) = 5.66392 6.39917 6.04274
#
# Compressibility (1/GPa) = 0.02174924
#
# Stress axis : x y z
#
# Youngs Moduli (GPa) = 63.92739 40.97604 43.86405
#
# Poissons Ratio (x) = 0.17229 0.37994
# Poissons Ratio (y) = 0.26879 0.33695
# Poissons Ratio (z) = 0.55372 0.31476
#
# Static dielectric constant tensor:
#      x y z
#    x 1.730930 0.000000 -0.002890 
#    y 0.000000 1.680730 0.000000 
#    z -0.002890 0.000000 1.656790 
# 
# From -- ./inp_files/45430.got.cif
#   From: 2010.05.17/outbox.cif.g08.bks.cpg/sg13_23_cif.got.tgz:45430.got - 2010.06.03 16:44:36.
