data_PCOD9227275
_publ_section_title
;
Structure prediction by ZEFSAII (Michael W. Deem and Ramdas Pophale) SiO2 
 PCOD9227275
Probable space group: P 2/C
;
_chemical_formula_sum "Si O2"
_cell_formula_units_Z 20
_cell_length_a 11.151885
_cell_length_b 12.225160
_cell_length_c 9.900245
_cell_angle_alpha 90.000000
_cell_angle_beta 40.617517
_cell_angle_gamma 90.000000
_cell_volume 878.686552
_symmetry_space_group_name_H-M "P 2/C"
_symmetry_group_IT_number 13
_symmetry_cell_setting 'monoclinic'
loop_
_space_group_symop_operation_xyz
x,y,z
-x,y,1/2-z
-x,-y,-z
x,-y,1/2+z
loop_
_atom_site_type_symbol
_atom_site_label
_atom_site_fract_x
_atom_site_fract_y
_atom_site_fract_z
Si Si1 0.276464 0.155364 0.103133
Si Si2 0.548375 0.671339 0.860481
Si Si3 0.120500 0.938807 0.281422
Si Si4 0.664235 0.551902 0.224446
Si Si5 0.867349 0.239419 0.532872
O O1 0.404085 0.225670 0.089458
O O2 0.072780 0.202622 0.317935
O O3 0.282127 0.025710 0.118224
O O4 0.279045 0.183067 0.943210
O O5 0.500000 0.704276 0.750000
O O6 0.704246 0.576492 0.707107
O O7 0.403988 0.601830 0.073904
O O8 0.166005 0.818401 0.294782
O O9 0.000000 0.933753 0.250000
O O10 0.000000 0.000000 0.500000
O O11 0.500000 0.560906 0.250000
O O12 0.830469 0.632558 0.047035
#
# Coordination Sequence:
#
# PCOD9227275 Si02
#       5
#     4   4   4   4   4
#     4  10  19  37  60  85 115 149 189 235 281 331
#     4  10  22  38  58  83 115 152 189 232 284 339
#     4  10  18  34  57  85 115 148 182 228 289 336
#     4  10  20  38  60  81 113 156 188 225 289 344
#     4  10  20  35  62  86 111 152 189 233 280 336
#
# _framework density 22.761246
#
# number of rings (size 3 to 8) (size 9 to 14) (size 15 to 20)
#    0.000    2.000    6.000    0.000    0.000    4.000 
#    0.000    2.000    4.400    0.000    0.000    0.000 
#    0.000    0.000    0.000    0.000    0.000    0.000 
#
# Total GULP energy -111506.181525 kJ/mol
# GULP energy per Si atom -5575.309076 kJ/mol
# Density = 2.270944 g / cm^3
# Si number density = 22.761246 Si / 1000 Ang^3
#
#
#
# Elastic Constant Matrix: (Units=GPa)
#
#
# Indices 1 2 3 4 5 6 
#
# 1 90.0990 25.7126 34.9885 0.0000 34.2609 0.0000
# 2 25.7126 87.6605 -12.3026 0.0000 10.9074 0.0000
# 3 34.9885 -12.3026 45.3701 0.0000 32.7208 0.0000
# 4 0.0000 0.0000 0.0000 22.1851 0.0000 6.7498
# 5 34.2609 10.9074 32.7208 0.0000 46.3200 0.0000
# 6 0.0000 0.0000 0.0000 6.7498 0.0000 33.2020
#
#
#
# Elastic Compliance Matrix: (Units=1/GPa)
#
#
# Indices 1 2 3 4 5 6 
#
# 1 0.020665 -0.008420 -0.017585 0.000000 -0.000880 0.000000
# 2 -0.008420 0.018333 0.020561 0.000000 -0.012614 0.000000
# 3 -0.017585 0.020561 0.071939 0.000000 -0.042653 0.000000
# 4 0.000000 0.000000 0.000000 0.048047 0.000000 -0.009768
# 5 -0.000880 -0.012614 -0.042653 0.000000 0.055341 0.000000
# 6 0.000000 0.000000 0.000000 -0.009768 0.000000 0.032104
#
#
# Mechanical properties :
#
#
# Convention : Reuss Voigt Hill
#
# Bulk Modulus (GPa) = 9.99497 35.54739 22.77118
# Shear Modulus (GPa) = 17.20184 31.99016 24.59600
#
# Velocity S-wave (km/s) = 2.75208 3.75302 3.29083
# Velocity P-wave (km/s) = 3.80780 5.86785 4.94626
#
# Compressibility (1/GPa) = 0.10005028
#
# Stress axis : x y z
#
# Youngs Moduli (GPa) = 48.38996 54.54767 13.90066
#
# Poissons Ratio (x) = 0.45929 0.24444
# Poissons Ratio (y) = 0.40744 -0.28582
# Poissons Ratio (z) = 0.85093 -1.12158
#
# Static dielectric constant tensor:
#      x y z
#    x 1.861350 0.000000 -0.054200 
#    y 0.000000 1.889350 0.000000 
#    z -0.054200 0.000000 1.970840 
# 
# From -- ./inp_files/15509.got.cif
#   From: 2010.05.17/outbox.cif.g08.bks.cpg/sg13_8_cif.got.tgz:15509.got - 2010.06.03 16:44:36.
