data_PCOD9227419
_publ_section_title
;
Structure prediction by ZEFSAII (Michael W. Deem and Ramdas Pophale) SiO2 
 PCOD9227419
Probable space group: P 2/C
;
_chemical_formula_sum "Si O2"
_cell_formula_units_Z 24
_cell_length_a 14.872487
_cell_length_b 10.287139
_cell_length_c 18.733260
_cell_angle_alpha 90.000000
_cell_angle_beta 158.215053
_cell_angle_gamma 90.000000
_cell_volume 1063.678730
_symmetry_space_group_name_H-M "P 2/C"
_symmetry_group_IT_number 13
_symmetry_cell_setting 'monoclinic'
loop_
_space_group_symop_operation_xyz
x,y,z
-x,y,1/2-z
-x,-y,-z
x,-y,1/2+z
loop_
_atom_site_type_symbol
_atom_site_label
_atom_site_fract_x
_atom_site_fract_y
_atom_site_fract_z
Si Si1 0.194672 0.612716 0.220944
Si Si2 0.848342 0.202454 0.069509
Si Si3 0.547103 0.384213 0.438596
Si Si4 0.741512 0.857698 0.726422
Si Si5 0.410527 0.867385 0.336615
Si Si6 0.763873 0.489611 0.970047
O O1 0.397825 0.517777 0.338413
O O2 0.275247 0.627274 0.362990
O O3 0.215594 0.752096 0.199953
O O4 0.935455 0.544523 0.034855
O O5 0.000000 0.155934 0.250000
O O6 0.983653 0.150804 0.099247
O O7 0.578584 0.160538 0.892024
O O8 0.875323 0.358750 0.084499
O O9 0.358617 0.265944 0.304132
O O10 0.706227 0.399469 0.485360
O O11 0.579270 0.855368 0.533217
O O12 0.694891 0.989064 0.735112
O O13 0.500000 0.448022 0.750000
#
# Coordination Sequence:
#
# PCOD9227419 Si02
#       6
#     4   4   4   4   4   4
#     4  10  19  35  59  85 110 141 185 233 280 325
#     4  10  18  35  58  80 112 148 188 230 281 333
#     4  10  19  35  59  85 110 141 185 233 280 325
#     4   9  18  32  56  88 114 141 181 233 284 330
#     4   9  18  32  56  88 114 141 181 233 284 330
#     4  12  24  35  54  84 116 150 192 230 277 331
#
# _framework density 22.563205
#
# number of rings (size 3 to 8) (size 9 to 14) (size 15 to 20)
#    0.000    2.000    3.333    1.500    0.000    2.000 
#    0.000    5.000    0.000    6.000    0.000    0.000 
#    0.000    0.000    0.000    0.000    0.000    0.000 
#
# Total GULP energy -134171.919630 kJ/mol
# GULP energy per Si atom -5590.496651 kJ/mol
# Density = 2.251185 g / cm^3
# Si number density = 22.563205 Si / 1000 Ang^3
#
#
#
# Elastic Constant Matrix: (Units=GPa)
#
#
# Indices 1 2 3 4 5 6 
#
# 1 96.6593 37.3459 24.1724 0.0000 31.0420 0.0000
# 2 37.3459 127.1464 1.3898 0.0000 27.9850 0.0000
# 3 24.1724 1.3898 49.5956 0.0000 21.0658 0.0000
# 4 0.0000 0.0000 0.0000 16.9987 0.0000 15.7577
# 5 31.0420 27.9850 21.0658 0.0000 47.4401 0.0000
# 6 0.0000 0.0000 0.0000 15.7577 0.0000 17.9869
#
#
#
# Elastic Compliance Matrix: (Units=1/GPa)
#
#
# Indices 1 2 3 4 5 6 
#
# 1 0.014448 -0.002938 -0.004535 0.000000 -0.005707 0.000000
# 2 -0.002938 0.009890 0.003471 0.000000 -0.005453 0.000000
# 3 -0.004535 0.003471 0.026973 0.000000 -0.011057 0.000000
# 4 0.000000 0.000000 0.000000 0.313098 0.000000 -0.274295
# 5 -0.005707 -0.005453 -0.011057 0.000000 0.032940 0.000000
# 6 0.000000 0.000000 0.000000 -0.274295 0.000000 0.295896
#
#
# Mechanical properties :
#
#
# Convention : Reuss Voigt Hill
#
# Bulk Modulus (GPa) = 23.09155 44.35749 33.72452
# Shear Modulus (GPa) = 6.98632 30.51804 18.75218
#
# Velocity S-wave (km/s) = 1.76155 3.68170 2.88600
# Velocity P-wave (km/s) = 3.79391 6.14615 5.10730
#
# Compressibility (1/GPa) = 0.04330588
#
# Stress axis : x y z
#
# Youngs Moduli (GPa) = 69.21549 101.11025 37.07433
#
# Poissons Ratio (x) = 0.29706 0.16815
# Poissons Ratio (y) = 0.20336 -0.12869
# Poissons Ratio (z) = 0.31392 -0.35095
#
# Static dielectric constant tensor:
#      x y z
#    x 1.826660 0.000000 -0.052230 
#    y 0.000000 1.763850 0.000000 
#    z -0.052230 0.000000 1.897920 
# 
# From -- ./inp_files/80136.got.cif
#   From: 2010.05.17/outbox.cif.g08.bks.cpg/sg13_41_cif.got.tgz:80136.got - 2010.06.03 16:44:36.
