data_PCOD9227735
_publ_section_title
;
Structure prediction by ZEFSAII (Michael W. Deem and Ramdas Pophale) SiO2 
 PCOD9227735
Probable space group: P 2/C
;
_chemical_formula_sum "Si O2"
_cell_formula_units_Z 16
_cell_length_a 12.409703
_cell_length_b 7.055424
_cell_length_c 24.304465
_cell_angle_alpha 90.000000
_cell_angle_beta 158.293623
_cell_angle_gamma 90.000000
_cell_volume 787.039249
_symmetry_space_group_name_H-M "P 2/C"
_symmetry_group_IT_number 13
_symmetry_cell_setting 'monoclinic'
loop_
_space_group_symop_operation_xyz
x,y,z
-x,y,1/2-z
-x,-y,-z
x,-y,1/2+z
loop_
_atom_site_type_symbol
_atom_site_label
_atom_site_fract_x
_atom_site_fract_y
_atom_site_fract_z
Si Si1 0.755713 0.116223 0.591281
Si Si2 0.455347 0.440134 0.377787
Si Si3 0.264581 0.597686 0.094212
Si Si4 0.857526 0.754310 0.573290
O O1 0.895298 0.958035 0.617216
O O2 0.000000 0.179546 0.750000
O O3 0.500000 0.000000 0.500000
O O4 0.619138 0.284711 0.491465
O O5 0.578717 0.450275 0.373712
O O6 0.556071 0.647403 0.446950
O O7 0.118874 0.384299 0.215782
O O8 0.500000 0.665657 0.250000
O O9 0.153434 0.754753 0.998226
O O10 0.000000 0.500000 0.000000
#
# Coordination Sequence:
#
# PCOD9227735 Si02
#       4
#     4   4   4   4
#     4  12  26  42  62  92 132 167 207 260 311 366
#     4  10  23  41  65  93 128 161 216 251 308 383
#     4  10  18  38  68  91 123 162 201 261 316 363
#     4  10  23  41  65  94 126 162 216 251 310 380
#
# _framework density 20.329353999999999
#
# number of rings (size 3 to 8) (size 9 to 14) (size 15 to 20)
#    1.500    0.000    5.000    0.000    3.500    2.000 
#    0.000    2.500    0.000    0.000    0.000    0.000 
#    0.000    0.000    0.000    0.000    0.000    0.000 
#
# Total GULP energy -89212.658852 kJ/mol
# GULP energy per Si atom -5575.791178 kJ/mol
# Density = 2.028308 g / cm^3
# Si number density = 20.329354 Si / 1000 Ang^3
#
#
#
# Elastic Constant Matrix: (Units=GPa)
#
#
# Indices 1 2 3 4 5 6 
#
# 1 65.5220 15.4961 24.8605 0.0000 -11.1256 0.0000
# 2 15.4961 34.6770 8.7901 0.0000 -23.3136 0.0000
# 3 24.8605 8.7901 141.4244 0.0000 -28.3887 0.0000
# 4 0.0000 0.0000 0.0000 18.2976 0.0000 -1.1479
# 5 -11.1256 -23.3136 -28.3887 0.0000 34.8453 0.0000
# 6 0.0000 0.0000 0.0000 -1.1479 0.0000 27.4888
#
#
#
# Elastic Compliance Matrix: (Units=1/GPa)
#
#
# Indices 1 2 3 4 5 6 
#
# 1 0.018185 -0.009408 -0.003240 0.000000 -0.003128 0.000000
# 2 -0.009408 0.059816 0.006416 0.000000 0.042244 0.000000
# 3 -0.003240 0.006416 0.009439 0.000000 0.010948 0.000000
# 4 0.000000 0.000000 0.000000 0.054795 0.000000 0.002288
# 5 -0.003128 0.042244 0.010948 0.000000 0.064883 0.000000
# 6 0.000000 0.000000 0.000000 0.002288 0.000000 0.036474
#
#
# Mechanical properties :
#
#
# Convention : Reuss Voigt Hill
#
# Bulk Modulus (GPa) = 13.33746 37.76852 25.55299
# Shear Modulus (GPa) = 17.79044 28.95813 23.37429
#
# Velocity S-wave (km/s) = 2.96144 3.77828 3.39452
# Velocity P-wave (km/s) = 4.27416 6.13617 5.28777
#
# Compressibility (1/GPa) = 0.07497679
#
# Stress axis : x y z
#
# Youngs Moduli (GPa) = 54.98960 16.71785 105.93891
#
# Poissons Ratio (x) = 0.15728 0.34322
# Poissons Ratio (y) = 0.51734 -0.67968
# Poissons Ratio (z) = 0.17816 -0.10726
#
# Static dielectric constant tensor:
#      x y z
#    x 1.760690 0.000000 0.008580 
#    y 0.000000 1.703090 0.000000 
#    z 0.008580 0.000000 1.723350 
# 
# From -- ./inp_files/14391.got.cif
#   From: 2010.05.17/outbox.cif.g08.bks.cpg/sg13_8_cif.got.tgz:14391.got - 2010.06.03 16:44:36.
