data_PCOD9227175
_publ_section_title
;
Structure prediction by ZEFSAII (Michael W. Deem and Ramdas Pophale) SiO2 
 PCOD9227175
Probable space group: P 2/C
;
_chemical_formula_sum "Si O2"
_cell_formula_units_Z 32
_cell_length_a 7.592831
_cell_length_b 12.837000
_cell_length_c 18.306630
_cell_angle_alpha 90.000000
_cell_angle_beta 56.510364
_cell_angle_gamma 90.000000
_cell_volume 1488.107326
_symmetry_space_group_name_H-M "P 2/C"
_symmetry_group_IT_number 13
_symmetry_cell_setting 'monoclinic'
loop_
_space_group_symop_operation_xyz
x,y,z
-x,y,1/2-z
-x,-y,-z
x,-y,1/2+z
loop_
_atom_site_type_symbol
_atom_site_label
_atom_site_fract_x
_atom_site_fract_y
_atom_site_fract_z
Si Si1 0.211875 0.590506 0.686401
Si Si2 0.308769 0.078786 0.965664
Si Si3 0.978261 0.901709 0.405416
Si Si4 0.618645 0.788434 0.799235
Si Si5 0.386024 0.495554 0.947597
Si Si6 0.177993 0.701867 0.537687
Si Si7 0.672155 0.020493 0.777564
Si Si8 0.208036 0.282827 0.474427
O O1 0.225753 0.691517 0.734233
O O2 0.422233 0.524530 0.649649
O O3 0.193156 0.641968 0.610530
O O4 0.000000 0.528274 0.750000
O O5 0.145492 0.085521 0.934312
O O6 0.538352 0.062665 0.876919
O O7 0.297544 0.188445 0.009938
O O8 0.208784 0.985385 0.036584
O O9 0.118666 0.923905 0.301594
O O10 0.884799 0.786336 0.438777
O O11 0.500000 0.789782 0.750000
O O12 0.435556 0.763762 0.900240
O O13 0.722813 0.900374 0.784165
O O14 0.230881 0.594320 0.983071
O O15 0.500000 0.500000 0.000000
O O16 0.282148 0.383939 0.959742
O O17 0.947212 0.727450 0.559413
O O18 0.500000 0.020953 0.750000
#
# Coordination Sequence:
#
# PCOD9227175 Si02
#       8
#     4   4   4   4   4   4   4   4
#     4  10  21  35  53  79 109 144 185 235 290 328
#     4   9  17  30  49  79 111 145 181 223 277 336
#     4   9  17  28  50  81 110 146 181 224 281 330
#     4  10  19  31  53  81 112 142 183 235 279 332
#     4   9  20  38  55  75 106 142 184 234 282 330
#     4  10  20  34  57  80 111 148 185 231 282 336
#     4   9  17  29  49  77 115 145 183 230 276 335
#     4  10  18  33  58  84 108 143 194 231 281 343
#
# _framework density 21.503824999999999
#
# number of rings (size 3 to 8) (size 9 to 14) (size 15 to 20)
#    0.000    2.500    1.250    1.125    7.000    0.000 
#    0.000    3.125    0.000   15.000    0.000    0.000 
#    0.000    0.000    0.000    0.000    0.000    0.000 
#
# Total GULP energy -178494.291921 kJ/mol
# GULP energy per Si atom -5577.946623 kJ/mol
# Density = 2.145488 g / cm^3
# Si number density = 21.503825 Si / 1000 Ang^3
#
#
#
# Elastic Constant Matrix: (Units=GPa)
#
#
# Indices 1 2 3 4 5 6 
#
# 1 42.5291 10.5598 24.9110 0.0000 -2.2484 0.0000
# 2 10.5598 85.2259 27.4208 0.0000 -18.7399 0.0000
# 3 24.9110 27.4208 85.2155 0.0000 -30.0769 0.0000
# 4 0.0000 0.0000 0.0000 9.7583 0.0000 11.3922
# 5 -2.2484 -18.7399 -30.0769 0.0000 31.5764 0.0000
# 6 0.0000 0.0000 0.0000 11.3922 0.0000 -8.6466
#
#
#
# Elastic Compliance Matrix: (Units=1/GPa)
#
#
# Indices 1 2 3 4 5 6 
#
# 1 0.030483 -0.002260 -0.011888 0.000000 -0.010493 0.000000
# 2 -0.002260 0.013963 -0.001453 0.000000 0.006742 0.000000
# 3 -0.011888 -0.001453 0.022709 0.000000 0.019922 0.000000
# 4 0.000000 0.000000 0.000000 0.040375 0.000000 0.053195
# 5 -0.010493 0.006742 0.019922 0.000000 0.053899 0.000000
# 6 0.000000 0.000000 0.000000 0.053195 0.000000 -0.045566
#
#
# Mechanical properties :
#
#
# Convention : Reuss Voigt Hill
#
# Bulk Modulus (GPa) = 27.81268 37.63930 32.72599
# Shear Modulus (GPa) = 31.43703 16.54289 23.98996
#
# Velocity S-wave (km/s) = 3.82766 2.77663 3.34370
# Velocity P-wave (km/s) = 5.70058 5.27457 5.49171
#
# Compressibility (1/GPa) = 0.03595482
#
# Stress axis : x y z
#
# Youngs Moduli (GPa) = 32.80565 71.61537 44.03545
#
# Poissons Ratio (x) = 0.16182 0.52347
# Poissons Ratio (y) = 0.07412 0.06399
# Poissons Ratio (z) = 0.38998 0.10406
#
# Static dielectric constant tensor:
#      x y z
#    x 1.864730 0.000000 -0.040700 
#    y 0.000000 1.789500 0.000000 
#    z -0.040700 0.000000 1.891700 
# 
# From -- ./inp_files/76419.got.cif
#   From: 2010.05.17/outbox.cif.g08.bks.cpg/sg13_39_cif.got.tgz:76419.got - 2010.06.03 16:44:36.
