data_PCOD9227592
_publ_section_title
;
Structure prediction by ZEFSAII (Michael W. Deem and Ramdas Pophale) SiO2 
 PCOD9227592
Probable space group: P 2/C
;
_chemical_formula_sum "Si O2"
_cell_formula_units_Z 30
_cell_length_a 13.994787
_cell_length_b 5.434420
_cell_length_c 16.618863
_cell_angle_alpha 90.000000
_cell_angle_beta 99.811510
_cell_angle_gamma 90.000000
_cell_volume 1245.436991
_symmetry_space_group_name_H-M "P 2/C"
_symmetry_group_IT_number 13
_symmetry_cell_setting 'monoclinic'
loop_
_space_group_symop_operation_xyz
x,y,z
-x,y,1/2-z
-x,-y,-z
x,-y,1/2+z
loop_
_atom_site_type_symbol
_atom_site_label
_atom_site_fract_x
_atom_site_fract_y
_atom_site_fract_z
Si Si1 0.688659 0.263759 0.170102
Si Si2 0.386598 0.973834 0.996101
Si Si3 0.625340 0.290777 0.858190
Si Si4 0.229492 0.774536 0.259753
Si Si5 0.238044 0.367150 0.019864
Si Si6 0.108422 0.964949 0.610998
Si Si7 0.933812 0.680637 0.542278
Si Si8 0.500000 0.638577 0.750000
O O1 0.644699 0.233401 0.073970
O O2 0.754530 0.506035 0.197902
O O3 0.597973 0.248171 0.222405
O O4 0.756308 0.022328 0.187577
O O5 0.391961 0.949219 0.093932
O O6 0.500000 0.000000 0.000000
O O7 0.307066 0.189152 0.978690
O O8 0.677463 0.231046 0.784490
O O9 0.697041 0.431472 0.927672
O O10 0.535335 0.460544 0.826879
O O11 0.141689 0.848156 0.185882
O O12 0.187543 0.232839 0.090646
O O13 0.157555 0.505894 0.953934
O O14 0.099267 0.116617 0.526734
O O15 0.006834 0.822133 0.612988
O O16 0.000000 0.500000 0.500000
#
# Coordination Sequence:
#
# PCOD9227592 Si02
#       8
#     4   4   4   4   4   4   4   2
#     4  11  28  42  64  97 135 191 242 300 371 438
#     4  12  28  41  65  95 143 199 258 304 369 448
#     4  11  24  41  68  90 138 183 240 300 360 420
#     4  11  23  43  68  96 140 179 236 305 371 430
#     4  11  20  40  63  96 140 184 232 305 364 434
#     4  10  18  36  64 105 135 171 223 299 367 443
#     4   9  19  31  62 104 141 162 219 291 364 439
#     4  10  24  42  64  90 130 186 244 306 358 418
#
# _framework density 24.08793
#
# number of rings (size 3 to 8) (size 9 to 14) (size 15 to 20)
#    0.000    1.333    2.667    2.400    9.333    1.600 
#    0.000    0.000    0.000    0.000    0.000   22.400 
#    0.000    0.000    0.000    0.000    0.000    0.533 
#
# Total GULP energy -167115.494821 kJ/mol
# GULP energy per Si atom -5570.516494 kJ/mol
# Density = 2.403310 g / cm^3
# Si number density = 24.087930 Si / 1000 Ang^3
#
#
#
# Elastic Constant Matrix: (Units=GPa)
#
#
# Indices 1 2 3 4 5 6 
#
# 1 104.1765 44.0496 26.9052 0.0000 25.8816 0.0000
# 2 44.0496 95.2648 30.1176 0.0000 5.1882 0.0000
# 3 26.9052 30.1176 46.8722 0.0000 3.9856 0.0000
# 4 0.0000 0.0000 0.0000 25.3493 0.0000 14.3120
# 5 25.8816 5.1882 3.9856 0.0000 26.2528 0.0000
# 6 0.0000 0.0000 0.0000 14.3120 0.0000 22.1455
#
#
#
# Elastic Compliance Matrix: (Units=1/GPa)
#
#
# Indices 1 2 3 4 5 6 
#
# 1 0.016835 -0.005423 -0.004922 0.000000 -0.014778 0.000000
# 2 -0.005423 0.014967 -0.006794 0.000000 0.003420 0.000000
# 3 -0.004922 -0.006794 0.028365 0.000000 0.001889 0.000000
# 4 0.000000 0.000000 0.000000 0.062112 0.000000 -0.040142
# 5 -0.014778 0.003420 0.001889 0.000000 0.051697 0.000000
# 6 0.000000 0.000000 0.000000 -0.040142 0.000000 0.071098
#
#
# Mechanical properties :
#
#
# Convention : Reuss Voigt Hill
#
# Bulk Modulus (GPa) = 38.62992 49.82870 44.22931
# Shear Modulus (GPa) = 17.36211 24.43226 20.89718
#
# Velocity S-wave (km/s) = 2.68765 3.18825 2.94859
# Velocity P-wave (km/s) = 5.06983 5.85528 5.47665
#
# Compressibility (1/GPa) = 0.02588667
#
# Stress axis : x y z
#
# Youngs Moduli (GPa) = 59.40028 66.81559 35.25461
#
# Poissons Ratio (x) = 0.36237 0.17353
# Poissons Ratio (y) = 0.32215 0.23954
# Poissons Ratio (z) = 0.29237 0.45398
#
# Static dielectric constant tensor:
#      x y z
#    x 1.902600 0.000000 0.016000 
#    y 0.000000 1.869050 0.000000 
#    z 0.016000 0.000000 1.914110 
# 
# From -- ./inp_files/67591.got.cif
#   From: 2010.05.17/outbox.cif.g08.bks.cpg/sg13_34_cif.got.tgz:67591.got - 2010.06.03 16:44:36.
