data_PCOD9227281
_publ_section_title
;
Structure prediction by ZEFSAII (Michael W. Deem and Ramdas Pophale) SiO2 
 PCOD9227281
Probable space group: P 2/C
;
_chemical_formula_sum "Si O2"
_cell_formula_units_Z 32
_cell_length_a 14.126965
_cell_length_b 9.512944
_cell_length_c 22.799269
_cell_angle_alpha 90.000000
_cell_angle_beta 151.083705
_cell_angle_gamma 90.000000
_cell_volume 1481.526303
_symmetry_space_group_name_H-M "P 2/C"
_symmetry_group_IT_number 13
_symmetry_cell_setting 'monoclinic'
loop_
_space_group_symop_operation_xyz
x,y,z
-x,y,1/2-z
-x,-y,-z
x,-y,1/2+z
loop_
_atom_site_type_symbol
_atom_site_label
_atom_site_fract_x
_atom_site_fract_y
_atom_site_fract_z
Si Si1 0.180208 0.596989 0.236606
Si Si2 0.324543 0.800947 0.555025
Si Si3 0.197706 0.350500 0.333517
Si Si4 0.900064 0.670953 0.975562
Si Si5 0.400820 0.086591 0.391712
Si Si6 0.727606 0.373668 0.888622
Si Si7 0.379709 0.524857 0.048286
Si Si8 0.934795 0.116565 0.780159
O O1 0.132760 0.461705 0.249337
O O2 0.026124 0.626444 0.101627
O O3 0.394767 0.571184 0.327875
O O4 0.175768 0.733912 0.275536
O O5 0.487044 0.891280 0.608974
O O6 0.359668 0.640142 0.552078
O O7 0.263671 0.781405 0.590585
O O8 0.128947 0.865864 0.422193
O O9 0.346169 0.238310 0.387944
O O10 0.298395 0.436596 0.440577
O O11 0.000000 0.279109 0.250000
O O12 0.078422 0.710250 0.028366
O O13 0.778452 0.531510 0.891444
O O14 0.500000 0.000000 0.500000
O O15 0.204626 0.002552 0.271759
O O16 0.500000 0.335100 0.750000
O O17 0.727429 0.389059 0.958568
O O18 0.000000 0.086916 0.750000
#
# Coordination Sequence:
#
# PCOD9227281 Si02
#       8
#     4   4   4   4   4   4   4   4
#     4  11  20  37  60  87 127 162 203 247 316 376
#     4  10  21  38  57  80 123 158 203 250 307 369
#     4  12  24  36  54  86 127 163 203 250 303 379
#     4   9  20  35  59  91 123 160 201 256 316 366
#     4  12  24  37  54  83 120 164 209 248 295 367
#     4  10  18  34  57  89 130 154 201 256 313 369
#     4  11  21  36  58  91 124 168 196 251 325 372
#     4  11  21  36  55  79 118 166 202 243 297 366
#
# _framework density 21.599347000000002
#
# number of rings (size 3 to 8) (size 9 to 14) (size 15 to 20)
#    0.000    1.250    3.750    4.875    0.000    0.000 
#    0.000    0.000    0.000    0.000    0.000    3.500 
#  131.250    2.250    0.000    0.000    0.000    0.000 
#
# Total GULP energy -178516.881104 kJ/mol
# GULP energy per Si atom -5578.652535 kJ/mol
# Density = 2.155019 g / cm^3
# Si number density = 21.599347 Si / 1000 Ang^3
#
#
#
# Elastic Constant Matrix: (Units=GPa)
#
#
# Indices 1 2 3 4 5 6 
#
# 1 156.9476 37.7861 30.6439 0.0000 43.7521 0.0000
# 2 37.7861 56.1998 6.5757 0.0000 10.8156 0.0000
# 3 30.6439 6.5757 49.9613 0.0000 20.0848 0.0000
# 4 0.0000 0.0000 0.0000 43.0594 0.0000 11.6301
# 5 43.7521 10.8156 20.0848 0.0000 37.2421 0.0000
# 6 0.0000 0.0000 0.0000 11.6301 0.0000 41.0321
#
#
#
# Elastic Compliance Matrix: (Units=1/GPa)
#
#
# Indices 1 2 3 4 5 6 
#
# 1 0.010805 -0.005082 -0.001850 0.000000 -0.010221 0.000000
# 2 -0.005082 0.021242 0.000512 0.000000 -0.000475 0.000000
# 3 -0.001850 0.000512 0.025880 0.000000 -0.011933 0.000000
# 4 0.000000 0.000000 0.000000 0.025149 0.000000 -0.007128
# 5 -0.010221 -0.000475 -0.011933 0.000000 0.045432 0.000000
# 6 0.000000 0.000000 0.000000 -0.007128 0.000000 0.026392
#
#
# Mechanical properties :
#
#
# Convention : Reuss Voigt Hill
#
# Bulk Modulus (GPa) = 22.17877 45.90224 34.04051
# Shear Modulus (GPa) = 27.35713 36.80690 32.08202
#
# Velocity S-wave (km/s) = 3.56275 4.13252 3.85817
# Velocity P-wave (km/s) = 5.21678 6.63838 5.97005
#
# Compressibility (1/GPa) = 0.04508816
#
# Stress axis : x y z
#
# Youngs Moduli (GPa) = 92.54628 47.07696 38.64036
#
# Poissons Ratio (x) = 0.23923 0.07148
# Poissons Ratio (y) = 0.47028 -0.01979
# Poissons Ratio (z) = 0.17120 -0.02411
#
# Static dielectric constant tensor:
#      x y z
#    x 1.722280 0.000000 0.078020 
#    y 0.000000 1.797630 0.000000 
#    z 0.078020 0.000000 1.776960 
# 
# From -- ./inp_files/87440.got.cif
#   From: 2010.05.17/outbox.cif.g08.bks.cpg/sg13_44_cif.got.tgz:87440.got - 2010.06.03 16:44:36.
