data_PCOD9227344
_publ_section_title
;
Structure prediction by ZEFSAII (Michael W. Deem and Ramdas Pophale) SiO2 
 PCOD9227344
Probable space group: P 2/C
;
_chemical_formula_sum "Si O2"
_cell_formula_units_Z 24
_cell_length_a 13.896934
_cell_length_b 8.163644
_cell_length_c 14.019912
_cell_angle_alpha 90.000000
_cell_angle_beta 42.929541
_cell_angle_gamma 90.000000
_cell_volume 1083.323699
_symmetry_space_group_name_H-M "P 2/C"
_symmetry_group_IT_number 13
_symmetry_cell_setting 'monoclinic'
loop_
_space_group_symop_operation_xyz
x,y,z
-x,y,1/2-z
-x,-y,-z
x,-y,1/2+z
loop_
_atom_site_type_symbol
_atom_site_label
_atom_site_fract_x
_atom_site_fract_y
_atom_site_fract_z
Si Si1 0.341115 0.824787 0.206254
Si Si2 0.500000 0.980550 0.750000
Si Si3 0.000000 0.994108 0.250000
Si Si4 0.448394 0.324732 0.075997
Si Si5 0.787492 0.777292 0.524247
Si Si6 0.831757 0.138838 0.206380
Si Si7 0.354243 0.483448 0.816851
O O1 0.455376 0.911724 0.191627
O O2 0.291101 0.658402 0.295670
O O3 0.220297 0.954518 0.276858
O O4 0.423236 0.787778 0.048950
O O5 0.641499 0.879096 0.626666
O O6 0.949947 0.112217 0.199915
O O7 0.884529 0.870429 0.378235
O O8 0.300276 0.242157 0.153174
O O9 0.415851 0.368726 0.207650
O O10 0.500000 0.500000 0.000000
O O11 0.856727 0.790546 0.581338
O O12 0.749578 0.583467 0.538435
O O13 0.500000 0.410270 0.750000
#
# Coordination Sequence:
#
# PCOD9227344 Si02
#       7
#     4   2   2   4   4   4   4
#     4  10  19  33  57  93 125 158 209 274 330 382
#     4  10  18  34  60  94 118 154 214 276 336 378
#     4  12  24  40  64  88 130 184 232 252 326 404
#     4   9  19  34  59  92 125 157 202 268 331 379
#     4  10  22  38  62  91 125 169 216 278 330 392
#     4  10  22  38  60  92 128 173 216 270 315 393
#     4  10  19  34  57  88 126 162 202 268 340 382
#
# _framework density 22.154043000000001
#
# number of rings (size 3 to 8) (size 9 to 14) (size 15 to 20)
#    0.000    2.000    1.667    2.000    2.333    0.000 
#    0.000    0.833    0.000   15.000    0.000    0.000 
#    0.000    0.000    0.000    0.000    0.000    0.000 
#
# Total GULP energy -133723.639325 kJ/mol
# GULP energy per Si atom -5571.818305 kJ/mol
# Density = 2.210362 g / cm^3
# Si number density = 22.154043 Si / 1000 Ang^3
#
#
#
# Elastic Constant Matrix: (Units=GPa)
#
#
# Indices 1 2 3 4 5 6 
#
# 1 88.8105 14.0075 -4.9845 0.0000 4.7734 0.0000
# 2 14.0075 88.6333 25.4373 0.0000 -5.0803 0.0000
# 3 -4.9845 25.4373 72.8813 0.0000 -7.5211 0.0000
# 4 0.0000 0.0000 0.0000 26.3863 0.0000 10.0196
# 5 4.7734 -5.0803 -7.5211 0.0000 18.8536 0.0000
# 6 0.0000 0.0000 0.0000 10.0196 0.0000 15.2769
#
#
#
# Elastic Compliance Matrix: (Units=1/GPa)
#
#
# Indices 1 2 3 4 5 6 
#
# 1 0.011889 -0.002444 0.001343 0.000000 -0.003133 0.000000
# 2 -0.002444 0.013093 -0.004494 0.000000 0.002354 0.000000
# 3 0.001343 -0.004494 0.015875 0.000000 0.004782 0.000000
# 4 0.000000 0.000000 0.000000 0.050467 0.000000 -0.033099
# 5 -0.003133 0.002354 0.004782 0.000000 0.056375 0.000000
# 6 0.000000 0.000000 0.000000 -0.033099 0.000000 0.087167
#
#
# Mechanical properties :
#
#
# Convention : Reuss Voigt Hill
#
# Bulk Modulus (GPa) = 33.70762 35.47175 34.58969
# Shear Modulus (GPa) = 19.53535 26.49436 23.01485
#
# Velocity S-wave (km/s) = 2.97273 3.46195 3.22663
# Velocity P-wave (km/s) = 5.19913 5.65918 5.43403
#
# Compressibility (1/GPa) = 0.02966688
#
# Stress axis : x y z
#
# Youngs Moduli (GPa) = 84.11031 76.37441 62.99294
#
# Poissons Ratio (x) = 0.18665 -0.08459
# Poissons Ratio (y) = 0.20556 0.28310
# Poissons Ratio (z) = -0.11294 0.34324
#
# Static dielectric constant tensor:
#      x y z
#    x 1.931310 0.000000 0.003570 
#    y 0.000000 1.863880 0.000000 
#    z 0.003570 0.000000 1.903520 
# 
# From -- ./inp_files/52949.got.cif
#   From: 2010.05.17/outbox.cif.g08.bks.cpg/sg13_27_cif.got.tgz:52949.got - 2010.06.03 16:44:36.
