data_PCOD9227113
_publ_section_title
;
Structure prediction by ZEFSAII (Michael W. Deem and Ramdas Pophale) SiO2 
 PCOD9227113
Probable space group: P 2/C
;
_chemical_formula_sum "Si O2"
_cell_formula_units_Z 32
_cell_length_a 19.900812
_cell_length_b 10.703434
_cell_length_c 17.604277
_cell_angle_alpha 90.000000
_cell_angle_beta 30.062309
_cell_angle_gamma 90.000000
_cell_volume 1878.447846
_symmetry_space_group_name_H-M "P 2/C"
_symmetry_group_IT_number 13
_symmetry_cell_setting 'monoclinic'
loop_
_space_group_symop_operation_xyz
x,y,z
-x,y,1/2-z
-x,-y,-z
x,-y,1/2+z
loop_
_atom_site_type_symbol
_atom_site_label
_atom_site_fract_x
_atom_site_fract_y
_atom_site_fract_z
Si Si1 0.347486 0.248984 0.815475
Si Si2 0.181927 0.408308 0.279086
Si Si3 0.651699 0.302681 0.509084
Si Si4 0.956091 0.897501 0.105455
Si Si5 0.877035 0.333432 0.582022
Si Si6 0.711259 0.040877 0.377856
Si Si7 0.446117 0.035591 0.217785
Si Si8 0.246042 0.175322 0.320782
O O1 0.492969 0.299545 0.646263
O O2 0.224731 0.293454 0.884302
O O3 0.366635 0.097841 0.795337
O O4 0.331569 0.299416 0.916875
O O5 0.271995 0.404609 0.115547
O O6 0.173213 0.542785 0.326192
O O7 0.239460 0.308013 0.284087
O O8 0.030608 0.362643 0.407124
O O9 0.712356 0.171512 0.420795
O O10 0.888776 0.781662 0.128431
O O11 0.843344 0.961052 0.267069
O O12 0.097925 0.851558 0.998704
O O13 0.000000 0.000000 0.000000
O O14 0.718617 0.076535 0.281520
O O15 0.573561 0.976555 0.537107
O O16 0.500000 0.051765 0.250000
O O17 0.353849 0.147919 0.279495
#
# Coordination Sequence:
#
# PCOD9227113 Si02
#       8
#     4   4   4   4   4   4   4   4
#     4  10  18  33  53  79 108 138 168 227 276 305
#     4   9  20  37  53  78 103 139 189 216 253 319
#     4   9  18  33  52  76 112 135 173 219 262 322
#     4   9  17  31  51  81 104 125 173 215 262 312
#     4  10  20  34  57  79 104 139 178 224 263 310
#     4   9  16  31  51  77 104 133 167 211 265 320
#     4  11  19  32  51  79 109 136 170 216 272 323
#     4   9  18  31  53  71 104 139 168 215 258 311
#
# _framework density 17.035340999999999
#
# number of rings (size 3 to 8) (size 9 to 14) (size 15 to 20)
#    0.000    2.500    2.500    2.625    0.000    3.000 
#    0.000    0.625    5.500    0.000    0.000    0.000 
#    0.000    0.000    0.000    0.000    0.000    0.000 
#
# Total GULP energy -178254.027402 kJ/mol
# GULP energy per Si atom -5570.438356 kJ/mol
# Density = 1.699657 g / cm^3
# Si number density = 17.035341 Si / 1000 Ang^3
#
#
#
# Elastic Constant Matrix: (Units=GPa)
#
#
# Indices 1 2 3 4 5 6 
#
# 1 103.9098 41.2751 57.3049 0.0000 -18.4316 0.0000
# 2 41.2751 68.1305 38.7812 0.0000 -10.0855 0.0000
# 3 57.3049 38.7812 66.8168 0.0000 -4.0387 0.0000
# 4 0.0000 0.0000 0.0000 23.8104 0.0000 -4.1446
# 5 -18.4316 -10.0855 -4.0387 0.0000 12.6444 0.0000
# 6 0.0000 0.0000 0.0000 -4.1446 0.0000 16.7534
#
#
#
# Elastic Compliance Matrix: (Units=1/GPa)
#
#
# Indices 1 2 3 4 5 6 
#
# 1 0.027283 0.000889 -0.021892 0.000000 0.033488 0.000000
# 2 0.000889 0.024546 -0.014018 0.000000 0.016397 0.000000
# 3 -0.021892 -0.014018 0.040046 0.000000 -0.030302 0.000000
# 4 0.000000 0.000000 0.000000 0.043888 0.000000 0.010857
# 5 0.033488 0.016397 -0.030302 0.000000 0.131302 0.000000
# 6 0.000000 0.000000 0.000000 0.010857 0.000000 0.062376
#
#
# Mechanical properties :
#
#
# Convention : Reuss Voigt Hill
#
# Bulk Modulus (GPa) = 45.79886 57.06439 51.43163
# Shear Modulus (GPa) = 12.29224 17.40801 14.85012
#
# Velocity S-wave (km/s) = 2.68913 3.20015 2.95570
# Velocity P-wave (km/s) = 6.04854 6.87204 6.47340
#
# Compressibility (1/GPa) = 0.02183460
#
# Stress axis : x y z
#
# Youngs Moduli (GPa) = 36.65224 40.74027 24.97114
#
# Poissons Ratio (x) = -0.03624 0.54666
# Poissons Ratio (y) = -0.03260 0.35005
# Poissons Ratio (z) = 0.80237 0.57111
#
# Static dielectric constant tensor:
#      x y z
#    x 1.570330 0.000000 -0.012750 
#    y 0.000000 1.579050 0.000000 
#    z -0.012750 0.000000 1.605290 
# 
# From -- ./inp_files/70631.got.cif
#   From: 2010.05.17/outbox.cif.g08.bks.cpg/sg13_36_cif.got.tgz:70631.got - 2010.06.03 16:44:36.
