data_PCOD9227465
_publ_section_title
;
Structure prediction by ZEFSAII (Michael W. Deem and Ramdas Pophale) SiO2 
 PCOD9227465
Probable space group: P 2/C
;
_chemical_formula_sum "Si O2"
_cell_formula_units_Z 30
_cell_length_a 11.358037
_cell_length_b 8.869749
_cell_length_c 22.946218
_cell_angle_alpha 90.000000
_cell_angle_beta 140.581273
_cell_angle_gamma 90.000000
_cell_volume 1467.870877
_symmetry_space_group_name_H-M "P 2/C"
_symmetry_group_IT_number 13
_symmetry_cell_setting 'monoclinic'
loop_
_space_group_symop_operation_xyz
x,y,z
-x,y,1/2-z
-x,-y,-z
x,-y,1/2+z
loop_
_atom_site_type_symbol
_atom_site_label
_atom_site_fract_x
_atom_site_fract_y
_atom_site_fract_z
Si Si1 0.706436 0.634083 0.226698
Si Si2 0.971592 0.859164 0.600786
Si Si3 0.182499 0.690253 0.779397
Si Si4 0.500000 0.506537 0.250000
Si Si5 0.799329 0.200749 0.654615
Si Si6 0.674710 0.106359 0.078289
Si Si7 0.925645 0.784529 0.079681
Si Si8 0.873728 0.354970 0.438099
O O1 0.761182 0.468942 0.224944
O O2 0.543973 0.609694 0.210817
O O3 0.667149 0.733971 0.153912
O O4 0.882067 0.703179 0.328833
O O5 0.774846 0.834062 0.558535
O O6 0.124949 0.803488 0.705899
O O7 0.012846 0.759810 0.559934
O O8 0.972597 0.038310 0.591390
O O9 0.339210 0.761163 0.880705
O O10 0.000000 0.672557 0.750000
O O11 0.682107 0.407438 0.334569
O O12 0.787531 0.239667 0.581919
O O13 0.000000 0.261417 0.750000
O O14 0.806080 0.020081 0.658062
O O15 0.500000 0.000000 0.000000
O O16 0.842076 0.723102 0.988276
O O17 0.000000 0.500000 0.500000
#
# Coordination Sequence:
#
# PCOD9227465 Si02
#       8
#     4   4   4   2   4   4   4   4
#     4  11  21  39  64  93 128 164 223 271 338 395
#     4  10  21  40  64  91 128 176 215 266 349 398
#     4  10  18  35  62  88 122 169 212 265 327 399
#     4  12  26  42  62  96 134 178 224 284 332 416
#     4   9  19  38  63  88 119 162 207 269 325 394
#     4  10  21  36  59  94 131 161 217 274 329 394
#     4  10  20  40  67  91 124 170 221 273 338 405
#     4  12  24  44  65  91 136 178 229 276 339 411
#
# _framework density 20.437766
#
# number of rings (size 3 to 8) (size 9 to 14) (size 15 to 20)
#    0.000    1.600    2.667    4.400    0.000    4.267 
#    0.000    2.000    0.000    0.000    0.000    0.000 
#    0.000    0.000    0.000    0.000    0.000    0.000 
#
# Total GULP energy -167334.669138 kJ/mol
# GULP energy per Si atom -5577.822305 kJ/mol
# Density = 2.039125 g / cm^3
# Si number density = 20.437766 Si / 1000 Ang^3
#
#
#
# Elastic Constant Matrix: (Units=GPa)
#
#
# Indices 1 2 3 4 5 6 
#
# 1 132.3132 49.3763 42.9072 0.0000 -37.1975 0.0000
# 2 49.3763 84.2459 37.6540 0.0000 -16.0227 0.0000
# 3 42.9072 37.6540 84.8683 0.0000 -3.9951 0.0000
# 4 0.0000 0.0000 0.0000 26.0171 0.0000 -9.6427
# 5 -37.1975 -16.0227 -3.9951 0.0000 37.7833 0.0000
# 6 0.0000 0.0000 0.0000 -9.6427 0.0000 45.7517
#
#
#
# Elastic Compliance Matrix: (Units=1/GPa)
#
#
# Indices 1 2 3 4 5 6 
#
# 1 0.013689 -0.003746 -0.004723 0.000000 0.011389 0.000000
# 2 -0.003746 0.017118 -0.005561 0.000000 0.002983 0.000000
# 3 -0.004723 -0.005561 0.016389 0.000000 -0.005274 0.000000
# 4 0.000000 0.000000 0.000000 0.041693 0.000000 0.008787
# 5 0.011389 0.002983 -0.005274 0.000000 0.038386 0.000000
# 6 0.000000 0.000000 0.000000 0.008787 0.000000 0.023709
#
#
# Mechanical properties :
#
#
# Convention : Reuss Voigt Hill
#
# Bulk Modulus (GPa) = 52.25217 62.36692 57.30954
# Shear Modulus (GPa) = 26.96528 33.34307 30.15417
#
# Velocity S-wave (km/s) = 3.63627 4.04350 3.84528
# Velocity P-wave (km/s) = 6.57662 7.23751 6.91497
#
# Compressibility (1/GPa) = 0.01913796
#
# Stress axis : x y z
#
# Youngs Moduli (GPa) = 73.05088 58.41671 61.01519
#
# Poissons Ratio (x) = 0.21885 0.28815
# Poissons Ratio (y) = 0.27367 0.33928
# Poissons Ratio (z) = 0.34499 0.32483
#
# Static dielectric constant tensor:
#      x y z
#    x 1.781510 0.000000 0.014370 
#    y 0.000000 1.714390 0.000000 
#    z 0.014370 0.000000 1.795960 
# 
# From -- ./inp_files/86397.got.cif
#   From: 2010.05.17/outbox.cif.g08.bks.cpg/sg13_44_cif.got.tgz:86397.got - 2010.06.03 16:44:36.
