data_PCOD9227977
_publ_section_title
;
Structure prediction by ZEFSAII (Michael W. Deem and Ramdas Pophale) SiO2 
 PCOD9227977
Probable space group: P 2/C
;
_chemical_formula_sum "Si O2"
_cell_formula_units_Z 32
_cell_length_a 13.642023
_cell_length_b 8.898767
_cell_length_c 26.158124
_cell_angle_alpha 90.000000
_cell_angle_beta 148.181808
_cell_angle_gamma 90.000000
_cell_volume 1674.216864
_symmetry_space_group_name_H-M "P 2/C"
_symmetry_group_IT_number 13
_symmetry_cell_setting 'monoclinic'
loop_
_space_group_symop_operation_xyz
x,y,z
-x,y,1/2-z
-x,-y,-z
x,-y,1/2+z
loop_
_atom_site_type_symbol
_atom_site_label
_atom_site_fract_x
_atom_site_fract_y
_atom_site_fract_z
Si Si1 0.227030 0.779545 0.931436
Si Si2 0.174040 0.828376 0.748963
Si Si3 0.247982 0.696620 0.680934
Si Si4 0.666947 0.716891 0.894956
Si Si5 0.081025 0.496251 0.430076
Si Si6 0.731478 0.340525 0.570540
Si Si7 0.677028 0.573883 0.623242
Si Si8 0.575931 0.931072 0.949302
O O1 0.171116 0.658313 0.949491
O O2 0.295276 0.685371 0.913007
O O3 0.036173 0.863920 0.830208
O O4 0.367501 0.899307 0.016306
O O5 0.188423 0.826793 0.694184
O O6 0.206894 0.653891 0.781225
O O7 0.352627 0.911424 0.850927
O O8 0.458324 0.660123 0.791110
O O9 0.250785 0.754506 0.624212
O O10 0.111760 0.555798 0.630081
O O11 0.645436 0.851512 0.927126
O O12 0.793269 0.586552 0.974384
O O13 0.094553 0.605158 0.386096
O O14 0.739328 0.412146 0.630260
O O15 0.542723 0.419264 0.462842
O O16 0.677649 0.168498 0.538248
#
# Coordination Sequence:
#
# PCOD9227977 Si02
#       8
#     4   4   4   4   4   4   4   4
#     4  10  19  31  50  73 100 134 167 199 250 309
#     4   9  18  31  48  71  97 129 168 203 247 301
#     4   9  17  30  53  75  94 129 168 203 250 304
#     4   9  17  32  53  74  97 126 167 210 249 294
#     4   9  17  31  49  74 101 125 160 202 248 299
#     4   8  16  29  49  73  94 122 161 201 243 289
#     4   9  16  30  51  71  95 126 161 204 247 294
#     4   9  18  33  51  72  99 129 165 211 249 290
#
# _framework density 19.113413000000001
#
# number of rings (size 3 to 8) (size 9 to 14) (size 15 to 20)
#    0.000    3.000    0.000    1.500    0.000    2.000 
#    0.000    5.000    0.000   31.500    0.000    0.000 
#    0.000    0.000    0.000    0.000    0.000    0.000 
#
# Total GULP energy -178143.974237 kJ/mol
# GULP energy per Si atom -5566.999195 kJ/mol
# Density = 1.906991 g / cm^3
# Si number density = 19.113413 Si / 1000 Ang^3
#
#
#
# Elastic Constant Matrix: (Units=GPa)
#
#
# Indices 1 2 3 4 5 6 
#
# 1 77.3738 10.1131 22.7818 0.0000 -3.7628 0.0000
# 2 10.1131 48.6354 25.0953 0.0000 -2.6286 0.0000
# 3 22.7818 25.0953 59.0404 0.0000 2.3922 0.0000
# 4 0.0000 0.0000 0.0000 25.7000 0.0000 5.2287
# 5 -3.7628 -2.6286 2.3922 0.0000 32.6565 0.0000
# 6 0.0000 0.0000 0.0000 5.2287 0.0000 11.1559
#
#
#
# Elastic Compliance Matrix: (Units=1/GPa)
#
#
# Indices 1 2 3 4 5 6 
#
# 1 0.014726 0.000037 -0.005784 0.000000 0.002123 0.000000
# 2 0.000037 0.026624 -0.011452 0.000000 0.002986 0.000000
# 3 -0.005784 -0.011452 0.024173 0.000000 -0.003359 0.000000
# 4 0.000000 0.000000 0.000000 0.043012 0.000000 -0.020160
# 5 0.002123 0.002986 -0.003359 0.000000 0.031353 0.000000
# 6 0.000000 0.000000 0.000000 -0.020160 0.000000 0.099087
#
#
# Mechanical properties :
#
#
# Convention : Reuss Voigt Hill
#
# Bulk Modulus (GPa) = 32.12817 33.44778 32.78797
# Shear Modulus (GPa) = 17.62129 22.37309 19.99719
#
# Velocity S-wave (km/s) = 3.03963 3.42503 3.23807
# Velocity P-wave (km/s) = 5.40045 5.76010 5.58317
#
# Compressibility (1/GPa) = 0.03112533
#
# Stress axis : x y z
#
# Youngs Moduli (GPa) = 67.90843 37.56032 41.36815
#
# Poissons Ratio (x) = -0.00140 0.23927
# Poissons Ratio (y) = -0.00253 0.47374
# Poissons Ratio (z) = 0.39278 0.43014
#
# Static dielectric constant tensor:
#      x y z
#    x 1.749270 0.000000 -0.001730 
#    y 0.000000 1.675440 0.000000 
#    z -0.001730 0.000000 1.700360 
# 
# From -- ./inp_files/92859.got.cif
#   From: 2010.05.17/outbox.cif.g08.bks.cpg/sg13_47_cif.got.tgz:92859.got - 2010.06.03 16:44:36.
