data_PCOD9227828
_publ_section_title
;
Structure prediction by ZEFSAII (Michael W. Deem and Ramdas Pophale) SiO2 
 PCOD9227828
Probable space group: P 2/C
;
_chemical_formula_sum "Si O2"
_cell_formula_units_Z 32
_cell_length_a 13.119943
_cell_length_b 26.070741
_cell_length_c 5.318521
_cell_angle_alpha 90.000000
_cell_angle_beta 87.995284
_cell_angle_gamma 90.000000
_cell_volume 1818.068787
_symmetry_space_group_name_H-M "P 2/C"
_symmetry_group_IT_number 13
_symmetry_cell_setting 'monoclinic'
loop_
_space_group_symop_operation_xyz
x,y,z
-x,y,1/2-z
-x,-y,-z
x,-y,1/2+z
loop_
_atom_site_type_symbol
_atom_site_label
_atom_site_fract_x
_atom_site_fract_y
_atom_site_fract_z
Si Si1 0.187432 0.147430 0.268950
Si Si2 0.115146 0.203164 0.774987
Si Si3 0.122092 0.032487 0.235589
Si Si4 0.615419 0.215358 0.268349
Si Si5 0.186193 0.517900 0.320562
Si Si6 0.325705 0.391803 0.809548
Si Si7 0.389772 0.554294 0.807566
Si Si8 0.312550 0.729070 0.238438
O O1 0.140873 0.165684 0.538888
O O2 0.178432 0.086696 0.244185
O O3 0.301879 0.169869 0.248839
O O4 0.129615 0.173746 0.038125
O O5 0.197771 0.248571 0.758268
O O6 0.000000 0.221305 0.750000
O O7 0.000000 0.042975 0.250000
O O8 0.145065 0.997932 0.477400
O O9 0.500000 0.197281 0.250000
O O10 0.630046 0.244477 0.531803
O O11 0.641174 0.252936 0.031974
O O12 0.132202 0.501719 0.578269
O O13 0.218671 0.576932 0.308102
O O14 0.294741 0.485273 0.318863
O O15 0.387703 0.415313 0.569473
O O16 0.315831 0.331631 0.773470
O O17 0.371066 0.407351 0.075827
O O18 0.500000 0.529522 0.750000
#
# Coordination Sequence:
#
# PCOD9227828 Si02
#       8
#     4   4   4   4   4   4   4   4
#     4  10  20  34  53  75 101 135 166 192 232 286
#     4  10  19  33  53  74  98 127 161 199 239 290
#     4  10  19  30  48  76 106 129 152 191 242 289
#     4  10  21  36  51  68  95 131 170 205 232 269
#     4   8  16  27  38  52  75 106 143 178 219 273
#     4  10  19  29  40  57  84 111 141 184 232 276
#     4  10  19  28  39  56  79 112 151 185 223 276
#     4  10  21  33  48  72  95 121 161 204 245 285
#
# _framework density 17.601094
#
# number of rings (size 3 to 8) (size 9 to 14) (size 15 to 20)
#    0.000    2.250    0.000    3.375    0.000    8.500 
#    0.000    0.000    0.000    0.750    0.000    0.000 
#    0.000    9.000    0.000    0.000    0.000   13.750 
#
# Total GULP energy -178551.949801 kJ/mol
# GULP energy per Si atom -5579.748431 kJ/mol
# Density = 1.756103 g / cm^3
# Si number density = 17.601094 Si / 1000 Ang^3
#
#
#
# Elastic Constant Matrix: (Units=GPa)
#
#
# Indices 1 2 3 4 5 6 
#
# 1 65.2215 16.7595 12.4475 0.0000 15.0538 0.0000
# 2 16.7595 98.9786 20.5437 0.0000 8.5312 0.0000
# 3 12.4475 20.5437 126.5323 0.0000 13.9409 0.0000
# 4 0.0000 0.0000 0.0000 19.2295 0.0000 2.4704
# 5 15.0538 8.5312 13.9409 0.0000 9.7917 0.0000
# 6 0.0000 0.0000 0.0000 2.4704 0.0000 4.3104
#
#
#
# Elastic Compliance Matrix: (Units=1/GPa)
#
#
# Indices 1 2 3 4 5 6 
#
# 1 0.024323 -0.001164 0.002140 0.000000 -0.039427 0.000000
# 2 -0.001164 0.011059 -0.000969 0.000000 -0.006466 0.000000
# 3 0.002140 -0.000969 0.009630 0.000000 -0.016157 0.000000
# 4 0.000000 0.000000 0.000000 0.056137 0.000000 -0.032174
# 5 -0.039427 -0.006466 -0.016157 0.000000 0.191379 0.000000
# 6 0.000000 0.000000 0.000000 -0.032174 0.000000 0.250436
#
#
# Mechanical properties :
#
#
# Convention : Reuss Voigt Hill
#
# Bulk Modulus (GPa) = 22.20909 43.35928 32.78419
# Shear Modulus (GPa) = 8.96124 22.73178 15.84651
#
# Velocity S-wave (km/s) = 2.25884 3.59764 3.00378
# Velocity P-wave (km/s) = 4.41005 6.47652 5.54048
#
# Compressibility (1/GPa) = 0.04502661
#
# Stress axis : x y z
#
# Youngs Moduli (GPa) = 41.11272 90.42648 103.84260
#
# Poissons Ratio (x) = 0.10529 -0.22225
# Poissons Ratio (y) = 0.04787 0.10058
# Poissons Ratio (z) = -0.08799 0.08758
#
# Static dielectric constant tensor:
#      x y z
#    x 1.597100 0.000000 0.003210 
#    y 0.000000 1.562670 0.000000 
#    z 0.003210 0.000000 1.655840 
# 
# From -- ./inp_files/4363.got.cif
#   From: 2010.05.17/outbox.cif.g08.bks.cpg/sg13_3_cif.got.tgz:4363.got - 2010.06.03 16:44:36.
