data_PCOD9227759
_publ_section_title
;
Structure prediction by ZEFSAII (Michael W. Deem and Ramdas Pophale) SiO2 
 PCOD9227759
Probable space group: P 2/C
;
_chemical_formula_sum "Si O2"
_cell_formula_units_Z 30
_cell_length_a 15.433756
_cell_length_b 8.532456
_cell_length_c 24.835348
_cell_angle_alpha 90.000000
_cell_angle_beta 153.968921
_cell_angle_gamma 90.000000
_cell_volume 1435.292998
_symmetry_space_group_name_H-M "P 2/C"
_symmetry_group_IT_number 13
_symmetry_cell_setting 'monoclinic'
loop_
_space_group_symop_operation_xyz
x,y,z
-x,y,1/2-z
-x,-y,-z
x,-y,1/2+z
loop_
_atom_site_type_symbol
_atom_site_label
_atom_site_fract_x
_atom_site_fract_y
_atom_site_fract_z
Si Si1 0.439653 0.628931 0.422026
Si Si2 0.162663 0.774999 0.007496
Si Si3 0.812920 0.181287 0.378554
Si Si4 0.165501 0.174840 0.385543
Si Si5 0.294486 0.565642 0.601045
Si Si6 0.638601 0.123069 0.546137
Si Si7 0.500000 0.057551 0.750000
Si Si8 0.553184 0.645505 0.647504
O O1 0.500000 0.500000 0.500000
O O2 0.634914 0.725188 0.513372
O O3 0.295530 0.752504 0.371099
O O4 0.372972 0.518758 0.336100
O O5 0.173092 0.593961 0.030388
O O6 0.381496 0.840480 0.140598
O O7 0.104887 0.797797 0.913325
O O8 0.019575 0.866773 0.968394
O O9 0.824013 0.295541 0.436161
O O10 0.653187 0.051630 0.304135
O O11 0.718410 0.281801 0.277361
O O12 0.000000 0.223984 0.250000
O O13 0.210160 0.990607 0.399795
O O14 0.500000 0.545502 0.750000
O O15 0.366210 0.610562 0.581459
O O16 0.513992 0.228099 0.434605
O O17 0.500000 0.000000 0.500000
#
# Coordination Sequence:
#
# PCOD9227759 Si02
#       8
#     4   4   4   4   4   4   2   4
#     4   9  19  37  66  86 117 168 220 256 317 390
#     4  12  25  41  69  98 130 178 220 272 332 396
#     4  11  24  41  70  98 130 171 218 277 331 399
#     4  11  24  40  58  95 135 166 214 276 322 387
#     4  10  20  42  65  93 133 166 214 275 328 381
#     4   9  20  37  60  88 126 171 218 258 320 388
#     4  12  24  46  66  96 138 168 218 272 334 396
#     4  10  18  39  67  93 123 172 217 266 335 380
#
# _framework density 20.901654000000001
#
# number of rings (size 3 to 8) (size 9 to 14) (size 15 to 20)
#    0.000    1.600    4.000    1.600    5.600    0.000 
#    0.000    4.000    2.933    0.000    0.000    0.000 
#    0.000    0.000    0.000    0.000    0.000    0.000 
#
# Total GULP energy -167415.522239 kJ/mol
# GULP energy per Si atom -5580.517408 kJ/mol
# Density = 2.085408 g / cm^3
# Si number density = 20.901654 Si / 1000 Ang^3
#
#
#
# Elastic Constant Matrix: (Units=GPa)
#
#
# Indices 1 2 3 4 5 6 
#
# 1 82.7020 3.0499 -2.5407 0.0000 -6.7644 0.0000
# 2 3.0499 55.5389 2.5103 0.0000 -6.3476 0.0000
# 3 -2.5407 2.5103 37.6921 0.0000 -8.1798 0.0000
# 4 0.0000 0.0000 0.0000 23.0498 0.0000 -10.4127
# 5 -6.7644 -6.3476 -8.1798 0.0000 30.4060 0.0000
# 6 0.0000 0.0000 0.0000 -10.4127 0.0000 22.2685
#
#
#
# Elastic Compliance Matrix: (Units=1/GPa)
#
#
# Indices 1 2 3 4 5 6 
#
# 1 0.012406 -0.000397 0.001533 0.000000 0.003089 0.000000
# 2 -0.000397 0.018464 -0.000466 0.000000 0.003641 0.000000
# 3 0.001533 -0.000466 0.028375 0.000000 0.007877 0.000000
# 4 0.000000 0.000000 0.000000 0.055003 0.000000 0.025719
# 5 0.003089 0.003641 0.007877 0.000000 0.036455 0.000000
# 6 0.000000 0.000000 0.000000 0.025719 0.000000 0.056933
#
#
# Mechanical properties :
#
#
# Convention : Reuss Voigt Hill
#
# Bulk Modulus (GPa) = 16.50611 20.21912 18.36262
# Shear Modulus (GPa) = 22.07590 26.67243 24.37416
#
# Velocity S-wave (km/s) = 3.25342 3.57612 3.41858
# Velocity P-wave (km/s) = 4.69331 5.17165 4.93827
#
# Compressibility (1/GPa) = 0.06058361
#
# Stress axis : x y z
#
# Youngs Moduli (GPa) = 80.60580 54.15825 35.24280
#
# Poissons Ratio (x) = 0.02153 -0.05403
# Poissons Ratio (y) = 0.03204 0.01644
# Poissons Ratio (z) = -0.12358 0.02526
#
# Static dielectric constant tensor:
#      x y z
#    x 1.791980 0.000000 0.016390 
#    y 0.000000 1.765150 0.000000 
#    z 0.016390 0.000000 1.744010 
# 
# From -- ./inp_files/87331.got.cif
#   From: 2010.05.17/outbox.cif.g08.bks.cpg/sg13_44_cif.got.tgz:87331.got - 2010.06.03 16:44:36.
