data_PCOD9227115
_publ_section_title
;
Structure prediction by ZEFSAII (Michael W. Deem and Ramdas Pophale) SiO2 
 PCOD9227115
Probable space group: P 2/C
;
_chemical_formula_sum "Si O2"
_cell_formula_units_Z 24
_cell_length_a 23.509407
_cell_length_b 9.942321
_cell_length_c 10.230237
_cell_angle_alpha 90.000000
_cell_angle_beta 156.296605
_cell_angle_gamma 90.000000
_cell_volume 961.265597
_symmetry_space_group_name_H-M "P 2/C"
_symmetry_group_IT_number 13
_symmetry_cell_setting 'monoclinic'
loop_
_space_group_symop_operation_xyz
x,y,z
-x,y,1/2-z
-x,-y,-z
x,-y,1/2+z
loop_
_atom_site_type_symbol
_atom_site_label
_atom_site_fract_x
_atom_site_fract_y
_atom_site_fract_z
Si Si1 0.331151 0.307430 0.814948
Si Si2 0.706810 0.396524 0.173705
Si Si3 0.927554 0.374388 0.422056
Si Si4 0.832671 0.082973 0.878809
Si Si5 0.525349 0.344059 0.014746
Si Si6 0.884159 0.109014 0.706828
O O1 0.337735 0.446711 0.909271
O O2 0.210358 0.341530 0.454372
O O3 0.266040 0.185606 0.754920
O O4 0.474724 0.271080 0.039326
O O5 0.857007 0.398177 0.416767
O O6 0.674393 0.338333 0.251368
O O7 0.595635 0.319299 0.848110
O O8 0.000000 0.500000 0.500000
O O9 0.031217 0.246971 0.632199
O O10 0.000000 0.125369 0.250000
O O11 0.826209 0.942051 0.944993
O O12 0.788397 0.095141 0.634309
O O13 0.500000 0.500000 0.000000
O O14 0.000000 0.000000 0.000000
#
# Coordination Sequence:
#
# PCOD9227115 Si02
#       6
#     4   4   4   4   4   4
#     4  10  18  33  53  79 115 150 184 242 297 349
#     4   9  18  30  51  80 114 145 185 240 299 352
#     4  11  21  33  51  83 122 149 188 245 299 344
#     4  10  19  35  57  76 113 157 199 231 285 360
#     4   8  16  32  51  76 113 144 187 232 304 355
#     4  10  20  37  54  76 113 159 197 224 286 363
#
# _framework density 24.967085999999998
#
# number of rings (size 3 to 8) (size 9 to 14) (size 15 to 20)
#    0.000    2.333    3.333    1.000    0.000    0.000 
#    9.000    0.000    3.667    0.000    0.000    7.000 
#   20.000    0.000    0.000    0.000    0.000    0.000 
#
# Total GULP energy -133995.167721 kJ/mol
# GULP energy per Si atom -5583.131988 kJ/mol
# Density = 2.491026 g / cm^3
# Si number density = 24.967086 Si / 1000 Ang^3
#
#
#
# Elastic Constant Matrix: (Units=GPa)
#
#
# Indices 1 2 3 4 5 6 
#
# 1 243.6016 81.9609 50.9797 0.0000 48.4898 0.0000
# 2 81.9609 117.4219 27.2727 0.0000 8.7362 0.0000
# 3 50.9797 27.2727 99.5638 0.0000 22.3722 0.0000
# 4 0.0000 0.0000 0.0000 18.7828 0.0000 -1.1172
# 5 48.4898 8.7362 22.3722 0.0000 47.6526 0.0000
# 6 0.0000 0.0000 0.0000 -1.1172 0.0000 41.0554
#
#
#
# Elastic Compliance Matrix: (Units=1/GPa)
#
#
# Indices 1 2 3 4 5 6 
#
# 1 0.006851 -0.004101 -0.001103 0.000000 -0.005701 0.000000
# 2 -0.004101 0.011564 -0.001709 0.000000 0.002856 0.000000
# 3 -0.001103 -0.001709 0.012023 0.000000 -0.004208 0.000000
# 4 0.000000 0.000000 0.000000 0.053327 0.000000 0.001451
# 5 -0.005701 0.002856 -0.004208 0.000000 0.028239 0.000000
# 6 0.000000 0.000000 0.000000 0.001451 0.000000 0.024397
#
#
# Mechanical properties :
#
#
# Convention : Reuss Voigt Hill
#
# Bulk Modulus (GPa) = 60.20786 86.77934 73.49360
# Shear Modulus (GPa) = 32.09999 41.52309 36.81154
#
# Velocity S-wave (km/s) = 3.58955 4.08255 3.84396
# Velocity P-wave (km/s) = 6.43017 7.55354 7.01438
#
# Compressibility (1/GPa) = 0.01660913
#
# Stress axis : x y z
#
# Youngs Moduli (GPa) = 145.96968 86.47814 83.17712
#
# Poissons Ratio (x) = 0.35468 0.09176
# Poissons Ratio (y) = 0.59868 0.14217
# Poissons Ratio (z) = 0.16104 0.14781
#
# Static dielectric constant tensor:
#      x y z
#    x 2.205500 0.000000 -0.040930 
#    y 0.000000 1.959870 0.000000 
#    z -0.040930 0.000000 2.077450 
# 
# From -- ./inp_files/41656.got.cif
#   From: 2010.05.17/outbox.cif.g08.bks.cpg/sg13_21_cif.got.tgz:41656.got - 2010.06.03 16:44:36.
