data_PCOD9227533
_publ_section_title
;
Structure prediction by ZEFSAII (Michael W. Deem and Ramdas Pophale) SiO2 
 PCOD9227533
Probable space group: P 2/C
;
_chemical_formula_sum "Si O2"
_cell_formula_units_Z 24
_cell_length_a 12.246566
_cell_length_b 14.409603
_cell_length_c 15.237468
_cell_angle_alpha 90.000000
_cell_angle_beta 29.002169
_cell_angle_gamma 90.000000
_cell_volume 1303.707120
_symmetry_space_group_name_H-M "P 2/C"
_symmetry_group_IT_number 13
_symmetry_cell_setting 'monoclinic'
loop_
_space_group_symop_operation_xyz
x,y,z
-x,y,1/2-z
-x,-y,-z
x,-y,1/2+z
loop_
_atom_site_type_symbol
_atom_site_label
_atom_site_fract_x
_atom_site_fract_y
_atom_site_fract_z
Si Si1 0.263516 0.752947 0.068507
Si Si2 0.451294 0.865466 0.491989
Si Si3 0.756814 0.029962 0.208256
Si Si4 0.299823 0.572474 0.147832
Si Si5 0.563537 0.677201 0.103280
Si Si6 0.000000 0.551599 0.750000
Si Si7 0.500000 0.843465 0.750000
O O1 0.375950 0.823647 0.057782
O O2 0.326203 0.650695 0.055331
O O3 0.000000 0.762846 0.250000
O O4 0.347530 0.777662 0.914555
O O5 0.256133 0.913674 0.689179
O O6 0.390768 0.778074 0.473119
O O7 0.588882 0.943297 0.342222
O O8 0.647095 0.094098 0.211182
O O9 0.000000 0.000000 0.000000
O O10 0.351243 0.628354 0.201590
O O11 0.078224 0.514480 0.276374
O O12 0.500000 0.500000 0.000000
O O13 0.500000 0.685216 0.250000
O O14 0.786321 0.614474 0.928889
#
# Coordination Sequence:
#
# PCOD9227533 Si02
#       7
#     4   4   4   4   4   2   2
#     4  10  18  36  59  83 114 152 187 239 298 336
#     4   9  21  37  55  86 122 149 193 244 283 346
#     4  10  20  38  59  84 117 152 193 239 291 350
#     4   9  19  38  59  84 119 151 194 249 289 346
#     4  10  22  38  59  87 122 158 197 240 291 358
#     4  10  20  40  60  86 118 158 196 244 302 340
#     4  10  22  34  58  92 108 146 200 236 280 356
#
# _framework density 18.409041999999999
#
# number of rings (size 3 to 8) (size 9 to 14) (size 15 to 20)
#    0.000    2.333    0.833    1.000    1.167    2.000 
#    6.000    8.333    0.000    0.000    0.000    0.000 
#    0.000    0.000    0.000    0.000    0.000    0.000 
#
# Total GULP energy -133670.726802 kJ/mol
# GULP energy per Si atom -5569.613617 kJ/mol
# Density = 1.836714 g / cm^3
# Si number density = 18.409042 Si / 1000 Ang^3
#
#
#
# Elastic Constant Matrix: (Units=GPa)
#
#
# Indices 1 2 3 4 5 6 
#
# 1 89.3995 59.5773 70.1385 0.0000 17.8942 0.0000
# 2 59.5773 105.9458 68.2913 0.0000 17.3531 0.0000
# 3 70.1385 68.2913 137.7561 0.0000 15.4804 0.0000
# 4 0.0000 0.0000 0.0000 13.4583 0.0000 -5.0227
# 5 17.8942 17.3531 15.4804 0.0000 30.2532 0.0000
# 6 0.0000 0.0000 0.0000 -5.0227 0.0000 8.8761
#
#
#
# Elastic Compliance Matrix: (Units=1/GPa)
#
#
# Indices 1 2 3 4 5 6 
#
# 1 0.022982 -0.007151 -0.007522 0.000000 -0.005643 0.000000
# 2 -0.007151 0.016759 -0.004310 0.000000 -0.003178 0.000000
# 3 -0.007522 -0.004310 0.013208 0.000000 0.000163 0.000000
# 4 0.000000 0.000000 0.000000 0.094196 0.000000 0.053303
# 5 -0.005643 -0.003178 0.000163 0.000000 0.038131 0.000000
# 6 0.000000 0.000000 0.000000 0.053303 0.000000 0.142825
#
#
# Mechanical properties :
#
#
# Convention : Reuss Voigt Hill
#
# Bulk Modulus (GPa) = 66.74637 81.01285 73.87961
# Shear Modulus (GPa) = 13.47487 19.52380 16.49934
#
# Velocity S-wave (km/s) = 2.70843 3.26015 2.99701
# Velocity P-wave (km/s) = 6.79094 7.63375 7.22464
#
# Compressibility (1/GPa) = 0.01498209
#
# Stress axis : x y z
#
# Youngs Moduli (GPa) = 43.51181 59.67099 75.71424
#
# Poissons Ratio (x) = 0.42669 0.56955
# Poissons Ratio (y) = 0.31114 0.32633
# Poissons Ratio (z) = 0.32731 0.25718
#
# Static dielectric constant tensor:
#      x y z
#    x 1.605490 0.000000 -0.049670 
#    y 0.000000 1.647820 0.000000 
#    z -0.049670 0.000000 1.546820 
# 
# From -- ./inp_files/43940.got.cif
#   From: 2010.05.17/outbox.cif.g08.bks.cpg/sg13_22_cif.got.tgz:43940.got - 2010.06.03 16:44:36.
