data_PCOD9227359
_publ_section_title
;
Structure prediction by ZEFSAII (Michael W. Deem and Ramdas Pophale) SiO2 
 PCOD9227359
Probable space group: P 2/C
;
_chemical_formula_sum "Si O2"
_cell_formula_units_Z 24
_cell_length_a 10.606578
_cell_length_b 7.439078
_cell_length_c 12.990121
_cell_angle_alpha 90.000000
_cell_angle_beta 96.275876
_cell_angle_gamma 90.000000
_cell_volume 1018.819086
_symmetry_space_group_name_H-M "P 2/C"
_symmetry_group_IT_number 13
_symmetry_cell_setting 'monoclinic'
loop_
_space_group_symop_operation_xyz
x,y,z
-x,y,1/2-z
-x,-y,-z
x,-y,1/2+z
loop_
_atom_site_type_symbol
_atom_site_label
_atom_site_fract_x
_atom_site_fract_y
_atom_site_fract_z
Si Si1 0.171272 0.341689 0.488032
Si Si2 0.323483 0.117861 0.921685
Si Si3 0.574756 0.742538 0.550473
Si Si4 0.099206 0.241015 0.024414
Si Si5 0.629751 0.423841 0.712701
Si Si6 0.134986 0.635057 0.744327
O O1 0.315908 0.289547 0.526494
O O2 0.145506 0.554368 0.501453
O O3 0.166221 0.306633 0.363444
O O4 0.048416 0.240117 0.521487
O O5 0.299687 0.253277 0.827647
O O6 0.380953 0.928610 0.893332
O O7 0.435498 0.216335 0.996128
O O8 0.195980 0.109196 0.976908
O O9 0.580168 0.570820 0.624376
O O10 0.108706 0.226574 0.149544
O O11 0.500000 0.359944 0.750000
O O12 0.741517 0.526964 0.781258
O O13 0.000000 0.534400 0.750000
#
# Coordination Sequence:
#
# PCOD9227359 Si02
#       6
#     4   4   4   4   4   4
#     4   9  19  35  58  86 114 152 189 235 287 337
#     4  11  22  37  58  86 114 153 197 235 286 351
#     4  10  22  38  56  83 119 150 192 241 285 343
#     4  10  18  34  62  86 113 150 194 234 283 347
#     4  11  22  37  59  82 114 156 190 238 295 335
#     4   9  18  33  57  86 112 147 191 234 285 341
#
# _framework density 23.556683
#
# number of rings (size 3 to 8) (size 9 to 14) (size 15 to 20)
#    0.000    2.000    3.333    1.500    2.333    1.333 
#    0.000    1.667    0.000    4.000    0.000    0.000 
#    0.000    0.000    0.000    0.000    0.000    0.000 
#
# Total GULP energy -133826.714614 kJ/mol
# GULP energy per Si atom -5576.113109 kJ/mol
# Density = 2.350307 g / cm^3
# Si number density = 23.556683 Si / 1000 Ang^3
#
#
#
# Elastic Constant Matrix: (Units=GPa)
#
#
# Indices 1 2 3 4 5 6 
#
# 1 126.0041 -12.8275 7.8765 0.0000 -4.1345 0.0000
# 2 -12.8275 64.3844 4.1606 0.0000 -0.3724 0.0000
# 3 7.8765 4.1606 36.4189 0.0000 -11.9866 0.0000
# 4 0.0000 0.0000 0.0000 0.6198 0.0000 -5.9376
# 5 -4.1345 -0.3724 -11.9866 0.0000 31.0799 0.0000
# 6 0.0000 0.0000 0.0000 -5.9376 0.0000 32.2356
#
#
#
# Elastic Compliance Matrix: (Units=1/GPa)
#
#
# Indices 1 2 3 4 5 6 
#
# 1 0.008245 0.001765 -0.001852 0.000000 0.000404 0.000000
# 2 0.001765 0.016034 -0.002374 0.000000 -0.000489 0.000000
# 3 -0.001852 -0.002374 0.032116 0.000000 0.012112 0.000000
# 4 0.000000 0.000000 0.000000 -2.110246 0.000000 -0.388693
# 5 0.000404 -0.000489 0.012112 0.000000 0.036894 0.000000
# 6 0.000000 0.000000 0.000000 -0.388693 0.000000 -0.040573
#
#
# Mechanical properties :
#
#
# Convention : Reuss Voigt Hill
#
# Bulk Modulus (GPa) = 19.42801 25.02518 22.22659
# Shear Modulus (GPa) = -2.45646 27.96024 12.75189
#
# Velocity S-wave (km/s) = -1.02228 3.44893 2.32917
# Velocity P-wave (km/s) = 2.62142 5.14846 4.08524
#
# Compressibility (1/GPa) = 0.05147208
#
# Stress axis : x y z
#
# Youngs Moduli (GPa) = 121.28699 62.36787 31.13685
#
# Poissons Ratio (x) = -0.11006 0.05766
# Poissons Ratio (y) = -0.21403 0.07393
# Poissons Ratio (z) = 0.22461 0.14808
#
# Static dielectric constant tensor:
#      x y z
#    x 1.972420 0.000000 -0.011210 
#    y 0.000000 1.884120 0.000000 
#    z -0.011210 0.000000 2.006000 
# 
# From -- ./inp_files/49308.got.cif
#   From: 2010.05.17/outbox.cif.g08.bks.cpg/sg13_25_cif.got.tgz:49308.got - 2010.06.03 16:44:36.
