data_PCOD9227277
_publ_section_title
;
Structure prediction by ZEFSAII (Michael W. Deem and Ramdas Pophale) SiO2 
 PCOD9227277
Probable space group: P 2/C
;
_chemical_formula_sum "Si O2"
_cell_formula_units_Z 30
_cell_length_a 21.326720
_cell_length_b 9.457626
_cell_length_c 15.396402
_cell_angle_alpha 90.000000
_cell_angle_beta 149.687100
_cell_angle_gamma 90.000000
_cell_volume 1567.392204
_symmetry_space_group_name_H-M "P 2/C"
_symmetry_group_IT_number 13
_symmetry_cell_setting 'monoclinic'
loop_
_space_group_symop_operation_xyz
x,y,z
-x,y,1/2-z
-x,-y,-z
x,-y,1/2+z
loop_
_atom_site_type_symbol
_atom_site_label
_atom_site_fract_x
_atom_site_fract_y
_atom_site_fract_z
Si Si1 0.342562 0.090568 0.218224
Si Si2 0.306035 0.228912 0.678452
Si Si3 0.138175 0.682199 0.448114
Si Si4 0.223410 0.526833 0.193480
Si Si5 0.500000 0.807842 0.750000
Si Si6 0.292392 0.417411 0.965400
Si Si7 0.362008 0.736930 0.064231
Si Si8 0.580390 0.295638 0.044899
O O1 0.421430 0.099784 0.223870
O O2 0.418158 0.188485 0.374541
O O3 0.323094 0.932120 0.226945
O O4 0.212097 0.172440 0.052817
O O5 0.223314 0.328358 0.639127
O O6 0.272973 0.221542 0.536589
O O7 0.440800 0.305296 0.843967
O O8 0.142828 0.584579 0.540555
O O9 0.215178 0.610342 0.460957
O O10 0.000000 0.704193 0.250000
O O11 0.208973 0.564737 0.278308
O O12 0.356177 0.442952 0.353630
O O13 0.397210 0.704483 0.582272
O O14 0.360056 0.566881 0.058905
O O15 0.500000 0.791112 0.250000
O O16 0.337246 0.773096 0.934524
#
# Coordination Sequence:
#
# PCOD9227277 Si02
#       8
#     4   4   4   4   2   4   4   4
#     4  10  22  35  52  79 113 152 179 218 269 334
#     4  11  19  32  52  82 118 143 176 217 273 336
#     4  10  22  41  58  75 107 149 194 233 274 320
#     4  10  20  34  58  84 107 143 183 230 277 321
#     4  10  20  32  52  82 122 148 180 210 276 340
#     4  10  18  34  57  86 108 142 180 227 275 331
#     4   9  17  28  51  79 112 139 168 213 269 323
#     4   9  19  31  50  80 115 148 171 208 271 339
#
# _framework density 19.140070999999999
#
# number of rings (size 3 to 8) (size 9 to 14) (size 15 to 20)
#    0.000    2.133    2.000    1.600    2.800    0.533 
#    2.400    0.667    0.000    0.800    0.000    0.000 
#    0.000    0.000    0.000    0.000    0.000    0.000 
#
# Total GULP energy -167060.173028 kJ/mol
# GULP energy per Si atom -5568.672434 kJ/mol
# Density = 1.909651 g / cm^3
# Si number density = 19.140071 Si / 1000 Ang^3
#
#
#
# Elastic Constant Matrix: (Units=GPa)
#
#
# Indices 1 2 3 4 5 6 
#
# 1 32.1502 10.2625 19.8260 0.0000 -18.9337 0.0000
# 2 10.2625 62.8921 -4.5876 0.0000 -4.9367 0.0000
# 3 19.8260 -4.5876 68.0654 0.0000 -4.4624 0.0000
# 4 0.0000 0.0000 0.0000 3.6532 0.0000 -1.4349
# 5 -18.9337 -4.9367 -4.4624 0.0000 26.8793 0.0000
# 6 0.0000 0.0000 0.0000 -1.4349 0.0000 10.0004
#
#
#
# Elastic Compliance Matrix: (Units=1/GPa)
#
#
# Indices 1 2 3 4 5 6 
#
# 1 0.073492 -0.009701 -0.018990 0.000000 0.046833 0.000000
# 2 -0.009701 0.017527 0.003812 0.000000 -0.002982 0.000000
# 3 -0.018990 0.003812 0.019865 0.000000 -0.009379 0.000000
# 4 0.000000 0.000000 0.000000 0.290083 0.000000 0.041622
# 5 0.046833 -0.002982 -0.009379 0.000000 0.068088 0.000000
# 6 0.000000 0.000000 0.000000 0.041622 0.000000 0.105968
#
#
# Mechanical properties :
#
#
# Convention : Reuss Voigt Hill
#
# Bulk Modulus (GPa) = 16.35991 23.78993 20.07492
# Shear Modulus (GPa) = 7.75005 17.28036 12.51520
#
# Velocity S-wave (km/s) = 2.01443 3.00798 2.55987
# Velocity P-wave (km/s) = 3.73853 4.95180 4.38731
#
# Compressibility (1/GPa) = 0.06112504
#
# Stress axis : x y z
#
# Youngs Moduli (GPa) = 13.60695 57.05403 50.33927
#
# Poissons Ratio (x) = 0.55349 0.95595
# Poissons Ratio (y) = 0.13200 -0.19187
# Poissons Ratio (z) = 0.25840 -0.21747
#
# Static dielectric constant tensor:
#      x y z
#    x 1.738590 0.000000 -0.054220 
#    y 0.000000 1.657930 0.000000 
#    z -0.054220 0.000000 1.681020 
# 
# From -- ./inp_files/58695.got.cif
#   From: 2010.05.17/outbox.cif.g08.bks.cpg/sg13_30_cif.got.tgz:58695.got - 2010.06.03 16:44:36.
