data_PCOD9227130
_publ_section_title
;
Structure prediction by ZEFSAII (Michael W. Deem and Ramdas Pophale) SiO2 
 PCOD9227130
Probable space group: P 2/C
;
_chemical_formula_sum "Si O2"
_cell_formula_units_Z 30
_cell_length_a 11.116460
_cell_length_b 8.835508
_cell_length_c 14.392940
_cell_angle_alpha 90.000000
_cell_angle_beta 116.201140
_cell_angle_gamma 90.000000
_cell_volume 1268.413382
_symmetry_space_group_name_H-M "P 2/C"
_symmetry_group_IT_number 13
_symmetry_cell_setting 'monoclinic'
loop_
_space_group_symop_operation_xyz
x,y,z
-x,y,1/2-z
-x,-y,-z
x,-y,1/2+z
loop_
_atom_site_type_symbol
_atom_site_label
_atom_site_fract_x
_atom_site_fract_y
_atom_site_fract_z
Si Si1 0.642004 0.969498 0.159284
Si Si2 0.500000 0.744291 0.250000
Si Si3 0.158738 0.658688 0.566452
Si Si4 0.724870 0.798411 0.438793
Si Si5 0.613966 0.868635 0.942789
Si Si6 0.898874 0.108860 0.828191
Si Si7 0.043435 0.165375 0.369141
Si Si8 0.954951 0.567049 0.332493
O O1 0.546914 0.117697 0.129087
O O2 0.593607 0.850724 0.219774
O O3 0.793610 0.998814 0.240165
O O4 0.632720 0.878289 0.059849
O O5 0.612132 0.683192 0.361116
O O6 0.294318 0.745029 0.578673
O O7 0.153945 0.520885 0.640379
O O8 0.064935 0.773104 0.593482
O O9 0.077463 0.601229 0.446804
O O10 0.841705 0.842370 0.407333
O O11 0.811879 0.761998 0.559047
O O12 0.655283 0.960260 0.429681
O O13 0.899825 0.270863 0.780986
O O14 0.037003 0.017910 0.880305
O O15 0.000000 0.192437 0.250000
O O16 0.000000 0.495049 0.250000
#
# Coordination Sequence:
#
# PCOD9227130 Si02
#       8
#     4   2   4   4   4   4   4   4
#     4   9  19  32  58  91 118 161 208 273 331 393
#     4   8  18  32  54  84 118 154 206 260 316 386
#     4  11  23  39  58  91 136 173 219 273 332 402
#     4  10  18  33  54  85 122 160 208 273 326 389
#     4  10  18  35  56  89 125 159 213 275 336 392
#     4  11  19  35  58  91 125 169 218 271 330 397
#     4  12  22  34  57  92 133 169 213 280 346 396
#     4  11  23  39  60  88 134 186 222 265 333 412
#
# _framework density 23.651596999999999
#
# number of rings (size 3 to 8) (size 9 to 14) (size 15 to 20)
#    0.000    1.600    2.667    3.600    0.000    0.000 
#    0.000    0.000    0.000    0.000   20.800    9.333 
#    0.000    0.133    0.000    0.000    0.000    0.000 
#
# Total GULP energy -167103.415578 kJ/mol
# GULP energy per Si atom -5570.113853 kJ/mol
# Density = 2.359776 g / cm^3
# Si number density = 23.651597 Si / 1000 Ang^3
#
#
#
# Elastic Constant Matrix: (Units=GPa)
#
#
# Indices 1 2 3 4 5 6 
#
# 1 112.2797 34.8327 56.0876 0.0000 -1.6444 0.0000
# 2 34.8327 84.9444 10.6948 0.0000 2.0261 0.0000
# 3 56.0876 10.6948 144.7014 0.0000 6.5369 0.0000
# 4 0.0000 0.0000 0.0000 5.6487 0.0000 -2.3263
# 5 -1.6444 2.0261 6.5369 0.0000 55.3986 0.0000
# 6 0.0000 0.0000 0.0000 -2.3263 0.0000 17.2746
#
#
#
# Elastic Compliance Matrix: (Units=1/GPa)
#
#
# Indices 1 2 3 4 5 6 
#
# 1 0.012668 -0.004639 -0.004616 0.000000 0.001090 0.000000
# 2 -0.004639 0.013588 0.000827 0.000000 -0.000732 0.000000
# 3 -0.004616 0.000827 0.008693 0.000000 -0.001193 0.000000
# 4 0.000000 0.000000 0.000000 0.187426 0.000000 0.025240
# 5 0.001090 -0.000732 -0.001193 0.000000 0.018251 0.000000
# 6 0.000000 0.000000 0.000000 0.025240 0.000000 0.061288
#
#
# Mechanical properties :
#
#
# Convention : Reuss Voigt Hill
#
# Bulk Modulus (GPa) = 55.27543 60.57287 57.92415
# Shear Modulus (GPa) = 15.39403 31.68508 23.53956
#
# Velocity S-wave (km/s) = 2.55398 3.66411 3.15820
# Velocity P-wave (km/s) = 5.66732 6.60053 6.15165
#
# Compressibility (1/GPa) = 0.01809122
#
# Stress axis : x y z
#
# Youngs Moduli (GPa) = 78.94125 73.59339 115.03591
#
# Poissons Ratio (x) = 0.34142 0.53106
# Poissons Ratio (y) = 0.36624 -0.09514
# Poissons Ratio (z) = 0.36443 -0.06086
#
# Static dielectric constant tensor:
#      x y z
#    x 2.229170 0.000000 -0.069690 
#    y 0.000000 1.966230 0.000000 
#    z -0.069690 0.000000 2.135630 
# 
# From -- ./inp_files/50403.got.cif
#   From: 2010.05.17/outbox.cif.g08.bks.cpg/sg13_26_cif.got.tgz:50403.got - 2010.06.03 16:44:36.
