data_PCOD9227093
_publ_section_title
;
Structure prediction by ZEFSAII (Michael W. Deem and Ramdas Pophale) SiO2 
 PCOD9227093
Probable space group: P 2/C
;
_chemical_formula_sum "Si O2"
_cell_formula_units_Z 28
_cell_length_a 17.346162
_cell_length_b 5.041054
_cell_length_c 21.596436
_cell_angle_alpha 90.000000
_cell_angle_beta 36.908866
_cell_angle_gamma 90.000000
_cell_volume 1134.100754
_symmetry_space_group_name_H-M "P 2/C"
_symmetry_group_IT_number 13
_symmetry_cell_setting 'monoclinic'
loop_
_space_group_symop_operation_xyz
x,y,z
-x,y,1/2-z
-x,-y,-z
x,-y,1/2+z
loop_
_atom_site_type_symbol
_atom_site_label
_atom_site_fract_x
_atom_site_fract_y
_atom_site_fract_z
Si Si1 0.187421 0.557807 0.016961
Si Si2 0.314957 0.511678 0.131722
Si Si3 0.560295 0.744052 0.145279
Si Si4 0.247035 0.976539 0.740182
Si Si5 0.414697 0.252373 0.444660
Si Si6 0.054483 0.249707 0.277208
Si Si7 0.905811 0.755340 0.551163
O O1 0.289793 0.321121 0.939128
O O2 0.266360 0.735778 0.014730
O O3 0.157368 0.718063 0.974669
O O4 0.057481 0.426714 0.123204
O O5 0.343604 0.224146 0.142864
O O6 0.178071 0.438148 0.187479
O O7 0.292250 0.725340 0.200697
O O8 0.401014 0.636909 0.022804
O O9 0.500000 0.812768 0.250000
O O10 0.514506 0.466201 0.144901
O O11 0.540648 0.963749 0.104943
O O12 0.208826 0.831125 0.827782
O O13 0.112791 0.958827 0.787745
O O14 0.000000 0.125498 0.250000
O O15 0.000000 0.500000 0.500000
O O16 0.000000 0.000000 0.500000
#
# Coordination Sequence:
#
# PCOD9227093 Si02
#       7
#     4   4   4   4   4   4   4
#     4  10  22  36  57  83 115 156 190 228 292 332
#     4  10  20  35  51  79 114 147 183 226 274 349
#     4  10  22  39  59  86 113 141 193 244 295 343
#     4  10  21  34  49  74 112 155 187 216 266 323
#     4  10  21  36  59  85 113 142 185 238 302 337
#     4  10  18  33  48  79 112 147 178 225 265 344
#     4  12  23  37  53  77 121 162 201 226 264 346
#
# _framework density 24.689166
#
# number of rings (size 3 to 8) (size 9 to 14) (size 15 to 20)
#    1.714    0.000    2.857    3.000    4.000    1.714 
#    0.000    0.000    0.000    0.000    0.000    6.000 
#    0.000    0.000    0.000    0.000    0.000    0.000 
#
# Total GULP energy -156332.938602 kJ/mol
# GULP energy per Si atom -5583.319236 kJ/mol
# Density = 2.463297 g / cm^3
# Si number density = 24.689166 Si / 1000 Ang^3
#
#
#
# Elastic Constant Matrix: (Units=GPa)
#
#
# Indices 1 2 3 4 5 6 
#
# 1 79.7727 1.2776 2.8892 0.0000 0.8812 0.0000
# 2 1.2776 117.9181 -18.2095 0.0000 2.1030 0.0000
# 3 2.8892 -18.2095 60.8389 0.0000 4.1857 0.0000
# 4 0.0000 0.0000 0.0000 28.0965 0.0000 4.5346
# 5 0.8812 2.1030 4.1857 0.0000 36.6131 0.0000
# 6 0.0000 0.0000 0.0000 4.5346 0.0000 27.0685
#
#
#
# Elastic Compliance Matrix: (Units=1/GPa)
#
#
# Indices 1 2 3 4 5 6 
#
# 1 0.012565 -0.000233 -0.000652 0.000000 -0.000215 0.000000
# 2 -0.000233 0.008920 0.002737 0.000000 -0.000820 0.000000
# 3 -0.000652 0.002737 0.017434 0.000000 -0.002135 0.000000
# 4 0.000000 0.000000 0.000000 0.036581 0.000000 -0.006128
# 5 -0.000215 -0.000820 -0.002135 0.000000 0.027609 0.000000
# 6 0.000000 0.000000 0.000000 -0.006128 0.000000 0.037970
#
#
# Mechanical properties :
#
#
# Convention : Reuss Voigt Hill
#
# Bulk Modulus (GPa) = 23.46037 25.60493 24.53265
# Shear Modulus (GPa) = 32.98547 36.52712 34.75629
#
# Velocity S-wave (km/s) = 3.65914 3.85057 3.75608
# Velocity P-wave (km/s) = 5.23214 5.49205 5.36367
#
# Compressibility (1/GPa) = 0.04262508
#
# Stress axis : x y z
#
# Youngs Moduli (GPa) = 79.58413 112.10355 57.35929
#
# Poissons Ratio (x) = 0.02611 0.03738
# Poissons Ratio (y) = 0.01854 -0.15701
# Poissons Ratio (z) = 0.05186 -0.30687
#
# Static dielectric constant tensor:
#      x y z
#    x 2.059220 0.000000 -0.010750 
#    y 0.000000 1.913680 0.000000 
#    z -0.010750 0.000000 1.971320 
# 
# From -- ./inp_files/89317.got.cif
#   From: 2010.05.17/outbox.cif.g08.bks.cpg/sg13_45_cif.got.tgz:89317.got - 2010.06.03 16:44:36.
