data_PCOD9227292
_publ_section_title
;
Structure prediction by ZEFSAII (Michael W. Deem and Ramdas Pophale) SiO2 
 PCOD9227292
Probable space group: P 2/C
;
_chemical_formula_sum "Si O2"
_cell_formula_units_Z 30
_cell_length_a 9.250703
_cell_length_b 12.234359
_cell_length_c 16.176904
_cell_angle_alpha 90.000000
_cell_angle_beta 49.412078
_cell_angle_gamma 90.000000
_cell_volume 1390.358529
_symmetry_space_group_name_H-M "P 2/C"
_symmetry_group_IT_number 13
_symmetry_cell_setting 'monoclinic'
loop_
_space_group_symop_operation_xyz
x,y,z
-x,y,1/2-z
-x,-y,-z
x,-y,1/2+z
loop_
_atom_site_type_symbol
_atom_site_label
_atom_site_fract_x
_atom_site_fract_y
_atom_site_fract_z
Si Si1 0.805381 0.070869 0.678333
Si Si2 0.363739 0.239570 0.651040
Si Si3 0.256789 0.739957 0.597925
Si Si4 0.701335 0.141225 0.132685
Si Si5 0.858095 0.230909 0.928892
Si Si6 0.000000 0.933382 0.750000
Si Si7 0.906129 0.429587 0.694827
Si Si8 0.137925 0.664681 0.817991
O O1 0.634386 0.142622 0.781920
O O2 0.967942 0.159579 0.600506
O O3 0.773228 0.982894 0.618380
O O4 0.892846 0.999877 0.720036
O O5 0.556510 0.257617 0.527981
O O6 0.201617 0.209988 0.643090
O O7 0.274287 0.349467 0.723409
O O8 0.161440 0.858425 0.647602
O O9 0.261192 0.689518 0.688912
O O10 0.086170 0.674828 0.617677
O O11 0.500000 0.138369 0.250000
O O12 0.815504 0.238316 0.136245
O O13 0.684711 0.185310 0.046457
O O14 0.929749 0.355158 0.908293
O O15 0.839477 0.536958 0.671527
O O16 0.000000 0.458453 0.750000
#
# Coordination Sequence:
#
# PCOD9227292 Si02
#       8
#     4   4   4   4   4   2   4   4
#     4  11  20  41  60  81 118 156 197 243 293 352
#     4  10  21  36  64  94 114 147 205 249 286 346
#     4  10  19  34  57  92 116 150 196 251 284 342
#     4  12  25  40  56  86 120 157 197 243 293 356
#     4  10  22  38  60  87 122 155 189 237 307 350
#     4  10  18  34  58  82 112 152 188 236 294 336
#     4   9  18  39  63  88 115 152 194 245 290 351
#     4  10  20  39  60  82 122 153 195 237 303 348
#
# _framework density 21.577168
#
# number of rings (size 3 to 8) (size 9 to 14) (size 15 to 20)
#    0.000    1.867    5.333    2.000    0.000    2.667 
#    4.800    0.000    0.000    0.000    0.000    0.000 
#    0.000    0.000    0.000    0.000    0.000    0.000 
#
# Total GULP energy -167252.559513 kJ/mol
# GULP energy per Si atom -5575.085317 kJ/mol
# Density = 2.152806 g / cm^3
# Si number density = 21.577168 Si / 1000 Ang^3
#
#
#
# Elastic Constant Matrix: (Units=GPa)
#
#
# Indices 1 2 3 4 5 6 
#
# 1 22.9646 14.1830 -3.7539 0.0000 -1.0509 0.0000
# 2 14.1830 122.5966 7.3705 0.0000 5.3125 0.0000
# 3 -3.7539 7.3705 63.6145 0.0000 -24.5137 0.0000
# 4 0.0000 0.0000 0.0000 23.0166 0.0000 31.2641
# 5 -1.0509 5.3125 -24.5137 0.0000 26.8702 0.0000
# 6 0.0000 0.0000 0.0000 31.2641 0.0000 28.5472
#
#
#
# Elastic Compliance Matrix: (Units=1/GPa)
#
#
# Indices 1 2 3 4 5 6 
#
# 1 0.049330 -0.006604 0.007591 0.000000 0.010161 0.000000
# 2 -0.006604 0.009364 -0.003528 0.000000 -0.005328 0.000000
# 3 0.007591 -0.003528 0.026154 0.000000 0.024855 0.000000
# 4 0.000000 0.000000 0.000000 -0.089103 0.000000 0.097583
# 5 0.010161 -0.005328 0.024855 0.000000 0.061342 0.000000
# 6 0.000000 0.000000 0.000000 0.097583 0.000000 -0.071840
#
#
# Mechanical properties :
#
#
# Convention : Reuss Voigt Hill
#
# Bulk Modulus (GPa) = 12.53638 27.19719 19.86678
# Shear Modulus (GPa) = 295.59773 28.44522 162.02147
#
# Velocity S-wave (km/s) = 11.71721 3.63478 8.67481
# Velocity P-wave (km/s) = 13.74336 5.49977 10.46727
#
# Compressibility (1/GPa) = 0.07976785
#
# Stress axis : x y z
#
# Youngs Moduli (GPa) = 20.27183 106.79499 38.23491
#
# Poissons Ratio (x) = 0.70522 -0.29026
# Poissons Ratio (y) = 0.13387 0.13488
# Poissons Ratio (z) = -0.15389 0.37674
#
# Static dielectric constant tensor:
#      x y z
#    x 1.806680 0.000000 0.008240 
#    y 0.000000 1.815220 0.000000 
#    z 0.008240 0.000000 1.893750 
# 
# From -- ./inp_files/66642.got.cif
#   From: 2010.05.17/outbox.cif.g08.bks.cpg/sg13_34_cif.got.tgz:66642.got - 2010.06.03 16:44:36.
