data_PCOD9227103
_publ_section_title
;
Structure prediction by ZEFSAII (Michael W. Deem and Ramdas Pophale) SiO2 
 PCOD9227103
Probable space group: P 2/C
;
_chemical_formula_sum "Si O2"
_cell_formula_units_Z 24
_cell_length_a 20.168273
_cell_length_b 7.747918
_cell_length_c 19.156703
_cell_angle_alpha 90.000000
_cell_angle_beta 157.292186
_cell_angle_gamma 90.000000
_cell_volume 1155.573666
_symmetry_space_group_name_H-M "P 2/C"
_symmetry_group_IT_number 13
_symmetry_cell_setting 'monoclinic'
loop_
_space_group_symop_operation_xyz
x,y,z
-x,y,1/2-z
-x,-y,-z
x,-y,1/2+z
loop_
_atom_site_type_symbol
_atom_site_label
_atom_site_fract_x
_atom_site_fract_y
_atom_site_fract_z
Si Si1 0.336536 0.673564 0.624871
Si Si2 0.480026 0.950597 0.597128
Si Si3 0.948243 0.645625 0.050571
Si Si4 0.131277 0.086222 0.822273
Si Si5 0.221778 0.566938 0.749860
Si Si6 0.422445 0.750177 0.395333
O O1 0.500000 0.578328 0.750000
O O2 0.421369 0.829990 0.752254
O O3 0.219079 0.756624 0.450915
O O4 0.208196 0.582146 0.553069
O O5 0.297188 0.009814 0.452169
O O6 0.437007 0.839466 0.485820
O O7 0.595749 0.106373 0.681456
O O8 0.023436 0.820069 0.156947
O O9 0.095796 0.502211 0.186694
O O10 0.877023 0.678782 0.903688
O O11 0.000000 0.999945 0.750000
O O12 0.279597 0.394542 0.764261
O O13 0.395485 0.657109 0.941909
#
# Coordination Sequence:
#
# PCOD9227103 Si02
#       6
#     4   4   4   4   4   4
#     4   9  18  32  57  77 102 139 188 227 254 324
#     4  10  18  35  53  84 102 138 189 220 275 319
#     4  10  18  33  52  81 110 137 183 216 279 314
#     4   9  18  33  56  78 104 140 184 231 255 322
#     4  10  20  34  54  80 118 145 169 229 272 333
#     4  10  20  33  55  77 117 143 173 227 272 327
#
# _framework density 20.768903999999999
#
# number of rings (size 3 to 8) (size 9 to 14) (size 15 to 20)
#    0.000    2.333    3.333    0.000    0.000    0.000 
#    0.000    8.333    0.000   26.000    0.000    0.000 
#    0.000    0.000    0.000    0.000    0.000    0.000 
#
# Total GULP energy -133800.726559 kJ/mol
# GULP energy per Si atom -5575.030273 kJ/mol
# Density = 2.072163 g / cm^3
# Si number density = 20.768904 Si / 1000 Ang^3
#
#
#
# Elastic Constant Matrix: (Units=GPa)
#
#
# Indices 1 2 3 4 5 6 
#
# 1 103.5325 28.3688 31.8613 0.0000 34.5104 0.0000
# 2 28.3688 27.7653 8.0943 0.0000 -1.8286 0.0000
# 3 31.8613 8.0943 66.4528 0.0000 18.0695 0.0000
# 4 0.0000 0.0000 0.0000 6.4027 0.0000 5.3879
# 5 34.5104 -1.8286 18.0695 0.0000 46.4445 0.0000
# 6 0.0000 0.0000 0.0000 5.3879 0.0000 23.3813
#
#
#
# Elastic Compliance Matrix: (Units=1/GPa)
#
#
# Indices 1 2 3 4 5 6 
#
# 1 0.022445 -0.022961 -0.003561 0.000000 -0.016196 0.000000
# 2 -0.022961 0.061385 -0.001973 0.000000 0.020246 0.000000
# 3 -0.003561 -0.001973 0.018226 0.000000 -0.004523 0.000000
# 4 0.000000 0.000000 0.000000 0.193754 0.000000 -0.044648
# 5 -0.016196 0.020246 -0.004523 0.000000 0.036122 0.000000
# 6 0.000000 0.000000 0.000000 -0.044648 0.000000 0.053058
#
#
# Mechanical properties :
#
#
# Convention : Reuss Voigt Hill
#
# Bulk Modulus (GPa) = 22.18989 37.15549 29.67269
# Shear Modulus (GPa) = 10.94087 23.87413 17.40750
#
# Velocity S-wave (km/s) = 2.29768 3.39413 2.89823
# Velocity P-wave (km/s) = 4.21266 5.76965 5.05151
#
# Compressibility (1/GPa) = 0.04506557
#
# Stress axis : x y z
#
# Youngs Moduli (GPa) = 44.55358 16.29051 54.86805
#
# Poissons Ratio (x) = 0.37405 0.19536
# Poissons Ratio (y) = 1.02302 0.10826
# Poissons Ratio (z) = 0.15863 0.03214
#
# Static dielectric constant tensor:
#      x y z
#    x 1.798810 0.000000 0.032150 
#    y 0.000000 1.713810 0.000000 
#    z 0.032150 0.000000 1.769870 
# 
# From -- ./inp_files/69509.got.cif
#   From: 2010.05.17/outbox.cif.g08.bks.cpg/sg13_35_cif.got.tgz:69509.got - 2010.06.03 16:44:36.
