data_PCOD9227605
_publ_section_title
;
Structure prediction by ZEFSAII (Michael W. Deem and Ramdas Pophale) SiO2 
 PCOD9227605
Probable space group: P 2/C
;
_chemical_formula_sum "Si O2"
_cell_formula_units_Z 32
_cell_length_a 9.228224
_cell_length_b 12.304458
_cell_length_c 31.897376
_cell_angle_alpha 90.000000
_cell_angle_beta 27.582524
_cell_angle_gamma 90.000000
_cell_volume 1677.029412
_symmetry_space_group_name_H-M "P 2/C"
_symmetry_group_IT_number 13
_symmetry_cell_setting 'monoclinic'
loop_
_space_group_symop_operation_xyz
x,y,z
-x,y,1/2-z
-x,-y,-z
x,-y,1/2+z
loop_
_atom_site_type_symbol
_atom_site_label
_atom_site_fract_x
_atom_site_fract_y
_atom_site_fract_z
Si Si1 0.735188 0.991030 0.399635
Si Si2 0.128433 0.997491 0.013754
Si Si3 0.881331 0.595453 0.653038
Si Si4 0.165551 0.226229 0.885051
Si Si5 0.111121 0.460760 0.767461
Si Si6 0.874937 0.846896 0.650650
Si Si7 0.868343 0.546591 0.076246
Si Si8 0.113786 0.768355 0.300962
O O1 0.904046 0.875317 0.352668
O O2 0.500000 0.000000 0.500000
O O3 0.504077 0.002423 0.419769
O O4 0.981961 0.084943 0.347207
O O5 0.015497 0.884895 0.063008
O O6 0.992548 0.093954 0.077931
O O7 0.000000 0.000000 0.000000
O O8 0.500000 0.594988 0.750000
O O9 0.986875 0.539292 0.669272
O O10 0.978461 0.721277 0.624971
O O11 0.977561 0.523688 0.588269
O O12 0.039155 0.327512 0.943347
O O13 0.528416 0.206124 0.803572
O O14 0.142542 0.262327 0.842601
O O15 0.489564 0.456357 0.672382
O O16 0.998540 0.337445 0.805762
O O17 0.000000 0.495328 0.750000
O O18 0.500000 0.852242 0.750000
O O19 0.000000 0.500000 0.000000
#
# Coordination Sequence:
#
# PCOD9227605 Si02
#       8
#     4   4   4   4   4   4   4   4
#     4  10  20  36  57  86 120 151 193 247 295 352
#     4  11  24  38  56  88 125 151 194 257 304 348
#     4   9  19  38  61  83 117 160 194 238 301 366
#     4  10  19  36  63  86 116 162 201 243 301 371
#     4  10  21  40  60  90 119 153 206 254 298 363
#     4  10  20  39  62  82 112 165 202 231 295 377
#     4  10  21  38  60  89 120 156 201 252 303 359
#     4  10  18  36  65  85 112 159 207 243 298 364
#
# _framework density 19.081358000000002
#
# number of rings (size 3 to 8) (size 9 to 14) (size 15 to 20)
#    0.000    2.000    3.750    0.750    1.750    2.000 
#    4.500    2.500    0.000    0.000    0.000    0.000 
#    0.000    0.000    0.000    0.000    0.000    0.000 
#
# Total GULP energy -178523.713021 kJ/mol
# GULP energy per Si atom -5578.866032 kJ/mol
# Density = 1.903793 g / cm^3
# Si number density = 19.081358 Si / 1000 Ang^3
#
#
#
# Elastic Constant Matrix: (Units=GPa)
#
#
# Indices 1 2 3 4 5 6 
#
# 1 131.2250 54.0294 18.3746 0.0000 8.4609 0.0000
# 2 54.0294 165.1803 48.5861 0.0000 9.3632 0.0000
# 3 18.3746 48.5861 41.8330 0.0000 7.0181 0.0000
# 4 0.0000 0.0000 0.0000 20.4962 0.0000 6.6452
# 5 8.4609 9.3632 7.0181 0.0000 29.2686 0.0000
# 6 0.0000 0.0000 0.0000 6.6452 0.0000 13.5844
#
#
#
# Elastic Compliance Matrix: (Units=1/GPa)
#
#
# Indices 1 2 3 4 5 6 
#
# 1 0.008894 -0.002656 -0.000556 0.000000 -0.001588 0.000000
# 2 -0.002656 0.009993 -0.010452 0.000000 0.000077 0.000000
# 3 -0.000556 -0.010452 0.037197 0.000000 -0.005415 0.000000
# 4 0.000000 0.000000 0.000000 0.057986 0.000000 -0.028365
# 5 -0.001588 0.000077 -0.005415 0.000000 0.035899 0.000000
# 6 0.000000 0.000000 0.000000 -0.028365 0.000000 0.087489
#
#
# Mechanical properties :
#
#
# Convention : Reuss Voigt Hill
#
# Bulk Modulus (GPa) = 34.77536 64.46872 49.62204
# Shear Modulus (GPa) = 18.22350 27.15306 22.68828
#
# Velocity S-wave (km/s) = 3.09373 3.77638 3.45197
# Velocity P-wave (km/s) = 5.57009 7.27147 6.47689
#
# Compressibility (1/GPa) = 0.02875599
#
# Stress axis : x y z
#
# Youngs Moduli (GPa) = 112.43329 100.07292 26.88411
#
# Poissons Ratio (x) = 0.26577 0.01494
# Poissons Ratio (y) = 0.29859 0.28100
# Poissons Ratio (z) = 0.06249 1.04599
#
# Static dielectric constant tensor:
#      x y z
#    x 1.688950 0.000000 -0.007120 
#    y 0.000000 1.656160 0.000000 
#    z -0.007120 0.000000 1.668100 
# 
# From -- ./inp_files/96104.got.cif
#   From: 2010.05.17/outbox.cif.g08.bks.cpg/sg13_49_cif.got.tgz:96104.got - 2010.06.03 16:44:36.
