data_PCOD9227117
_publ_section_title
;
Structure prediction by ZEFSAII (Michael W. Deem and Ramdas Pophale) SiO2 
 PCOD9227117
Probable space group: P 2/C
;
_chemical_formula_sum "Si O2"
_cell_formula_units_Z 30
_cell_length_a 7.612509
_cell_length_b 9.293052
_cell_length_c 22.575283
_cell_angle_alpha 90.000000
_cell_angle_beta 76.785394
_cell_angle_gamma 90.000000
_cell_volume 1554.764307
_symmetry_space_group_name_H-M "P 2/C"
_symmetry_group_IT_number 13
_symmetry_cell_setting 'monoclinic'
loop_
_space_group_symop_operation_xyz
x,y,z
-x,y,1/2-z
-x,-y,-z
x,-y,1/2+z
loop_
_atom_site_type_symbol
_atom_site_label
_atom_site_fract_x
_atom_site_fract_y
_atom_site_fract_z
Si Si1 0.248392 0.858997 0.460383
Si Si2 0.639252 0.347705 0.120872
Si Si3 0.252104 0.325985 0.852332
Si Si4 0.366888 0.615612 0.541165
Si Si5 0.500000 0.347733 0.250000
Si Si6 0.218793 0.415265 0.729097
Si Si7 0.182316 0.174588 0.491116
Si Si8 0.173443 0.640637 0.101002
O O1 0.313625 0.799342 0.391681
O O2 0.321246 0.746750 0.502689
O O3 0.030016 0.849023 0.481883
O O4 0.284520 0.025598 0.470599
O O5 0.678674 0.516517 0.131509
O O6 0.464750 0.334961 0.092996
O O7 0.599926 0.274126 0.187097
O O8 0.790871 0.277141 0.067819
O O9 0.277674 0.314747 0.779729
O O10 0.036713 0.330065 0.875993
O O11 0.500000 0.500000 0.500000
O O12 0.197201 0.519009 0.572850
O O13 0.657399 0.445092 0.268397
O O14 0.256056 0.356234 0.660503
O O15 0.000000 0.442250 0.750000
O O16 0.250702 0.250795 0.545976
#
# Coordination Sequence:
#
# PCOD9227117 Si02
#       8
#     4   4   4   4   2   4   4   4
#     4  10  21  36  54  80 108 145 185 222 278 329
#     4  11  20  34  54  81 105 141 175 223 278 320
#     4   9  18  33  55  76 104 141 180 223 267 329
#     4  12  20  31  53  82 108 131 175 228 275 323
#     4  10  20  34  56  78 116 142 180 230 276 338
#     4   9  18  31  53  82 109 141 182 230 278 327
#     4  10  21  36  56  77 109 147 183 228 273 334
#     4  10  18  33  53  80 106 135 181 226 272 324
#
# _framework density 19.295528999999998
#
# number of rings (size 3 to 8) (size 9 to 14) (size 15 to 20)
#    0.000    1.867    4.000    0.800    0.000    2.667 
#    0.000    0.000    2.933    0.800    0.000    0.000 
#    0.000    0.000    0.000    0.000    0.000    0.000 
#
# Total GULP energy -167177.007472 kJ/mol
# GULP energy per Si atom -5572.566916 kJ/mol
# Density = 1.925161 g / cm^3
# Si number density = 19.295529 Si / 1000 Ang^3
#
#
#
# Elastic Constant Matrix: (Units=GPa)
#
#
# Indices 1 2 3 4 5 6 
#
# 1 33.9138 22.7150 23.6805 0.0000 9.6641 0.0000
# 2 22.7150 73.5969 40.2330 0.0000 15.6282 0.0000
# 3 23.6805 40.2330 157.1784 0.0000 19.0111 0.0000
# 4 0.0000 0.0000 0.0000 12.5164 0.0000 -0.1891
# 5 9.6641 15.6282 19.0111 0.0000 34.6813 0.0000
# 6 0.0000 0.0000 0.0000 -0.1891 0.0000 19.8345
#
#
#
# Elastic Compliance Matrix: (Units=1/GPa)
#
#
# Indices 1 2 3 4 5 6 
#
# 1 0.039294 -0.009470 -0.002879 0.000000 -0.005104 0.000000
# 2 -0.009470 0.019027 -0.002919 0.000000 -0.004335 0.000000
# 3 -0.002879 -0.002919 0.007804 0.000000 -0.002161 0.000000
# 4 0.000000 0.000000 0.000000 0.079907 0.000000 0.000762
# 5 -0.005104 -0.004335 -0.002161 0.000000 0.033394 0.000000
# 6 0.000000 0.000000 0.000000 0.000762 0.000000 0.050425
#
#
# Mechanical properties :
#
#
# Convention : Reuss Voigt Hill
#
# Bulk Modulus (GPa) = 28.09851 48.66068 38.37959
# Shear Modulus (GPa) = 18.36549 25.27713 21.82131
#
# Velocity S-wave (km/s) = 3.08847 3.62332 3.36653
# Velocity P-wave (km/s) = 5.22609 6.54049 5.91988
#
# Compressibility (1/GPa) = 0.03558908
#
# Stress axis : x y z
#
# Youngs Moduli (GPa) = 25.44914 52.55753 128.13233
#
# Poissons Ratio (x) = 0.49774 0.36884
# Poissons Ratio (y) = 0.24101 0.37404
# Poissons Ratio (z) = 0.07326 0.15343
#
# Static dielectric constant tensor:
#      x y z
#    x 1.720080 0.000000 -0.031350 
#    y 0.000000 1.661660 0.000000 
#    z -0.031350 0.000000 1.742740 
# 
# From -- ./inp_files/75685.got.cif
#   From: 2010.05.17/outbox.cif.g08.bks.cpg/sg13_38_cif.got.tgz:75685.got - 2010.06.03 16:44:36.
