data_PCOD9227152
_publ_section_title
;
Structure prediction by ZEFSAII (Michael W. Deem and Ramdas Pophale) SiO2 
 PCOD9227152
Probable space group: P 2/C
;
_chemical_formula_sum "Si O2"
_cell_formula_units_Z 32
_cell_length_a 8.160048
_cell_length_b 11.905765
_cell_length_c 23.014327
_cell_angle_alpha 90.000000
_cell_angle_beta 52.047882
_cell_angle_gamma 90.000000
_cell_volume 1763.046465
_symmetry_space_group_name_H-M "P 2/C"
_symmetry_group_IT_number 13
_symmetry_cell_setting 'monoclinic'
loop_
_space_group_symop_operation_xyz
x,y,z
-x,y,1/2-z
-x,-y,-z
x,-y,1/2+z
loop_
_atom_site_type_symbol
_atom_site_label
_atom_site_fract_x
_atom_site_fract_y
_atom_site_fract_z
Si Si1 0.407890 0.961892 0.927303
Si Si2 0.110147 0.754357 0.011621
Si Si3 0.587834 0.865812 0.295447
Si Si4 0.156602 0.680314 0.538971
Si Si5 0.982311 0.126843 0.853547
Si Si6 0.270481 0.551547 0.053471
Si Si7 0.792666 0.903378 0.925010
Si Si8 0.385945 0.720870 0.108889
O O1 0.600145 0.913988 0.922962
O O2 0.493731 0.029662 0.852843
O O3 0.252446 0.855675 0.955074
O O4 0.290681 0.052988 0.993956
O O5 0.980365 0.810131 0.093170
O O6 0.236376 0.652721 0.014973
O O7 0.971339 0.702330 0.991468
O O8 0.500000 0.866814 0.250000
O O9 0.548193 0.752843 0.340922
O O10 0.836087 0.862183 0.232097
O O11 0.128250 0.555115 0.569418
O O12 0.109695 0.780894 0.593341
O O13 0.400190 0.704523 0.472243
O O14 0.759313 0.176366 0.881426
O O15 0.957338 0.996242 0.871037
O O16 0.252982 0.611127 0.120300
O O17 0.500000 0.500000 0.000000
#
# Coordination Sequence:
#
# PCOD9227152 Si02
#       8
#     4   4   4   4   4   4   4   4
#     4  10  20  35  53  81 120 150 186 230 289 354
#     4  10  21  34  55  88 120 148 188 250 296 332
#     4  12  23  34  54  86 120 152 189 236 299 357
#     4  11  19  32  58  87 114 143 189 248 292 331
#     4  10  21  34  55  82 114 159 192 225 288 361
#     4   9  19  35  57  83 108 146 194 238 287 342
#     4  10  18  33  56  80 114 150 189 230 286 341
#     4  10  19  37  53  79 115 149 192 237 281 346
#
# _framework density 18.150402
#
# number of rings (size 3 to 8) (size 9 to 14) (size 15 to 20)
#    0.000    1.750    2.500    4.500    1.750    1.000 
#    0.000    0.000    0.000    0.000   35.750    7.875 
#    0.000    0.000    0.000    0.000    0.000    0.000 
#
# Total GULP energy -178277.192331 kJ/mol
# GULP energy per Si atom -5571.162260 kJ/mol
# Density = 1.810909 g / cm^3
# Si number density = 18.150402 Si / 1000 Ang^3
#
#
#
# Elastic Constant Matrix: (Units=GPa)
#
#
# Indices 1 2 3 4 5 6 
#
# 1 69.7128 42.0857 13.2294 0.0000 20.0656 0.0000
# 2 42.0857 140.5444 41.9906 0.0000 14.0793 0.0000
# 3 13.2294 41.9906 59.4538 0.0000 10.1902 0.0000
# 4 0.0000 0.0000 0.0000 15.7576 0.0000 4.6784
# 5 20.0656 14.0793 10.1902 0.0000 28.4179 0.0000
# 6 0.0000 0.0000 0.0000 4.6784 0.0000 23.6890
#
#
#
# Elastic Compliance Matrix: (Units=1/GPa)
#
#
# Indices 1 2 3 4 5 6 
#
# 1 0.020995 -0.005417 0.001316 0.000000 -0.012613 0.000000
# 2 -0.005417 0.010562 -0.006407 0.000000 0.000889 0.000000
# 3 0.001316 -0.006407 0.022021 0.000000 -0.005651 0.000000
# 4 0.000000 0.000000 0.000000 0.067414 0.000000 -0.013314
# 5 -0.012613 0.000889 -0.005651 0.000000 0.045681 0.000000
# 6 0.000000 0.000000 0.000000 -0.013314 0.000000 0.044843
#
#
# Mechanical properties :
#
#
# Convention : Reuss Voigt Hill
#
# Bulk Modulus (GPa) = 30.71037 51.59137 41.15087
# Shear Modulus (GPa) = 20.54349 25.06659 22.80504
#
# Velocity S-wave (km/s) = 3.36794 3.72028 3.54849
# Velocity P-wave (km/s) = 5.66399 6.85128 6.28573
#
# Compressibility (1/GPa) = 0.03256229
#
# Stress axis : x y z
#
# Youngs Moduli (GPa) = 47.62989 94.67622 45.41188
#
# Poissons Ratio (x) = 0.51281 -0.05974
# Poissons Ratio (y) = 0.25799 0.29095
# Poissons Ratio (z) = -0.06266 0.60659
#
# Static dielectric constant tensor:
#      x y z
#    x 1.699930 0.000000 0.008440 
#    y 0.000000 1.668070 0.000000 
#    z 0.008440 0.000000 1.620630 
# 
# From -- ./inp_files/76262.got.cif
#   From: 2010.05.17/outbox.cif.g08.bks.cpg/sg13_39_cif.got.tgz:76262.got - 2010.06.03 16:44:36.
