data_PCOD9227459
_publ_section_title
;
Structure prediction by ZEFSAII (Michael W. Deem and Ramdas Pophale) SiO2 
 PCOD9227459
Probable space group: P 2/C
;
_chemical_formula_sum "Si O2"
_cell_formula_units_Z 20
_cell_length_a 19.521373
_cell_length_b 7.126531
_cell_length_c 9.035465
_cell_angle_alpha 90.000000
_cell_angle_beta 47.287757
_cell_angle_gamma 90.000000
_cell_volume 923.613488
_symmetry_space_group_name_H-M "P 2/C"
_symmetry_group_IT_number 13
_symmetry_cell_setting 'monoclinic'
loop_
_space_group_symop_operation_xyz
x,y,z
-x,y,1/2-z
-x,-y,-z
x,-y,1/2+z
loop_
_atom_site_type_symbol
_atom_site_label
_atom_site_fract_x
_atom_site_fract_y
_atom_site_fract_z
Si Si1 0.389963 0.431842 0.931346
Si Si2 0.304709 0.707721 0.856824
Si Si3 0.088136 0.736256 0.183005
Si Si4 0.138875 0.062308 0.886710
Si Si5 0.266705 0.871042 0.449628
O O1 0.500000 0.421320 0.750000
O O2 0.351276 0.632442 0.937208
O O3 0.337585 0.283153 0.901742
O O4 0.357891 0.383691 0.142638
O O5 0.312951 0.931911 0.834960
O O6 0.193927 0.659278 0.018888
O O7 0.078552 0.808659 0.365939
O O8 0.000000 0.621234 0.250000
O O9 0.091361 0.915200 0.066583
O O10 0.203495 0.183885 0.901868
O O11 0.200989 0.936150 0.683120
#
# Coordination Sequence:
#
# PCOD9227459 Si02
#       5
#     4   4   4   4   4
#     4  12  25  42  66  88 122 169 207 257 311 364
#     4  10  25  41  61  93 126 157 207 259 304 364
#     4  10  18  35  61  90 125 162 204 248 305 366
#     4   8  17  33  60  89 119 160 195 251 298 358
#     4  10  19  41  63  87 125 162 199 255 311 356
#
# _framework density 21.654078999999999
#
# number of rings (size 3 to 8) (size 9 to 14) (size 15 to 20)
#    0.000    2.400    4.000    1.200    5.600    1.600 
#    0.000    1.000    0.000    0.000    0.000    0.000 
#    0.000    0.000    0.000    0.000    0.000    0.000 
#
# Total GULP energy -111632.812072 kJ/mol
# GULP energy per Si atom -5581.640604 kJ/mol
# Density = 2.160479 g / cm^3
# Si number density = 21.654079 Si / 1000 Ang^3
#
#
#
# Elastic Constant Matrix: (Units=GPa)
#
#
# Indices 1 2 3 4 5 6 
#
# 1 77.9299 -7.9481 19.7649 0.0000 -4.7753 0.0000
# 2 -7.9481 20.3119 -11.3963 0.0000 3.2330 0.0000
# 3 19.7649 -11.3963 81.1724 0.0000 9.7411 0.0000
# 4 0.0000 0.0000 0.0000 17.7721 0.0000 4.9804
# 5 -4.7753 3.2330 9.7411 0.0000 45.9571 0.0000
# 6 0.0000 0.0000 0.0000 4.9804 0.0000 28.9648
#
#
#
# Elastic Compliance Matrix: (Units=1/GPa)
#
#
# Indices 1 2 3 4 5 6 
#
# 1 0.014105 0.003433 -0.003180 0.000000 0.001898 0.000000
# 2 0.003433 0.055662 0.007599 0.000000 -0.005170 0.000000
# 3 -0.003180 0.007599 0.014637 0.000000 -0.003968 0.000000
# 4 0.000000 0.000000 0.000000 0.059117 0.000000 -0.010165
# 5 0.001898 -0.005170 -0.003968 0.000000 0.023161 0.000000
# 6 0.000000 0.000000 0.000000 -0.010165 0.000000 0.036273
#
#
# Mechanical properties :
#
#
# Convention : Reuss Voigt Hill
#
# Bulk Modulus (GPa) = 9.98925 20.02837 15.00881
# Shear Modulus (GPa) = 22.66338 30.47169 26.56753
#
# Velocity S-wave (km/s) = 3.23865 3.75534 3.50652
# Velocity P-wave (km/s) = 4.31372 5.29837 4.83120
#
# Compressibility (1/GPa) = 0.10010757
#
# Stress axis : x y z
#
# Youngs Moduli (GPa) = 70.89636 17.96555 68.32064
#
# Poissons Ratio (x) = -0.06167 0.21728
# Poissons Ratio (y) = -0.24338 -0.51919
# Poissons Ratio (z) = 0.22547 -0.13652
#
# Static dielectric constant tensor:
#      x y z
#    x 1.834100 0.000000 -0.019530 
#    y 0.000000 1.808660 0.000000 
#    z -0.019530 0.000000 1.785800 
# 
# From -- ./inp_files/21048.got.cif
#   From: 2010.05.17/outbox.cif.g08.bks.cpg/sg13_11_cif.got.tgz:21048.got - 2010.06.03 16:44:36.
