data_PCOD9227059
_publ_section_title
;
Structure prediction by ZEFSAII (Michael W. Deem and Ramdas Pophale) SiO2 
 PCOD9227059
Probable space group: P 2/C
;
_chemical_formula_sum "Si O2"
_cell_formula_units_Z 32
_cell_length_a 21.277309
_cell_length_b 12.105777
_cell_length_c 18.545898
_cell_angle_alpha 90.000000
_cell_angle_beta 21.349921
_cell_angle_gamma 90.000000
_cell_volume 1739.136283
_symmetry_space_group_name_H-M "P 2/C"
_symmetry_group_IT_number 13
_symmetry_cell_setting 'monoclinic'
loop_
_space_group_symop_operation_xyz
x,y,z
-x,y,1/2-z
-x,-y,-z
x,-y,1/2+z
loop_
_atom_site_type_symbol
_atom_site_label
_atom_site_fract_x
_atom_site_fract_y
_atom_site_fract_z
Si Si1 0.522207 0.733639 0.307233
Si Si2 0.864022 0.132421 0.458953
Si Si3 0.219329 0.905307 0.202354
Si Si4 0.427563 0.814047 0.649968
Si Si5 0.745227 0.153367 0.310941
Si Si6 0.918690 0.121819 0.915768
Si Si7 0.409961 0.384250 0.611616
Si Si8 0.081149 0.740049 0.460058
O O1 0.500000 0.685415 0.250000
O O2 0.356787 0.801054 0.511730
O O3 0.557236 0.654790 0.339960
O O4 0.677992 0.821197 0.136171
O O5 0.931850 0.221060 0.444118
O O6 0.000000 0.131354 0.250000
O O7 0.856936 0.005579 0.492173
O O8 0.187940 0.840088 0.309729
O O9 0.078919 0.856764 0.297747
O O10 0.178854 0.034331 0.251606
O O11 0.420274 0.880561 0.972009
O O12 0.374617 0.869447 0.630153
O O13 0.502616 0.698718 0.539892
O O14 0.252309 0.808275 0.883433
O O15 0.887808 0.245399 0.137240
O O16 0.000000 0.135216 0.750000
O O17 0.500000 0.500000 0.500000
O O18 0.202535 0.366747 0.822293
#
# Coordination Sequence:
#
# PCOD9227059 Si02
#       8
#     4   4   4   4   4   4   4   4
#     4  10  21  33  55  85 116 142 187 242 295 352
#     4  10  19  32  48  81 120 155 179 218 283 348
#     4  11  20  33  54  80 120 156 194 226 277 349
#     4  10  21  36  56  82 110 151 198 241 286 343
#     4  11  18  32  55  84 118 149 186 229 279 357
#     4  11  22  34  52  80 121 159 193 229 275 346
#     4   9  21  41  63  80 108 148 198 257 307 352
#     4  10  18  32  58  80 107 154 186 235 288 337
#
# _framework density 18.399939
#
# number of rings (size 3 to 8) (size 9 to 14) (size 15 to 20)
#    0.000    1.750    2.500    3.750    1.750    0.500 
#    0.000    2.500    5.500    3.000    0.000    0.000 
#    0.000    0.000    0.000    0.000    0.000    0.000 
#
# Total GULP energy -178174.185781 kJ/mol
# GULP energy per Si atom -5567.943306 kJ/mol
# Density = 1.835806 g / cm^3
# Si number density = 18.399939 Si / 1000 Ang^3
#
#
#
# Elastic Constant Matrix: (Units=GPa)
#
#
# Indices 1 2 3 4 5 6 
#
# 1 58.2692 16.6931 35.3165 0.0000 -6.5240 0.0000
# 2 16.6931 63.2612 37.7784 0.0000 -0.3341 0.0000
# 3 35.3165 37.7784 123.7818 0.0000 -12.4323 0.0000
# 4 0.0000 0.0000 0.0000 23.5226 0.0000 1.0931
# 5 -6.5240 -0.3341 -12.4323 0.0000 33.8008 0.0000
# 6 0.0000 0.0000 0.0000 1.0931 0.0000 10.2119
#
#
#
# Elastic Compliance Matrix: (Units=1/GPa)
#
#
# Indices 1 2 3 4 5 6 
#
# 1 0.021202 -0.002572 -0.005042 0.000000 0.002212 0.000000
# 2 -0.002572 0.019781 -0.005538 0.000000 -0.002338 0.000000
# 3 -0.005042 -0.005538 0.011530 0.000000 0.003213 0.000000
# 4 0.000000 0.000000 0.000000 0.042725 0.000000 -0.004573
# 5 0.002212 -0.002338 0.003213 0.000000 0.031171 0.000000
# 6 0.000000 0.000000 0.000000 -0.004573 0.000000 0.098415
#
#
# Mechanical properties :
#
#
# Convention : Reuss Voigt Hill
#
# Bulk Modulus (GPa) = 38.15483 47.20982 42.68232
# Shear Modulus (GPa) = 19.24075 23.87532 21.55804
#
# Velocity S-wave (km/s) = 3.23723 3.60610 3.42663
# Velocity P-wave (km/s) = 5.89528 6.56139 6.23723
#
# Compressibility (1/GPa) = 0.02620900
#
# Stress axis : x y z
#
# Youngs Moduli (GPa) = 47.16480 50.55312 86.72813
#
# Poissons Ratio (x) = 0.13003 0.43729
# Poissons Ratio (y) = 0.12131 0.48032
# Poissons Ratio (z) = 0.23781 0.27997
#
# Static dielectric constant tensor:
#      x y z
#    x 1.694130 0.000000 -0.039850 
#    y 0.000000 1.619090 0.000000 
#    z -0.039850 0.000000 1.700770 
# 
# From -- ./inp_files/70769.got.cif
#   From: 2010.05.17/outbox.cif.g08.bks.cpg/sg13_36_cif.got.tgz:70769.got - 2010.06.03 16:44:36.
