data_PCOD9227352
_publ_section_title
;
Structure prediction by ZEFSAII (Michael W. Deem and Ramdas Pophale) SiO2 
 PCOD9227352
Probable space group: P 2/C
;
_chemical_formula_sum "Si O2"
_cell_formula_units_Z 28
_cell_length_a 21.821265
_cell_length_b 8.072221
_cell_length_c 25.727019
_cell_angle_alpha 90.000000
_cell_angle_beta 17.114138
_cell_angle_gamma 90.000000
_cell_volume 1333.575224
_symmetry_space_group_name_H-M "P 2/C"
_symmetry_group_IT_number 13
_symmetry_cell_setting 'monoclinic'
loop_
_space_group_symop_operation_xyz
x,y,z
-x,y,1/2-z
-x,-y,-z
x,-y,1/2+z
loop_
_atom_site_type_symbol
_atom_site_label
_atom_site_fract_x
_atom_site_fract_y
_atom_site_fract_z
Si Si1 0.593185 0.130707 0.510556
Si Si2 0.476301 0.430550 0.168772
Si Si3 0.647392 0.402814 0.839711
Si Si4 0.842046 0.812300 0.331736
Si Si5 0.415012 0.784220 0.373589
Si Si6 0.002248 0.339222 0.192556
Si Si7 0.929934 0.387405 0.942873
O O1 0.429535 0.211726 0.604137
O O2 0.499352 0.126531 0.644971
O O3 0.775247 0.270729 0.364653
O O4 0.711311 0.958847 0.410097
O O5 0.383365 0.509291 0.191062
O O6 0.547845 0.588414 0.145445
O O7 0.288465 0.346040 0.353077
O O8 0.666185 0.312348 0.997963
O O9 0.884212 0.406657 0.666457
O O10 0.500000 0.500000 0.000000
O O11 0.000000 0.859534 0.250000
O O12 0.982399 0.731715 0.172916
O O13 0.500000 0.838205 0.250000
O O14 0.166671 0.804760 0.571072
O O15 0.085397 0.440045 0.076373
O O16 0.000000 0.434092 0.250000
#
# Coordination Sequence:
#
# PCOD9227352 Si02
#       7
#     4   4   4   4   4   4   4
#     4  10  23  41  60  89 129 169 207 258 318 383
#     4  11  24  40  63 100 123 162 217 270 314 376
#     4  11  21  43  69  92 122 167 224 271 310 363
#     4  12  25  42  62  92 138 169 201 252 328 398
#     4  10  18  35  61  87 118 155 213 265 310 359
#     4  10  18  34  61  88 116 157 214 260 311 362
#     4  12  22  40  67  93 124 166 212 269 314 367
#
# _framework density 20.996189999999999
#
# number of rings (size 3 to 8) (size 9 to 14) (size 15 to 20)
#    0.000    1.143    4.286    4.714    0.000    0.571 
#    5.143    0.714    0.000    0.000    0.000    0.000 
#    0.000    0.000    0.000    0.000    0.000    0.000 
#
# Total GULP energy -156249.373352 kJ/mol
# GULP energy per Si atom -5580.334763 kJ/mol
# Density = 2.094840 g / cm^3
# Si number density = 20.996190 Si / 1000 Ang^3
#
#
#
# Elastic Constant Matrix: (Units=GPa)
#
#
# Indices 1 2 3 4 5 6 
#
# 1 86.8563 5.4772 33.2912 0.0000 -0.3005 0.0000
# 2 5.4772 58.1915 23.4333 0.0000 4.5264 0.0000
# 3 33.2912 23.4333 133.0664 0.0000 17.6556 0.0000
# 4 0.0000 0.0000 0.0000 5.7616 0.0000 0.6003
# 5 -0.3005 4.5264 17.6556 0.0000 42.1274 0.0000
# 6 0.0000 0.0000 0.0000 0.6003 0.0000 15.0682
#
#
#
# Elastic Compliance Matrix: (Units=1/GPa)
#
#
# Indices 1 2 3 4 5 6 
#
# 1 0.012826 0.000052 -0.003419 0.000000 0.001519 0.000000
# 2 0.000052 0.018514 -0.003187 0.000000 -0.000653 0.000000
# 3 -0.003419 -0.003187 0.009413 0.000000 -0.003627 0.000000
# 4 0.000000 0.000000 0.000000 0.174288 0.000000 -0.006944
# 5 0.001519 -0.000653 -0.003627 0.000000 0.025339 0.000000
# 6 0.000000 0.000000 0.000000 -0.006944 0.000000 0.066642
#
#
# Mechanical properties :
#
#
# Convention : Reuss Voigt Hill
#
# Bulk Modulus (GPa) = 36.17445 44.72419 40.44932
# Shear Modulus (GPa) = 15.18169 26.98559 21.08364
#
# Velocity S-wave (km/s) = 2.69191 3.58894 3.17229
# Velocity P-wave (km/s) = 5.18925 6.20656 5.72056
#
# Compressibility (1/GPa) = 0.02764382
#
# Stress axis : x y z
#
# Youngs Moduli (GPa) = 77.96705 54.01377 106.23662
#
# Poissons Ratio (x) = -0.00279 0.36328
# Poissons Ratio (y) = -0.00402 0.33853
# Poissons Ratio (z) = 0.26661 0.17212
#
# Static dielectric constant tensor:
#      x y z
#    x 1.788330 0.000000 0.000930 
#    y 0.000000 1.819210 0.000000 
#    z 0.000930 0.000000 1.792290 
# 
# From -- ./inp_files/88464.got.cif
#   From: 2010.05.17/outbox.cif.g08.bks.cpg/sg13_45_cif.got.tgz:88464.got - 2010.06.03 16:44:36.
