data_PCOD9227268
_publ_section_title
;
Structure prediction by ZEFSAII (Michael W. Deem and Ramdas Pophale) SiO2 
 PCOD9227268
Probable space group: P 2/C
;
_chemical_formula_sum "Si O2"
_cell_formula_units_Z 32
_cell_length_a 8.624933
_cell_length_b 10.118178
_cell_length_c 17.892135
_cell_angle_alpha 90.000000
_cell_angle_beta 52.290952
_cell_angle_gamma 90.000000
_cell_volume 1235.282794
_symmetry_space_group_name_H-M "P 2/C"
_symmetry_group_IT_number 13
_symmetry_cell_setting 'monoclinic'
loop_
_space_group_symop_operation_xyz
x,y,z
-x,y,1/2-z
-x,-y,-z
x,-y,1/2+z
loop_
_atom_site_type_symbol
_atom_site_label
_atom_site_fract_x
_atom_site_fract_y
_atom_site_fract_z
Si Si1 0.188207 0.760987 0.426432
Si Si2 0.777794 0.795209 0.516032
Si Si3 0.084758 0.437462 0.145498
Si Si4 0.709943 0.470287 0.688380
Si Si5 0.214833 0.702795 0.184386
Si Si6 0.271462 0.031104 0.323753
Si Si7 0.441122 0.750937 0.523824
Si Si8 0.141696 0.060842 0.090566
O O1 0.302344 0.626123 0.379643
O O2 0.176401 0.844057 0.506765
O O3 0.972744 0.712852 0.465382
O O4 0.249424 0.876289 0.350495
O O5 0.773443 0.879385 0.591831
O O6 0.585816 0.718646 0.549645
O O7 0.811770 0.911489 0.445310
O O8 0.160202 0.583144 0.144268
O O9 0.275914 0.359597 0.064286
O O10 0.000000 0.383219 0.250000
O O11 0.901749 0.439010 0.142483
O O12 0.500000 0.542348 0.750000
O O13 0.736191 0.369441 0.751694
O O14 0.000000 0.776231 0.250000
O O15 0.412492 0.766101 0.091072
O O16 0.500000 0.054258 0.250000
O O17 0.089469 0.066198 0.322225
O O18 0.318909 0.880711 0.586135
#
# Coordination Sequence:
#
# PCOD9227268 Si02
#       8
#     4   4   4   4   4   4   4   4
#     4   9  17  34  56  78 103 137 175 220 283 332
#     4   9  19  34  53  76 107 142 178 219 268 326
#     4   9  22  39  52  75 109 144 184 225 267 326
#     4  10  18  34  57  81 106 135 178 236 278 316
#     4   9  20  36  54  80 107 133 180 235 277 325
#     4   9  18  34  53  76 108 142 176 220 269 325
#     4  12  20  35  58  76 106 152 180 216 276 328
#     4   9  20  34  51  82 112 135 179 229 266 320
#
# _framework density 25.905002
#
# number of rings (size 3 to 8) (size 9 to 14) (size 15 to 20)
#    0.000    2.750    0.000    4.875    0.000    2.000 
#    0.000    8.125    0.000    1.500    0.000    0.000 
#    0.000    0.000    0.000    0.000    0.000    0.000 
#
# Total GULP energy -178455.564689 kJ/mol
# GULP energy per Si atom -5576.736397 kJ/mol
# Density = 2.584604 g / cm^3
# Si number density = 25.905002 Si / 1000 Ang^3
#
#
#
# Elastic Constant Matrix: (Units=GPa)
#
#
# Indices 1 2 3 4 5 6 
#
# 1 110.6256 18.8118 46.4519 0.0000 -44.2113 0.0000
# 2 18.8118 42.3844 27.1383 0.0000 -10.3378 0.0000
# 3 46.4519 27.1383 95.9855 0.0000 -41.6003 0.0000
# 4 0.0000 0.0000 0.0000 15.8020 0.0000 0.3488
# 5 -44.2113 -10.3378 -41.6003 0.0000 58.1908 0.0000
# 6 0.0000 0.0000 0.0000 0.3488 0.0000 29.4726
#
#
#
# Elastic Compliance Matrix: (Units=1/GPa)
#
#
# Indices 1 2 3 4 5 6 
#
# 1 0.013797 -0.002600 -0.002317 0.000000 0.008365 0.000000
# 2 -0.002600 0.029341 -0.008164 0.000000 -0.002599 0.000000
# 3 -0.002317 -0.008164 0.018048 0.000000 0.009692 0.000000
# 4 0.000000 0.000000 0.000000 0.063300 0.000000 -0.000749
# 5 0.008365 -0.002599 0.009692 0.000000 0.030007 0.000000
# 6 0.000000 0.000000 0.000000 -0.000749 0.000000 0.033939
#
#
# Mechanical properties :
#
#
# Convention : Reuss Voigt Hill
#
# Bulk Modulus (GPa) = 28.55126 48.19995 38.37560
# Shear Modulus (GPa) = 22.09765 31.13264 26.61514
#
# Velocity S-wave (km/s) = 2.92383 3.47046 3.20881
# Velocity P-wave (km/s) = 4.73749 5.89115 5.34553
#
# Compressibility (1/GPa) = 0.03502472
#
# Stress axis : x y z
#
# Youngs Moduli (GPa) = 72.47762 34.08211 55.40734
#
# Poissons Ratio (x) = 0.08862 0.12837
# Poissons Ratio (y) = 0.18846 0.45234
# Poissons Ratio (z) = 0.16792 0.27824
#
# Static dielectric constant tensor:
#      x y z
#    x 2.456580 0.000000 0.001300 
#    y 0.000000 2.022670 0.000000 
#    z 0.001300 0.000000 2.181310 
# 
# From -- ./inp_files/76444.got.cif
#   From: 2010.05.17/outbox.cif.g08.bks.cpg/sg13_39_cif.got.tgz:76444.got - 2010.06.03 16:44:36.
