data_PCOD9227351
_publ_section_title
;
Structure prediction by ZEFSAII (Michael W. Deem and Ramdas Pophale) SiO2 
 PCOD9227351
Probable space group: P 2/C
;
_chemical_formula_sum "Si O2"
_cell_formula_units_Z 22
_cell_length_a 9.139690
_cell_length_b 7.412521
_cell_length_c 25.992659
_cell_angle_alpha 90.000000
_cell_angle_beta 34.330652
_cell_angle_gamma 90.000000
_cell_volume 993.121781
_symmetry_space_group_name_H-M "P 2/C"
_symmetry_group_IT_number 13
_symmetry_cell_setting 'monoclinic'
loop_
_space_group_symop_operation_xyz
x,y,z
-x,y,1/2-z
-x,-y,-z
x,-y,1/2+z
loop_
_atom_site_type_symbol
_atom_site_label
_atom_site_fract_x
_atom_site_fract_y
_atom_site_fract_z
Si Si1 0.899751 0.978446 0.587002
Si Si2 0.582745 0.875403 0.023489
Si Si3 0.000000 0.237317 0.250000
Si Si4 0.611342 0.991689 0.810100
Si Si5 0.235387 0.682516 0.306064
Si Si6 0.827631 0.428591 0.847618
O O1 0.610059 0.904429 0.661500
O O2 0.107419 0.865447 0.559089
O O3 0.878043 0.177176 0.618987
O O4 0.000000 0.000000 0.500000
O O5 0.424825 0.688500 0.068007
O O6 0.488572 0.972423 0.103351
O O7 0.500000 0.000000 0.000000
O O8 0.130719 0.121205 0.256217
O O9 0.212053 0.371147 0.163012
O O10 0.669486 0.180058 0.765953
O O11 0.500000 0.592653 0.250000
O O12 0.012901 0.567068 0.343665
O O13 0.000000 0.345024 0.750000
#
# Coordination Sequence:
#
# PCOD9227351 Si02
#       6
#     4   4   2   4   4   4
#     4   9  20  32  55  89 112 136 188 252 295 316
#     4  11  19  33  62  86 111 143 197 253 284 319
#     4  10  22  36  60  78 122 158 192 220 286 354
#     4  10  19  36  56  83 113 151 195 233 280 348
#     4  10  18  34  61  83 106 147 204 246 272 325
#     4  10  20  36  56  83 112 152 196 230 279 343
#
# _framework density 22.152370999999999
#
# number of rings (size 3 to 8) (size 9 to 14) (size 15 to 20)
#    0.545    1.455    3.636    1.091    0.000    0.000 
#    0.000    4.545    0.000    0.000    0.000    0.000 
#    0.000    0.000    0.000    0.000    0.000    0.000 
#
# Total GULP energy -122678.369727 kJ/mol
# GULP energy per Si atom -5576.289533 kJ/mol
# Density = 2.210195 g / cm^3
# Si number density = 22.152371 Si / 1000 Ang^3
#
#
#
# Elastic Constant Matrix: (Units=GPa)
#
#
# Indices 1 2 3 4 5 6 
#
# 1 148.6531 19.5660 27.1765 0.0000 -15.7087 0.0000
# 2 19.5660 26.3816 -6.8645 0.0000 -11.0847 0.0000
# 3 27.1765 -6.8645 41.8382 0.0000 14.5284 0.0000
# 4 0.0000 0.0000 0.0000 8.4966 0.0000 -6.6395
# 5 -15.7087 -11.0847 14.5284 0.0000 57.8785 0.0000
# 6 0.0000 0.0000 0.0000 -6.6395 0.0000 3.7035
#
#
#
# Elastic Compliance Matrix: (Units=1/GPa)
#
#
# Indices 1 2 3 4 5 6 
#
# 1 0.009762 -0.008148 -0.008826 0.000000 0.003304 0.000000
# 2 -0.008148 0.048778 0.011853 0.000000 0.004155 0.000000
# 3 -0.008826 0.011853 0.034642 0.000000 -0.008821 0.000000
# 4 0.000000 0.000000 0.000000 -0.293583 0.000000 -0.526316
# 5 0.003304 0.004155 -0.008821 0.000000 0.021184 0.000000
# 6 0.000000 0.000000 0.000000 -0.526316 0.000000 -0.673535
#
#
# Mechanical properties :
#
#
# Convention : Reuss Voigt Hill
#
# Bulk Modulus (GPa) = 12.05665 32.95876 22.50770
# Shear Modulus (GPa) = -6.13601 25.81538 9.83969
#
# Velocity S-wave (km/s) = -1.66611 3.41743 2.10985
# Velocity P-wave (km/s) = 1.32408 5.52108 4.01469
#
# Compressibility (1/GPa) = 0.08294177
#
# Stress axis : x y z
#
# Youngs Moduli (GPa) = 102.43580 20.50085 28.86649
#
# Poissons Ratio (x) = 0.16705 0.25476
# Poissons Ratio (y) = 0.83467 -0.34216
# Poissons Ratio (z) = 0.90405 -0.24300
#
# Static dielectric constant tensor:
#      x y z
#    x 1.803950 0.000000 0.018010 
#    y 0.000000 1.763060 0.000000 
#    z 0.018010 0.000000 1.832730 
# 
# From -- ./inp_files/62949.got.cif
#   From: 2010.05.17/outbox.cif.g08.bks.cpg/sg13_32_cif.got.tgz:62949.got - 2010.06.03 16:44:36.
