data_PCOD9227747
_publ_section_title
;
Structure prediction by ZEFSAII (Michael W. Deem and Ramdas Pophale) SiO2 
 PCOD9227747
Probable space group: P 2/C
;
_chemical_formula_sum "Si O2"
_cell_formula_units_Z 22
_cell_length_a 9.484625
_cell_length_b 14.335356
_cell_length_c 13.749384
_cell_angle_alpha 90.000000
_cell_angle_beta 27.550195
_cell_angle_gamma 90.000000
_cell_volume 864.664416
_symmetry_space_group_name_H-M "P 2/C"
_symmetry_group_IT_number 13
_symmetry_cell_setting 'monoclinic'
loop_
_space_group_symop_operation_xyz
x,y,z
-x,y,1/2-z
-x,-y,-z
x,-y,1/2+z
loop_
_atom_site_type_symbol
_atom_site_label
_atom_site_fract_x
_atom_site_fract_y
_atom_site_fract_z
Si Si1 0.786933 0.429385 0.692418
Si Si2 0.630595 0.591582 0.560615
Si Si3 0.544370 0.212489 0.069148
Si Si4 0.907475 0.150593 0.652103
Si Si5 0.188399 0.952411 0.729342
Si Si6 0.500000 0.255270 0.750000
O O1 0.489852 0.490693 0.898040
O O2 0.691027 0.338585 0.691962
O O3 0.000000 0.500000 0.500000
O O4 0.005290 0.403748 0.648135
O O5 0.500000 0.603506 0.750000
O O6 0.478194 0.678335 0.598373
O O7 0.270291 0.138574 0.241622
O O8 0.714653 0.181492 0.866329
O O9 0.773412 0.201138 0.019587
O O10 0.692494 0.176998 0.694586
O O11 0.971775 0.039840 0.621640
O O12 0.000000 0.921820 0.750000
O O13 0.500000 0.000000 0.500000
#
# Coordination Sequence:
#
# PCOD9227747 Si02
#       6
#     4   4   4   4   4   2
#     4  10  19  36  61  84 121 161 195 243 311 352
#     4  10  20  38  63  88 118 162 200 247 305 359
#     4  10  20  40  63  88 122 160 202 249 298 365
#     4  10  21  37  64  89 119 164 201 243 306 358
#     4  10  18  39  62  85 121 162 193 240 311 357
#     4  12  20  36  64  86 116 164 204 240 302 360
#
# _framework density 25.443397999999998
#
# number of rings (size 3 to 8) (size 9 to 14) (size 15 to 20)
#    0.000    1.818    8.182    0.000    0.000    0.000 
#   14.727    1.818    4.000    0.000    0.000    0.000 
#    0.000    0.000    0.000    0.000    0.000    0.000 
#
# Total GULP energy -122557.457189 kJ/mol
# GULP energy per Si atom -5570.793509 kJ/mol
# Density = 2.538549 g / cm^3
# Si number density = 25.443398 Si / 1000 Ang^3
#
#
#
# Elastic Constant Matrix: (Units=GPa)
#
#
# Indices 1 2 3 4 5 6 
#
# 1 188.2055 -51.9306 -22.8597 0.0000 -30.2852 0.0000
# 2 -51.9306 454.9425 233.5797 0.0000 -98.5320 0.0000
# 3 -22.8597 233.5797 231.2943 0.0000 -81.9560 0.0000
# 4 0.0000 0.0000 0.0000 31.4821 0.0000 -19.0197
# 5 -30.2852 -98.5320 -81.9560 0.0000 66.5357 0.0000
# 6 0.0000 0.0000 0.0000 -19.0197 0.0000 48.8869
#
#
#
# Elastic Compliance Matrix: (Units=1/GPa)
#
#
# Indices 1 2 3 4 5 6 
#
# 1 0.007293 0.001544 0.002037 0.000000 0.008115 0.000000
# 2 0.001544 0.005035 -0.003621 0.000000 0.003698 0.000000
# 3 0.002037 -0.003621 0.011730 0.000000 0.010012 0.000000
# 4 0.000000 0.000000 0.000000 0.041524 0.000000 0.016155
# 5 0.008115 0.003698 0.010012 0.000000 0.036532 0.000000
# 6 0.000000 0.000000 0.000000 0.016155 0.000000 0.026741
#
#
# Mechanical properties :
#
#
# Convention : Reuss Voigt Hill
#
# Bulk Modulus (GPa) = 41.70819 132.44678 87.07749
# Shear Modulus (GPa) = 36.51588 77.09113 56.80350
#
# Velocity S-wave (km/s) = 3.79249 5.51043 4.73011
# Velocity P-wave (km/s) = 5.96703 9.62574 8.00813
#
# Compressibility (1/GPa) = 0.02397610
#
# Stress axis : x y z
#
# Youngs Moduli (GPa) = 137.12375 198.62605 85.25396
#
# Poissons Ratio (x) = -0.30675 -0.17363
# Poissons Ratio (y) = -0.21177 0.30874
# Poissons Ratio (z) = -0.27927 0.71930
#
# Static dielectric constant tensor:
#      x y z
#    x 2.057280 0.000000 0.095510 
#    y 0.000000 2.022830 0.000000 
#    z 0.095510 0.000000 2.240110 
# 
# From -- ./inp_files/64546.got.cif
#   From: 2010.05.17/outbox.cif.g08.bks.cpg/sg13_33_cif.got.tgz:64546.got - 2010.06.03 16:44:36.
