data_PCOD9227652
_publ_section_title
;
Structure prediction by ZEFSAII (Michael W. Deem and Ramdas Pophale) SiO2 
 PCOD9227652
Probable space group: P 2/C
;
_chemical_formula_sum "Si O2"
_cell_formula_units_Z 26
_cell_length_a 10.194485
_cell_length_b 10.217142
_cell_length_c 15.236677
_cell_angle_alpha 90.000000
_cell_angle_beta 131.888054
_cell_angle_gamma 90.000000
_cell_volume 1181.465286
_symmetry_space_group_name_H-M "P 2/C"
_symmetry_group_IT_number 13
_symmetry_cell_setting 'monoclinic'
loop_
_space_group_symop_operation_xyz
x,y,z
-x,y,1/2-z
-x,-y,-z
x,-y,1/2+z
loop_
_atom_site_type_symbol
_atom_site_label
_atom_site_fract_x
_atom_site_fract_y
_atom_site_fract_z
Si Si1 0.392859 0.405867 0.515662
Si Si2 0.820773 0.153996 0.919961
Si Si3 0.333718 0.709780 0.727941
Si Si4 0.511125 0.148958 0.471278
Si Si5 0.820200 0.120325 0.496842
Si Si6 0.500000 0.664891 0.250000
Si Si7 0.982171 0.665957 0.644942
O O1 0.500000 0.500000 0.500000
O O2 0.436415 0.256883 0.504891
O O3 0.459442 0.413895 0.644119
O O4 0.182531 0.432934 0.419356
O O5 0.667878 0.241075 0.811613
O O6 0.754697 0.022383 0.936906
O O7 0.910119 0.235685 0.039089
O O8 0.968488 0.118010 0.913644
O O9 0.500000 0.653199 0.750000
O O10 0.404864 0.810839 0.834331
O O11 0.237877 0.786096 0.607439
O O12 0.178428 0.623255 0.702760
O O13 0.716738 0.165373 0.536594
O O14 0.500000 0.000000 0.500000
O O15 0.000000 0.727150 0.750000
#
# Coordination Sequence:
#
# PCOD9227652 Si02
#       7
#     4   4   4   4   4   2   4
#     4  11  25  45  67 100 136 176 231 280 342 413
#     4   9  19  35  60  89 136 173 223 261 350 398
#     4   9  19  33  59  95 131 171 219 270 326 396
#     4  11  21  36  64 101 132 168 223 275 333 395
#     4   9  19  34  54  94 133 173 210 281 325 399
#     4  10  22  42  68  86 130 188 216 276 346 408
#     4  10  18  37  63  93 120 175 219 271 322 401
#
# _framework density 22.006571000000001
#
# number of rings (size 3 to 8) (size 9 to 14) (size 15 to 20)
#    0.000    2.154    1.538    1.846    5.385    0.000 
#    4.154    2.308    0.000    7.385    0.000    0.000 
#    0.000    0.000    0.000    0.000    0.000    0.000 
#
# Total GULP energy -144967.532680 kJ/mol
# GULP energy per Si atom -5575.674334 kJ/mol
# Density = 2.195648 g / cm^3
# Si number density = 22.006571 Si / 1000 Ang^3
#
#
#
# Elastic Constant Matrix: (Units=GPa)
#
#
# Indices 1 2 3 4 5 6 
#
# 1 184.1944 38.8426 50.3907 0.0000 20.2185 0.0000
# 2 38.8426 68.2898 20.3248 0.0000 8.0264 0.0000
# 3 50.3907 20.3248 69.5877 0.0000 3.3164 0.0000
# 4 0.0000 0.0000 0.0000 13.8493 0.0000 -10.2442
# 5 20.2185 8.0264 3.3164 0.0000 28.8281 0.0000
# 6 0.0000 0.0000 0.0000 -10.2442 0.0000 34.7814
#
#
#
# Elastic Compliance Matrix: (Units=1/GPa)
#
#
# Indices 1 2 3 4 5 6 
#
# 1 0.007680 -0.002501 -0.004633 0.000000 -0.004157 0.000000
# 2 -0.002501 0.017312 -0.003116 0.000000 -0.002707 0.000000
# 3 -0.004633 -0.003116 0.018541 0.000000 0.001984 0.000000
# 4 0.000000 0.000000 0.000000 0.092319 0.000000 0.027191
# 5 -0.004157 -0.002707 0.001984 0.000000 0.038130 0.000000
# 6 0.000000 0.000000 0.000000 0.027191 0.000000 0.036759
#
#
# Mechanical properties :
#
#
# Convention : Reuss Voigt Hill
#
# Bulk Modulus (GPa) = 43.41690 60.13201 51.77446
# Shear Modulus (GPa) = 20.92768 29.65933 25.29350
#
# Velocity S-wave (km/s) = 3.08713 3.67515 3.39390
# Velocity P-wave (km/s) = 5.69904 6.73742 6.23987
#
# Compressibility (1/GPa) = 0.02303251
#
# Stress axis : x y z
#
# Youngs Moduli (GPa) = 130.20484 57.76449 53.93506
#
# Poissons Ratio (x) = 0.14447 0.24988
# Poissons Ratio (y) = 0.32564 0.16807
# Poissons Ratio (z) = 0.60323 0.18001
#
# Static dielectric constant tensor:
#      x y z
#    x 1.989200 0.000000 0.026740 
#    y 0.000000 1.802920 0.000000 
#    z 0.026740 0.000000 1.802280 
# 
# From -- ./inp_files/47032.got.cif
#   From: 2010.05.17/outbox.cif.g08.bks.cpg/sg13_24_cif.got.tgz:47032.got - 2010.06.03 16:44:36.
