data_PCOD9227853
_publ_section_title
;
Structure prediction by ZEFSAII (Michael W. Deem and Ramdas Pophale) SiO2 
 PCOD9227853
Probable space group: P 2/C
;
_chemical_formula_sum "Si O2"
_cell_formula_units_Z 24
_cell_length_a 18.690181
_cell_length_b 7.102431
_cell_length_c 19.894690
_cell_angle_alpha 90.000000
_cell_angle_beta 156.428633
_cell_angle_gamma 90.000000
_cell_volume 1056.086229
_symmetry_space_group_name_H-M "P 2/C"
_symmetry_group_IT_number 13
_symmetry_cell_setting 'monoclinic'
loop_
_space_group_symop_operation_xyz
x,y,z
-x,y,1/2-z
-x,-y,-z
x,-y,1/2+z
loop_
_atom_site_type_symbol
_atom_site_label
_atom_site_fract_x
_atom_site_fract_y
_atom_site_fract_z
Si Si1 0.109994 0.973134 0.279951
Si Si2 0.520942 0.395263 0.687198
Si Si3 0.909246 0.547374 0.493072
Si Si4 0.499414 0.993822 0.417403
Si Si5 0.859040 0.431502 0.184734
Si Si6 0.125006 0.007177 0.544101
O O1 0.314929 0.913954 0.446172
O O2 0.132177 0.202114 0.302960
O O3 0.000000 0.915133 0.250000
O O4 0.982027 0.917304 0.108694
O O5 0.500000 0.346501 0.750000
O O6 0.703696 0.511878 0.831431
O O7 0.513332 0.213805 0.629397
O O8 0.336635 0.493423 0.506604
O O9 0.872384 0.771187 0.470392
O O10 0.000000 0.500000 0.500000
O O11 0.061780 0.495634 0.677662
O O12 0.314918 0.075874 0.229417
O O13 0.500000 0.000000 0.500000
O O14 0.000000 0.485312 0.250000
O O15 0.000000 0.000000 0.500000
#
# Coordination Sequence:
#
# PCOD9227853 Si02
#       6
#     4   4   4   4   4   4
#     4   9  18  29  47  76 104 130 175 227 266 303
#     4  10  19  32  55  83 107 139 189 233 269 319
#     4  10  21  34  52  83 110 136 178 231 278 320
#     4  10  19  29  47  79 113 138 170 224 276 319
#     4   9  16  30  52  76 106 134 176 229 273 311
#     4  10  19  33  53  76 105 142 174 215 269 326
#
# _framework density 22.725417
#
# number of rings (size 3 to 8) (size 9 to 14) (size 15 to 20)
#    0.000    2.333    3.333    0.000    7.000    0.667 
#    0.000    0.000    0.000    1.000    4.333    0.000 
#    0.000    0.000    0.000    0.000    0.000    0.000 
#
# Total GULP energy -133700.436239 kJ/mol
# GULP energy per Si atom -5570.851510 kJ/mol
# Density = 2.267369 g / cm^3
# Si number density = 22.725417 Si / 1000 Ang^3
#
#
#
# Elastic Constant Matrix: (Units=GPa)
#
#
# Indices 1 2 3 4 5 6 
#
# 1 178.7980 -0.2472 117.2784 0.0000 -3.9783 0.0000
# 2 -0.2472 89.8485 6.4237 0.0000 -7.6598 0.0000
# 3 117.2784 6.4237 266.6287 0.0000 14.2980 0.0000
# 4 0.0000 0.0000 0.0000 -10.4398 0.0000 -5.5616
# 5 -3.9783 -7.6598 14.2980 0.0000 58.8195 0.0000
# 6 0.0000 0.0000 0.0000 -5.5616 0.0000 16.3706
#
#
#
# Elastic Compliance Matrix: (Units=1/GPa)
#
#
# Indices 1 2 3 4 5 6 
#
# 1 0.007989 0.000405 -0.003603 0.000000 0.001469 0.000000
# 2 0.000405 0.011308 -0.000538 0.000000 0.001631 0.000000
# 3 -0.003603 -0.000538 0.005436 0.000000 -0.001635 0.000000
# 4 0.000000 0.000000 0.000000 -0.081108 0.000000 -0.027555
# 5 0.001469 0.001631 -0.001635 0.000000 0.017710 0.000000
# 6 0.000000 0.000000 0.000000 -0.027555 0.000000 0.051724
#
#
# Mechanical properties :
#
#
# Convention : Reuss Voigt Hill
#
# Bulk Modulus (GPa) = 57.93110 86.90942 72.42026
# Shear Modulus (GPa) = 190.21793 40.40474 115.31133
#
# Velocity S-wave (km/s) = 9.15884 4.22115 7.13101
# Velocity P-wave (km/s) = 11.72148 7.87933 9.98691
#
# Compressibility (1/GPa) = 0.01726189
#
# Stress axis : x y z
#
# Youngs Moduli (GPa) = 125.16902 88.42947 183.96520
#
# Poissons Ratio (x) = -0.03579 0.66276
# Poissons Ratio (y) = -0.05066 0.09896
# Poissons Ratio (z) = 0.45094 0.04757
#
# Static dielectric constant tensor:
#      x y z
#    x 1.827470 0.000000 0.005210 
#    y 0.000000 1.981630 0.000000 
#    z 0.005210 0.000000 1.870570 
# 
# From -- ./inp_files/53762.got.cif
#   From: 2010.05.17/outbox.cif.g08.bks.cpg/sg13_27_cif.got.tgz:53762.got - 2010.06.03 16:44:36.
