data_PCOD9227642
_publ_section_title
;
Structure prediction by ZEFSAII (Michael W. Deem and Ramdas Pophale) SiO2 
 PCOD9227642
Probable space group: P 2/C
;
_chemical_formula_sum "Si O2"
_cell_formula_units_Z 20
_cell_length_a 7.817377
_cell_length_b 10.814326
_cell_length_c 11.704602
_cell_angle_alpha 90.000000
_cell_angle_beta 124.266472
_cell_angle_gamma 90.000000
_cell_volume 817.752993
_symmetry_space_group_name_H-M "P 2/C"
_symmetry_group_IT_number 13
_symmetry_cell_setting 'monoclinic'
loop_
_space_group_symop_operation_xyz
x,y,z
-x,y,1/2-z
-x,-y,-z
x,-y,1/2+z
loop_
_atom_site_type_symbol
_atom_site_label
_atom_site_fract_x
_atom_site_fract_y
_atom_site_fract_z
Si Si1 0.935413 0.777076 0.540542
Si Si2 0.287596 0.132425 0.740808
Si Si3 0.352408 0.308750 0.965824
Si Si4 0.691365 0.148437 0.175997
Si Si5 0.338194 0.546206 0.084040
O O1 0.901602 0.862022 0.418074
O O2 0.792240 0.832081 0.588753
O O3 0.844846 0.644703 0.467785
O O4 0.159903 0.780217 0.680296
O O5 0.500000 0.165652 0.750000
O O6 0.315974 0.995455 0.798732
O O7 0.247470 0.229728 0.826694
O O8 0.467650 0.209466 0.087956
O O9 0.253053 0.416562 0.003584
O O10 0.528735 0.384987 0.963718
O O11 0.500000 0.528028 0.250000
#
# Coordination Sequence:
#
# PCOD9227642 Si02
#       5
#     4   4   4   4   4
#     4  10  20  40  61  84 122 159 192 252 309 345
#     4  12  20  37  62  88 123 163 198 243 299 361
#     4  10  20  35  60  87 115 157 208 242 290 357
#     4  10  22  36  60  90 121 155 199 247 307 354
#     4  10  18  37  62  82 114 163 207 244 288 360
#
# _framework density 24.457263000000001
#
# number of rings (size 3 to 8) (size 9 to 14) (size 15 to 20)
#    0.000    1.600    6.000    1.200    0.000    0.800 
#    0.000    1.000    8.800    0.000    0.000    0.000 
#    0.000    0.000    0.000    0.000    0.000    0.000 
#
# Total GULP energy -111890.184860 kJ/mol
# GULP energy per Si atom -5594.509243 kJ/mol
# Density = 2.440160 g / cm^3
# Si number density = 24.457263 Si / 1000 Ang^3
#
#
#
# Elastic Constant Matrix: (Units=GPa)
#
#
# Indices 1 2 3 4 5 6 
#
# 1 72.3793 21.2241 13.5576 0.0000 -15.3048 0.0000
# 2 21.2241 163.9973 88.5946 0.0000 -18.9754 0.0000
# 3 13.5576 88.5946 159.4939 0.0000 1.4196 0.0000
# 4 0.0000 0.0000 0.0000 37.8739 0.0000 -11.9965
# 5 -15.3048 -18.9754 1.4196 0.0000 13.8556 0.0000
# 6 0.0000 0.0000 0.0000 -11.9965 0.0000 8.0344
#
#
#
# Elastic Compliance Matrix: (Units=1/GPa)
#
#
# Indices 1 2 3 4 5 6 
#
# 1 0.018784 0.001808 -0.002810 0.000000 0.023512 0.000000
# 2 0.001808 0.011726 -0.006834 0.000000 0.018755 0.000000
# 3 -0.002810 -0.006834 0.010425 0.000000 -0.013531 0.000000
# 4 0.000000 0.000000 0.000000 0.050097 0.000000 0.074801
# 5 0.023512 0.018755 -0.013531 0.000000 0.125216 0.000000
# 6 0.000000 0.000000 0.000000 0.074801 0.000000 0.236154
#
#
# Mechanical properties :
#
#
# Convention : Reuss Voigt Hill
#
# Bulk Modulus (GPa) = 39.58483 71.40258 55.49371
# Shear Modulus (GPa) = 10.49330 30.11905 20.30617
#
# Velocity S-wave (km/s) = 2.07359 3.51308 2.88457
# Velocity P-wave (km/s) = 4.68545 6.76120 5.81667
#
# Compressibility (1/GPa) = 0.02526220
#
# Stress axis : x y z
#
# Youngs Moduli (GPa) = 53.23638 85.28383 95.92212
#
# Poissons Ratio (x) = -0.15415 0.26954
# Poissons Ratio (y) = -0.09623 0.65551
# Poissons Ratio (z) = 0.14960 0.58281
#
# Static dielectric constant tensor:
#      x y z
#    x 2.030480 0.000000 -0.006190 
#    y 0.000000 1.922700 0.000000 
#    z -0.006190 0.000000 1.935000 
# 
# From -- ./inp_files/32749.got.cif
#   From: 2010.05.17/outbox.cif.g08.bks.cpg/sg13_17_cif.got.tgz:32749.got - 2010.06.03 16:44:36.
