data_PCOD9227385
_publ_section_title
;
Structure prediction by ZEFSAII (Michael W. Deem and Ramdas Pophale) SiO2 
 PCOD9227385
Probable space group: P 2/C
;
_chemical_formula_sum "Si O2"
_cell_formula_units_Z 30
_cell_length_a 21.582443
_cell_length_b 15.888588
_cell_length_c 7.897749
_cell_angle_alpha 90.000000
_cell_angle_beta 144.029388
_cell_angle_gamma 90.000000
_cell_volume 1590.747152
_symmetry_space_group_name_H-M "P 2/C"
_symmetry_group_IT_number 13
_symmetry_cell_setting 'monoclinic'
loop_
_space_group_symop_operation_xyz
x,y,z
-x,y,1/2-z
-x,-y,-z
x,-y,1/2+z
loop_
_atom_site_type_symbol
_atom_site_label
_atom_site_fract_x
_atom_site_fract_y
_atom_site_fract_z
Si Si1 0.623293 0.254040 0.695581
Si Si2 0.907318 0.295639 0.903111
Si Si3 0.486708 0.903851 0.921446
Si Si4 0.688077 0.215418 0.453896
Si Si5 0.000000 0.313271 0.750000
Si Si6 0.216379 0.380725 0.328821
Si Si7 0.553661 0.361899 0.046415
Si Si8 0.750336 0.445804 0.465657
O O1 0.571325 0.169391 0.661728
O O2 0.646773 0.238828 0.550658
O O3 0.538643 0.328372 0.537587
O O4 0.729648 0.292466 0.007801
O O5 0.812747 0.229490 0.730269
O O6 0.952806 0.272120 0.816999
O O7 0.843441 0.385944 0.748735
O O8 0.000000 0.297565 0.250000
O O9 0.500000 0.902403 0.750000
O O10 0.369652 0.872097 0.712222
O O11 0.500000 0.000000 0.000000
O O12 0.633202 0.281832 0.206033
O O13 0.906313 0.368342 0.469616
O O14 0.260803 0.415139 0.251036
O O15 0.228974 0.455490 0.489097
O O16 0.635590 0.430404 0.295828
O O17 0.500000 0.383433 0.750000
#
# Coordination Sequence:
#
# PCOD9227385 Si02
#       8
#     4   4   4   4   2   4   4   4
#     4  10  20  37  60  79 120 156 193 239 304 361
#     4  10  21  39  61  84 117 159 204 263 308 346
#     4   9  19  37  59  96 121 151 189 234 300 372
#     4   9  20  36  59  86 116 152 194 238 299 369
#     4  10  24  38  58  84 114 150 220 254 312 348
#     4  11  23  38  53  81 115 156 204 265 292 351
#     4  10  18  35  49  77 112 149 189 237 289 352
#     4  10  24  35  52  81 115 151 216 242 309 347
#
# _framework density 18.859061000000001
#
# number of rings (size 3 to 8) (size 9 to 14) (size 15 to 20)
#    0.000    2.133    1.333    2.000    6.533    3.733 
#    0.000    0.000    0.000    0.000    1.733    2.800 
#    0.000    0.000    0.000    0.000    0.000    0.000 
#
# Total GULP energy -167061.395436 kJ/mol
# GULP energy per Si atom -5568.713181 kJ/mol
# Density = 1.881614 g / cm^3
# Si number density = 18.859061 Si / 1000 Ang^3
#
#
#
# Elastic Constant Matrix: (Units=GPa)
#
#
# Indices 1 2 3 4 5 6 
#
# 1 87.9175 21.0558 23.2326 0.0000 14.3990 0.0000
# 2 21.0558 87.9600 49.4549 0.0000 1.9317 0.0000
# 3 23.2326 49.4549 118.6696 0.0000 15.2671 0.0000
# 4 0.0000 0.0000 0.0000 11.1658 0.0000 -5.2358
# 5 14.3990 1.9317 15.2671 0.0000 27.9451 0.0000
# 6 0.0000 0.0000 0.0000 -5.2358 0.0000 12.4309
#
#
#
# Elastic Compliance Matrix: (Units=1/GPa)
#
#
# Indices 1 2 3 4 5 6 
#
# 1 0.013211 -0.002642 -0.000681 0.000000 -0.006253 0.000000
# 2 -0.002642 0.015545 -0.006451 0.000000 0.003811 0.000000
# 3 -0.000681 -0.006451 0.011989 0.000000 -0.005753 0.000000
# 4 0.000000 0.000000 0.000000 0.111600 0.000000 0.047005
# 5 -0.006253 0.003811 -0.005753 0.000000 0.041886 0.000000
# 6 0.000000 0.000000 0.000000 0.047005 0.000000 0.100243
#
#
# Mechanical properties :
#
#
# Convention : Reuss Voigt Hill
#
# Bulk Modulus (GPa) = 47.17932 53.55929 50.36931
# Shear Modulus (GPa) = 15.57209 23.69530 19.63369
#
# Velocity S-wave (km/s) = 2.87663 3.54848 3.23007
# Velocity P-wave (km/s) = 6.00870 6.72684 6.37788
#
# Compressibility (1/GPa) = 0.02119573
#
# Stress axis : x y z
#
# Youngs Moduli (GPa) = 75.69409 64.33020 83.41182
#
# Poissons Ratio (x) = 0.16998 0.05679
# Poissons Ratio (y) = 0.20001 0.53811
# Poissons Ratio (z) = 0.05153 0.41501
#
# Static dielectric constant tensor:
#      x y z
#    x 1.763750 0.000000 0.006910 
#    y 0.000000 1.697900 0.000000 
#    z 0.006910 0.000000 1.688870 
# 
# From -- ./inp_files/24236.got.cif
#   From: 2010.05.17/outbox.cif.g08.bks.cpg/sg13_13_cif.got.tgz:24236.got - 2010.06.03 16:44:36.
