data_PCOD9227404
_publ_section_title
;
Structure prediction by ZEFSAII (Michael W. Deem and Ramdas Pophale) SiO2 
 PCOD9227404
Probable space group: P 2/C
;
_chemical_formula_sum "Si O2"
_cell_formula_units_Z 24
_cell_length_a 24.167583
_cell_length_b 4.980691
_cell_length_c 17.830494
_cell_angle_alpha 90.000000
_cell_angle_beta 24.559789
_cell_angle_gamma 90.000000
_cell_volume 892.084965
_symmetry_space_group_name_H-M "P 2/C"
_symmetry_group_IT_number 13
_symmetry_cell_setting 'monoclinic'
loop_
_space_group_symop_operation_xyz
x,y,z
-x,y,1/2-z
-x,-y,-z
x,-y,1/2+z
loop_
_atom_site_type_symbol
_atom_site_label
_atom_site_fract_x
_atom_site_fract_y
_atom_site_fract_z
Si Si1 0.599273 0.649320 0.527755
Si Si2 0.846512 0.714364 0.587698
Si Si3 0.127738 0.839740 0.270744
Si Si4 0.238448 0.626836 0.556760
Si Si5 0.862633 0.787909 0.964665
Si Si6 0.555637 0.847710 0.004209
O O1 0.855044 0.636167 0.321805
O O2 0.629583 0.488255 0.566583
O O3 0.518040 0.454214 0.573149
O O4 0.537945 0.943519 0.594880
O O5 0.851487 0.420198 0.546316
O O6 0.710808 0.788203 0.796018
O O7 0.974973 0.789976 0.479685
O O8 0.854304 0.917680 0.508131
O O9 0.242061 0.718939 0.184182
O O10 0.172807 0.130835 0.185750
O O11 0.248685 0.727936 0.460119
O O12 0.000000 0.757477 0.750000
O O13 0.500000 0.000000 0.000000
#
# Coordination Sequence:
#
# PCOD9227404 Si02
#       6
#     4   4   4   4   4   4
#     4  10  21  42  63  87 118 163 207 260 309 369
#     4  12  24  36  60  97 128 166 204 240 315 377
#     4  10  18  35  56  96 119 154 191 243 314 374
#     4  10  19  34  60  92 124 158 186 238 321 374
#     4  12  20  36  61  93 137 158 187 250 313 397
#     4  12  26  44  63  83 122 170 217 265 294 352
#
# _framework density 26.903267
#
# number of rings (size 3 to 8) (size 9 to 14) (size 15 to 20)
#    1.000    0.000    5.000    3.000    0.000    1.333 
#    0.000    0.000    0.000    6.000    0.000    0.000 
#    0.000    0.000    0.000    0.000    0.000    0.000 
#
# Total GULP energy -134155.321520 kJ/mol
# GULP energy per Si atom -5589.805063 kJ/mol
# Density = 2.684203 g / cm^3
# Si number density = 26.903267 Si / 1000 Ang^3
#
#
#
# Elastic Constant Matrix: (Units=GPa)
#
#
# Indices 1 2 3 4 5 6 
#
# 1 82.9014 9.3686 -7.3987 0.0000 4.5281 0.0000
# 2 9.3686 120.4968 20.1657 0.0000 -0.0890 0.0000
# 3 -7.3987 20.1657 121.4687 0.0000 -7.5398 0.0000
# 4 0.0000 0.0000 0.0000 14.1294 0.0000 -6.9402
# 5 4.5281 -0.0890 -7.5398 0.0000 17.3305 0.0000
# 6 0.0000 0.0000 0.0000 -6.9402 0.0000 55.7869
#
#
#
# Elastic Compliance Matrix: (Units=1/GPa)
#
#
# Indices 1 2 3 4 5 6 
#
# 1 0.012413 -0.001094 0.000756 0.000000 -0.002920 0.000000
# 2 -0.001094 0.008638 -0.001521 0.000000 -0.000332 0.000000
# 3 0.000756 -0.001521 0.008755 0.000000 0.003603 0.000000
# 4 0.000000 0.000000 0.000000 0.075380 0.000000 0.009378
# 5 -0.002920 -0.000332 0.003603 0.000000 0.060031 0.000000
# 6 0.000000 0.000000 0.000000 0.009378 0.000000 0.019092
#
#
# Mechanical properties :
#
#
# Convention : Reuss Voigt Hill
#
# Bulk Modulus (GPa) = 38.33045 41.01533 39.67289
# Shear Modulus (GPa) = 25.41640 37.63145 31.52393
#
# Velocity S-wave (km/s) = 3.07699 3.74407 3.42680
# Velocity P-wave (km/s) = 5.18674 5.82832 5.51686
#
# Compressibility (1/GPa) = 0.02608892
#
# Stress axis : x y z
#
# Youngs Moduli (GPa) = 80.55985 115.76250 114.22190
#
# Poissons Ratio (x) = 0.12663 -0.08640
# Poissons Ratio (y) = 0.08812 0.17377
# Poissons Ratio (z) = -0.06094 0.17611
#
# Static dielectric constant tensor:
#      x y z
#    x 2.175960 0.000000 -0.001390 
#    y 0.000000 2.039460 0.000000 
#    z -0.001390 0.000000 2.216940 
# 
# From -- ./inp_files/81879.got.cif
#   From: 2010.05.17/outbox.cif.g08.bks.cpg/sg13_41_cif.got.tgz:81879.got - 2010.06.03 16:44:36.
