data_PCOD9227354
_publ_section_title
;
Structure prediction by ZEFSAII (Michael W. Deem and Ramdas Pophale) SiO2 
 PCOD9227354
Probable space group: P 2/C
;
_chemical_formula_sum "Si O2"
_cell_formula_units_Z 28
_cell_length_a 27.817972
_cell_length_b 9.034685
_cell_length_c 9.819071
_cell_angle_alpha 90.000000
_cell_angle_beta 141.428670
_cell_angle_gamma 90.000000
_cell_volume 1538.640992
_symmetry_space_group_name_H-M "P 2/C"
_symmetry_group_IT_number 13
_symmetry_cell_setting 'monoclinic'
loop_
_space_group_symop_operation_xyz
x,y,z
-x,y,1/2-z
-x,-y,-z
x,-y,1/2+z
loop_
_atom_site_type_symbol
_atom_site_label
_atom_site_fract_x
_atom_site_fract_y
_atom_site_fract_z
Si Si1 0.707036 0.145431 0.926035
Si Si2 0.839461 0.324127 0.095828
Si Si3 0.699456 0.131098 0.235445
Si Si4 0.554330 0.034883 0.494414
Si Si5 0.165900 0.674233 0.426774
Si Si6 0.084537 0.826722 0.495270
Si Si7 0.911774 0.822309 0.501507
O O1 0.737493 0.003882 0.906147
O O2 0.618511 0.154615 0.680825
O O3 0.760044 0.278629 0.994068
O O4 0.707236 0.117901 0.088789
O O5 0.843768 0.499124 0.089136
O O6 0.904402 0.257109 0.339009
O O7 0.853460 0.242753 0.984477
O O8 0.609403 0.104227 0.073140
O O9 0.744739 0.274921 0.388450
O O10 0.500000 0.000000 0.500000
O O11 0.500000 0.078623 0.250000
O O12 0.140133 0.751208 0.509450
O O13 0.111414 0.740910 0.188712
O O14 0.000000 0.808360 0.250000
O O15 0.099132 0.001690 0.540982
O O16 0.000000 0.797920 0.750000
#
# Coordination Sequence:
#
# PCOD9227354 Si02
#       7
#     4   4   4   4   4   4   4
#     4  10  21  37  63  92 122 159 197 252 294 366
#     4  12  25  39  60  90 126 162 205 256 308 368
#     4  10  21  37  63  92 122 160 196 252 295 364
#     4  10  18  34  62 100 121 149 200 248 289 352
#     4  12  25  39  60  90 126 161 206 255 310 367
#     4  11  23  42  63  85 117 161 212 261 309 360
#     4  11  25  42  63  87 119 165 214 262 307 357
#
# _framework density 18.197877999999999
#
# number of rings (size 3 to 8) (size 9 to 14) (size 15 to 20)
#    0.857    0.286    2.857    4.286    2.000    5.714 
#    0.000    0.000    0.000    1.714    0.000    0.000 
#    0.000    0.000    0.000    0.000    0.000    0.000 
#
# Total GULP energy -156112.643065 kJ/mol
# GULP energy per Si atom -5575.451538 kJ/mol
# Density = 1.815646 g / cm^3
# Si number density = 18.197878 Si / 1000 Ang^3
#
#
#
# Elastic Constant Matrix: (Units=GPa)
#
#
# Indices 1 2 3 4 5 6 
#
# 1 84.4058 10.5536 17.7828 0.0000 0.5082 0.0000
# 2 10.5536 48.6119 21.1074 0.0000 18.0605 0.0000
# 3 17.7828 21.1074 107.4737 0.0000 2.3272 0.0000
# 4 0.0000 0.0000 0.0000 8.1589 0.0000 5.0250
# 5 0.5082 18.0605 2.3272 0.0000 35.0510 0.0000
# 6 0.0000 0.0000 0.0000 5.0250 0.0000 -8.9610
#
#
#
# Elastic Compliance Matrix: (Units=1/GPa)
#
#
# Indices 1 2 3 4 5 6 
#
# 1 0.012486 -0.002454 -0.001610 0.000000 0.001190 0.000000
# 2 -0.002454 0.028562 -0.004893 0.000000 -0.014356 0.000000
# 3 -0.001610 -0.004893 0.010492 0.000000 0.001848 0.000000
# 4 0.000000 0.000000 0.000000 0.091102 0.000000 0.051087
# 5 0.001190 -0.014356 0.001848 0.000000 0.035787 0.000000
# 6 0.000000 0.000000 0.000000 0.051087 0.000000 -0.082947
#
#
# Mechanical properties :
#
#
# Convention : Reuss Voigt Hill
#
# Bulk Modulus (GPa) = 29.73764 37.70877 33.72321
# Shear Modulus (GPa) = 40.12704 19.58629 29.85666
#
# Velocity S-wave (km/s) = 4.70088 3.28425 4.05491
# Velocity P-wave (km/s) = 6.77061 5.92860 6.36354
#
# Compressibility (1/GPa) = 0.03362742
#
# Stress axis : x y z
#
# Youngs Moduli (GPa) = 80.08738 35.01161 95.31229
#
# Poissons Ratio (x) = 0.08592 0.15344
# Poissons Ratio (y) = 0.19653 0.46632
# Poissons Ratio (z) = 0.12893 0.17130
#
# Static dielectric constant tensor:
#      x y z
#    x 1.807650 0.000000 -0.050910 
#    y 0.000000 1.597870 0.000000 
#    z -0.050910 0.000000 1.691740 
# 
# From -- ./inp_files/24890.got.cif
#   From: 2010.05.17/outbox.cif.g08.bks.cpg/sg13_13_cif.got.tgz:24890.got - 2010.06.03 16:44:36.
