data_PCOD9227965
_publ_section_title
;
Structure prediction by ZEFSAII (Michael W. Deem and Ramdas Pophale) SiO2 
 PCOD9227965
Probable space group: P 2/C
;
_chemical_formula_sum "Si O2"
_cell_formula_units_Z 32
_cell_length_a 13.077173
_cell_length_b 22.256174
_cell_length_c 13.342400
_cell_angle_alpha 90.000000
_cell_angle_beta 158.780606
_cell_angle_gamma 90.000000
_cell_volume 1405.513666
_symmetry_space_group_name_H-M "P 2/C"
_symmetry_group_IT_number 13
_symmetry_cell_setting 'monoclinic'
loop_
_space_group_symop_operation_xyz
x,y,z
-x,y,1/2-z
-x,-y,-z
x,-y,1/2+z
loop_
_atom_site_type_symbol
_atom_site_label
_atom_site_fract_x
_atom_site_fract_y
_atom_site_fract_z
Si Si1 0.761964 0.051479 0.347669
Si Si2 0.453753 0.628507 0.587686
Si Si3 0.250850 0.201580 0.755749
Si Si4 0.397320 0.567517 0.270910
Si Si5 0.649029 0.072093 0.699700
Si Si6 0.071618 0.672335 0.084342
Si Si7 0.109444 0.506947 0.236062
Si Si8 0.336776 0.181702 0.194418
O O1 0.635930 0.109574 0.284768
O O2 0.098522 0.057721 0.649096
O O3 0.679468 0.983965 0.302954
O O4 0.642920 0.062817 0.125685
O O5 0.500000 0.624299 0.750000
O O6 0.220922 0.674010 0.330840
O O7 0.299895 0.566868 0.407785
O O8 0.752572 0.649749 0.812983
O O9 0.295019 0.142216 0.727142
O O10 0.147138 0.262414 0.608834
O O11 0.996040 0.191390 0.602149
O O12 0.529308 0.204455 0.078923
O O13 0.500000 0.574702 0.250000
O O14 0.237076 0.624910 0.166098
O O15 0.682606 0.548950 0.586555
O O16 0.180720 0.510909 0.084408
O O17 0.000000 0.508400 0.250000
O O18 0.500000 0.209491 0.250000
#
# Coordination Sequence:
#
# PCOD9227965 Si02
#       8
#     4   4   4   4   4   4   4   4
#     4   8  14  25  44  68  88 117 164 211 259 300
#     4  12  25  40  58  84 120 153 183 227 278 341
#     4  10  21  34  48  71 104 144 186 216 255 326
#     4  10  22  40  63  86 109 138 183 244 293 335
#     4   8  14  27  45  64  90 122 160 212 258 296
#     4  12  25  38  57  85 114 154 198 227 273 341
#     4  10  20  39  63  85 111 142 179 230 295 346
#     4  10  19  31  49  72 103 142 181 224 266 312
#
# _framework density 22.767477
#
# number of rings (size 3 to 8) (size 9 to 14) (size 15 to 20)
#    0.000    2.000    0.000    4.875    0.000    6.000 
#    0.000    0.000    0.000    0.750    0.000    0.000 
#    0.000   14.000    0.000    0.000    0.000    4.000 
#
# Total GULP energy -178245.819510 kJ/mol
# GULP energy per Si atom -5570.181860 kJ/mol
# Density = 2.271566 g / cm^3
# Si number density = 22.767477 Si / 1000 Ang^3
#
#
#
# Elastic Constant Matrix: (Units=GPa)
#
#
# Indices 1 2 3 4 5 6 
#
# 1 57.3787 24.7752 4.7944 0.0000 13.7947 0.0000
# 2 24.7752 172.5874 32.1779 0.0000 12.1530 0.0000
# 3 4.7944 32.1779 113.5232 0.0000 14.9058 0.0000
# 4 0.0000 0.0000 0.0000 29.6605 0.0000 6.4723
# 5 13.7947 12.1530 14.9058 0.0000 22.9094 0.0000
# 6 0.0000 0.0000 0.0000 6.4723 0.0000 8.7087
#
#
#
# Elastic Compliance Matrix: (Units=1/GPa)
#
#
# Indices 1 2 3 4 5 6 
#
# 1 0.021374 -0.002455 0.001435 0.000000 -0.012501 0.000000
# 2 -0.002455 0.006514 -0.001622 0.000000 -0.000922 0.000000
# 3 0.001435 -0.001622 0.010068 0.000000 -0.006555 0.000000
# 4 0.000000 0.000000 0.000000 0.040241 0.000000 -0.029907
# 5 -0.012501 -0.000922 -0.006555 0.000000 0.055931 0.000000
# 6 0.000000 0.000000 0.000000 -0.029907 0.000000 0.137054
#
#
# Mechanical properties :
#
#
# Convention : Reuss Voigt Hill
#
# Bulk Modulus (GPa) = 30.60772 51.88713 41.24742
# Shear Modulus (GPa) = 17.39993 31.03850 24.21922
#
# Velocity S-wave (km/s) = 2.76750 3.69627 3.26508
# Velocity P-wave (km/s) = 4.86671 6.40750 5.68950
#
# Compressibility (1/GPa) = 0.03267150
#
# Stress axis : x y z
#
# Youngs Moduli (GPa) = 46.78613 153.51767 99.32004
#
# Poissons Ratio (x) = 0.37696 -0.14250
# Poissons Ratio (y) = 0.11488 0.16106
# Poissons Ratio (z) = -0.06713 0.24895
#
# Static dielectric constant tensor:
#      x y z
#    x 1.840080 0.000000 -0.025580 
#    y 0.000000 2.002470 0.000000 
#    z -0.025580 0.000000 1.826700 
# 
# From -- ./inp_files/54011.got.cif
#   From: 2010.05.17/outbox.cif.g08.bks.cpg/sg13_28_cif.got.tgz:54011.got - 2010.06.03 16:44:36.
