data_PCOD9227008
_publ_section_title
;
Structure prediction by ZEFSAII (Michael W. Deem and Ramdas Pophale) SiO2 
 PCOD9227008
Probable space group: P 2/C
;
_chemical_formula_sum "Si O2"
_cell_formula_units_Z 26
_cell_length_a 9.058548
_cell_length_b 14.467888
_cell_length_c 8.218004
_cell_angle_alpha 90.000000
_cell_angle_beta 69.661885
_cell_angle_gamma 90.000000
_cell_volume 1009.891017
_symmetry_space_group_name_H-M "P 2/C"
_symmetry_group_IT_number 13
_symmetry_cell_setting 'monoclinic'
loop_
_space_group_symop_operation_xyz
x,y,z
-x,y,1/2-z
-x,-y,-z
x,-y,1/2+z
loop_
_atom_site_type_symbol
_atom_site_label
_atom_site_fract_x
_atom_site_fract_y
_atom_site_fract_z
Si Si1 0.108413 0.772681 0.551954
Si Si2 0.271234 0.059854 0.051266
Si Si3 0.500000 0.819793 0.250000
Si Si4 0.322966 0.131768 0.381484
Si Si5 0.660993 0.377370 0.409005
Si Si6 0.303388 0.569005 0.956594
Si Si7 0.208029 0.273877 0.677610
O O1 0.128090 0.883667 0.526098
O O2 0.267733 0.717807 0.552463
O O3 0.086553 0.741799 0.372856
O O4 0.000000 0.754268 0.750000
O O5 0.254140 0.087705 0.244313
O O6 0.416767 0.111406 0.909098
O O7 0.300678 0.952677 0.015679
O O8 0.628029 0.758841 0.296237
O O9 0.500000 0.156143 0.250000
O O10 0.232548 0.215816 0.500091
O O11 0.691383 0.459457 0.524884
O O12 0.742109 0.403094 0.207252
O O13 0.476904 0.388823 0.433987
O O14 0.199725 0.620253 0.128970
#
# Coordination Sequence:
#
# PCOD9227008 Si02
#       7
#     4   4   2   4   4   4   4
#     4  11  25  45  62  85 125 177 221 253 296 370
#     4  11  21  37  58  91 124 161 205 258 315 374
#     4  10  18  32  54  86 124 160 192 256 320 366
#     4  12  22  36  62  98 131 154 201 259 337 386
#     4  10  21  38  64  93 133 162 201 257 319 380
#     4  10  20  37  64 100 126 156 197 265 333 372
#     4  11  22  35  59  90 124 162 207 258 314 374
#
# _framework density 25.745352
#
# number of rings (size 3 to 8) (size 9 to 14) (size 15 to 20)
#    0.000    1.231    2.308    6.000    2.154    2.462 
#    0.000    9.231    0.000    0.000    0.000    0.000 
#    0.000    0.000    0.000    0.000    0.000    0.000 
#
# Total GULP energy -145253.330597 kJ/mol
# GULP energy per Si atom -5586.666561 kJ/mol
# Density = 2.568675 g / cm^3
# Si number density = 25.745352 Si / 1000 Ang^3
#
#
#
# Elastic Constant Matrix: (Units=GPa)
#
#
# Indices 1 2 3 4 5 6 
#
# 1 32.0790 14.3771 16.0166 0.0000 -28.0265 0.0000
# 2 14.3771 91.4459 10.6772 0.0000 -8.4672 0.0000
# 3 16.0166 10.6772 178.0428 0.0000 -0.8756 0.0000
# 4 0.0000 0.0000 0.0000 40.0299 0.0000 6.7866
# 5 -28.0265 -8.4672 -0.8756 0.0000 39.5367 0.0000
# 6 0.0000 0.0000 0.0000 6.7866 0.0000 17.6064
#
#
#
# Elastic Compliance Matrix: (Units=1/GPa)
#
#
# Indices 1 2 3 4 5 6 
#
# 1 0.097526 -0.008182 -0.007952 0.000000 0.067205 0.000000
# 2 -0.008182 0.011921 0.000005 0.000000 -0.003247 0.000000
# 3 -0.007952 0.000005 0.006305 0.000000 -0.005496 0.000000
# 4 0.000000 0.000000 0.000000 0.026728 0.000000 -0.010303
# 5 0.067205 -0.003247 -0.005496 0.000000 0.072116 0.000000
# 6 0.000000 0.000000 0.000000 -0.010303 0.000000 0.060769
#
#
# Mechanical properties :
#
#
# Convention : Reuss Voigt Hill
#
# Bulk Modulus (GPa) = 11.97700 42.63440 27.30570
# Shear Modulus (GPa) = 14.90525 36.80106 25.85315
#
# Velocity S-wave (km/s) = 2.40875 3.78488 3.17233
# Velocity P-wave (km/s) = 3.52112 5.97464 4.90381
#
# Compressibility (1/GPa) = 0.08349333
#
# Stress axis : x y z
#
# Youngs Moduli (GPa) = 10.25370 83.88892 158.61293
#
# Poissons Ratio (x) = 0.68636 1.26132
# Poissons Ratio (y) = 0.08389 -0.00082
# Poissons Ratio (z) = 0.08154 -0.00044
#
# Static dielectric constant tensor:
#      x y z
#    x 2.232010 0.000000 -0.021900 
#    y 0.000000 1.957080 0.000000 
#    z -0.021900 0.000000 2.040750 
# 
# From -- ./inp_files/16260.got.cif
#   From: 2010.05.17/outbox.cif.g08.bks.cpg/sg13_9_cif.got.tgz:16260.got - 2010.06.03 16:44:36.
