data_PCOD9227540
_publ_section_title
;
Structure prediction by ZEFSAII (Michael W. Deem and Ramdas Pophale) SiO2 
 PCOD9227540
Probable space group: P 2/C
;
_chemical_formula_sum "Si O2"
_cell_formula_units_Z 26
_cell_length_a 16.352173
_cell_length_b 8.210485
_cell_length_c 9.243682
_cell_angle_alpha 90.000000
_cell_angle_beta 52.398721
_cell_angle_gamma 90.000000
_cell_volume 983.254165
_symmetry_space_group_name_H-M "P 2/C"
_symmetry_group_IT_number 13
_symmetry_cell_setting 'monoclinic'
loop_
_space_group_symop_operation_xyz
x,y,z
-x,y,1/2-z
-x,-y,-z
x,-y,1/2+z
loop_
_atom_site_type_symbol
_atom_site_label
_atom_site_fract_x
_atom_site_fract_y
_atom_site_fract_z
Si Si1 0.395622 0.342197 0.450073
Si Si2 0.128553 0.353901 0.370518
Si Si3 0.327767 0.209129 0.990291
Si Si4 0.000000 0.736053 0.750000
Si Si5 0.694368 0.498575 0.692574
Si Si6 0.895574 0.012325 0.020225
Si Si7 0.336905 0.968691 0.191839
O O1 0.500000 0.357419 0.250000
O O2 0.373582 0.485660 0.590068
O O3 0.311757 0.352196 0.411520
O O4 0.385690 0.180176 0.553169
O O5 0.186059 0.506218 0.384246
O O6 0.038089 0.366851 0.348335
O O7 0.105600 0.207068 0.508375
O O8 0.222459 0.280164 0.172943
O O9 0.352182 0.354665 0.854438
O O10 0.335745 0.060444 0.864766
O O11 0.382950 0.132944 0.071696
O O12 0.088507 0.868291 0.612019
O O13 0.786278 0.971115 0.211635
O O14 0.000000 0.000000 0.000000
#
# Coordination Sequence:
#
# PCOD9227540 Si02
#       7
#     4   4   4   2   4   4   4
#     4  11  25  44  70  99 134 177 235 290 350 428
#     4  10  20  36  65  94 139 183 221 280 338 418
#     4  10  21  40  65  96 129 180 224 280 343 418
#     4  10  18  36  60 104 144 172 246 274 340 406
#     4  11  23  43  68  97 139 181 227 277 363 416
#     4   9  19  33  61  97 130 175 227 278 326 410
#     4  10  22  39  66  95 134 171 231 280 351 396
#
# _framework density 26.442806999999998
#
# number of rings (size 3 to 8) (size 9 to 14) (size 15 to 20)
#    0.000    1.846    3.077    0.462    4.308    0.000 
#    0.000    4.615    0.000    0.000    0.000    0.000 
#    0.000    0.000    0.000    0.000    0.000    0.000 
#
# Total GULP energy -144828.494674 kJ/mol
# GULP energy per Si atom -5570.326718 kJ/mol
# Density = 2.638262 g / cm^3
# Si number density = 26.442807 Si / 1000 Ang^3
#
#
#
# Elastic Constant Matrix: (Units=GPa)
#
#
# Indices 1 2 3 4 5 6 
#
# 1 79.9357 12.0152 19.4964 0.0000 5.2367 0.0000
# 2 12.0152 72.0903 28.0435 0.0000 13.7913 0.0000
# 3 19.4964 28.0435 120.9742 0.0000 11.8550 0.0000
# 4 0.0000 0.0000 0.0000 45.3200 0.0000 2.3219
# 5 5.2367 13.7913 11.8550 0.0000 43.5093 0.0000
# 6 0.0000 0.0000 0.0000 2.3219 0.0000 10.5853
#
#
#
# Elastic Compliance Matrix: (Units=1/GPa)
#
#
# Indices 1 2 3 4 5 6 
#
# 1 0.013187 -0.001394 -0.001736 0.000000 -0.000672 0.000000
# 2 -0.001394 0.016094 -0.003106 0.000000 -0.004087 0.000000
# 3 -0.001736 -0.003106 0.009400 0.000000 -0.001368 0.000000
# 4 0.000000 0.000000 0.000000 0.022316 0.000000 -0.004895
# 5 -0.000672 -0.004087 -0.001368 0.000000 0.024733 0.000000
# 6 0.000000 0.000000 0.000000 -0.004895 0.000000 0.095544
#
#
# Mechanical properties :
#
#
# Convention : Reuss Voigt Hill
#
# Bulk Modulus (GPa) = 38.15404 43.56779 40.86092
# Shear Modulus (GPa) = 24.69354 34.11259 29.40306
#
# Velocity S-wave (km/s) = 3.05921 3.59563 3.33821
# Velocity P-wave (km/s) = 5.19024 5.80948 5.50856
#
# Compressibility (1/GPa) = 0.02620954
#
# Stress axis : x y z
#
# Youngs Moduli (GPa) = 75.83178 62.13557 106.38290
#
# Poissons Ratio (x) = 0.08661 0.18471
# Poissons Ratio (y) = 0.10570 0.33038
# Poissons Ratio (z) = 0.13166 0.19297
#
# Static dielectric constant tensor:
#      x y z
#    x 2.158940 0.000000 0.001760 
#    y 0.000000 2.227260 0.000000 
#    z 0.001760 0.000000 2.091910 
# 
# From -- ./inp_files/22960.got.cif
#   From: 2010.05.17/outbox.cif.g08.bks.cpg/sg13_12_cif.got.tgz:22960.got - 2010.06.03 16:44:36.
