data_PCOD9227245
_publ_section_title
;
Structure prediction by ZEFSAII (Michael W. Deem and Ramdas Pophale) SiO2 
 PCOD9227245
Probable space group: P 2/C
;
_chemical_formula_sum "Si O2"
_cell_formula_units_Z 28
_cell_length_a 15.942788
_cell_length_b 7.975898
_cell_length_c 12.941799
_cell_angle_alpha 90.000000
_cell_angle_beta 45.303379
_cell_angle_gamma 90.000000
_cell_volume 1169.798216
_symmetry_space_group_name_H-M "P 2/C"
_symmetry_group_IT_number 13
_symmetry_cell_setting 'monoclinic'
loop_
_space_group_symop_operation_xyz
x,y,z
-x,y,1/2-z
-x,-y,-z
x,-y,1/2+z
loop_
_atom_site_type_symbol
_atom_site_label
_atom_site_fract_x
_atom_site_fract_y
_atom_site_fract_z
Si Si1 0.500000 0.470991 0.250000
Si Si2 0.183894 0.361955 0.332537
Si Si3 0.810724 0.853303 0.850453
Si Si4 0.000000 0.102605 0.750000
Si Si5 0.756770 0.495326 0.497883
Si Si6 0.434342 0.750546 0.616573
Si Si7 0.857024 0.695402 0.226460
Si Si8 0.660511 0.072782 0.841812
O O1 0.377065 0.563183 0.365853
O O2 0.511194 0.354485 0.339544
O O3 0.137380 0.200818 0.308958
O O4 0.200130 0.404324 0.438331
O O5 0.322997 0.357159 0.171124
O O6 0.115837 0.523026 0.351228
O O7 0.887862 0.982269 0.848565
O O8 0.694234 0.960392 0.915823
O O9 0.813557 0.678433 0.910304
O O10 0.970385 0.216055 0.676618
O O11 0.775330 0.633969 0.392859
O O12 0.544485 0.812407 0.452960
O O13 0.371234 0.923170 0.708768
O O14 0.775625 0.814590 0.227115
#
# Coordination Sequence:
#
# PCOD9227245 Si02
#       8
#     2   4   4   2   4   4   4   4
#     4  10  18  34  54  86 118 160 194 224 276 352
#     4   9  20  36  58  86 118 146 196 233 288 348
#     4   9  20  40  59  82 118 152 195 251 279 344
#     4  10  22  42  66  82 110 152 200 244 312 330
#     4  10  20  38  58  85 121 153 192 236 282 344
#     4   9  17  32  52  78 115 156 182 227 277 342
#     4  10  20  39  61  82 113 152 194 248 283 346
#     4   9  17  34  52  80 114 152 190 224 294 330
#
# _framework density 23.935751
#
# number of rings (size 3 to 8) (size 9 to 14) (size 15 to 20)
#    0.000    2.571    1.429    0.000    0.000    2.857 
#   15.429    8.571    0.000    0.000    0.000    0.000 
#    0.000    0.000    0.000    0.000    0.000    0.000 
#
# Total GULP energy -155900.609763 kJ/mol
# GULP energy per Si atom -5567.878920 kJ/mol
# Density = 2.388127 g / cm^3
# Si number density = 23.935751 Si / 1000 Ang^3
#
#
#
# Elastic Constant Matrix: (Units=GPa)
#
#
# Indices 1 2 3 4 5 6 
#
# 1 61.8001 20.8162 17.2289 0.0000 -19.2601 0.0000
# 2 20.8162 91.4910 16.1775 0.0000 -16.8143 0.0000
# 3 17.2289 16.1775 46.6905 0.0000 -4.7120 0.0000
# 4 0.0000 0.0000 0.0000 0.9474 0.0000 -14.3463
# 5 -19.2601 -16.8143 -4.7120 0.0000 27.8972 0.0000
# 6 0.0000 0.0000 0.0000 -14.3463 0.0000 94.8663
#
#
#
# Elastic Compliance Matrix: (Units=1/GPa)
#
#
# Indices 1 2 3 4 5 6 
#
# 1 0.022776 -0.001513 -0.006496 0.000000 0.013716 0.000000
# 2 -0.001513 0.013007 -0.003319 0.000000 0.006235 0.000000
# 3 -0.006496 -0.003319 0.024732 0.000000 -0.002308 0.000000
# 4 0.000000 0.000000 0.000000 -0.818217 0.000000 -0.123736
# 5 0.013716 0.006235 -0.002308 0.000000 0.048683 0.000000
# 6 0.000000 0.000000 0.000000 -0.123736 0.000000 -0.008171
#
#
# Mechanical properties :
#
#
# Convention : Reuss Voigt Hill
#
# Bulk Modulus (GPa) = 26.41400 34.26963 30.34182
# Shear Modulus (GPa) = -7.33230 34.45943 13.56356
#
# Velocity S-wave (km/s) = -1.75214 3.79841 2.38306
# Velocity P-wave (km/s) = 2.63932 5.79531 4.50287
#
# Compressibility (1/GPa) = 0.03785871
#
# Stress axis : x y z
#
# Youngs Moduli (GPa) = 43.90527 76.88204 40.43373
#
# Poissons Ratio (x) = 0.11631 0.26266
# Poissons Ratio (y) = 0.06642 0.13421
# Poissons Ratio (z) = 0.28521 0.25519
#
# Static dielectric constant tensor:
#      x y z
#    x 1.930680 0.000000 0.014510 
#    y 0.000000 1.924740 0.000000 
#    z 0.014510 0.000000 1.978010 
# 
# From -- ./inp_files/53005.got.cif
#   From: 2010.05.17/outbox.cif.g08.bks.cpg/sg13_27_cif.got.tgz:53005.got - 2010.06.03 16:44:36.
