data_PCOD9227314
_publ_section_title
;
Structure prediction by ZEFSAII (Michael W. Deem and Ramdas Pophale) SiO2 
 PCOD9227314
Probable space group: P 2/C
;
_chemical_formula_sum "Si O2"
_cell_formula_units_Z 20
_cell_length_a 17.160975
_cell_length_b 12.052732
_cell_length_c 9.311449
_cell_angle_alpha 90.000000
_cell_angle_beta 24.179888
_cell_angle_gamma 90.000000
_cell_volume 788.874071
_symmetry_space_group_name_H-M "P 2/C"
_symmetry_group_IT_number 13
_symmetry_cell_setting 'monoclinic'
loop_
_space_group_symop_operation_xyz
x,y,z
-x,y,1/2-z
-x,-y,-z
x,-y,1/2+z
loop_
_atom_site_type_symbol
_atom_site_label
_atom_site_fract_x
_atom_site_fract_y
_atom_site_fract_z
Si Si1 0.718611 0.189524 0.001470
Si Si2 0.218621 0.636545 0.897106
Si Si3 0.214183 0.542458 0.607186
Si Si4 0.273782 0.752478 0.311881
Si Si5 0.362378 0.947106 0.351785
O O1 0.495149 0.220906 0.400489
O O2 0.745816 0.059387 0.922834
O O3 0.791060 0.237463 0.030725
O O4 0.811949 0.245933 0.704168
O O5 0.309521 0.565376 0.874087
O O6 0.000000 0.603848 0.250000
O O7 0.296449 0.598206 0.613311
O O8 0.229702 0.637584 0.461400
O O9 0.000000 0.500000 0.000000
O O10 0.239066 0.851169 0.485477
O O11 0.500000 0.907609 0.250000
O O12 0.500000 0.000000 0.000000
#
# Coordination Sequence:
#
# PCOD9227314 Si02
#       5
#     4   4   4   4   4
#     4  10  20  37  60  95 133 163 205 263 320 386
#     4  10  22  39  60  82 119 169 213 260 313 378
#     4  10  22  39  59  84 117 165 215 259 312 374
#     4  10  21  35  62  95 126 164 205 262 326 377
#     4  10  18  34  58  95 134 164 196 253 332 382
#
# _framework density 25.352587
#
# number of rings (size 3 to 8) (size 9 to 14) (size 15 to 20)
#    0.000    2.000    4.000    1.200    5.600    2.400 
#    0.000    0.000    0.000   14.400    0.000    0.000 
#    0.000    0.000    0.000    0.000    0.000    0.000 
#
# Total GULP energy -111497.844247 kJ/mol
# GULP energy per Si atom -5574.892212 kJ/mol
# Density = 2.529488 g / cm^3
# Si number density = 25.352587 Si / 1000 Ang^3
#
#
#
# Elastic Constant Matrix: (Units=GPa)
#
#
# Indices 1 2 3 4 5 6 
#
# 1 92.3332 20.9603 42.3546 0.0000 26.0527 0.0000
# 2 20.9603 139.6744 29.0112 0.0000 3.8239 0.0000
# 3 42.3546 29.0112 68.3742 0.0000 4.1342 0.0000
# 4 0.0000 0.0000 0.0000 37.9377 0.0000 10.8849
# 5 26.0527 3.8239 4.1342 0.0000 35.3595 0.0000
# 6 0.0000 0.0000 0.0000 10.8849 0.0000 46.1378
#
#
#
# Elastic Compliance Matrix: (Units=1/GPa)
#
#
# Indices 1 2 3 4 5 6 
#
# 1 0.019858 -0.000250 -0.011392 0.000000 -0.013272 0.000000
# 2 -0.000250 0.007862 -0.003163 0.000000 -0.000296 0.000000
# 3 -0.011392 -0.003163 0.022656 0.000000 0.006087 0.000000
# 4 0.000000 0.000000 0.000000 0.028273 0.000000 -0.006670
# 5 -0.013272 -0.000296 0.006087 0.000000 0.037380 0.000000
# 6 0.000000 0.000000 0.000000 -0.006670 0.000000 0.023248
#
#
# Mechanical properties :
#
#
# Convention : Reuss Voigt Hill
#
# Bulk Modulus (GPa) = 48.15747 53.89267 51.02507
# Shear Modulus (GPa) = 28.43982 37.75737 33.09859
#
# Velocity S-wave (km/s) = 3.35292 3.86332 3.61713
# Velocity P-wave (km/s) = 5.83316 6.41901 6.13309
#
# Compressibility (1/GPa) = 0.02076521
#
# Stress axis : x y z
#
# Youngs Moduli (GPa) = 50.35799 127.19180 44.13776
#
# Poissons Ratio (x) = 0.03185 0.50283
# Poissons Ratio (y) = 0.01261 0.13960
# Poissons Ratio (z) = 0.57369 0.40230
#
# Static dielectric constant tensor:
#      x y z
#    x 2.295670 0.000000 0.029090 
#    y 0.000000 2.094260 0.000000 
#    z 0.029090 0.000000 2.092570 
# 
# From -- ./inp_files/21476.got.cif
#   From: 2010.05.17/outbox.cif.g08.bks.cpg/sg13_11_cif.got.tgz:21476.got - 2010.06.03 16:44:36.
