data_PCOD9227081
_publ_section_title
;
Structure prediction by ZEFSAII (Michael W. Deem and Ramdas Pophale) SiO2 
 PCOD9227081
Probable space group: P 2/C
;
_chemical_formula_sum "Si O2"
_cell_formula_units_Z 30
_cell_length_a 8.250559
_cell_length_b 9.578926
_cell_length_c 26.884731
_cell_angle_alpha 90.000000
_cell_angle_beta 45.506934
_cell_angle_gamma 90.000000
_cell_volume 1515.652307
_symmetry_space_group_name_H-M "P 2/C"
_symmetry_group_IT_number 13
_symmetry_cell_setting 'monoclinic'
loop_
_space_group_symop_operation_xyz
x,y,z
-x,y,1/2-z
-x,-y,-z
x,-y,1/2+z
loop_
_atom_site_type_symbol
_atom_site_label
_atom_site_fract_x
_atom_site_fract_y
_atom_site_fract_z
Si Si1 0.185402 0.873677 0.610568
Si Si2 0.270094 0.510956 0.936975
Si Si3 0.489210 0.080520 0.643772
Si Si4 0.582130 0.272251 0.526492
Si Si5 0.000000 0.934294 0.750000
Si Si6 0.885939 0.819701 0.417522
Si Si7 0.336406 0.169661 0.436849
Si Si8 0.346465 0.323693 0.825544
O O1 0.219914 0.776941 0.554402
O O2 0.439522 0.871273 0.579317
O O3 0.026003 0.846041 0.693017
O O4 0.121776 0.028666 0.605883
O O5 0.374095 0.424353 0.960554
O O6 0.347585 0.670509 0.918722
O O7 0.330134 0.430022 0.874164
O O8 0.000000 0.500000 0.000000
O O9 0.556408 0.166323 0.579067
O O10 0.227354 0.029305 0.701962
O O11 0.536565 0.183546 0.678638
O O12 0.649917 0.943640 0.609477
O O13 0.341581 0.260461 0.550353
O O14 0.872009 0.841236 0.480151
O O15 0.101709 0.726243 0.359254
O O16 0.500000 0.386178 0.750000
#
# Coordination Sequence:
#
# PCOD9227081 Si02
#       8
#     4   4   4   4   2   4   4   4
#     4  10  19  34  60  96 118 150 201 261 295 358
#     4  11  24  43  59  88 124 166 204 255 304 371
#     4  10  20  38  64  89 123 156 202 256 305 368
#     4  10  20  37  65  89 114 162 212 249 300 365
#     4  10  18  32  60  90 130 148 192 252 318 358
#     4  11  18  36  64  90 119 149 206 260 304 351
#     4  10  19  37  63  87 117 153 202 256 295 357
#     4  11  25  40  61  93 127 160 204 256 316 372
#
# _framework density 19.793455999999999
#
# number of rings (size 3 to 8) (size 9 to 14) (size 15 to 20)
#    0.000    1.600    5.333    1.600    0.000    3.733 
#    0.000    3.333    5.867    0.000    0.000    0.000 
#    0.000    0.000    0.000    0.000    0.000    0.000 
#
# Total GULP energy -167352.981682 kJ/mol
# GULP energy per Si atom -5578.432723 kJ/mol
# Density = 1.974841 g / cm^3
# Si number density = 19.793456 Si / 1000 Ang^3
#
#
#
# Elastic Constant Matrix: (Units=GPa)
#
#
# Indices 1 2 3 4 5 6 
#
# 1 44.4869 16.6018 21.6576 0.0000 1.8254 0.0000
# 2 16.6018 80.7682 20.8801 0.0000 3.7865 0.0000
# 3 21.6576 20.8801 130.6522 0.0000 17.2597 0.0000
# 4 0.0000 0.0000 0.0000 16.3756 0.0000 3.0435
# 5 1.8254 3.7865 17.2597 0.0000 25.3510 0.0000
# 6 0.0000 0.0000 0.0000 3.0435 0.0000 -1.7816
#
#
#
# Elastic Compliance Matrix: (Units=1/GPa)
#
#
# Indices 1 2 3 4 5 6 
#
# 1 0.025905 -0.004414 -0.003768 0.000000 0.001360 0.000000
# 2 -0.004414 0.013675 -0.001347 0.000000 -0.000808 0.000000
# 3 -0.003768 -0.001347 0.009265 0.000000 -0.005835 0.000000
# 4 0.000000 0.000000 0.000000 0.046351 0.000000 0.079179
# 5 0.001360 -0.000808 -0.005835 0.000000 0.043442 0.000000
# 6 0.000000 0.000000 0.000000 0.079179 0.000000 -0.426023
#
#
# Mechanical properties :
#
#
# Convention : Reuss Voigt Hill
#
# Bulk Modulus (GPa) = 33.57407 41.57625 37.57516
# Shear Modulus (GPa) = -19.34986 21.10685 0.87849
#
# Velocity S-wave (km/s) = -3.13003 3.26905 0.66693
# Velocity P-wave (km/s) = 1.98399 5.94135 4.42921
#
# Compressibility (1/GPa) = 0.02978489
#
# Stress axis : x y z
#
# Youngs Moduli (GPa) = 38.60327 73.12865 107.93695
#
# Poissons Ratio (x) = 0.32281 0.40673
# Poissons Ratio (y) = 0.17040 0.14539
# Poissons Ratio (z) = 0.14547 0.09850
#
# Static dielectric constant tensor:
#      x y z
#    x 1.480740 0.000000 0.032960 
#    y 0.000000 1.692920 0.000000 
#    z 0.032960 0.000000 1.727370 
# 
# From -- ./inp_files/95957.got.cif
#   From: 2010.05.17/outbox.cif.g08.bks.cpg/sg13_48_cif.got.tgz:95957.got - 2010.06.03 16:44:36.
