data_PCOD9227168
_publ_section_title
;
Structure prediction by ZEFSAII (Michael W. Deem and Ramdas Pophale) SiO2 
 PCOD9227168
Probable space group: P 2/C
;
_chemical_formula_sum "Si O2"
_cell_formula_units_Z 28
_cell_length_a 14.275642
_cell_length_b 8.364648
_cell_length_c 10.782324
_cell_angle_alpha 90.000000
_cell_angle_beta 67.771386
_cell_angle_gamma 90.000000
_cell_volume 1191.838494
_symmetry_space_group_name_H-M "P 2/C"
_symmetry_group_IT_number 13
_symmetry_cell_setting 'monoclinic'
loop_
_space_group_symop_operation_xyz
x,y,z
-x,y,1/2-z
-x,-y,-z
x,-y,1/2+z
loop_
_atom_site_type_symbol
_atom_site_label
_atom_site_fract_x
_atom_site_fract_y
_atom_site_fract_z
Si Si1 0.891335 0.817602 0.371600
Si Si2 0.798994 0.465887 0.766381
Si Si3 0.740714 0.981790 0.276773
Si Si4 0.347934 0.292707 0.087393
Si Si5 0.035029 0.330892 0.420110
Si Si6 0.527676 0.862608 0.383378
Si Si7 0.819998 0.222767 0.531502
O O1 0.838591 0.653247 0.351421
O O2 0.816678 0.953317 0.354255
O O3 0.916148 0.782808 0.500927
O O4 0.000000 0.833671 0.250000
O O5 0.689144 0.539528 0.842357
O O6 0.878576 0.612440 0.716866
O O7 0.807747 0.367162 0.636392
O O8 0.648389 0.854578 0.331574
O O9 0.801807 0.933238 0.124447
O O10 0.682558 0.150742 0.301131
O O11 0.458738 0.279085 0.973097
O O12 0.270794 0.249118 0.016079
O O13 0.000000 0.500000 0.500000
O O14 0.934436 0.240219 0.426374
O O15 0.500000 0.891455 0.250000
O O16 0.500000 0.000000 0.500000
#
# Coordination Sequence:
#
# PCOD9227168 Si02
#       7
#     4   4   4   4   4   4   4
#     4  11  19  37  60  83 129 170 208 256 323 390
#     4  10  21  35  59  91 123 166 216 249 320 391
#     4  10  22  40  61  93 119 165 213 267 329 385
#     4  11  23  39  65  92 125 161 222 275 323 391
#     4  10  18  33  57  82 119 173 212 243 311 393
#     4  10  21  43  72  93 126 173 219 271 337 396
#     4  10  20  37  61  87 126 170 208 260 326 386
#
# _framework density 23.493117999999999
#
# number of rings (size 3 to 8) (size 9 to 14) (size 15 to 20)
#    0.000    1.714    5.714    1.714    0.000    1.143 
#    5.143    4.286    0.000    0.000    0.000    0.000 
#    0.000    0.000    0.000    0.000    0.000    0.000 
#
# Total GULP energy -156335.185120 kJ/mol
# GULP energy per Si atom -5583.399469 kJ/mol
# Density = 2.343965 g / cm^3
# Si number density = 23.493118 Si / 1000 Ang^3
#
#
#
# Elastic Constant Matrix: (Units=GPa)
#
#
# Indices 1 2 3 4 5 6 
#
# 1 87.0389 16.7718 0.1103 0.0000 -24.5406 0.0000
# 2 16.7718 55.8199 21.1610 0.0000 -20.4941 0.0000
# 3 0.1103 21.1610 56.4618 0.0000 -8.7315 0.0000
# 4 0.0000 0.0000 0.0000 28.4777 0.0000 -9.4969
# 5 -24.5406 -20.4941 -8.7315 0.0000 41.5098 0.0000
# 6 0.0000 0.0000 0.0000 -9.4969 0.0000 33.4071
#
#
#
# Elastic Compliance Matrix: (Units=1/GPa)
#
#
# Indices 1 2 3 4 5 6 
#
# 1 0.014063 -0.002157 0.001966 0.000000 0.007662 0.000000
# 2 -0.002157 0.025020 -0.007917 0.000000 0.009412 0.000000
# 3 0.001966 -0.007917 0.020931 0.000000 0.001656 0.000000
# 4 0.000000 0.000000 0.000000 0.038793 0.000000 0.011028
# 5 0.007662 0.009412 0.001656 0.000000 0.033616 0.000000
# 6 0.000000 0.000000 0.000000 0.011028 0.000000 0.033069
#
#
# Mechanical properties :
#
#
# Convention : Reuss Voigt Hill
#
# Bulk Modulus (GPa) = 22.83324 30.60074 26.71699
# Shear Modulus (GPa) = 25.47033 31.43076 28.45055
#
# Velocity S-wave (km/s) = 3.29623 3.66166 3.48374
# Velocity P-wave (km/s) = 4.92210 5.56154 5.25156
#
# Compressibility (1/GPa) = 0.04379581
#
# Stress axis : x y z
#
# Youngs Moduli (GPa) = 71.10997 39.96811 47.77684
#
# Poissons Ratio (x) = 0.08623 -0.09393
# Poissons Ratio (y) = 0.15342 0.37827
# Poissons Ratio (z) = -0.13981 0.31644
#
# Static dielectric constant tensor:
#      x y z
#    x 1.927770 0.000000 -0.036990 
#    y 0.000000 1.986340 0.000000 
#    z -0.036990 0.000000 1.942070 
# 
# From -- ./inp_files/36153.got.cif
#   From: 2010.05.17/outbox.cif.g08.bks.cpg/sg13_19_cif.got.tgz:36153.got - 2010.06.03 16:44:36.
