data_PCOD9227752
_publ_section_title
;
Structure prediction by ZEFSAII (Michael W. Deem and Ramdas Pophale) SiO2 
 PCOD9227752
Probable space group: P 2/C
;
_chemical_formula_sum "Si O2"
_cell_formula_units_Z 20
_cell_length_a 10.516457
_cell_length_b 7.827599
_cell_length_c 14.537461
_cell_angle_alpha 90.000000
_cell_angle_beta 122.678619
_cell_angle_gamma 90.000000
_cell_volume 1007.280133
_symmetry_space_group_name_H-M "P 2/C"
_symmetry_group_IT_number 13
_symmetry_cell_setting 'monoclinic'
loop_
_space_group_symop_operation_xyz
x,y,z
-x,y,1/2-z
-x,-y,-z
x,-y,1/2+z
loop_
_atom_site_type_symbol
_atom_site_label
_atom_site_fract_x
_atom_site_fract_y
_atom_site_fract_z
Si Si1 0.322473 0.031947 0.169679
Si Si2 0.201737 0.255171 0.956391
Si Si3 0.068850 0.807861 0.035748
Si Si4 0.125137 0.613589 0.878346
Si Si5 0.182779 0.049322 0.315570
O O1 0.500000 0.020907 0.250000
O O2 0.245109 0.852074 0.110685
O O3 0.244510 0.064069 0.237539
O O4 0.280177 0.178167 0.078413
O O5 0.227048 0.449342 0.938461
O O6 0.021280 0.258671 0.911301
O O7 0.234919 0.119199 0.889569
O O8 0.045088 0.683860 0.940259
O O9 0.000000 0.000000 0.000000
O O10 0.221830 0.776088 0.882761
O O11 0.000000 0.577740 0.750000
O O12 0.000000 0.043503 0.250000
#
# Coordination Sequence:
#
# PCOD9227752 Si02
#       5
#     4   4   4   4   4
#     4  11  24  42  65  91 131 173 205 258 320 370
#     4  11  21  40  64  96 124 164 213 261 311 373
#     4  10  18  39  63  90 126 161 206 260 309 367
#     4  11  21  34  65 100 124 158 210 267 313 364
#     4  11  20  40  67  92 125 161 213 263 309 371
#
# _framework density 19.855449
#
# number of rings (size 3 to 8) (size 9 to 14) (size 15 to 20)
#    0.000    1.200    6.000    4.800    0.000    0.800 
#    0.000    2.000    0.000    0.000    0.000    0.000 
#    0.000    0.000    0.000    0.000    0.000    0.000 
#
# Total GULP energy -111487.553407 kJ/mol
# GULP energy per Si atom -5574.377670 kJ/mol
# Density = 1.981026 g / cm^3
# Si number density = 19.855449 Si / 1000 Ang^3
#
#
#
# Elastic Constant Matrix: (Units=GPa)
#
#
# Indices 1 2 3 4 5 6 
#
# 1 63.1188 18.7655 43.2156 0.0000 2.6612 0.0000
# 2 18.7655 122.7612 48.1673 0.0000 -12.8057 0.0000
# 3 43.2156 48.1673 86.9447 0.0000 -8.4237 0.0000
# 4 0.0000 0.0000 0.0000 26.8887 0.0000 -7.2936
# 5 2.6612 -12.8057 -8.4237 0.0000 40.1647 0.0000
# 6 0.0000 0.0000 0.0000 -7.2936 0.0000 6.7450
#
#
#
# Elastic Compliance Matrix: (Units=1/GPa)
#
#
# Indices 1 2 3 4 5 6 
#
# 1 0.024816 0.000988 -0.013281 0.000000 -0.004114 0.000000
# 2 0.000988 0.010633 -0.006186 0.000000 0.002027 0.000000
# 3 -0.013281 -0.006186 0.021868 0.000000 0.003494 0.000000
# 4 0.000000 0.000000 0.000000 0.052626 0.000000 0.056907
# 5 -0.004114 0.002027 0.003494 0.000000 0.026549 0.000000
# 6 0.000000 0.000000 0.000000 0.056907 0.000000 0.209795
#
#
# Mechanical properties :
#
#
# Convention : Reuss Voigt Hill
#
# Bulk Modulus (GPa) = 49.11354 54.79127 51.95241
# Shear Modulus (GPa) = 12.81950 25.60476 19.21213
#
# Velocity S-wave (km/s) = 2.54370 3.59494 3.11400
# Velocity P-wave (km/s) = 5.78070 6.69973 6.25711
#
# Compressibility (1/GPa) = 0.02036099
#
# Stress axis : x y z
#
# Youngs Moduli (GPa) = 40.29704 94.04363 45.72867
#
# Poissons Ratio (x) = -0.09295 0.60731
# Poissons Ratio (y) = -0.03983 0.28286
# Poissons Ratio (z) = 0.53517 0.58172
#
# Static dielectric constant tensor:
#      x y z
#    x 1.722730 0.000000 -0.005810 
#    y 0.000000 1.752630 0.000000 
#    z -0.005810 0.000000 1.802880 
# 
# From -- ./inp_files/49426.got.cif
#   From: 2010.05.17/outbox.cif.g08.bks.cpg/sg13_25_cif.got.tgz:49426.got - 2010.06.03 16:44:36.
