data_PCOD9227486
_publ_section_title
;
Structure prediction by ZEFSAII (Michael W. Deem and Ramdas Pophale) SiO2 
 PCOD9227486
Probable space group: P 2/C
;
_chemical_formula_sum "Si O2"
_cell_formula_units_Z 28
_cell_length_a 13.879994
_cell_length_b 9.502378
_cell_length_c 12.804667
_cell_angle_alpha 90.000000
_cell_angle_beta 113.178360
_cell_angle_gamma 90.000000
_cell_volume 1552.528566
_symmetry_space_group_name_H-M "P 2/C"
_symmetry_group_IT_number 13
_symmetry_cell_setting 'monoclinic'
loop_
_space_group_symop_operation_xyz
x,y,z
-x,y,1/2-z
-x,-y,-z
x,-y,1/2+z
loop_
_atom_site_type_symbol
_atom_site_label
_atom_site_fract_x
_atom_site_fract_y
_atom_site_fract_z
Si Si1 0.065963 0.644288 0.537374
Si Si2 0.806303 0.565639 0.705701
Si Si3 0.077386 0.205029 0.377150
Si Si4 0.742579 0.996694 0.588617
Si Si5 0.121927 0.733576 0.332295
Si Si6 0.366584 0.760431 0.820417
Si Si7 0.576939 0.131563 0.365217
O O1 0.147034 0.619097 0.665114
O O2 0.118123 0.692845 0.452960
O O3 0.000000 0.500000 0.500000
O O4 0.987352 0.762830 0.547356
O O5 0.870967 0.650008 0.644219
O O6 0.830267 0.402404 0.704575
O O7 0.687808 0.622454 0.656313
O O8 0.000000 0.157736 0.250000
O O9 0.169358 0.095043 0.431890
O O10 0.804674 0.132705 0.656330
O O11 0.651669 0.045359 0.471253
O O12 0.694118 0.893701 0.655514
O O13 0.000000 0.755309 0.250000
O O14 0.360856 0.772217 0.691604
O O15 0.490766 0.779522 0.892946
O O16 0.500000 0.047982 0.250000
#
# Coordination Sequence:
#
# PCOD9227486 Si02
#       7
#     4   4   4   4   4   4   4
#     4  11  19  34  52  71 112 149 177 211 250 310
#     4  10  18  36  53  75 102 146 179 206 260 317
#     4   9  19  34  53  74 106 148 180 201 254 323
#     4  11  20  34  55  82 108 135 175 223 266 303
#     4  12  23  32  50  84 112 140 174 218 259 303
#     4   8  19  36  60  74  99 138 179 215 261 329
#     4   8  19  37  58  79  98 136 179 216 273 319
#
# _framework density 18.035094000000001
#
# number of rings (size 3 to 8) (size 9 to 14) (size 15 to 20)
#    0.857    1.143    2.857    2.143    0.000    1.714 
#    0.000    0.714    0.000    3.429    0.000    0.000 
#    0.000    0.000    0.000    0.000    0.000    0.000 
#
# Total GULP energy -155908.449360 kJ/mol
# GULP energy per Si atom -5568.158906 kJ/mol
# Density = 1.799405 g / cm^3
# Si number density = 18.035094 Si / 1000 Ang^3
#
#
#
# Elastic Constant Matrix: (Units=GPa)
#
#
# Indices 1 2 3 4 5 6 
#
# 1 107.5257 37.7597 28.6113 0.0000 3.1843 0.0000
# 2 37.7597 64.5912 9.3877 0.0000 14.1633 0.0000
# 3 28.6113 9.3877 33.6048 0.0000 6.0474 0.0000
# 4 0.0000 0.0000 0.0000 13.8250 0.0000 3.5958
# 5 3.1843 14.1633 6.0474 0.0000 33.5208 0.0000
# 6 0.0000 0.0000 0.0000 3.5958 0.0000 -1.1098
#
#
#
# Elastic Compliance Matrix: (Units=1/GPa)
#
#
# Indices 1 2 3 4 5 6 
#
# 1 0.014981 -0.007998 -0.011237 0.000000 0.003984 0.000000
# 2 -0.007998 0.021761 0.002324 0.000000 -0.008854 0.000000
# 3 -0.011237 0.002324 0.039958 0.000000 -0.007123 0.000000
# 4 0.000000 0.000000 0.000000 0.039254 0.000000 0.127180
# 5 0.003984 -0.008854 -0.007123 0.000000 0.034480 0.000000
# 6 0.000000 0.000000 0.000000 0.127180 0.000000 -0.488980
#
#
# Mechanical properties :
#
#
# Convention : Reuss Voigt Hill
#
# Bulk Modulus (GPa) = 23.32262 39.69324 31.50793
# Shear Modulus (GPa) = -17.21583 17.91140 0.34779
#
# Velocity S-wave (km/s) = -3.09297 3.15483 0.43961
# Velocity P-wave (km/s) = 0.45232 5.94368 4.21497
#
# Compressibility (1/GPa) = 0.04287684
#
# Stress axis : x y z
#
# Youngs Moduli (GPa) = 66.75159 45.95305 25.02630
#
# Poissons Ratio (x) = 0.36753 0.28123
# Poissons Ratio (y) = 0.53388 -0.05815
# Poissons Ratio (z) = 0.75011 -0.10678
#
# Static dielectric constant tensor:
#      x y z
#    x 1.647060 0.000000 0.013240 
#    y 0.000000 1.624130 0.000000 
#    z 0.013240 0.000000 1.627370 
# 
# From -- ./inp_files/36230.got.cif
#   From: 2010.05.17/outbox.cif.g08.bks.cpg/sg13_19_cif.got.tgz:36230.got - 2010.06.03 16:44:36.
