data_PCOD9227800
_publ_section_title
;
Structure prediction by ZEFSAII (Michael W. Deem and Ramdas Pophale) SiO2 
 PCOD9227800
Probable space group: P 2/C
;
_chemical_formula_sum "Si O2"
_cell_formula_units_Z 14
_cell_length_a 17.042577
_cell_length_b 6.129199
_cell_length_c 9.288970
_cell_angle_alpha 90.000000
_cell_angle_beta 38.975052
_cell_angle_gamma 90.000000
_cell_volume 610.301904
_symmetry_space_group_name_H-M "P 2/C"
_symmetry_group_IT_number 13
_symmetry_cell_setting 'monoclinic'
loop_
_space_group_symop_operation_xyz
x,y,z
-x,y,1/2-z
-x,-y,-z
x,-y,1/2+z
loop_
_atom_site_type_symbol
_atom_site_label
_atom_site_fract_x
_atom_site_fract_y
_atom_site_fract_z
Si Si1 0.500000 0.658720 0.250000
Si Si2 0.334724 0.037940 0.788322
Si Si3 0.683158 0.708828 0.470361
Si Si4 0.916280 0.880109 0.236216
O O1 0.571871 0.800500 0.265147
O O2 0.391711 0.502281 0.466608
O O3 0.333215 0.099557 0.623996
O O4 0.369073 0.799472 0.802393
O O5 0.191109 0.044829 0.049203
O O6 0.830980 0.690884 0.286953
O O7 0.000000 0.805962 0.250000
O O8 0.000000 0.000000 0.000000
#
# Coordination Sequence:
#
# PCOD9227800 Si02
#       4
#     2   4   4   4
#     4  12  24  40  60 102 130 158 216 248 324 376
#     4  10  23  41  67  92 127 169 201 269 308 371
#     4  10  23  41  67  92 127 169 203 265 310 369
#     4  10  18  41  68  87 121 166 214 253 309 368
#
# _framework density 22.939468000000002
#
# number of rings (size 3 to 8) (size 9 to 14) (size 15 to 20)
#    1.714    0.000    2.857    1.714    0.000    6.857 
#    0.000    2.857    0.000    0.000    0.000    0.000 
#    0.000    0.000    0.000    0.000    0.000    0.000 
#
# Total GULP energy -78062.036382 kJ/mol
# GULP energy per Si atom -5575.859742 kJ/mol
# Density = 2.288726 g / cm^3
# Si number density = 22.939468 Si / 1000 Ang^3
#
#
#
# Elastic Constant Matrix: (Units=GPa)
#
#
# Indices 1 2 3 4 5 6 
#
# 1 171.4586 29.1745 38.6699 0.0000 -17.5353 0.0000
# 2 29.1745 30.7682 3.9416 0.0000 -13.8630 0.0000
# 3 38.6699 3.9416 105.3018 0.0000 -24.3447 0.0000
# 4 0.0000 0.0000 0.0000 15.5190 0.0000 2.2432
# 5 -17.5353 -13.8630 -24.3447 0.0000 47.3246 0.0000
# 6 0.0000 0.0000 0.0000 2.2432 0.0000 16.3612
#
#
#
# Elastic Compliance Matrix: (Units=1/GPa)
#
#
# Indices 1 2 3 4 5 6 
#
# 1 0.007583 -0.007143 -0.002669 0.000000 -0.000656 0.000000
# 2 -0.007143 0.044327 0.003807 0.000000 0.012296 0.000000
# 3 -0.002669 0.003807 0.011762 0.000000 0.006177 0.000000
# 4 0.000000 0.000000 0.000000 0.065740 0.000000 -0.009013
# 5 -0.000656 0.012296 0.006177 0.000000 0.027667 0.000000
# 6 0.000000 0.000000 0.000000 -0.009013 0.000000 0.062356
#
#
# Mechanical properties :
#
#
# Convention : Reuss Voigt Hill
#
# Bulk Modulus (GPa) = 19.35692 50.12229 34.73961
# Shear Modulus (GPa) = 20.10728 31.55714 25.83221
#
# Velocity S-wave (km/s) = 2.96385 3.71303 3.35939
# Velocity P-wave (km/s) = 4.49100 6.34660 5.49766
#
# Compressibility (1/GPa) = 0.05166111
#
# Stress axis : x y z
#
# Youngs Moduli (GPa) = 131.88006 22.55951 85.01865
#
# Poissons Ratio (x) = 0.16115 0.22690
# Poissons Ratio (y) = 0.94209 -0.32365
# Poissons Ratio (z) = 0.35196 -0.08588
#
# Static dielectric constant tensor:
#      x y z
#    x 1.858270 0.000000 -0.018140 
#    y 0.000000 1.875050 0.000000 
#    z -0.018140 0.000000 1.887970 
# 
# From -- ./inp_files/14324.got.cif
#   From: 2010.05.17/outbox.cif.g08.bks.cpg/sg13_8_cif.got.tgz:14324.got - 2010.06.03 16:44:36.
