data_PCOD9227355
_publ_section_title
;
Structure prediction by ZEFSAII (Michael W. Deem and Ramdas Pophale) SiO2 
 PCOD9227355
Probable space group: P 2/C
;
_chemical_formula_sum "Si O2"
_cell_formula_units_Z 22
_cell_length_a 12.086008
_cell_length_b 7.407185
_cell_length_c 11.768197
_cell_angle_alpha 90.000000
_cell_angle_beta 58.155634
_cell_angle_gamma 90.000000
_cell_volume 894.955428
_symmetry_space_group_name_H-M "P 2/C"
_symmetry_group_IT_number 13
_symmetry_cell_setting 'monoclinic'
loop_
_space_group_symop_operation_xyz
x,y,z
-x,y,1/2-z
-x,-y,-z
x,-y,1/2+z
loop_
_atom_site_type_symbol
_atom_site_label
_atom_site_fract_x
_atom_site_fract_y
_atom_site_fract_z
Si Si1 0.881417 0.382386 0.017411
Si Si2 0.000000 0.792666 0.250000
Si Si3 0.000646 0.859877 0.626956
Si Si4 0.464598 0.186803 0.583002
Si Si5 0.301680 0.112230 0.892758
Si Si6 0.378613 0.690101 0.896489
O O1 0.733496 0.439844 0.092969
O O2 0.048815 0.061839 0.815516
O O3 0.000000 0.500000 0.000000
O O4 0.905178 0.327623 0.874138
O O5 0.100708 0.217998 0.405626
O O6 0.149790 0.854517 0.503662
O O7 0.000000 0.763209 0.750000
O O8 0.352679 0.153408 0.737946
O O9 0.598757 0.221985 0.578529
O O10 0.417241 0.318755 0.508125
O O11 0.500000 0.000000 0.500000
O O12 0.329420 0.898736 0.904057
O O13 0.500000 0.665447 0.750000
#
# Coordination Sequence:
#
# PCOD9227355 Si02
#       6
#     4   2   4   4   4   4
#     4  12  28  45  67 105 151 190 233 290 373 434
#     4  10  24  42  74  98 132 186 236 308 336 414
#     4  10  24  40  69 104 138 181 249 294 344 422
#     4   9  18  31  55 101 138 170 222 291 353 397
#     4  10  18  34  62 104 140 173 227 304 342 410
#     4  11  21  36  66  95 135 188 234 287 352 422
#
# _framework density 24.582229000000002
#
# number of rings (size 3 to 8) (size 9 to 14) (size 15 to 20)
#    0.545    1.091    5.455    0.545    6.364    0.000 
#    0.000    0.000    4.000    2.182    0.000    0.000 
#    0.000    0.000    0.000    0.000    0.000    0.000 
#
# Total GULP energy -122818.172198 kJ/mol
# GULP energy per Si atom -5582.644191 kJ/mol
# Density = 2.452628 g / cm^3
# Si number density = 24.582229 Si / 1000 Ang^3
#
#
#
# Elastic Constant Matrix: (Units=GPa)
#
#
# Indices 1 2 3 4 5 6 
#
# 1 204.3955 43.1094 105.1499 0.0000 -12.0356 0.0000
# 2 43.1094 44.7013 18.5376 0.0000 -9.2065 0.0000
# 3 105.1499 18.5376 173.8705 0.0000 11.2782 0.0000
# 4 0.0000 0.0000 0.0000 4.6967 0.0000 -5.5544
# 5 -12.0356 -9.2065 11.2782 0.0000 37.8524 0.0000
# 6 0.0000 0.0000 0.0000 -5.5544 0.0000 29.2271
#
#
#
# Elastic Compliance Matrix: (Units=1/GPa)
#
#
# Indices 1 2 3 4 5 6 
#
# 1 0.008816 -0.005893 -0.004886 0.000000 0.002825 0.000000
# 2 -0.005893 0.029062 0.000131 0.000000 0.005155 0.000000
# 3 -0.004886 0.000131 0.008964 0.000000 -0.004193 0.000000
# 4 0.000000 0.000000 0.000000 0.274638 0.000000 0.052192
# 5 0.002825 0.005155 -0.004193 0.000000 0.029820 0.000000
# 6 0.000000 0.000000 0.000000 0.052192 0.000000 0.044133
#
#
# Mechanical properties :
#
#
# Convention : Reuss Voigt Hill
#
# Bulk Modulus (GPa) = 39.14704 84.06234 61.60469
# Shear Modulus (GPa) = 11.75795 31.43328 21.59561
#
# Velocity S-wave (km/s) = 2.18940 3.57977 2.96717
# Velocity P-wave (km/s) = 4.72767 7.16638 6.07074
#
# Compressibility (1/GPa) = 0.02554472
#
# Stress axis : x y z
#
# Youngs Moduli (GPa) = 113.43654 34.40967 111.55286
#
# Poissons Ratio (x) = 0.20279 0.54507
# Poissons Ratio (y) = 0.66852 -0.01463
# Poissons Ratio (z) = 0.55427 -0.00451
#
# Static dielectric constant tensor:
#      x y z
#    x 2.065450 0.000000 -0.205810 
#    y 0.000000 2.178570 0.000000 
#    z -0.205810 0.000000 2.544730 
# 
# From -- ./inp_files/33078.got.cif
#   From: 2010.05.17/outbox.cif.g08.bks.cpg/sg13_17_cif.got.tgz:33078.got - 2010.06.03 16:44:36.
