data_PCOD9227771
_publ_section_title
;
Structure prediction by ZEFSAII (Michael W. Deem and Ramdas Pophale) SiO2 
 PCOD9227771
Probable space group: P 2/C
;
_chemical_formula_sum "Si O2"
_cell_formula_units_Z 24
_cell_length_a 12.588127
_cell_length_b 5.290942
_cell_length_c 18.423243
_cell_angle_alpha 90.000000
_cell_angle_beta 52.457727
_cell_angle_gamma 90.000000
_cell_volume 972.928205
_symmetry_space_group_name_H-M "P 2/C"
_symmetry_group_IT_number 13
_symmetry_cell_setting 'monoclinic'
loop_
_space_group_symop_operation_xyz
x,y,z
-x,y,1/2-z
-x,-y,-z
x,-y,1/2+z
loop_
_atom_site_type_symbol
_atom_site_label
_atom_site_fract_x
_atom_site_fract_y
_atom_site_fract_z
Si Si1 0.177749 0.678535 0.288763
Si Si2 0.261689 0.687268 0.997403
Si Si3 0.767369 0.973706 0.856413
Si Si4 0.500000 0.061947 0.750000
Si Si5 0.226411 0.207101 0.926700
Si Si6 0.000000 0.386142 0.250000
Si Si7 0.575672 0.305056 0.347797
O O1 0.194655 0.940934 0.240183
O O2 0.149080 0.734384 0.384325
O O3 0.316753 0.521618 0.217932
O O4 0.064339 0.541607 0.289034
O O5 0.197593 0.432301 0.994115
O O6 0.420984 0.634117 0.925788
O O7 0.218951 0.927986 0.964894
O O8 0.238259 0.788255 0.088385
O O9 0.630244 0.825710 0.899090
O O10 0.883884 0.788418 0.830669
O O11 0.382675 0.219630 0.836106
O O12 0.433021 0.885568 0.716912
#
# Coordination Sequence:
#
# PCOD9227771 Si02
#       7
#     4   4   4   2   4   2   4
#     4  11  22  43  71  94 129 185 235 273 324 408
#     4  11  26  40  66 104 147 168 212 278 349 401
#     4  11  24  44  66  97 130 177 228 282 336 395
#     4  10  18  40  62 102 138 180 216 266 322 420
#     4  11  23  41  65 100 138 179 216 270 331 406
#     4  10  26  44  72  90 126 174 250 282 330 386
#     4  10  21  37  66 100 138 174 219 266 339 404
#
# _framework density 24.667798999999999
#
# number of rings (size 3 to 8) (size 9 to 14) (size 15 to 20)
#    0.000    1.333    1.667    4.000    9.333    1.333 
#    0.000    1.667    0.000    0.000    0.000    0.000 
#    0.000    0.000    0.000    0.000    0.000    0.000 
#
# Total GULP energy -134334.190485 kJ/mol
# GULP energy per Si atom -5597.257937 kJ/mol
# Density = 2.461165 g / cm^3
# Si number density = 24.667799 Si / 1000 Ang^3
#
#
#
# Elastic Constant Matrix: (Units=GPa)
#
#
# Indices 1 2 3 4 5 6 
#
# 1 138.2374 48.6756 39.6964 0.0000 23.4959 0.0000
# 2 48.6756 84.5757 19.8272 0.0000 9.8034 0.0000
# 3 39.6964 19.8272 85.9451 0.0000 29.5807 0.0000
# 4 0.0000 0.0000 0.0000 22.5212 0.0000 18.7930
# 5 23.4959 9.8034 29.5807 0.0000 22.4620 0.0000
# 6 0.0000 0.0000 0.0000 18.7930 0.0000 42.1468
#
#
#
# Elastic Compliance Matrix: (Units=1/GPa)
#
#
# Indices 1 2 3 4 5 6 
#
# 1 0.010567 -0.004949 -0.001240 0.000000 -0.007260 0.000000
# 2 -0.004949 0.014932 -0.001276 0.000000 0.000340 0.000000
# 3 -0.001240 -0.001276 0.021700 0.000000 -0.026723 0.000000
# 4 0.000000 0.000000 0.000000 0.070714 0.000000 -0.031531
# 5 -0.007260 0.000340 -0.026723 0.000000 0.087158 0.000000
# 6 0.000000 0.000000 0.000000 -0.031531 0.000000 0.037786
#
#
# Mechanical properties :
#
#
# Convention : Reuss Voigt Hill
#
# Bulk Modulus (GPa) = 30.99019 58.35074 44.67046
# Shear Modulus (GPa) = 18.61901 30.79658 24.70780
#
# Velocity S-wave (km/s) = 2.75033 3.53718 3.16827
# Velocity P-wave (km/s) = 4.76193 6.35517 5.61534
#
# Compressibility (1/GPa) = 0.03226828
#
# Stress axis : x y z
#
# Youngs Moduli (GPa) = 94.63716 66.97126 46.08264
#
# Poissons Ratio (x) = 0.33145 0.05714
# Poissons Ratio (y) = 0.46838 0.05880
# Poissons Ratio (z) = 0.11735 0.08545
#
# Static dielectric constant tensor:
#      x y z
#    x 2.010540 0.000000 -0.020830 
#    y 0.000000 1.936940 0.000000 
#    z -0.020830 0.000000 1.965120 
# 
# From -- ./inp_files/65335.got.cif
#   From: 2010.05.17/outbox.cif.g08.bks.cpg/sg13_33_cif.got.tgz:65335.got - 2010.06.03 16:44:36.
