data_PCOD9227967
_publ_section_title
;
Structure prediction by ZEFSAII (Michael W. Deem and Ramdas Pophale) SiO2 
 PCOD9227967
Probable space group: P 2/C
;
_chemical_formula_sum "Si O2"
_cell_formula_units_Z 20
_cell_length_a 7.375919
_cell_length_b 22.209201
_cell_length_c 8.316275
_cell_angle_alpha 90.000000
_cell_angle_beta 141.360117
_cell_angle_gamma 90.000000
_cell_volume 850.662176
_symmetry_space_group_name_H-M "P 2/C"
_symmetry_group_IT_number 13
_symmetry_cell_setting 'monoclinic'
loop_
_space_group_symop_operation_xyz
x,y,z
-x,y,1/2-z
-x,-y,-z
x,-y,1/2+z
loop_
_atom_site_type_symbol
_atom_site_label
_atom_site_fract_x
_atom_site_fract_y
_atom_site_fract_z
Si Si1 0.350935 0.376542 0.825901
Si Si2 0.719017 0.039492 0.260975
Si Si3 0.845241 0.176178 0.307008
Si Si4 0.134870 0.561530 0.665393
Si Si5 0.658035 0.761489 0.182618
O O1 0.500000 0.381267 0.750000
O O2 0.366020 0.307550 0.888027
O O3 0.015781 0.391091 0.558015
O O4 0.527195 0.422566 0.065146
O O5 0.500000 0.055483 0.250000
O O6 0.845468 0.104126 0.300432
O O7 0.000000 0.000000 0.500000
O O8 0.500000 0.000000 0.000000
O O9 0.000000 0.197223 0.250000
O O10 0.028681 0.209223 0.570900
O O11 0.518876 0.197886 0.062972
O O12 0.000000 0.566687 0.750000
O O13 0.000000 0.500000 0.500000
O O14 0.500000 0.763471 0.250000
#
# Coordination Sequence:
#
# PCOD9227967 Si02
#       5
#     4   4   4   4   4
#     4   9  17  30  49  75 104 136 177 226 276 329
#     4  12  25  42  63  89 122 160 200 245 295 354
#     4  10  19  33  55  83 112 144 184 234 289 345
#     4  10  19  31  49  73 103 138 178 224 274 330
#     4   9  17  30  52  80 108 138 179 231 283 336
#
# _framework density 23.511094
#
# number of rings (size 3 to 8) (size 9 to 14) (size 15 to 20)
#    0.000    2.000    0.000    4.800    0.000    6.400 
#    0.000    0.000    0.000    4.800    0.000    0.000 
#    0.000    0.000    0.000    0.000    0.000    0.000 
#
# Total GULP energy -111578.592820 kJ/mol
# GULP energy per Si atom -5578.929641 kJ/mol
# Density = 2.345758 g / cm^3
# Si number density = 23.511094 Si / 1000 Ang^3
#
#
#
# Elastic Constant Matrix: (Units=GPa)
#
#
# Indices 1 2 3 4 5 6 
#
# 1 55.7384 -22.8919 11.1003 0.0000 9.0258 0.0000
# 2 -22.8919 142.4876 87.3978 0.0000 -0.4457 0.0000
# 3 11.1003 87.3978 214.1886 0.0000 20.1964 0.0000
# 4 0.0000 0.0000 0.0000 51.7067 0.0000 -0.7406
# 5 9.0258 -0.4457 20.1964 0.0000 24.6133 0.0000
# 6 0.0000 0.0000 0.0000 -0.7406 0.0000 14.9194
#
#
#
# Elastic Compliance Matrix: (Units=1/GPa)
#
#
# Indices 1 2 3 4 5 6 
#
# 1 0.021449 0.005050 -0.002644 0.000000 -0.005605 0.000000
# 2 0.005050 0.010851 -0.004913 0.000000 0.002376 0.000000
# 3 -0.002644 -0.004913 0.007292 0.000000 -0.005103 0.000000
# 4 0.000000 0.000000 0.000000 0.019354 0.000000 0.000961
# 5 -0.005605 0.002376 -0.005103 0.000000 0.046914 0.000000
# 6 0.000000 0.000000 0.000000 0.000961 0.000000 0.067075
#
#
# Mechanical properties :
#
#
# Convention : Reuss Voigt Hill
#
# Bulk Modulus (GPa) = 28.92052 62.62522 45.77287
# Shear Modulus (GPa) = 26.38898 40.70178 33.54538
#
# Velocity S-wave (km/s) = 3.35387 4.16525 3.78138
# Velocity P-wave (km/s) = 5.22737 7.05880 6.21096
#
# Compressibility (1/GPa) = 0.03457752
#
# Stress axis : x y z
#
# Youngs Moduli (GPa) = 46.62203 92.16105 137.14124
#
# Poissons Ratio (x) = -0.46542 0.36257
# Poissons Ratio (y) = -0.23544 0.67381
# Poissons Ratio (z) = 0.12326 0.45281
#
# Static dielectric constant tensor:
#      x y z
#    x 1.916560 0.000000 0.025950 
#    y 0.000000 2.118660 0.000000 
#    z 0.025950 0.000000 1.794590 
# 
# From -- ./inp_files/13762.got.cif
#   From: 2010.05.17/outbox.cif.g08.bks.cpg/sg13_7_cif.got.tgz:13762.got - 2010.06.03 16:44:36.
