data_PCOD9227462
_publ_section_title
;
Structure prediction by ZEFSAII (Michael W. Deem and Ramdas Pophale) SiO2 
 PCOD9227462
Probable space group: P 2/C
;
_chemical_formula_sum "Si O2"
_cell_formula_units_Z 28
_cell_length_a 12.457438
_cell_length_b 8.596526
_cell_length_c 17.514451
_cell_angle_alpha 90.000000
_cell_angle_beta 41.216473
_cell_angle_gamma 90.000000
_cell_volume 1235.866462
_symmetry_space_group_name_H-M "P 2/C"
_symmetry_group_IT_number 13
_symmetry_cell_setting 'monoclinic'
loop_
_space_group_symop_operation_xyz
x,y,z
-x,y,1/2-z
-x,-y,-z
x,-y,1/2+z
loop_
_atom_site_type_symbol
_atom_site_label
_atom_site_fract_x
_atom_site_fract_y
_atom_site_fract_z
Si Si1 0.110276 0.087417 0.878633
Si Si2 0.421424 0.835466 0.020174
Si Si3 0.019975 0.830445 0.821013
Si Si4 0.270972 0.391967 0.002217
Si Si5 0.304802 0.394315 0.161198
Si Si6 0.895080 0.703764 0.383325
Si Si7 0.379977 0.688169 0.210156
O O1 0.003559 0.206427 0.886207
O O2 0.268754 0.188871 0.815657
O O3 0.132605 0.942410 0.810254
O O4 0.000000 0.000000 0.000000
O O5 0.254253 0.815381 0.063017
O O6 0.388650 0.764486 0.121098
O O7 0.555297 0.733892 0.903213
O O8 0.500000 0.000000 0.000000
O O9 0.844952 0.760548 0.938473
O O10 0.000000 0.910437 0.750000
O O11 0.127290 0.678321 0.752865
O O12 0.329100 0.437212 0.058309
O O13 0.172525 0.548958 0.038470
O O14 0.433507 0.351603 0.868570
O O15 0.304540 0.521606 0.227653
O O16 0.000000 0.667080 0.250000
#
# Coordination Sequence:
#
# PCOD9227462 Si02
#       7
#     4   4   4   4   4   4   4
#     4  12  27  43  60  90 133 185 225 277 334 402
#     4  11  21  32  61 105 139 164 210 280 342 397
#     4  10  22  38  66  95 123 163 216 273 340 401
#     4  10  19  36  64 100 127 161 211 280 337 407
#     4  10  18  35  62 100 134 160 213 272 340 406
#     4  12  21  39  68 100 136 172 224 276 347 419
#     4  11  20  39  62  92 136 168 213 278 340 400
#
# _framework density 22.656169999999999
#
# number of rings (size 3 to 8) (size 9 to 14) (size 15 to 20)
#    0.000    1.143    4.286    4.286    6.000    0.000 
#    0.000    3.571    0.000    0.000    0.000    0.000 
#    0.000    0.000    0.000    0.000    0.000    0.000 
#
# Total GULP energy -156166.815551 kJ/mol
# GULP energy per Si atom -5577.386270 kJ/mol
# Density = 2.260460 g / cm^3
# Si number density = 22.656170 Si / 1000 Ang^3
#
#
#
# Elastic Constant Matrix: (Units=GPa)
#
#
# Indices 1 2 3 4 5 6 
#
# 1 29.9126 17.8446 27.9735 0.0000 -13.2411 0.0000
# 2 17.8446 113.1722 47.1672 0.0000 -8.8470 0.0000
# 3 27.9735 47.1672 123.7859 0.0000 -15.6169 0.0000
# 4 0.0000 0.0000 0.0000 44.1539 0.0000 -12.0027
# 5 -13.2411 -8.8470 -15.6169 0.0000 28.2567 0.0000
# 6 0.0000 0.0000 0.0000 -12.0027 0.0000 9.9396
#
#
#
# Elastic Compliance Matrix: (Units=1/GPa)
#
#
# Indices 1 2 3 4 5 6 
#
# 1 0.050998 -0.003287 -0.007941 0.000000 0.018480 0.000000
# 2 -0.003287 0.010751 -0.003358 0.000000 -0.000030 0.000000
# 3 -0.007941 -0.003358 0.011341 0.000000 0.001496 0.000000
# 4 0.000000 0.000000 0.000000 0.033716 0.000000 0.040714
# 5 0.018480 -0.000030 0.001496 0.000000 0.044867 0.000000
# 6 0.000000 0.000000 0.000000 0.040714 0.000000 0.149772
#
#
# Mechanical properties :
#
#
# Convention : Reuss Voigt Hill
#
# Bulk Modulus (GPa) = 22.76897 50.31569 36.54233
# Shear Modulus (GPa) = 14.48206 28.06242 21.27224
#
# Velocity S-wave (km/s) = 2.53100 3.52322 3.06750
# Velocity P-wave (km/s) = 4.31427 6.22956 5.35819
#
# Compressibility (1/GPa) = 0.04391942
#
# Stress axis : x y z
#
# Youngs Moduli (GPa) = 19.60869 93.01085 88.17547
#
# Poissons Ratio (x) = 0.30573 0.70018
# Poissons Ratio (y) = 0.06445 0.29606
# Poissons Ratio (z) = 0.15571 0.31230
#
# Static dielectric constant tensor:
#      x y z
#    x 1.898180 0.000000 0.004910 
#    y 0.000000 1.988570 0.000000 
#    z 0.004910 0.000000 1.954100 
# 
# From -- ./inp_files/79944.got.cif
#   From: 2010.05.17/outbox.cif.g08.bks.cpg/sg13_40_cif.got.tgz:79944.got - 2010.06.03 16:44:36.
