data_PCOD9227169
_publ_section_title
;
Structure prediction by ZEFSAII (Michael W. Deem and Ramdas Pophale) SiO2 
 PCOD9227169
Probable space group: P 2/C
;
_chemical_formula_sum "Si O2"
_cell_formula_units_Z 24
_cell_length_a 6.753583
_cell_length_b 8.741256
_cell_length_c 21.667676
_cell_angle_alpha 90.000000
_cell_angle_beta 99.479656
_cell_angle_gamma 90.000000
_cell_volume 1261.679027
_symmetry_space_group_name_H-M "P 2/C"
_symmetry_group_IT_number 13
_symmetry_cell_setting 'monoclinic'
loop_
_space_group_symop_operation_xyz
x,y,z
-x,y,1/2-z
-x,-y,-z
x,-y,1/2+z
loop_
_atom_site_type_symbol
_atom_site_label
_atom_site_fract_x
_atom_site_fract_y
_atom_site_fract_z
Si Si1 0.514358 0.610318 0.326685
Si Si2 0.142235 0.593121 0.809888
Si Si3 0.201556 0.101690 0.012908
Si Si4 0.572821 0.135900 0.192413
Si Si5 0.552488 0.901951 0.094788
Si Si6 0.791946 0.334484 0.380070
O O1 0.500000 0.617549 0.250000
O O2 0.308171 0.528383 0.337328
O O3 0.523086 0.768950 0.363722
O O4 0.691502 0.500133 0.361279
O O5 0.265606 0.733058 0.786092
O O6 0.000000 0.525192 0.750000
O O7 0.004799 0.657817 0.856996
O O8 0.178674 0.257806 0.051361
O O9 0.366701 0.990628 0.053547
O O10 0.293607 0.143542 0.950950
O O11 0.000000 0.000000 0.000000
O O12 0.500000 0.051564 0.250000
O O13 0.374210 0.221663 0.157990
O O14 0.655572 0.025462 0.144825
#
# Coordination Sequence:
#
# PCOD9227169 Si02
#       6
#     4   4   4   4   4   4
#     4  11  22  38  58  89 124 148 177 233 298 350
#     4  11  18  34  57  83 116 148 185 225 278 349
#     4  10  22  43  61  81 111 152 205 241 270 329
#     4  10  18  33  57  84 110 147 190 233 286 338
#     4  10  23  39  58  83 117 150 187 241 289 331
#     4  10  20  36  60  83 112 153 190 231 282 343
#
# _framework density 19.022271
#
# number of rings (size 3 to 8) (size 9 to 14) (size 15 to 20)
#    0.000    1.667    3.333    2.500    0.000    3.333 
#    0.000    2.500    0.000    0.000    0.000    0.000 
#    0.000    0.000    0.000    0.000    0.000    0.000 
#
# Total GULP energy -133687.915096 kJ/mol
# GULP energy per Si atom -5570.329796 kJ/mol
# Density = 1.897898 g / cm^3
# Si number density = 19.022271 Si / 1000 Ang^3
#
#
#
# Elastic Constant Matrix: (Units=GPa)
#
#
# Indices 1 2 3 4 5 6 
#
# 1 68.4694 0.0513 17.8099 0.0000 -13.7097 0.0000
# 2 0.0513 65.7361 41.1340 0.0000 -8.5123 0.0000
# 3 17.8099 41.1340 77.7163 0.0000 -22.6816 0.0000
# 4 0.0000 0.0000 0.0000 31.5164 0.0000 -1.4411
# 5 -13.7097 -8.5123 -22.6816 0.0000 28.8400 0.0000
# 6 0.0000 0.0000 0.0000 -1.4411 0.0000 9.7236
#
#
#
# Elastic Compliance Matrix: (Units=1/GPa)
#
#
# Indices 1 2 3 4 5 6 
#
# 1 0.016767 0.003104 -0.003753 0.000000 0.005935 0.000000
# 2 0.003104 0.023608 -0.013943 0.000000 -0.002522 0.000000
# 3 -0.003753 -0.013943 0.025160 0.000000 0.013888 0.000000
# 4 0.000000 0.000000 0.000000 0.031946 0.000000 0.004735
# 5 0.005935 -0.002522 0.013888 0.000000 0.047674 0.000000
# 6 0.000000 0.000000 0.000000 0.004735 0.000000 0.103544
#
#
# Mechanical properties :
#
#
# Convention : Reuss Voigt Hill
#
# Bulk Modulus (GPa) = 27.50879 36.65691 32.08285
# Shear Modulus (GPa) = 17.24136 24.21111 20.72623
#
# Velocity S-wave (km/s) = 3.01388 3.57147 3.30446
# Velocity P-wave (km/s) = 5.15791 6.02657 5.60908
#
# Compressibility (1/GPa) = 0.03635202
#
# Stress axis : x y z
#
# Youngs Moduli (GPa) = 59.63949 42.35873 39.74508
#
# Poissons Ratio (x) = -0.13148 0.14917
# Poissons Ratio (y) = -0.18512 0.55415
# Poissons Ratio (z) = 0.22384 0.59059
#
# Static dielectric constant tensor:
#      x y z
#    x 1.656290 0.000000 -0.003930 
#    y 0.000000 1.679000 0.000000 
#    z -0.003930 0.000000 1.711790 
# 
# From -- ./inp_files/83340.got.cif
#   From: 2010.05.17/outbox.cif.g08.bks.cpg/sg13_42_cif.got.tgz:83340.got - 2010.06.03 16:44:36.
