data_PCOD9227348
_publ_section_title
;
Structure prediction by ZEFSAII (Michael W. Deem and Ramdas Pophale) SiO2 
 PCOD9227348
Probable space group: P 2/C
;
_chemical_formula_sum "Si O2"
_cell_formula_units_Z 18
_cell_length_a 8.192081
_cell_length_b 11.692094
_cell_length_c 9.471177
_cell_angle_alpha 90.000000
_cell_angle_beta 90.493859
_cell_angle_gamma 90.000000
_cell_volume 907.140080
_symmetry_space_group_name_H-M "P 2/C"
_symmetry_group_IT_number 13
_symmetry_cell_setting 'monoclinic'
loop_
_space_group_symop_operation_xyz
x,y,z
-x,y,1/2-z
-x,-y,-z
x,-y,1/2+z
loop_
_atom_site_type_symbol
_atom_site_label
_atom_site_fract_x
_atom_site_fract_y
_atom_site_fract_z
Si Si1 0.199570 0.856793 0.745032
Si Si2 0.850818 0.560147 0.417815
Si Si3 0.829298 0.946454 0.053802
Si Si4 0.000000 0.765266 0.250000
Si Si5 0.318694 0.398404 0.304627
O O1 0.250074 0.896679 0.588263
O O2 0.265148 0.731999 0.778842
O O3 0.000000 0.851962 0.750000
O O4 0.253820 0.951566 0.859629
O O5 0.795466 0.481528 0.288355
O O6 0.708457 0.574012 0.531580
O O7 0.000000 0.500000 0.500000
O O8 0.908217 0.682322 0.358696
O O9 0.876823 0.846338 0.163137
O O10 0.000000 0.000000 0.000000
O O11 0.500000 0.414821 0.250000
#
# Coordination Sequence:
#
# PCOD9227348 Si02
#       5
#     4   4   4   2   4
#     4  10  20  37  63  89 122 160 211 261 314 366
#     4  12  23  43  68  94 123 168 222 266 312 378
#     4  10  18  34  60  95 122 153 205 274 314 358
#     4  12  20  34  68  98 120 154 220 274 314 354
#     4  12  26  43  62  93 135 170 206 262 327 383
#
# _framework density 19.842580999999999
#
# number of rings (size 3 to 8) (size 9 to 14) (size 15 to 20)
#    0.000    0.889    5.556    6.000    0.000    0.000 
#    0.000    1.111    0.000    0.000    0.000    0.000 
#    0.000    0.000    0.000    0.000    0.000    0.000 
#
# Total GULP energy -100608.456915 kJ/mol
# GULP energy per Si atom -5589.358717 kJ/mol
# Density = 1.979742 g / cm^3
# Si number density = 19.842581 Si / 1000 Ang^3
#
#
#
# Elastic Constant Matrix: (Units=GPa)
#
#
# Indices 1 2 3 4 5 6 
#
# 1 32.6687 -5.7291 -5.3855 0.0000 -14.7419 0.0000
# 2 -5.7291 97.8982 10.6393 0.0000 5.6259 0.0000
# 3 -5.3855 10.6393 93.3479 0.0000 -9.6452 0.0000
# 4 0.0000 0.0000 0.0000 53.6724 0.0000 1.0905
# 5 -14.7419 5.6259 -9.6452 0.0000 25.3519 0.0000
# 6 0.0000 0.0000 0.0000 1.0905 0.0000 -0.7855
#
#
#
# Elastic Compliance Matrix: (Units=1/GPa)
#
#
# Indices 1 2 3 4 5 6 
#
# 1 0.043975 0.000413 0.005332 0.000000 0.027508 0.000000
# 2 0.000413 0.010549 -0.001453 0.000000 -0.002653 0.000000
# 3 0.005332 -0.001453 0.012012 0.000000 0.007993 0.000000
# 4 0.000000 0.000000 0.000000 0.018120 0.000000 0.025158
# 5 0.027508 -0.002653 0.007993 0.000000 0.059070 0.000000
# 6 0.000000 0.000000 0.000000 0.025158 0.000000 -1.238192
#
#
# Mechanical properties :
#
#
# Convention : Reuss Voigt Hill
#
# Bulk Modulus (GPa) = 13.31186 24.77382 19.04284
# Shear Modulus (GPa) = -4.63817 30.60710 12.98446
#
# Velocity S-wave (km/s) = -1.53054 3.93172 2.56085
# Velocity P-wave (km/s) = 1.89734 5.75531 4.28506
#
# Compressibility (1/GPa) = 0.07512096
#
# Stress axis : x y z
#
# Youngs Moduli (GPa) = 22.74032 94.79362 83.25235
#
# Poissons Ratio (x) = -0.03917 -0.44392
# Poissons Ratio (y) = -0.00940 0.12094
# Poissons Ratio (z) = -0.12126 0.13770
#
# Static dielectric constant tensor:
#      x y z
#    x 1.975950 0.000000 0.042890 
#    y 0.000000 1.683250 0.000000 
#    z 0.042890 0.000000 1.725860 
# 
# From -- ./inp_files/11247.got.cif
#   From: 2010.05.17/outbox.cif.g08.bks.cpg/sg13_6_cif.got.tgz:11247.got - 2010.06.03 16:44:36.
