data_PCOD9227992
_publ_section_title
;
Structure prediction by ZEFSAII (Michael W. Deem and Ramdas Pophale) SiO2 
 PCOD9227992
Probable space group: P 2/C
;
_chemical_formula_sum "Si O2"
_cell_formula_units_Z 28
_cell_length_a 9.245425
_cell_length_b 14.755156
_cell_length_c 14.052647
_cell_angle_alpha 90.000000
_cell_angle_beta 48.256996
_cell_angle_gamma 90.000000
_cell_volume 1430.369939
_symmetry_space_group_name_H-M "P 2/C"
_symmetry_group_IT_number 13
_symmetry_cell_setting 'monoclinic'
loop_
_space_group_symop_operation_xyz
x,y,z
-x,y,1/2-z
-x,-y,-z
x,-y,1/2+z
loop_
_atom_site_type_symbol
_atom_site_label
_atom_site_fract_x
_atom_site_fract_y
_atom_site_fract_z
Si Si1 0.351800 0.380256 0.454555
Si Si2 0.183703 0.202341 0.741998
Si Si3 0.199875 0.595780 0.216769
Si Si4 0.219423 0.410980 0.314000
Si Si5 0.406267 0.827201 0.969039
Si Si6 0.065656 0.100343 0.497355
Si Si7 0.143078 0.214044 0.274688
O O1 0.340299 0.421128 0.564980
O O2 0.207973 0.410347 0.433554
O O3 0.560543 0.397030 0.318468
O O4 0.323291 0.272969 0.480203
O O5 0.241547 0.305758 0.743429
O O6 0.355549 0.159904 0.602612
O O7 0.000000 0.203593 0.750000
O O8 0.102595 0.145679 0.864889
O O9 0.173906 0.510043 0.294886
O O10 0.000000 0.607867 0.250000
O O11 0.122935 0.321060 0.311562
O O12 0.271868 0.893246 0.964433
O O13 0.634829 0.815818 0.848185
O O14 0.090068 0.157934 0.391177
O O15 0.000000 0.000000 0.500000
O O16 0.000000 0.195163 0.250000
#
# Coordination Sequence:
#
# PCOD9227992 Si02
#       7
#     4   4   4   4   4   4   4
#     4   9  18  34  57  81 108 157 206 235 277 359
#     4   8  18  37  62  87 116 158 206 247 294 361
#     4  10  19  31  51  84 118 155 195 237 290 351
#     4  10  19  34  56  83 117 155 200 239 289 343
#     4   9  18  41  68  85 115 162 201 246 298 360
#     4  11  22  40  65  92 116 152 205 257 310 376
#     4  11  23  39  60  93 127 155 197 253 302 355
#
# _framework density 19.575354000000001
#
# number of rings (size 3 to 8) (size 9 to 14) (size 15 to 20)
#    0.000    2.286    1.429    2.143    0.000    2.286 
#    2.571    5.000    0.000    0.000    0.000    0.000 
#    0.000    0.000    0.000    0.000    0.000    0.000 
#
# Total GULP energy -155965.477358 kJ/mol
# GULP energy per Si atom -5570.195620 kJ/mol
# Density = 1.953080 g / cm^3
# Si number density = 19.575354 Si / 1000 Ang^3
#
#
#
# Elastic Constant Matrix: (Units=GPa)
#
#
# Indices 1 2 3 4 5 6 
#
# 1 75.3694 53.6303 44.0905 0.0000 11.8773 0.0000
# 2 53.6303 107.1498 81.8954 0.0000 9.5794 0.0000
# 3 44.0905 81.8954 136.0382 0.0000 29.9977 0.0000
# 4 0.0000 0.0000 0.0000 8.0733 0.0000 -2.8954
# 5 11.8773 9.5794 29.9977 0.0000 12.9257 0.0000
# 6 0.0000 0.0000 0.0000 -2.8954 0.0000 32.4214
#
#
#
# Elastic Compliance Matrix: (Units=1/GPa)
#
#
# Indices 1 2 3 4 5 6 
#
# 1 0.024395 -0.015745 0.008073 0.000000 -0.029484 0.000000
# 2 -0.015745 0.031688 -0.024547 0.000000 0.047951 0.000000
# 3 0.008073 -0.024547 0.035097 0.000000 -0.070678 0.000000
# 4 0.000000 0.000000 0.000000 0.127964 0.000000 0.011428
# 5 -0.029484 0.047951 -0.070678 0.000000 0.232949 0.000000
# 6 0.000000 0.000000 0.000000 0.011428 0.000000 0.031864
#
#
# Mechanical properties :
#
#
# Convention : Reuss Voigt Hill
#
# Bulk Modulus (GPa) = 37.39286 75.31000 56.35143
# Shear Modulus (GPa) = 8.97171 19.94683 14.45927
#
# Velocity S-wave (km/s) = 2.14316 3.19560 2.72075
# Velocity P-wave (km/s) = 5.02669 7.22296 6.22249
#
# Compressibility (1/GPa) = 0.02674307
#
# Stress axis : x y z
#
# Youngs Moduli (GPa) = 40.99225 31.55807 28.49267
#
# Poissons Ratio (x) = 0.49687 -0.23003
# Poissons Ratio (y) = 0.64541 0.69940
# Poissons Ratio (z) = -0.33095 0.77465
#
# Static dielectric constant tensor:
#      x y z
#    x 1.693100 0.000000 -0.018730 
#    y 0.000000 1.733470 0.000000 
#    z -0.018730 0.000000 1.751510 
# 
# From -- ./inp_files/47619.got.cif
#   From: 2010.05.17/outbox.cif.g08.bks.cpg/sg13_24_cif.got.tgz:47619.got - 2010.06.03 16:44:36.
