data_PCOD9227964
_publ_section_title
;
Structure prediction by ZEFSAII (Michael W. Deem and Ramdas Pophale) SiO2 
 PCOD9227964
Probable space group: P 2/C
;
_chemical_formula_sum "Si O2"
_cell_formula_units_Z 20
_cell_length_a 7.006118
_cell_length_b 22.689464
_cell_length_c 7.917009
_cell_angle_alpha 90.000000
_cell_angle_beta 139.114334
_cell_angle_gamma 90.000000
_cell_volume 823.771526
_symmetry_space_group_name_H-M "P 2/C"
_symmetry_group_IT_number 13
_symmetry_cell_setting 'monoclinic'
loop_
_space_group_symop_operation_xyz
x,y,z
-x,y,1/2-z
-x,-y,-z
x,-y,1/2+z
loop_
_atom_site_type_symbol
_atom_site_label
_atom_site_fract_x
_atom_site_fract_y
_atom_site_fract_z
Si Si1 0.349763 0.380758 0.837403
Si Si2 0.844275 0.057474 0.468942
Si Si3 0.842462 0.185844 0.322265
Si Si4 0.137961 0.561255 0.657808
Si Si5 0.659167 0.752792 0.171775
O O1 0.500000 0.385304 0.750000
O O2 0.382116 0.313881 0.917874
O O3 0.012117 0.393238 0.570653
O O4 0.521198 0.426813 0.073949
O O5 0.500000 0.045435 0.250000
O O6 0.878284 0.117359 0.386797
O O7 0.000000 0.000000 0.500000
O O8 0.000000 0.069263 0.750000
O O9 0.000000 0.197388 0.250000
O O10 0.014143 0.226666 0.569527
O O11 0.509837 0.202849 0.063975
O O12 0.000000 0.570352 0.750000
O O13 0.000000 0.500000 0.500000
O O14 0.500000 0.754475 0.250000
#
# Coordination Sequence:
#
# PCOD9227964 Si02
#       5
#     4   4   4   4   4
#     4   9  17  30  50  77 104 136 180 230 279 333
#     4  12  26  44  66  92 125 164 205 250 297 355
#     4  10  20  36  60  89 117 148 189 240 295 350
#     4  10  19  31  49  72 102 138 180 228 279 335
#     4   9  17  31  55  84 112 142 184 236 287 343
#
# _framework density 24.278575
#
# number of rings (size 3 to 8) (size 9 to 14) (size 15 to 20)
#    0.000    2.000    0.000    4.200    0.000    7.200 
#    0.000    0.000    0.000   12.000    0.000    0.000 
#    0.000    0.000    0.000    0.000    0.000    0.000 
#
# Total GULP energy -111900.059908 kJ/mol
# GULP energy per Si atom -5595.002995 kJ/mol
# Density = 2.422332 g / cm^3
# Si number density = 24.278575 Si / 1000 Ang^3
#
#
#
# Elastic Constant Matrix: (Units=GPa)
#
#
# Indices 1 2 3 4 5 6 
#
# 1 56.8678 -19.9553 36.4000 0.0000 4.3058 0.0000
# 2 -19.9553 122.3987 71.2317 0.0000 -10.7566 0.0000
# 3 36.4000 71.2317 212.5391 0.0000 8.7031 0.0000
# 4 0.0000 0.0000 0.0000 52.6167 0.0000 -2.5504
# 5 4.3058 -10.7566 8.7031 0.0000 46.8635 0.0000
# 6 0.0000 0.0000 0.0000 -2.5504 0.0000 22.4638
#
#
#
# Elastic Compliance Matrix: (Units=1/GPa)
#
#
# Indices 1 2 3 4 5 6 
#
# 1 0.024951 0.008271 -0.007083 0.000000 0.000921 0.000000
# 2 0.008271 0.013323 -0.006022 0.000000 0.003416 0.000000
# 3 -0.007083 -0.006022 0.008027 0.000000 -0.002222 0.000000
# 4 0.000000 0.000000 0.000000 0.019111 0.000000 0.002170
# 5 0.000921 0.003416 -0.002222 0.000000 0.022451 0.000000
# 6 0.000000 0.000000 0.000000 0.002170 0.000000 0.044762
#
#
# Mechanical properties :
#
#
# Convention : Reuss Voigt Hill
#
# Bulk Modulus (GPa) = 27.29729 63.01760 45.15744
# Shear Modulus (GPa) = 32.36189 44.66408 38.51298
#
# Velocity S-wave (km/s) = 3.65491 4.29377 3.98715
# Velocity P-wave (km/s) = 5.39248 7.11297 6.31162
#
# Compressibility (1/GPa) = 0.03663367
#
# Stress axis : x y z
#
# Youngs Moduli (GPa) = 40.07911 75.05824 124.57799
#
# Poissons Ratio (x) = -0.62078 0.88235
# Poissons Ratio (y) = -0.33148 0.75015
# Poissons Ratio (z) = 0.28387 0.45196
#
# Static dielectric constant tensor:
#      x y z
#    x 2.010990 0.000000 0.009710 
#    y 0.000000 2.111930 0.000000 
#    z 0.009710 0.000000 1.897720 
# 
# From -- ./inp_files/9960.got.cif
#   From: 2010.05.17/outbox.cif.g08.bks.cpg/sg13_5_cif.got.tgz:9960.got - 2010.06.03 16:44:36.
