data_PCOD9227741
_publ_section_title
;
Structure prediction by ZEFSAII (Michael W. Deem and Ramdas Pophale) SiO2 
 PCOD9227741
Probable space group: P 2/C
;
_chemical_formula_sum "Si O2"
_cell_formula_units_Z 20
_cell_length_a 8.944381
_cell_length_b 15.150647
_cell_length_c 7.991609
_cell_angle_alpha 90.000000
_cell_angle_beta 91.233540
_cell_angle_gamma 90.000000
_cell_volume 1082.717208
_symmetry_space_group_name_H-M "P 2/C"
_symmetry_group_IT_number 13
_symmetry_cell_setting 'monoclinic'
loop_
_space_group_symop_operation_xyz
x,y,z
-x,y,1/2-z
-x,-y,-z
x,-y,1/2+z
loop_
_atom_site_type_symbol
_atom_site_label
_atom_site_fract_x
_atom_site_fract_y
_atom_site_fract_z
Si Si1 0.841386 0.451546 0.460790
Si Si2 0.677052 0.608786 0.284440
Si Si3 0.532894 0.099969 0.948147
Si Si4 0.757014 0.237542 0.030346
Si Si5 0.500000 0.216707 0.250000
Si Si6 0.000000 0.688897 0.750000
O O1 0.725684 0.525753 0.398595
O O2 0.771940 0.405006 0.619522
O O3 0.000000 0.500000 0.500000
O O4 0.879567 0.377567 0.326320
O O5 0.500000 0.610694 0.250000
O O6 0.727493 0.698346 0.375506
O O7 0.500000 0.113125 0.750000
O O8 0.700262 0.138920 0.984934
O O9 0.446445 0.158301 0.088100
O O10 0.500000 0.000000 0.000000
O O11 0.637862 0.266794 0.171734
O O12 0.919880 0.252121 0.108291
#
# Coordination Sequence:
#
# PCOD9227741 Si02
#       6
#     4   4   4   4   2   2
#     4  12  23  42  59  83 124 186 220 270 344 398
#     4  12  24  39  61  91 122 165 238 283 329 381
#     4  10  18  38  68  98 127 165 210 262 337 404
#     4  10  23  38  60  95 123 169 209 282 325 393
#     4   8  22  38  60  98 124 160 210 266 336 372
#     4  12  24  40  62  82 136 172 230 262 338 402
#
# _framework density 18.472045000000001
#
# number of rings (size 3 to 8) (size 9 to 14) (size 15 to 20)
#    1.200    0.000    5.000    1.200    2.800    0.000 
#    1.800    0.000    0.000    4.800    0.000    0.000 
#    0.000    0.000    0.000    0.000    0.000    0.000 
#
# Total GULP energy -111356.520808 kJ/mol
# GULP energy per Si atom -5567.826040 kJ/mol
# Density = 1.843000 g / cm^3
# Si number density = 18.472045 Si / 1000 Ang^3
#
#
#
# Elastic Constant Matrix: (Units=GPa)
#
#
# Indices 1 2 3 4 5 6 
#
# 1 89.3968 41.3150 18.8356 0.0000 26.3259 0.0000
# 2 41.3150 93.5649 31.6529 0.0000 14.7553 0.0000
# 3 18.8356 31.6529 111.4796 0.0000 -5.9901 0.0000
# 4 0.0000 0.0000 0.0000 -36.1358 0.0000 58.5107
# 5 26.3259 14.7553 -5.9901 0.0000 40.0054 0.0000
# 6 0.0000 0.0000 0.0000 58.5107 0.0000 -33.8125
#
#
#
# Elastic Compliance Matrix: (Units=1/GPa)
#
#
# Indices 1 2 3 4 5 6 
#
# 1 0.016784 -0.005317 -0.001829 0.000000 -0.009358 0.000000
# 2 -0.005317 0.014545 -0.003359 0.000000 -0.002369 0.000000
# 3 -0.001829 -0.003359 0.010448 0.000000 0.004007 0.000000
# 4 0.000000 0.000000 0.000000 0.015358 0.000000 0.026576
# 5 -0.009358 -0.002369 0.004007 0.000000 0.032628 0.000000
# 6 0.000000 0.000000 0.000000 0.026576 0.000000 0.016413
#
#
# Mechanical properties :
#
#
# Convention : Reuss Voigt Hill
#
# Bulk Modulus (GPa) = 48.14995 53.11647 50.63321
# Shear Modulus (GPa) = 37.28283 7.52059 22.40171
#
# Velocity S-wave (km/s) = 4.49747 2.01994 3.48621
# Velocity P-wave (km/s) = 7.28646 5.85301 6.60872
#
# Compressibility (1/GPa) = 0.02076846
#
# Stress axis : x y z
#
# Youngs Moduli (GPa) = 59.57894 68.75017 95.70928
#
# Poissons Ratio (x) = 0.36554 0.17506
# Poissons Ratio (y) = 0.31677 0.32148
# Poissons Ratio (z) = 0.10897 0.23093
#
# Static dielectric constant tensor:
#      x y z
#    x 1.640450 0.000000 0.032950 
#    y 0.000000 1.643900 0.000000 
#    z 0.032950 0.000000 1.667440 
# 
# From -- ./inp_files/12246.got.cif
#   From: 2010.05.17/outbox.cif.g08.bks.cpg/sg13_7_cif.got.tgz:12246.got - 2010.06.03 16:44:36.
