data_PCOD9227417
_publ_section_title
;
Structure prediction by ZEFSAII (Michael W. Deem and Ramdas Pophale) SiO2 
 PCOD9227417
Probable space group: P 2/C
;
_chemical_formula_sum "Si O2"
_cell_formula_units_Z 26
_cell_length_a 32.681281
_cell_length_b 6.955465
_cell_length_c 5.317973
_cell_angle_alpha 90.000000
_cell_angle_beta 103.703708
_cell_angle_gamma 90.000000
_cell_volume 1174.435794
_symmetry_space_group_name_H-M "P 2/C"
_symmetry_group_IT_number 13
_symmetry_cell_setting 'monoclinic'
loop_
_space_group_symop_operation_xyz
x,y,z
-x,y,1/2-z
-x,-y,-z
x,-y,1/2+z
loop_
_atom_site_type_symbol
_atom_site_label
_atom_site_fract_x
_atom_site_fract_y
_atom_site_fract_z
Si Si1 0.000000 0.866895 0.250000
Si Si2 0.614933 0.275085 0.780851
Si Si3 0.089999 0.870999 0.440583
Si Si4 0.739721 0.618817 0.806456
Si Si5 0.352791 0.283315 0.172092
Si Si6 0.179505 0.123805 0.971073
Si Si7 0.518582 0.782618 0.027003
O O1 0.954538 0.763919 0.168856
O O2 0.000000 0.000000 0.500000
O O3 0.645888 0.202305 0.606993
O O4 0.628493 0.499386 0.835999
O O5 0.568475 0.238305 0.611221
O O6 0.618654 0.193667 0.067606
O O7 0.134729 0.769927 0.456488
O O8 0.090136 0.962431 0.721849
O O9 0.741259 0.547785 0.521366
O O10 0.694330 0.713026 0.791566
O O11 0.779429 0.751301 0.921369
O O12 0.179894 0.041011 0.688403
O O13 0.500000 0.696449 0.750000
O O14 0.500000 0.695364 0.250000
O O15 0.500000 0.000000 0.000000
#
# Coordination Sequence:
#
# PCOD9227417 Si02
#       7
#     2   4   4   4   4   4   4
#     4   8  12  20  38  64  96 132 190 232 276 330
#     4  10  18  35  58  78 104 131 169 213 265 296
#     4   8  14  25  42  68 101 145 181 234 286 342
#     4  12  21  38  63  87 114 150 200 248 278 342
#     4  10  19  35  56  81 102 134 176 226 262 307
#     4  10  21  36  55  81 123 154 187 237 310 356
#     4  10  21  37  57  77 109 139 165 201 253 323
#
# _framework density 22.138287999999999
#
# number of rings (size 3 to 8) (size 9 to 14) (size 15 to 20)
#    0.000    2.154    3.077    1.846    0.000    0.000 
#    0.000    9.231   20.308    0.000    0.000    1.077 
#    0.000    0.000    0.000    0.000    0.000    0.000 
#
# Total GULP energy -144908.237392 kJ/mol
# GULP energy per Si atom -5573.393746 kJ/mol
# Density = 2.208790 g / cm^3
# Si number density = 22.138288 Si / 1000 Ang^3
#
#
#
# Elastic Constant Matrix: (Units=GPa)
#
#
# Indices 1 2 3 4 5 6 
#
# 1 143.0786 4.2399 -9.4673 0.0000 24.8514 0.0000
# 2 4.2399 44.5077 -10.4387 0.0000 -1.9676 0.0000
# 3 -9.4673 -10.4387 147.2464 0.0000 -13.6468 0.0000
# 4 0.0000 0.0000 0.0000 -54.5874 0.0000 38.6989
# 5 24.8514 -1.9676 -13.6468 0.0000 44.8876 0.0000
# 6 0.0000 0.0000 0.0000 38.6989 0.0000 -17.5754
#
#
#
# Elastic Compliance Matrix: (Units=1/GPa)
#
#
# Indices 1 2 3 4 5 6 
#
# 1 0.007771 -0.000924 0.000033 0.000000 -0.004333 0.000000
# 2 -0.000924 0.023061 0.001766 0.000000 0.002060 0.000000
# 3 0.000033 0.001766 0.007125 0.000000 0.002226 0.000000
# 4 0.000000 0.000000 0.000000 0.032655 0.000000 0.071903
# 5 -0.004333 0.002060 0.002226 0.000000 0.025444 0.000000
# 6 0.000000 0.000000 0.000000 0.071903 0.000000 0.101424
#
#
# Mechanical properties :
#
#
# Convention : Reuss Voigt Hill
#
# Bulk Modulus (GPa) = 25.18451 33.72227 29.45339
# Shear Modulus (GPa) = 23.92723 17.91157 20.91940
#
# Velocity S-wave (km/s) = 3.29113 2.84751 3.07733
# Velocity P-wave (km/s) = 5.08358 5.10654 5.09507
#
# Compressibility (1/GPa) = 0.03970695
#
# Stress axis : x y z
#
# Youngs Moduli (GPa) = 128.67810 43.36250 140.35262
#
# Poissons Ratio (x) = 0.04008 -0.00457
# Poissons Ratio (y) = 0.11893 -0.24791
# Poissons Ratio (z) = -0.00419 -0.07659
#
# Static dielectric constant tensor:
#      x y z
#    x 1.893760 0.000000 0.001750 
#    y 0.000000 2.068060 0.000000 
#    z 0.001750 0.000000 1.873640 
# 
# From -- ./inp_files/8014.got.cif
#   From: 2010.05.17/outbox.cif.g08.bks.cpg/sg13_5_cif.got.tgz:8014.got - 2010.06.03 16:44:36.
