data_PCOD9227413
_publ_section_title
;
Structure prediction by ZEFSAII (Michael W. Deem and Ramdas Pophale) SiO2 
 PCOD9227413
Probable space group: P 2/C
;
_chemical_formula_sum "Si O2"
_cell_formula_units_Z 24
_cell_length_a 14.297365
_cell_length_b 9.714414
_cell_length_c 12.919047
_cell_angle_alpha 90.000000
_cell_angle_beta 35.858522
_cell_angle_gamma 90.000000
_cell_volume 1051.094889
_symmetry_space_group_name_H-M "P 2/C"
_symmetry_group_IT_number 13
_symmetry_cell_setting 'monoclinic'
loop_
_space_group_symop_operation_xyz
x,y,z
-x,y,1/2-z
-x,-y,-z
x,-y,1/2+z
loop_
_atom_site_type_symbol
_atom_site_label
_atom_site_fract_x
_atom_site_fract_y
_atom_site_fract_z
Si Si1 0.069539 0.391892 0.576116
Si Si2 0.767721 0.940285 0.024951
Si Si3 0.319663 0.760864 0.936941
Si Si4 0.087628 0.691571 0.489363
Si Si5 0.458849 0.894090 0.447470
Si Si6 0.408223 0.357940 0.580792
O O1 0.257088 0.362692 0.421931
O O2 0.027167 0.552863 0.600232
O O3 0.000000 0.347101 0.750000
O O4 0.010117 0.305824 0.530501
O O5 0.895645 0.832566 0.958862
O O6 0.610498 0.911417 0.235651
O O7 0.706304 0.908617 0.964517
O O8 0.788292 0.105671 0.996475
O O9 0.500000 0.803720 0.750000
O O10 0.332236 0.700690 0.042039
O O11 0.264623 0.649604 0.291674
O O12 0.460061 0.748551 0.500029
O O13 0.500000 0.000000 0.500000
O O14 0.500000 0.500000 0.500000
#
# Coordination Sequence:
#
# PCOD9227413 Si02
#       6
#     4   4   4   4   4   4
#     4  11  24  45  69  92 137 179 221 283 345 410
#     4  10  21  37  61  94 128 172 215 273 331 392
#     4  12  22  40  65 100 132 173 223 276 335 403
#     4  10  24  44  65  94 133 179 228 278 340 410
#     4  10  18  35  57  88 135 170 204 270 334 390
#     4  11  22  36  63 101 129 170 222 271 336 396
#
# _framework density 22.833333
#
# number of rings (size 3 to 8) (size 9 to 14) (size 15 to 20)
#    0.000    1.333    5.000    1.000    2.333    0.667 
#    0.000    2.500    0.000    0.000    0.000    0.000 
#    0.000    0.000    0.000    0.000    0.000    0.000 
#
# Total GULP energy -133797.850072 kJ/mol
# GULP energy per Si atom -5574.910420 kJ/mol
# Density = 2.278136 g / cm^3
# Si number density = 22.833333 Si / 1000 Ang^3
#
#
#
# Elastic Constant Matrix: (Units=GPa)
#
#
# Indices 1 2 3 4 5 6 
#
# 1 151.8082 65.8547 18.5905 0.0000 19.9154 0.0000
# 2 65.8547 152.5081 13.0600 0.0000 18.1108 0.0000
# 3 18.5905 13.0600 27.9286 0.0000 5.6373 0.0000
# 4 0.0000 0.0000 0.0000 20.3509 0.0000 -4.1165
# 5 19.9154 18.1108 5.6373 0.0000 22.2449 0.0000
# 6 0.0000 0.0000 0.0000 -4.1165 0.0000 43.4665
#
#
#
# Elastic Compliance Matrix: (Units=1/GPa)
#
#
# Indices 1 2 3 4 5 6 
#
# 1 0.008940 -0.002999 -0.003610 0.000000 -0.004647 0.000000
# 2 -0.002999 0.008411 -0.001155 0.000000 -0.003869 0.000000
# 3 -0.003610 -0.001155 0.039950 0.000000 -0.005951 0.000000
# 4 0.000000 0.000000 0.000000 0.050098 0.000000 0.004745
# 5 -0.004647 -0.003869 -0.005951 0.000000 0.053773 0.000000
# 6 0.000000 0.000000 0.000000 0.004745 0.000000 0.023456
#
#
# Mechanical properties :
#
#
# Convention : Reuss Voigt Hill
#
# Bulk Modulus (GPa) = 23.94017 58.58393 41.26205
# Shear Modulus (GPa) = 23.35557 32.86175 28.10866
#
# Velocity S-wave (km/s) = 3.20171 3.79780 3.51242
# Velocity P-wave (km/s) = 4.91685 6.70402 5.87875
#
# Compressibility (1/GPa) = 0.04177079
#
# Stress axis : x y z
#
# Youngs Moduli (GPa) = 111.85445 118.89644 25.03101
#
# Poissons Ratio (x) = 0.35662 0.09037
# Poissons Ratio (y) = 0.33550 0.02892
# Poissons Ratio (z) = 0.40384 0.13737
#
# Static dielectric constant tensor:
#      x y z
#    x 1.891130 0.000000 -0.006130 
#    y 0.000000 1.839160 0.000000 
#    z -0.006130 0.000000 1.921310 
# 
# From -- ./inp_files/52858.got.cif
#   From: 2010.05.17/outbox.cif.g08.bks.cpg/sg13_27_cif.got.tgz:52858.got - 2010.06.03 16:44:36.
