data_PCOD9227493
_publ_section_title
;
Structure prediction by ZEFSAII (Michael W. Deem and Ramdas Pophale) SiO2 
 PCOD9227493
Probable space group: P 2/C
;
_chemical_formula_sum "Si O2"
_cell_formula_units_Z 30
_cell_length_a 14.040595
_cell_length_b 9.329346
_cell_length_c 18.486107
_cell_angle_alpha 90.000000
_cell_angle_beta 39.013963
_cell_angle_gamma 90.000000
_cell_volume 1524.349824
_symmetry_space_group_name_H-M "P 2/C"
_symmetry_group_IT_number 13
_symmetry_cell_setting 'monoclinic'
loop_
_space_group_symop_operation_xyz
x,y,z
-x,y,1/2-z
-x,-y,-z
x,-y,1/2+z
loop_
_atom_site_type_symbol
_atom_site_label
_atom_site_fract_x
_atom_site_fract_y
_atom_site_fract_z
Si Si1 0.373043 0.718137 0.468282
Si Si2 0.999942 0.194041 0.879556
Si Si3 0.849401 0.553837 0.385546
Si Si4 0.500000 0.411231 0.750000
Si Si5 0.689422 0.690716 0.351826
Si Si6 0.228672 0.498623 0.327208
Si Si7 0.897554 0.903113 0.879082
Si Si8 0.987362 0.739315 0.972803
O O1 0.249441 0.588371 0.544448
O O2 0.447053 0.690862 0.346306
O O3 0.513384 0.720859 0.441338
O O4 0.274926 0.860506 0.533475
O O5 0.919208 0.347779 0.908848
O O6 0.178297 0.201214 0.753313
O O7 0.923323 0.070288 0.878625
O O8 0.985515 0.163658 0.972900
O O9 0.737376 0.652306 0.404264
O O10 0.000000 0.519682 0.250000
O O11 0.626887 0.513680 0.707661
O O12 0.722406 0.555083 0.280055
O O13 0.134717 0.624019 0.424159
O O14 0.133565 0.357140 0.373378
O O15 0.942115 0.819459 0.926678
O O16 0.000000 0.860195 0.750000
#
# Coordination Sequence:
#
# PCOD9227493 Si02
#       8
#     4   4   4   2   4   4   4   4
#     4  11  22  36  62  91 120 157 201 260 297 356
#     4  10  22  42  63  85 120 170 203 239 296 371
#     4  10  20  37  63  91 123 156 201 246 305 360
#     4  10  18  36  54  84 124 154 196 244 316 358
#     4   9  20  36  62  88 127 157 198 242 320 356
#     4   9  18  32  60  91 116 153 198 254 301 347
#     4  12  25  39  62  92 124 156 208 250 297 353
#     4  10  20  37  60  86 118 155 204 248 290 354
#
# _framework density 19.680523000000001
#
# number of rings (size 3 to 8) (size 9 to 14) (size 15 to 20)
#    0.000    1.867    1.333    3.200    7.467    0.000 
#    0.000    2.667    2.933    0.800    0.000    0.000 
#    0.000    0.000    0.000    0.000    0.000    0.000 
#
# Total GULP energy -167319.521789 kJ/mol
# GULP energy per Si atom -5577.317393 kJ/mol
# Density = 1.963573 g / cm^3
# Si number density = 19.680523 Si / 1000 Ang^3
#
#
#
# Elastic Constant Matrix: (Units=GPa)
#
#
# Indices 1 2 3 4 5 6 
#
# 1 118.6826 18.5061 31.7170 0.0000 -17.7064 0.0000
# 2 18.5061 56.5424 19.1492 0.0000 -14.6513 0.0000
# 3 31.7170 19.1492 57.8847 0.0000 -13.2263 0.0000
# 4 0.0000 0.0000 0.0000 11.6590 0.0000 -6.5822
# 5 -17.7064 -14.6513 -13.2263 0.0000 43.1295 0.0000
# 6 0.0000 0.0000 0.0000 -6.5822 0.0000 18.1799
#
#
#
# Elastic Compliance Matrix: (Units=1/GPa)
#
#
# Indices 1 2 3 4 5 6 
#
# 1 0.010206 -0.001144 -0.004673 0.000000 0.002368 0.000000
# 2 -0.001144 0.021148 -0.005199 0.000000 0.005120 0.000000
# 3 -0.004673 -0.005199 0.022275 0.000000 0.003146 0.000000
# 4 0.000000 0.000000 0.000000 0.107807 0.000000 0.039033
# 5 0.002368 0.005120 0.003146 0.000000 0.026862 0.000000
# 6 0.000000 0.000000 0.000000 0.039033 0.000000 0.069138
#
#
# Mechanical properties :
#
#
# Convention : Reuss Voigt Hill
#
# Bulk Modulus (GPa) = 31.64877 41.31715 36.48296
# Shear Modulus (GPa) = 17.24131 25.50951 21.37541
#
# Velocity S-wave (km/s) = 2.96304 3.60416 3.29921
# Velocity P-wave (km/s) = 5.27469 6.19350 5.75247
#
# Compressibility (1/GPa) = 0.03159680
#
# Stress axis : x y z
#
# Youngs Moduli (GPa) = 97.97820 47.28623 44.89348
#
# Poissons Ratio (x) = 0.05411 0.20977
# Poissons Ratio (y) = 0.11212 0.23341
# Poissons Ratio (z) = 0.45782 0.24585
#
# Static dielectric constant tensor:
#      x y z
#    x 1.736560 0.000000 0.003620 
#    y 0.000000 1.696830 0.000000 
#    z 0.003620 0.000000 1.714340 
# 
# From -- ./inp_files/79648.got.cif
#   From: 2010.05.17/outbox.cif.g08.bks.cpg/sg13_40_cif.got.tgz:79648.got - 2010.06.03 16:44:36.
