data_PCOD9227002
_publ_section_title
;
Structure prediction by ZEFSAII (Michael W. Deem and Ramdas Pophale) SiO2 
 PCOD9227002
Probable space group: P 2/C
;
_chemical_formula_sum "Si O2"
_cell_formula_units_Z 26
_cell_length_a 25.874865
_cell_length_b 9.503439
_cell_length_c 10.832424
_cell_angle_alpha 90.000000
_cell_angle_beta 28.986827
_cell_angle_gamma 90.000000
_cell_volume 1290.849413
_symmetry_space_group_name_H-M "P 2/C"
_symmetry_group_IT_number 13
_symmetry_cell_setting 'monoclinic'
loop_
_space_group_symop_operation_xyz
x,y,z
-x,y,1/2-z
-x,-y,-z
x,-y,1/2+z
loop_
_atom_site_type_symbol
_atom_site_label
_atom_site_fract_x
_atom_site_fract_y
_atom_site_fract_z
Si Si1 0.000000 0.611548 0.750000
Si Si2 0.820814 0.246198 0.321102
Si Si3 0.679998 0.250323 0.379230
Si Si4 0.253943 0.954098 0.979766
Si Si5 0.192489 0.519147 0.979483
Si Si6 0.056293 0.232760 0.887192
Si Si7 0.438049 0.983695 0.258690
O O1 0.889943 0.527644 0.956123
O O2 0.016973 0.708887 0.598511
O O3 0.775860 0.247169 0.277137
O O4 0.800052 0.389615 0.440343
O O5 0.759816 0.119179 0.518462
O O6 0.946164 0.213917 0.046286
O O7 0.585872 0.180521 0.657323
O O8 0.694035 0.139019 0.237794
O O9 0.695297 0.408827 0.295315
O O10 0.134556 0.896715 0.241705
O O11 0.324508 0.946324 0.957645
O O12 0.127907 0.644718 0.179308
O O13 0.500000 0.041417 0.250000
O O14 0.500000 0.000000 0.000000
#
# Coordination Sequence:
#
# PCOD9227002 Si02
#       7
#     2   4   4   4   4   4   4
#     4  10  18  32  54  82 124 180 212 248 290 374
#     4  10  20  34  56  88 128 168 203 242 307 373
#     4  10  21  38  62  92 124 157 211 262 309 374
#     4  10  22  37  59  94 120 160 204 262 321 369
#     4  10  19  33  54  82 120 170 210 242 300 373
#     4  10  20  33  51  85 125 165 209 247 298 367
#     4  11  22  42  69  95 120 158 210 272 337 386
#
# _framework density 20.141774999999999
#
# number of rings (size 3 to 8) (size 9 to 14) (size 15 to 20)
#    0.000    1.846    1.538    4.154    0.000    6.769 
#    0.000    0.000    0.000    3.692    0.000    0.000 
#    0.000    0.000    0.000    0.000    0.000    0.000 
#
# Total GULP energy -144751.594131 kJ/mol
# GULP energy per Si atom -5567.369005 kJ/mol
# Density = 2.009593 g / cm^3
# Si number density = 20.141775 Si / 1000 Ang^3
#
#
#
# Elastic Constant Matrix: (Units=GPa)
#
#
# Indices 1 2 3 4 5 6 
#
# 1 135.8773 38.9280 19.3119 0.0000 -16.5659 0.0000
# 2 38.9280 99.7755 20.6978 0.0000 -5.1900 0.0000
# 3 19.3119 20.6978 61.0514 0.0000 3.4995 0.0000
# 4 0.0000 0.0000 0.0000 35.7058 0.0000 1.0101
# 5 -16.5659 -5.1900 3.4995 0.0000 24.4478 0.0000
# 6 0.0000 0.0000 0.0000 1.0101 0.0000 19.0717
#
#
#
# Elastic Compliance Matrix: (Units=1/GPa)
#
#
# Indices 1 2 3 4 5 6 
#
# 1 0.009221 -0.002808 -0.002308 0.000000 0.005983 0.000000
# 2 -0.002808 0.011834 -0.003185 0.000000 0.001066 0.000000
# 3 -0.002308 -0.003185 0.018469 0.000000 -0.004884 0.000000
# 4 0.000000 0.000000 0.000000 0.028049 0.000000 -0.001486
# 5 0.005983 0.001066 -0.004884 0.000000 0.045883 0.000000
# 6 0.000000 0.000000 0.000000 -0.001486 0.000000 0.052513
#
#
# Mechanical properties :
#
#
# Convention : Reuss Voigt Hill
#
# Bulk Modulus (GPa) = 43.62334 50.50886 47.06610
# Shear Modulus (GPa) = 26.28653 30.36281 28.32467
#
# Velocity S-wave (km/s) = 3.61650 3.88681 3.75409
# Velocity P-wave (km/s) = 6.25651 6.72861 6.49685
#
# Compressibility (1/GPa) = 0.02292351
#
# Stress axis : x y z
#
# Youngs Moduli (GPa) = 108.44295 84.50145 54.14357
#
# Poissons Ratio (x) = 0.23727 0.12496
# Poissons Ratio (y) = 0.30449 0.17244
# Poissons Ratio (z) = 0.25028 0.26913
#
# Static dielectric constant tensor:
#      x y z
#    x 1.756310 0.000000 -0.044610 
#    y 0.000000 1.751610 0.000000 
#    z -0.044610 0.000000 1.825950 
# 
# From -- ./inp_files/42247.got.cif
#   From: 2010.05.17/outbox.cif.g08.bks.cpg/sg13_22_cif.got.tgz:42247.got - 2010.06.03 16:44:36.
