data_PCOD9227091
_publ_section_title
;
Structure prediction by ZEFSAII (Michael W. Deem and Ramdas Pophale) SiO2 
 PCOD9227091
Probable space group: P 2/C
;
_chemical_formula_sum "Si O2"
_cell_formula_units_Z 24
_cell_length_a 9.004063
_cell_length_b 9.054279
_cell_length_c 24.214109
_cell_angle_alpha 90.000000
_cell_angle_beta 149.223177
_cell_angle_gamma 90.000000
_cell_volume 1010.118605
_symmetry_space_group_name_H-M "P 2/C"
_symmetry_group_IT_number 13
_symmetry_cell_setting 'monoclinic'
loop_
_space_group_symop_operation_xyz
x,y,z
-x,y,1/2-z
-x,-y,-z
x,-y,1/2+z
loop_
_atom_site_type_symbol
_atom_site_label
_atom_site_fract_x
_atom_site_fract_y
_atom_site_fract_z
Si Si1 0.504396 0.598245 0.315782
Si Si2 0.037736 0.856428 0.197367
Si Si3 0.919075 0.799709 0.512196
Si Si4 0.672054 0.540659 0.637605
Si Si5 0.532453 0.967431 0.822662
Si Si6 0.573493 0.739919 0.509112
O O1 0.500000 0.562421 0.250000
O O2 0.249391 0.723356 0.243691
O O3 0.800059 0.668944 0.434935
O O4 0.448815 0.462750 0.339248
O O5 0.000000 0.838939 0.250000
O O6 0.208930 0.009106 0.241697
O O7 0.709694 0.841353 0.071583
O O8 0.813612 0.792846 0.542095
O O9 0.262634 0.825457 0.618821
O O10 0.731633 0.934080 0.426598
O O11 0.664262 0.686614 0.598492
O O12 0.529356 0.407955 0.557048
O O13 0.000000 0.497529 0.750000
O O14 0.500000 0.030016 0.750000
#
# Coordination Sequence:
#
# PCOD9227091 Si02
#       6
#     4   4   4   4   4   4
#     4  10  18  33  61  88 128 168 211 260 324 387
#     4  11  16  33  58  90 118 168 219 267 310 382
#     4   9  18  35  58  89 116 169 216 265 319 379
#     4  10  18  34  60  91 121 168 213 263 317 383
#     4  10  20  34  62  85 121 164 217 269 323 378
#     4  10  18  32  64  89 124 165 219 266 313 382
#
# _framework density 23.759585999999999
#
# number of rings (size 3 to 8) (size 9 to 14) (size 15 to 20)
#    0.000    2.000    6.667    2.000    0.000    0.000 
#    0.000    1.667   18.333    0.000    0.000    0.000 
#    0.000    0.000    0.000    0.000    0.000    0.000 
#
# Total GULP energy -133816.141652 kJ/mol
# GULP energy per Si atom -5575.672569 kJ/mol
# Density = 2.370551 g / cm^3
# Si number density = 23.759586 Si / 1000 Ang^3
#
#
#
# Elastic Constant Matrix: (Units=GPa)
#
#
# Indices 1 2 3 4 5 6 
#
# 1 183.2144 62.9878 80.3286 0.0000 -26.8841 0.0000
# 2 62.9878 40.6402 47.8343 0.0000 5.8166 0.0000
# 3 80.3286 47.8343 36.5973 0.0000 -29.7425 0.0000
# 4 0.0000 0.0000 0.0000 -27.9868 0.0000 -7.2088
# 5 -26.8841 5.8166 -29.7425 0.0000 26.0904 0.0000
# 6 0.0000 0.0000 0.0000 -7.2088 0.0000 28.5242
#
#
#
# Elastic Compliance Matrix: (Units=1/GPa)
#
#
# Indices 1 2 3 4 5 6 
#
# 1 0.015765 -0.013889 -0.009933 0.000000 0.008017 0.000000
# 2 -0.013889 0.011296 0.027792 0.000000 0.014852 0.000000
# 3 -0.009933 0.027792 -0.007495 0.000000 -0.024975 0.000000
# 4 0.000000 0.000000 0.000000 -0.033547 0.000000 -0.008478
# 5 0.008017 0.014852 -0.024975 0.000000 0.014807 0.000000
# 6 0.000000 0.000000 0.000000 -0.008478 0.000000 0.032915
#
#
# Mechanical properties :
#
#
# Convention : Reuss Voigt Hill
#
# Bulk Modulus (GPa) = 36.35835 71.41704 53.88770
# Shear Modulus (GPa) = 142.98203 9.94566 76.46385
#
# Velocity S-wave (km/s) = 7.76591 2.04818 5.67910
# Velocity P-wave (km/s) = 9.78510 5.97636 8.10756
#
# Compressibility (1/GPa) = 0.02750400
#
# Stress axis : x y z
#
# Youngs Moduli (GPa) = 63.43351 88.52953 -133.42600
#
# Poissons Ratio (x) = 1.22959 -1.32536
# Poissons Ratio (y) = 0.88103 3.70812
# Poissons Ratio (z) = 0.63010 -2.46038
#
# Static dielectric constant tensor:
#      x y z
#    x 2.508000 0.000000 0.035300 
#    y 0.000000 2.021090 0.000000 
#    z 0.035300 0.000000 1.957730 
# 
# From -- ./inp_files/85256.got.cif
#   From: 2010.05.17/outbox.cif.g08.bks.cpg/sg13_43_cif.got.tgz:85256.got - 2010.06.03 16:44:36.
