data_PCOD9227346
_publ_section_title
;
Structure prediction by ZEFSAII (Michael W. Deem and Ramdas Pophale) SiO2 
 PCOD9227346
Probable space group: P 2/C
;
_chemical_formula_sum "Si O2"
_cell_formula_units_Z 26
_cell_length_a 20.187072
_cell_length_b 6.002259
_cell_length_c 20.926036
_cell_angle_alpha 90.000000
_cell_angle_beta 156.936026
_cell_angle_gamma 90.000000
_cell_volume 993.330247
_symmetry_space_group_name_H-M "P 2/C"
_symmetry_group_IT_number 13
_symmetry_cell_setting 'monoclinic'
loop_
_space_group_symop_operation_xyz
x,y,z
-x,y,1/2-z
-x,-y,-z
x,-y,1/2+z
loop_
_atom_site_type_symbol
_atom_site_label
_atom_site_fract_x
_atom_site_fract_y
_atom_site_fract_z
Si Si1 0.345357 0.832849 0.755795
Si Si2 0.869866 0.762469 0.065498
Si Si3 0.701502 0.466375 0.167414
Si Si4 0.500000 0.686532 0.250000
Si Si5 0.667575 0.388751 0.504087
Si Si6 0.116135 0.253885 0.447179
Si Si7 0.867071 0.808700 0.395642
O O1 0.250290 0.769722 0.605164
O O2 0.266232 0.705210 0.746294
O O3 0.541664 0.785052 0.925234
O O4 0.313026 0.086483 0.744310
O O5 0.782464 0.752762 0.057719
O O6 0.930146 0.500072 0.120441
O O7 0.959465 0.007689 0.137377
O O8 0.826096 0.665776 0.298165
O O9 0.500000 0.500000 0.000000
O O10 0.726686 0.448811 0.113874
O O11 0.551024 0.536982 0.355127
O O12 0.683470 0.789141 0.394067
O O13 0.083228 0.294934 0.492924
O O14 0.000000 0.000000 0.500000
#
# Coordination Sequence:
#
# PCOD9227346 Si02
#       7
#     4   4   4   2   4   4   4
#     4  10  19  37  60  87 128 168 219 270 349 413
#     4  10  19  35  57  94 121 165 211 276 340 418
#     4  10  21  39  59  94 132 165 219 293 351 408
#     4  10  18  34  60  94 130 156 218 276 368 418
#     4  10  18  34  60  94 127 158 212 284 359 403
#     4  10  20  34  60  88 124 161 224 269 333 414
#     4  11  24  40  61  93 130 187 228 282 345 452
#
# _framework density 26.174578
#
# number of rings (size 3 to 8) (size 9 to 14) (size 15 to 20)
#    0.000    1.846    4.615    0.923    4.308    3.077 
#    5.538    0.000    0.000    3.692    0.000    0.000 
#    0.000    0.000    0.000    0.000    0.000    0.000 
#
# Total GULP energy -144823.798894 kJ/mol
# GULP energy per Si atom -5570.146111 kJ/mol
# Density = 2.611500 g / cm^3
# Si number density = 26.174578 Si / 1000 Ang^3
#
#
#
# Elastic Constant Matrix: (Units=GPa)
#
#
# Indices 1 2 3 4 5 6 
#
# 1 142.0557 36.6462 42.8400 0.0000 -23.5435 0.0000
# 2 36.6462 140.0311 39.5883 0.0000 -9.6286 0.0000
# 3 42.8400 39.5883 87.9019 0.0000 -24.7996 0.0000
# 4 0.0000 0.0000 0.0000 8.4991 0.0000 13.9439
# 5 -23.5435 -9.6286 -24.7996 0.0000 63.0996 0.0000
# 6 0.0000 0.0000 0.0000 13.9439 0.0000 39.9827
#
#
#
# Elastic Compliance Matrix: (Units=1/GPa)
#
#
# Indices 1 2 3 4 5 6 
#
# 1 0.008600 -0.001244 -0.003126 0.000000 0.001790 0.000000
# 2 -0.001244 0.008366 -0.003298 0.000000 -0.000484 0.000000
# 3 -0.003126 -0.003298 0.015649 0.000000 0.004481 0.000000
# 4 0.000000 0.000000 0.000000 0.275013 0.000000 -0.095910
# 5 0.001790 -0.000484 0.004481 0.000000 0.018203 0.000000
# 6 0.000000 0.000000 0.000000 -0.095910 0.000000 0.058459
#
#
# Mechanical properties :
#
#
# Convention : Reuss Voigt Hill
#
# Bulk Modulus (GPa) = 57.87196 67.57085 62.72140
# Shear Modulus (GPa) = 12.33394 39.04390 25.68892
#
# Velocity S-wave (km/s) = 2.17311 3.86641 3.13620
# Velocity P-wave (km/s) = 5.33428 6.76784 6.09336
#
# Compressibility (1/GPa) = 0.01727953
#
# Stress axis : x y z
#
# Youngs Moduli (GPa) = 116.28232 119.53310 63.90055
#
# Poissons Ratio (x) = 0.14866 0.19975
# Poissons Ratio (y) = 0.14462 0.21075
# Poissons Ratio (z) = 0.36349 0.39423
#
# Static dielectric constant tensor:
#      x y z
#    x 2.119050 0.000000 0.074910 
#    y 0.000000 2.173350 0.000000 
#    z 0.074910 0.000000 2.161780 
# 
# From -- ./inp_files/81421.got.cif
#   From: 2010.05.17/outbox.cif.g08.bks.cpg/sg13_41_cif.got.tgz:81421.got - 2010.06.03 16:44:36.
