data_PCOD9227758
_publ_section_title
;
Structure prediction by ZEFSAII (Michael W. Deem and Ramdas Pophale) SiO2 
 PCOD9227758
Probable space group: P 2/C
;
_chemical_formula_sum "Si O2"
_cell_formula_units_Z 28
_cell_length_a 9.164271
_cell_length_b 9.686684
_cell_length_c 15.489866
_cell_angle_alpha 90.000000
_cell_angle_beta 116.721732
_cell_angle_gamma 90.000000
_cell_volume 1228.202193
_symmetry_space_group_name_H-M "P 2/C"
_symmetry_group_IT_number 13
_symmetry_cell_setting 'monoclinic'
loop_
_space_group_symop_operation_xyz
x,y,z
-x,y,1/2-z
-x,-y,-z
x,-y,1/2+z
loop_
_atom_site_type_symbol
_atom_site_label
_atom_site_fract_x
_atom_site_fract_y
_atom_site_fract_z
Si Si1 0.190601 0.983388 0.318181
Si Si2 0.715942 0.322941 0.616962
Si Si3 0.158566 0.181060 0.460685
Si Si4 0.796678 0.825743 0.823069
Si Si5 0.377763 0.370627 0.098412
Si Si6 0.394910 0.319986 0.638005
Si Si7 0.234482 0.383776 0.331970
O O1 0.214363 0.822914 0.337302
O O2 0.000000 0.012853 0.250000
O O3 0.236011 0.064200 0.418368
O O4 0.269864 0.049172 0.253451
O O5 0.718652 0.351026 0.516094
O O6 0.526363 0.320145 0.595404
O O7 0.799002 0.454470 0.683523
O O8 0.252549 0.214356 0.573922
O O9 0.184137 0.319792 0.410217
O O10 0.967009 0.145937 0.417860
O O11 0.669727 0.754571 0.852539
O O12 0.839499 0.709283 0.762698
O O13 0.338026 0.520038 0.129900
O O14 0.569849 0.369713 0.128539
O O15 0.500000 0.283955 0.750000
#
# Coordination Sequence:
#
# PCOD9227758 Si02
#       7
#     4   4   4   4   4   4   4
#     4   9  22  43  62  91 134 173 210 262 321 381
#     4  11  21  40  64  91 126 169 212 264 317 372
#     4  10  20  42  63  89 128 168 213 259 318 377
#     4  10  22  39  66  93 126 172 209 258 321 383
#     4  11  20  39  64  95 125 166 209 267 321 372
#     4  11  22  41  64  92 128 164 212 271 316 372
#     4  10  18  39  67  91 124 162 215 264 310 380
#
# _framework density 22.797547999999999
#
# number of rings (size 3 to 8) (size 9 to 14) (size 15 to 20)
#    0.000    1.714    2.857    4.286    0.000    2.286 
#    5.143    1.429    0.000    0.000    0.000    0.000 
#    0.000    0.000    0.000    0.000    0.000    0.000 
#
# Total GULP energy -156498.345293 kJ/mol
# GULP energy per Si atom -5589.226618 kJ/mol
# Density = 2.274566 g / cm^3
# Si number density = 22.797548 Si / 1000 Ang^3
#
#
#
# Elastic Constant Matrix: (Units=GPa)
#
#
# Indices 1 2 3 4 5 6 
#
# 1 36.5769 7.5794 11.1409 0.0000 1.3176 0.0000
# 2 7.5794 142.4244 38.3082 0.0000 3.6088 0.0000
# 3 11.1409 38.3082 127.1436 0.0000 6.7307 0.0000
# 4 0.0000 0.0000 0.0000 24.5824 0.0000 1.7781
# 5 1.3176 3.6088 6.7307 0.0000 21.7308 0.0000
# 6 0.0000 0.0000 0.0000 1.7781 0.0000 13.9943
#
#
#
# Elastic Compliance Matrix: (Units=1/GPa)
#
#
# Indices 1 2 3 4 5 6 
#
# 1 0.028214 -0.000899 -0.002154 0.000000 -0.000894 0.000000
# 2 -0.000899 0.007676 -0.002206 0.000000 -0.000537 0.000000
# 3 -0.002154 -0.002206 0.008837 0.000000 -0.002240 0.000000
# 4 0.000000 0.000000 0.000000 0.041057 0.000000 -0.005217
# 5 -0.000894 -0.000537 -0.002240 0.000000 0.046855 0.000000
# 6 0.000000 0.000000 0.000000 -0.005217 0.000000 0.072121
#
#
# Mechanical properties :
#
#
# Convention : Reuss Voigt Hill
#
# Bulk Modulus (GPa) = 29.23168 46.68909 37.96039
# Shear Modulus (GPa) = 22.05745 28.66924 25.36335
#
# Velocity S-wave (km/s) = 3.11390 3.55005 3.33911
# Velocity P-wave (km/s) = 5.07726 6.10968 5.61724
#
# Compressibility (1/GPa) = 0.03420946
#
# Stress axis : x y z
#
# Youngs Moduli (GPa) = 35.44295 130.27680 113.16098
#
# Poissons Ratio (x) = 0.11718 0.24374
# Poissons Ratio (y) = 0.03188 0.24958
# Poissons Ratio (z) = 0.07634 0.28733
#
# Static dielectric constant tensor:
#      x y z
#    x 1.869040 0.000000 -0.000670 
#    y 0.000000 1.846870 0.000000 
#    z -0.000670 0.000000 1.895660 
# 
# From -- ./inp_files/50170.got.cif
#   From: 2010.05.17/outbox.cif.g08.bks.cpg/sg13_26_cif.got.tgz:50170.got - 2010.06.03 16:44:36.
