data_PCOD9227139
_publ_section_title
;
Structure prediction by ZEFSAII (Michael W. Deem and Ramdas Pophale) SiO2 
 PCOD9227139
Probable space group: P 2/C
;
_chemical_formula_sum "Si O2"
_cell_formula_units_Z 24
_cell_length_a 13.048520
_cell_length_b 8.882109
_cell_length_c 15.838951
_cell_angle_alpha 90.000000
_cell_angle_beta 138.487850
_cell_angle_gamma 90.000000
_cell_volume 1216.668919
_symmetry_space_group_name_H-M "P 2/C"
_symmetry_group_IT_number 13
_symmetry_cell_setting 'monoclinic'
loop_
_space_group_symop_operation_xyz
x,y,z
-x,y,1/2-z
-x,-y,-z
x,-y,1/2+z
loop_
_atom_site_type_symbol
_atom_site_label
_atom_site_fract_x
_atom_site_fract_y
_atom_site_fract_z
Si Si1 0.740188 0.621921 0.572148
Si Si2 0.126205 0.074018 0.759796
Si Si3 0.665666 0.719563 0.986964
Si Si4 0.601725 0.861306 0.593050
Si Si5 0.012343 0.382615 0.125107
Si Si6 0.922814 0.722316 0.016345
O O1 0.672081 0.458731 0.508782
O O2 0.615044 0.741276 0.525354
O O3 0.855394 0.609118 0.723026
O O4 0.851815 0.676689 0.565773
O O5 0.229884 0.194882 0.877091
O O6 0.000000 0.017601 0.750000
O O7 0.037967 0.158492 0.630254
O O8 0.232163 0.938587 0.792561
O O9 0.754527 0.748380 0.953967
O O10 0.492543 0.782095 0.890050
O O11 0.500000 0.000000 0.500000
O O12 0.975764 0.556068 0.079598
O O13 0.064981 0.290448 0.076185
#
# Coordination Sequence:
#
# PCOD9227139 Si02
#       6
#     4   4   4   4   4   4
#     4  10  18  33  55  81 104 134 187 223 259 307
#     4   9  17  31  54  79 108 141 174 218 265 323
#     4   9  17  33  55  80 106 139 177 220 265 319
#     4  10  21  33  53  76 108 145 180 210 265 325
#     4   9  18  30  58  86 102 130 181 233 259 315
#     4   9  16  33  56  83 109 133 173 225 281 303
#
# _framework density 19.725991
#
# number of rings (size 3 to 8) (size 9 to 14) (size 15 to 20)
#    0.000    2.667    1.667    0.500    2.333    0.000 
#    0.000    1.667    3.667    3.000    0.000    0.000 
#    0.000    0.000    0.000    0.000    0.000    0.000 
#
# Total GULP energy -133860.803329 kJ/mol
# GULP energy per Si atom -5577.533472 kJ/mol
# Density = 1.968109 g / cm^3
# Si number density = 19.725991 Si / 1000 Ang^3
#
#
#
# Elastic Constant Matrix: (Units=GPa)
#
#
# Indices 1 2 3 4 5 6 
#
# 1 184.1819 72.9563 48.1809 0.0000 7.1223 0.0000
# 2 72.9563 83.7572 23.2085 0.0000 14.3336 0.0000
# 3 48.1809 23.2085 32.9331 0.0000 0.9347 0.0000
# 4 0.0000 0.0000 0.0000 21.1175 0.0000 21.5222
# 5 7.1223 14.3336 0.9347 0.0000 28.1800 0.0000
# 6 0.0000 0.0000 0.0000 21.5222 0.0000 31.0241
#
#
#
# Elastic Compliance Matrix: (Units=1/GPa)
#
#
# Indices 1 2 3 4 5 6 
#
# 1 0.010996 -0.006553 -0.011496 0.000000 0.000935 0.000000
# 2 -0.006553 0.020363 -0.004521 0.000000 -0.008552 0.000000
# 3 -0.011496 -0.004521 0.050269 0.000000 0.003538 0.000000
# 4 0.000000 0.000000 0.000000 0.161629 0.000000 -0.112126
# 5 0.000935 -0.008552 0.003538 0.000000 0.039482 0.000000
# 6 0.000000 0.000000 0.000000 -0.112126 0.000000 0.110018
#
#
# Mechanical properties :
#
#
# Convention : Reuss Voigt Hill
#
# Bulk Modulus (GPa) = 27.40575 65.50708 46.45641
# Shear Modulus (GPa) = 11.10963 26.49943 18.80453
#
# Velocity S-wave (km/s) = 2.37575 3.66919 3.09088
# Velocity P-wave (km/s) = 4.63130 7.15760 6.02827
#
# Compressibility (1/GPa) = 0.03648870
#
# Stress axis : x y z
#
# Youngs Moduli (GPa) = 90.94101 49.10831 19.89302
#
# Poissons Ratio (x) = 0.32179 0.22869
# Poissons Ratio (y) = 0.59591 0.08994
# Poissons Ratio (z) = 1.04546 0.22202
#
# Static dielectric constant tensor:
#      x y z
#    x 1.735400 0.000000 0.038360 
#    y 0.000000 1.695180 0.000000 
#    z 0.038360 0.000000 1.691270 
# 
# From -- ./inp_files/66097.got.cif
#   From: 2010.05.17/outbox.cif.g08.bks.cpg/sg13_34_cif.got.tgz:66097.got - 2010.06.03 16:44:36.
