data_PCOD9227443
_publ_section_title
;
Structure prediction by ZEFSAII (Michael W. Deem and Ramdas Pophale) SiO2 
 PCOD9227443
Probable space group: P 2/C
;
_chemical_formula_sum "Si O2"
_cell_formula_units_Z 32
_cell_length_a 16.923156
_cell_length_b 8.791323
_cell_length_c 21.886696
_cell_angle_alpha 90.000000
_cell_angle_beta 153.611467
_cell_angle_gamma 90.000000
_cell_volume 1447.253075
_symmetry_space_group_name_H-M "P 2/C"
_symmetry_group_IT_number 13
_symmetry_cell_setting 'monoclinic'
loop_
_space_group_symop_operation_xyz
x,y,z
-x,y,1/2-z
-x,-y,-z
x,-y,1/2+z
loop_
_atom_site_type_symbol
_atom_site_label
_atom_site_fract_x
_atom_site_fract_y
_atom_site_fract_z
Si Si1 0.865742 0.238446 0.103830
Si Si2 0.219347 0.201149 0.224555
Si Si3 0.235798 0.255545 0.806440
Si Si4 0.614257 0.846676 0.522907
Si Si5 0.948269 0.024681 0.567947
Si Si6 0.381947 0.809785 0.527745
Si Si7 0.708134 0.279119 0.401034
Si Si8 0.998703 0.523146 0.602310
O O1 0.861490 0.107888 0.049237
O O2 0.937791 0.389429 0.121741
O O3 0.000000 0.186285 0.250000
O O4 0.685333 0.256784 0.016849
O O5 0.281902 0.184935 0.340798
O O6 0.406391 0.214360 0.320422
O O7 0.093730 0.057276 0.126435
O O8 0.088321 0.343943 0.124868
O O9 0.407923 0.184339 0.892938
O O10 0.156449 0.403910 0.720843
O O11 0.301574 0.294898 0.919435
O O12 0.074626 0.136109 0.694990
O O13 0.639036 0.018700 0.514410
O O14 0.799385 0.130253 0.434486
O O15 0.283458 0.770801 0.521603
O O16 0.500000 0.304971 0.250000
O O17 0.826734 0.424107 0.465402
#
# Coordination Sequence:
#
# PCOD9227443 Si02
#       8
#     4   4   4   4   4   4   4   4
#     4  11  19  32  55  91 122 145 178 223 290 352
#     4  10  19  35  57  92 119 146 177 225 298 355
#     4  10  20  32  55  91 119 151 175 220 296 355
#     4  11  18  32  58  92 129 138 175 234 287 351
#     4  10  18  35  60  80 118 144 184 231 288 339
#     4  11  20  34  62  87 115 151 189 230 284 342
#     4  11  26  42  56  77 112 155 206 247 273 316
#     4  10  24  36  55  84 122 152 183 232 288 348
#
# _framework density 22.110854
#
# number of rings (size 3 to 8) (size 9 to 14) (size 15 to 20)
#    0.000    1.500    6.250    0.750    1.750    4.000 
#    0.000    3.750    0.000    0.000    0.000    0.000 
#    0.000    0.000    0.000    0.000    0.000    0.000 
#
# Total GULP energy -178574.075672 kJ/mol
# GULP energy per Si atom -5580.439865 kJ/mol
# Density = 2.206053 g / cm^3
# Si number density = 22.110854 Si / 1000 Ang^3
#
#
#
# Elastic Constant Matrix: (Units=GPa)
#
#
# Indices 1 2 3 4 5 6 
#
# 1 81.9361 -8.3461 14.6275 0.0000 22.0035 0.0000
# 2 -8.3461 78.9819 36.5608 0.0000 7.7833 0.0000
# 3 14.6275 36.5608 117.5912 0.0000 23.2151 0.0000
# 4 0.0000 0.0000 0.0000 22.2490 0.0000 17.4863
# 5 22.0035 7.7833 23.2151 0.0000 28.7671 0.0000
# 6 0.0000 0.0000 0.0000 17.4863 0.0000 15.8518
#
#
#
# Elastic Compliance Matrix: (Units=1/GPa)
#
#
# Indices 1 2 3 4 5 6 
#
# 1 0.016032 0.003164 -0.000462 0.000000 -0.012746 0.000000
# 2 0.003164 0.015417 -0.004622 0.000000 -0.002861 0.000000
# 3 -0.000462 -0.004622 0.011517 0.000000 -0.007690 0.000000
# 4 0.000000 0.000000 0.000000 0.337867 0.000000 -0.372704
# 5 -0.012746 -0.002861 -0.007690 0.000000 0.051492 0.000000
# 6 0.000000 0.000000 0.000000 -0.372704 0.000000 0.474218
#
#
# Mechanical properties :
#
#
# Convention : Reuss Voigt Hill
#
# Bulk Modulus (GPa) = 25.55808 40.46598 33.01203
# Shear Modulus (GPa) = 5.41463 29.08470 17.24966
#
# Velocity S-wave (km/s) = 1.56658 3.63078 2.79614
# Velocity P-wave (km/s) = 3.85440 5.99316 5.03857
#
# Compressibility (1/GPa) = 0.03912657
#
# Stress axis : x y z
#
# Youngs Moduli (GPa) = 62.37414 64.86356 86.82987
#
# Poissons Ratio (x) = -0.20522 0.04008
# Poissons Ratio (y) = -0.19735 0.40133
# Poissons Ratio (z) = 0.02879 0.29980
#
# Static dielectric constant tensor:
#      x y z
#    x 1.857490 0.000000 0.001710 
#    y 0.000000 1.834750 0.000000 
#    z 0.001710 0.000000 1.839720 
# 
# From -- ./inp_files/93604.got.cif
#   From: 2010.05.17/outbox.cif.g08.bks.cpg/sg13_47_cif.got.tgz:93604.got - 2010.06.03 16:44:36.
