data_PCOD9227484
_publ_section_title
;
Structure prediction by ZEFSAII (Michael W. Deem and Ramdas Pophale) SiO2 
 PCOD9227484
Probable space group: P 2/C
;
_chemical_formula_sum "Si O2"
_cell_formula_units_Z 32
_cell_length_a 10.762913
_cell_length_b 9.069855
_cell_length_c 15.354461
_cell_angle_alpha 90.000000
_cell_angle_beta 116.004307
_cell_angle_gamma 90.000000
_cell_volume 1347.128462
_symmetry_space_group_name_H-M "P 2/C"
_symmetry_group_IT_number 13
_symmetry_cell_setting 'monoclinic'
loop_
_space_group_symop_operation_xyz
x,y,z
-x,y,1/2-z
-x,-y,-z
x,-y,1/2+z
loop_
_atom_site_type_symbol
_atom_site_label
_atom_site_fract_x
_atom_site_fract_y
_atom_site_fract_z
Si Si1 0.614692 0.608760 0.342150
Si Si2 0.803160 0.813678 0.595865
Si Si3 0.425356 0.642084 0.439915
Si Si4 0.867648 0.397133 0.467173
Si Si5 0.931957 0.910545 0.898507
Si Si6 0.481391 0.891078 0.914139
Si Si7 0.860249 0.468390 0.652018
Si Si8 0.680744 0.915663 0.368362
O O1 0.500000 0.527241 0.250000
O O2 0.532706 0.681737 0.398082
O O3 0.735398 0.496774 0.402724
O O4 0.661144 0.761062 0.312615
O O5 0.681795 0.849073 0.628592
O O6 0.831324 0.637700 0.613101
O O7 0.749860 0.864871 0.483092
O O8 0.953143 0.892565 0.641258
O O9 0.500000 0.500000 0.500000
O O10 0.428110 0.752765 0.522792
O O11 0.281603 0.593963 0.352073
O O12 0.890322 0.253515 0.416886
O O13 0.868711 0.364727 0.569862
O O14 0.000000 0.500000 0.500000
O O15 0.788653 0.994476 0.842724
O O16 0.000000 0.000000 0.000000
O O17 0.553429 0.976755 0.856529
O O18 0.500000 0.000000 0.000000
O O19 0.000000 0.464001 0.750000
#
# Coordination Sequence:
#
# PCOD9227484 Si02
#       8
#     4   4   4   4   4   4   4   4
#     4  12  26  43  68 100 136 178 230 286 337 404
#     4  10  18  39  60  94 132 169 213 272 331 394
#     4  12  21  42  69  96 129 176 227 274 338 409
#     4  12  22  43  70  96 133 178 220 275 345 399
#     4  10  21  36  69  96 128 177 224 264 339 412
#     4  10  18  35  70  92 124 171 216 269 335 394
#     4  12  25  40  64 102 134 170 223 283 332 396
#     4  10  19  40  65  96 127 174 225 276 336 402
#
# _framework density 23.754231000000001
#
# number of rings (size 3 to 8) (size 9 to 14) (size 15 to 20)
#    0.000    1.000    7.500    1.500    1.750    0.000 
#    0.000    1.875    0.000    3.000    0.000    0.000 
#    0.000    0.000    0.000    0.000    0.000    0.000 
#
# Total GULP energy -178483.255887 kJ/mol
# GULP energy per Si atom -5577.601746 kJ/mol
# Density = 2.370017 g / cm^3
# Si number density = 23.754231 Si / 1000 Ang^3
#
#
#
# Elastic Constant Matrix: (Units=GPa)
#
#
# Indices 1 2 3 4 5 6 
#
# 1 143.4007 36.7207 58.2943 0.0000 50.0393 0.0000
# 2 36.7207 110.3289 44.3582 0.0000 22.8095 0.0000
# 3 58.2943 44.3582 122.0358 0.0000 25.8638 0.0000
# 4 0.0000 0.0000 0.0000 16.8599 0.0000 12.2303
# 5 50.0393 22.8095 25.8638 0.0000 30.3473 0.0000
# 6 0.0000 0.0000 0.0000 12.2303 0.0000 41.3077
#
#
#
# Elastic Compliance Matrix: (Units=1/GPa)
#
#
# Indices 1 2 3 4 5 6 
#
# 1 0.017188 0.000946 -0.002926 0.000000 -0.026559 0.000000
# 2 0.000946 0.011550 -0.003026 0.000000 -0.007662 0.000000
# 3 -0.002926 -0.003026 0.011213 0.000000 -0.002457 0.000000
# 4 0.000000 0.000000 0.000000 0.075536 0.000000 -0.022364
# 5 -0.026559 -0.007662 -0.002457 0.000000 0.084599 0.000000
# 6 0.000000 0.000000 0.000000 -0.022364 0.000000 0.030830
#
#
# Mechanical properties :
#
#
# Convention : Reuss Voigt Hill
#
# Bulk Modulus (GPa) = 33.40063 72.72352 53.06207
# Shear Modulus (GPa) = 19.92777 33.46247 26.69512
#
# Velocity S-wave (km/s) = 2.89954 3.75733 3.35596
# Velocity P-wave (km/s) = 5.03004 7.03597 6.11580
#
# Compressibility (1/GPa) = 0.02993956
#
# Stress axis : x y z
#
# Youngs Moduli (GPa) = 58.17919 86.58277 89.18473
#
# Poissons Ratio (x) = -0.08194 0.26092
# Poissons Ratio (y) = -0.05506 0.26990
# Poissons Ratio (z) = 0.17021 0.26203
#
# Static dielectric constant tensor:
#      x y z
#    x 2.633180 0.000000 0.054670 
#    y 0.000000 1.792500 0.000000 
#    z 0.054670 0.000000 1.957090 
# 
# From -- ./inp_files/78298.got.cif
#   From: 2010.05.17/outbox.cif.g08.bks.cpg/sg13_40_cif.got.tgz:78298.got - 2010.06.03 16:44:36.
