data_PCOD9227647
_publ_section_title
;
Structure prediction by ZEFSAII (Michael W. Deem and Ramdas Pophale) SiO2 
 PCOD9227647
Probable space group: P 2/C
;
_chemical_formula_sum "Si O2"
_cell_formula_units_Z 28
_cell_length_a 21.869021
_cell_length_b 7.973717
_cell_length_c 25.587280
_cell_angle_alpha 90.000000
_cell_angle_beta 162.761240
_cell_angle_gamma 90.000000
_cell_volume 1322.285983
_symmetry_space_group_name_H-M "P 2/C"
_symmetry_group_IT_number 13
_symmetry_cell_setting 'monoclinic'
loop_
_space_group_symop_operation_xyz
x,y,z
-x,y,1/2-z
-x,-y,-z
x,-y,1/2+z
loop_
_atom_site_type_symbol
_atom_site_label
_atom_site_fract_x
_atom_site_fract_y
_atom_site_fract_z
Si Si1 0.945429 0.762441 0.461998
Si Si2 0.500000 0.792162 0.250000
Si Si3 0.559498 0.393831 0.689081
Si Si4 0.607964 0.764571 0.728916
Si Si5 0.858531 0.016856 0.800382
Si Si6 0.777687 0.885786 0.973059
Si Si7 0.000000 0.924901 0.250000
Si Si8 0.641949 0.924513 0.524522
O O1 0.798241 0.620142 0.364569
O O2 0.806669 0.861684 0.306000
O O3 0.165338 0.743373 0.612728
O O4 0.001431 0.876863 0.557397
O O5 0.463987 0.677174 0.271213
O O6 0.310419 0.925212 0.090417
O O7 0.496819 0.586503 0.631468
O O8 0.433278 0.258963 0.552563
O O9 0.629991 0.801336 0.809117
O O10 0.503721 0.925189 0.616316
O O11 0.685676 0.942409 0.621807
O O12 0.008670 0.115673 0.884300
O O13 0.846380 0.823069 0.086255
O O14 0.855716 0.039238 0.168443
#
# Coordination Sequence:
#
# PCOD9227647 Si02
#       8
#     4   2   4   4   4   4   2   4
#     4  10  20  41  64  93 125 164 217 253 316 372
#     4  12  20  38  64  90 120 162 210 252 312 370
#     4  12  24  40  65  95 126 168 209 260 311 377
#     4  11  24  41  65  95 125 167 210 257 317 371
#     4   9  19  36  68  90 119 169 202 260 312 368
#     4  10  18  37  62  91 117 161 208 251 311 367
#     4  10  20  36  70  84 126 170 202 258 310 370
#     4  11  22  40  63  96 129 165 212 255 318 366
#
# _framework density 21.175449
#
# number of rings (size 3 to 8) (size 9 to 14) (size 15 to 20)
#    0.000    1.429    4.286    2.143    0.000    4.000 
#    0.000    7.857    0.000    0.000    0.000    0.000 
#    0.000    0.000    0.000    0.000    0.000    0.000 
#
# Total GULP energy -156072.643120 kJ/mol
# GULP energy per Si atom -5574.022969 kJ/mol
# Density = 2.112725 g / cm^3
# Si number density = 21.175449 Si / 1000 Ang^3
#
#
#
# Elastic Constant Matrix: (Units=GPa)
#
#
# Indices 1 2 3 4 5 6 
#
# 1 101.5478 21.5493 39.5006 0.0000 -19.2242 0.0000
# 2 21.5493 113.7414 29.7372 0.0000 -17.0399 0.0000
# 3 39.5006 29.7372 82.7689 0.0000 -27.5716 0.0000
# 4 0.0000 0.0000 0.0000 12.5395 0.0000 5.8890
# 5 -19.2242 -17.0399 -27.5716 0.0000 58.3858 0.0000
# 6 0.0000 0.0000 0.0000 5.8890 0.0000 10.8306
#
#
#
# Elastic Compliance Matrix: (Units=1/GPa)
#
#
# Indices 1 2 3 4 5 6 
#
# 1 0.012264 -0.000779 -0.005107 0.000000 0.001399 0.000000
# 2 -0.000779 0.009851 -0.002724 0.000000 0.001332 0.000000
# 3 -0.005107 -0.002724 0.017412 0.000000 0.005746 0.000000
# 4 0.000000 0.000000 0.000000 0.107095 0.000000 -0.058231
# 5 0.001399 0.001332 0.005746 0.000000 0.020690 0.000000
# 6 0.000000 0.000000 0.000000 -0.058231 0.000000 0.123993
#
#
# Mechanical properties :
#
#
# Convention : Reuss Voigt Hill
#
# Bulk Modulus (GPa) = 44.82731 53.29248 49.05989
# Shear Modulus (GPa) = 15.82471 30.16925 22.99698
#
# Velocity S-wave (km/s) = 2.73667 3.77865 3.29906
# Velocity P-wave (km/s) = 5.58581 6.65277 6.14250
#
# Compressibility (1/GPa) = 0.02230783
#
# Stress axis : x y z
#
# Youngs Moduli (GPa) = 81.53736 101.51094 57.43219
#
# Poissons Ratio (x) = 0.07905 0.29332
# Poissons Ratio (y) = 0.06350 0.15644
# Poissons Ratio (z) = 0.41642 0.27650
#
# Static dielectric constant tensor:
#      x y z
#    x 1.817900 0.000000 0.024340 
#    y 0.000000 1.726590 0.000000 
#    z 0.024340 0.000000 1.845630 
# 
# From -- ./inp_files/88563.got.cif
#   From: 2010.05.17/outbox.cif.g08.bks.cpg/sg13_45_cif.got.tgz:88563.got - 2010.06.03 16:44:36.
