data_PCOD9227380
_publ_section_title
;
Structure prediction by ZEFSAII (Michael W. Deem and Ramdas Pophale) SiO2 
 PCOD9227380
Probable space group: P 2/C
;
_chemical_formula_sum "Si O2"
_cell_formula_units_Z 28
_cell_length_a 9.788644
_cell_length_b 13.533808
_cell_length_c 21.496147
_cell_angle_alpha 90.000000
_cell_angle_beta 153.983730
_cell_angle_gamma 90.000000
_cell_volume 1249.101965
_symmetry_space_group_name_H-M "P 2/C"
_symmetry_group_IT_number 13
_symmetry_cell_setting 'monoclinic'
loop_
_space_group_symop_operation_xyz
x,y,z
-x,y,1/2-z
-x,-y,-z
x,-y,1/2+z
loop_
_atom_site_type_symbol
_atom_site_label
_atom_site_fract_x
_atom_site_fract_y
_atom_site_fract_z
Si Si1 0.233557 0.009156 0.685691
Si Si2 0.302901 0.871334 0.057062
Si Si3 0.231042 0.719966 0.690161
Si Si4 0.282702 0.873527 0.819812
Si Si5 0.095054 0.557525 0.862927
Si Si6 0.260418 0.351984 0.908054
Si Si7 0.677278 0.134859 0.584856
O O1 0.500000 0.963351 0.750000
O O2 0.197860 0.960228 0.738198
O O3 0.904504 0.972369 0.522268
O O4 0.403260 0.113166 0.775418
O O5 0.441737 0.854292 0.045483
O O6 0.052702 0.781624 0.959262
O O7 0.500000 0.704224 0.750000
O O8 0.343638 0.787282 0.794675
O O9 0.117255 0.619802 0.677579
O O10 0.000000 0.843083 0.750000
O O11 0.534626 0.923346 0.968962
O O12 0.147762 0.443267 0.903980
O O13 0.000000 0.558508 0.750000
O O14 0.427713 0.610420 0.997102
O O15 0.309142 0.239988 0.947564
O O16 0.000000 0.340242 0.750000
O O17 0.000000 0.111057 0.750000
#
# Coordination Sequence:
#
# PCOD9227380 Si02
#       7
#     4   4   4   4   4   4   4
#     4  11  25  42  64  88 125 167 217 263 317 381
#     4  11  23  42  61  89 126 168 215 261 320 375
#     4  11  22  39  65  93 126 169 219 258 307 381
#     4  11  20  40  65  87 125 161 217 269 313 373
#     4  10  18  34  66  95 120 163 210 253 309 373
#     4   9  18  33  59  96 126 156 200 259 312 373
#     4  11  22  37  61  96 127 159 203 268 325 363
#
# _framework density 22.416104000000001
#
# number of rings (size 3 to 8) (size 9 to 14) (size 15 to 20)
#    0.000    1.429    4.286    3.429    2.000    1.143 
#    0.000    0.000    0.000   13.714    0.000    0.000 
#    0.000    0.000    0.000    0.000    0.000    0.000 
#
# Total GULP energy -155910.815674 kJ/mol
# GULP energy per Si atom -5568.243417 kJ/mol
# Density = 2.236508 g / cm^3
# Si number density = 22.416104 Si / 1000 Ang^3
#
#
#
# Elastic Constant Matrix: (Units=GPa)
#
#
# Indices 1 2 3 4 5 6 
#
# 1 148.8990 54.6744 18.5393 0.0000 22.2236 0.0000
# 2 54.6744 61.4356 1.0690 0.0000 5.8786 0.0000
# 3 18.5393 1.0690 49.8372 0.0000 17.1194 0.0000
# 4 0.0000 0.0000 0.0000 20.4965 0.0000 9.7039
# 5 22.2236 5.8786 17.1194 0.0000 33.6264 0.0000
# 6 0.0000 0.0000 0.0000 9.7039 0.0000 20.7434
#
#
#
# Elastic Compliance Matrix: (Units=1/GPa)
#
#
# Indices 1 2 3 4 5 6 
#
# 1 0.011160 -0.009460 -0.002403 0.000000 -0.004498 0.000000
# 2 -0.009460 0.024597 0.002813 0.000000 0.000520 0.000000
# 3 -0.002403 0.002813 0.024872 0.000000 -0.011566 0.000000
# 4 0.000000 0.000000 0.000000 0.062669 0.000000 -0.029317
# 5 -0.004498 0.000520 -0.011566 0.000000 0.038509 0.000000
# 6 0.000000 0.000000 0.000000 -0.029317 0.000000 0.061923
#
#
# Mechanical properties :
#
#
# Convention : Reuss Voigt Hill
#
# Bulk Modulus (GPa) = 23.51353 45.41525 34.46439
# Shear Modulus (GPa) = 19.53079 27.36586 23.44833
#
# Velocity S-wave (km/s) = 2.95495 3.49780 3.23778
# Velocity P-wave (km/s) = 4.70688 6.05119 5.42087
#
# Compressibility (1/GPa) = 0.04252870
#
# Stress axis : x y z
#
# Youngs Moduli (GPa) = 89.60488 40.65515 40.20594
#
# Poissons Ratio (x) = 0.38458 0.09663
# Poissons Ratio (y) = 0.84763 -0.11309
# Poissons Ratio (z) = 0.21536 -0.11435
#
# Static dielectric constant tensor:
#      x y z
#    x 1.803720 0.000000 -0.004650 
#    y 0.000000 1.997430 0.000000 
#    z -0.004650 0.000000 1.937380 
# 
# From -- ./inp_files/76747.got.cif
#   From: 2010.05.17/outbox.cif.g08.bks.cpg/sg13_39_cif.got.tgz:76747.got - 2010.06.03 16:44:36.
