data_PCOD9227176
_publ_section_title
;
Structure prediction by ZEFSAII (Michael W. Deem and Ramdas Pophale) SiO2 
 PCOD9227176
Probable space group: P 2/C
;
_chemical_formula_sum "Si O2"
_cell_formula_units_Z 26
_cell_length_a 15.133964
_cell_length_b 11.530419
_cell_length_c 8.207128
_cell_angle_alpha 90.000000
_cell_angle_beta 43.133037
_cell_angle_gamma 90.000000
_cell_volume 979.154423
_symmetry_space_group_name_H-M "P 2/C"
_symmetry_group_IT_number 13
_symmetry_cell_setting 'monoclinic'
loop_
_space_group_symop_operation_xyz
x,y,z
-x,y,1/2-z
-x,-y,-z
x,-y,1/2+z
loop_
_atom_site_type_symbol
_atom_site_label
_atom_site_fract_x
_atom_site_fract_y
_atom_site_fract_z
Si Si1 0.819230 0.590329 0.729875
Si Si2 0.000000 0.631837 0.750000
Si Si3 0.217947 0.931161 0.729515
Si Si4 0.404992 0.928684 0.743716
Si Si5 0.000000 0.735945 0.250000
Si Si6 0.500000 0.603036 0.750000
Si Si7 0.937642 0.154669 0.527075
Si Si8 0.660993 0.589775 0.235216
O O1 0.898609 0.666227 0.495487
O O2 0.759653 0.483348 0.715377
O O3 0.923845 0.556112 0.725037
O O4 0.717037 0.651046 0.994867
O O5 0.086047 0.725553 0.534358
O O6 0.316977 0.982820 0.465616
O O7 0.306399 0.868259 0.747911
O O8 0.146432 0.044501 0.904234
O O9 0.092575 0.870559 0.816646
O O10 0.500000 0.869032 0.750000
O O11 0.500000 0.000000 0.500000
O O12 0.917404 0.816732 0.242347
O O13 0.580890 0.656380 0.485607
O O14 0.412698 0.515688 0.758674
#
# Coordination Sequence:
#
# PCOD9227176 Si02
#       8
#     4   2   4   4   2   2   4   4
#     4  10  22  35  54  80 120 147 186 216 297 336
#     4  10  22  36  48  84 116 158 170 226 288 376
#     4  10  18  33  58  85 105 143 200 260 272 350
#     4   9  18  30  48  82 107 138 175 243 306 334
#     4  10  22  36  48  84 118 160 176 232 290 378
#     4   8  16  32  60  92 104 126 204 244 288 304
#     4  10  20  34  56  84 110 148 201 239 306 329
#     4   9  18  35  58  90 106 149 184 249 274 344
#
# _framework density 26.553521
#
# number of rings (size 3 to 8) (size 9 to 14) (size 15 to 20)
#    0.000    2.462    0.000    1.846    0.000    9.231 
#    0.000    0.000    0.000    0.000  476.000    0.000 
#    0.000    0.000    0.000    0.000    0.000    0.000 
#
# Total GULP energy -144881.942817 kJ/mol
# GULP energy per Si atom -5572.382416 kJ/mol
# Density = 2.649308 g / cm^3
# Si number density = 26.553521 Si / 1000 Ang^3
#
#
#
# Elastic Constant Matrix: (Units=GPa)
#
#
# Indices 1 2 3 4 5 6 
#
# 1 185.6889 36.2998 22.5565 0.0000 5.1599 0.0000
# 2 36.2998 59.0598 43.1239 0.0000 4.9046 0.0000
# 3 22.5565 43.1239 225.8639 0.0000 35.5849 0.0000
# 4 0.0000 0.0000 0.0000 41.7275 0.0000 22.5736
# 5 5.1599 4.9046 35.5849 0.0000 51.9492 0.0000
# 6 0.0000 0.0000 0.0000 22.5736 0.0000 15.4358
#
#
#
# Elastic Compliance Matrix: (Units=1/GPa)
#
#
# Indices 1 2 3 4 5 6 
#
# 1 0.006130 -0.003872 0.000186 0.000000 -0.000370 0.000000
# 2 -0.003872 0.022151 -0.004006 0.000000 0.001037 0.000000
# 3 0.000186 -0.004006 0.005736 0.000000 -0.003569 0.000000
# 4 0.000000 0.000000 0.000000 0.114739 0.000000 -0.167797
# 5 -0.000370 0.001037 -0.003569 0.000000 0.021633 0.000000
# 6 0.000000 0.000000 0.000000 -0.167797 0.000000 0.310173
#
#
# Mechanical properties :
#
#
# Convention : Reuss Voigt Hill
#
# Bulk Modulus (GPa) = 53.67271 74.95257 64.31264
# Shear Modulus (GPa) = 9.95700 46.39799 28.17749
#
# Velocity S-wave (km/s) = 1.93854 4.18465 3.26108
# Velocity P-wave (km/s) = 5.02668 7.18587 6.20097
#
# Compressibility (1/GPa) = 0.01863144
#
# Stress axis : x y z
#
# Youngs Moduli (GPa) = 163.12887 45.14468 174.33318
#
# Poissons Ratio (x) = 0.17482 -0.03234
# Poissons Ratio (y) = 0.63171 0.69838
# Poissons Ratio (z) = -0.03026 0.18085
#
# Static dielectric constant tensor:
#      x y z
#    x 2.092420 0.000000 -0.068060 
#    y 0.000000 1.667400 0.000000 
#    z -0.068060 0.000000 2.301660 
# 
# From -- ./inp_files/19878.got.cif
#   From: 2010.05.17/outbox.cif.g08.bks.cpg/sg13_10_cif.got.tgz:19878.got - 2010.06.03 16:44:36.
