data_PCOD9227707
_publ_section_title
;
Structure prediction by ZEFSAII (Michael W. Deem and Ramdas Pophale) SiO2 
 PCOD9227707
Probable space group: P 2/C
;
_chemical_formula_sum "Si O2"
_cell_formula_units_Z 24
_cell_length_a 16.995338
_cell_length_b 7.738578
_cell_length_c 16.592374
_cell_angle_alpha 90.000000
_cell_angle_beta 146.938669
_cell_angle_gamma 90.000000
_cell_volume 1190.483223
_symmetry_space_group_name_H-M "P 2/C"
_symmetry_group_IT_number 13
_symmetry_cell_setting 'monoclinic'
loop_
_space_group_symop_operation_xyz
x,y,z
-x,y,1/2-z
-x,-y,-z
x,-y,1/2+z
loop_
_atom_site_type_symbol
_atom_site_label
_atom_site_fract_x
_atom_site_fract_y
_atom_site_fract_z
Si Si1 0.236861 0.666043 0.651330
Si Si2 0.556236 0.253233 0.037356
Si Si3 0.670365 0.686074 0.295597
Si Si4 0.296599 0.092512 0.905990
Si Si5 0.936776 0.184366 0.916470
Si Si6 0.338012 0.961490 0.622835
O O1 0.323174 0.642324 0.809744
O O2 0.291767 0.506922 0.644315
O O3 0.274541 0.847389 0.640532
O O4 0.067469 0.681977 0.521046
O O5 0.643617 0.082972 0.084276
O O6 0.469709 0.313047 0.883514
O O7 0.429097 0.217727 0.993815
O O8 0.811118 0.746036 0.366324
O O9 0.655400 0.837339 0.347736
O O10 0.148460 0.151255 0.739073
O O11 0.270342 0.066566 0.977584
O O12 0.000000 0.000000 0.000000
O O13 0.500000 0.898838 0.750000
#
# Coordination Sequence:
#
# PCOD9227707 Si02
#       6
#     4   4   4   4   4   4
#     4  12  23  40  66  93 124 163 208 258 311 368
#     4  10  18  38  63  92 120 159 211 256 297 362
#     4  11  24  40  64  95 124 160 210 258 309 369
#     4  10  20  37  65  89 120 165 208 247 308 374
#     4  11  21  42  67  87 118 167 209 254 306 361
#     4  12  22  40  63  91 129 163 197 255 316 373
#
# _framework density 20.159880999999999
#
# number of rings (size 3 to 8) (size 9 to 14) (size 15 to 20)
#    0.000    1.000    6.667    2.000    0.000    1.333 
#    0.000    0.000    3.667    0.000    0.000    0.000 
#    0.000    0.000    0.000    0.000    0.000    0.000 
#
# Total GULP energy -133877.433514 kJ/mol
# GULP energy per Si atom -5578.226396 kJ/mol
# Density = 2.011400 g / cm^3
# Si number density = 20.159881 Si / 1000 Ang^3
#
#
#
# Elastic Constant Matrix: (Units=GPa)
#
#
# Indices 1 2 3 4 5 6 
#
# 1 40.2697 -5.5682 33.2606 0.0000 2.3336 0.0000
# 2 -5.5682 72.6834 22.7195 0.0000 2.0226 0.0000
# 3 33.2606 22.7195 145.4502 0.0000 1.6375 0.0000
# 4 0.0000 0.0000 0.0000 -0.7461 0.0000 -2.0655
# 5 2.3336 2.0226 1.6375 0.0000 27.6431 0.0000
# 6 0.0000 0.0000 0.0000 -2.0655 0.0000 17.3623
#
#
#
# Elastic Compliance Matrix: (Units=1/GPa)
#
#
# Indices 1 2 3 4 5 6 
#
# 1 0.032460 0.005121 -0.008193 0.000000 -0.002630 0.000000
# 2 0.005121 0.015296 -0.003545 0.000000 -0.001341 0.000000
# 3 -0.008193 -0.003545 0.009298 0.000000 0.000400 0.000000
# 4 0.000000 0.000000 0.000000 -1.008245 0.000000 -0.119944
# 5 -0.002630 -0.001341 0.000400 0.000000 0.036472 0.000000
# 6 0.000000 0.000000 0.000000 -0.119944 0.000000 0.043327
#
#
# Mechanical properties :
#
#
# Convention : Reuss Voigt Hill
#
# Bulk Modulus (GPa) = 22.82088 39.91411 31.36749
# Shear Modulus (GPa) = -5.92733 22.71795 8.39531
#
# Velocity S-wave (km/s) = -1.71655 3.36056 2.04289
# Velocity P-wave (km/s) = 2.72320 5.90759 4.59975
#
# Compressibility (1/GPa) = 0.04381953
#
# Stress axis : x y z
#
# Youngs Moduli (GPa) = 30.80707 65.37611 107.55001
#
# Poissons Ratio (x) = -0.33479 0.88116
# Poissons Ratio (y) = -0.15776 0.38128
# Poissons Ratio (z) = 0.25240 0.23177
#
# Static dielectric constant tensor:
#      x y z
#    x 2.043430 0.000000 -0.219600 
#    y 0.000000 1.777230 0.000000 
#    z -0.219600 0.000000 1.840730 
# 
# From -- ./inp_files/69503.got.cif
#   From: 2010.05.17/outbox.cif.g08.bks.cpg/sg13_35_cif.got.tgz:69503.got - 2010.06.03 16:44:36.
