data_PCOD9227526
_publ_section_title
;
Structure prediction by ZEFSAII (Michael W. Deem and Ramdas Pophale) SiO2 
 PCOD9227526
Probable space group: P 2/C
;
_chemical_formula_sum "Si O2"
_cell_formula_units_Z 24
_cell_length_a 10.105460
_cell_length_b 9.371607
_cell_length_c 17.832188
_cell_angle_alpha 90.000000
_cell_angle_beta 140.428428
_cell_angle_gamma 90.000000
_cell_volume 1075.827375
_symmetry_space_group_name_H-M "P 2/C"
_symmetry_group_IT_number 13
_symmetry_cell_setting 'monoclinic'
loop_
_space_group_symop_operation_xyz
x,y,z
-x,y,1/2-z
-x,-y,-z
x,-y,1/2+z
loop_
_atom_site_type_symbol
_atom_site_label
_atom_site_fract_x
_atom_site_fract_y
_atom_site_fract_z
Si Si1 0.262628 0.880589 0.170213
Si Si2 0.793136 0.888858 0.518446
Si Si3 0.650572 0.201543 0.488763
Si Si4 0.220394 0.171994 0.239235
Si Si5 0.462494 0.436680 0.316287
Si Si6 0.638264 0.721850 0.148442
O O1 0.500000 0.851024 0.250000
O O2 0.144452 0.857124 0.040955
O O3 0.215949 0.783056 0.221676
O O4 0.259090 0.042324 0.198521
O O5 0.577242 0.810742 0.440338
O O6 0.979790 0.839734 0.652805
O O7 0.763566 0.058836 0.512129
O O8 0.402361 0.158334 0.380685
O O9 0.644408 0.333093 0.427632
O O10 0.718837 0.252296 0.600232
O O11 0.272151 0.325655 0.227307
O O12 0.500000 0.496992 0.250000
O O13 0.414005 0.559567 0.354181
#
# Coordination Sequence:
#
# PCOD9227526 Si02
#       6
#     4   4   4   4   4   4
#     4  10  18  36  58  87 121 159 209 255 309 355
#     4  11  21  37  63  90 118 165 210 258 304 364
#     4  10  22  39  62  88 127 162 205 258 309 366
#     4  10  21  36  63  90 120 159 215 251 307 365
#     4  10  20  39  63  88 124 168 206 248 309 375
#     4  11  21  38  61  87 124 168 198 258 320 362
#
# _framework density 22.308412000000001
#
# number of rings (size 3 to 8) (size 9 to 14) (size 15 to 20)
#    1.000    0.667    3.333    4.500    0.000    0.667 
#    0.000    5.000    0.000    0.000    0.000    0.000 
#    0.000    0.000    0.000    0.000    0.000    0.000 
#
# Total GULP energy -133883.421429 kJ/mol
# GULP energy per Si atom -5578.475893 kJ/mol
# Density = 2.225764 g / cm^3
# Si number density = 22.308412 Si / 1000 Ang^3
#
#
#
# Elastic Constant Matrix: (Units=GPa)
#
#
# Indices 1 2 3 4 5 6 
#
# 1 41.2919 1.1325 25.1085 0.0000 -24.5269 0.0000
# 2 1.1325 97.0341 8.3309 0.0000 -5.8581 0.0000
# 3 25.1085 8.3309 80.5590 0.0000 -24.2118 0.0000
# 4 0.0000 0.0000 0.0000 36.3516 0.0000 -21.3048
# 5 -24.5269 -5.8581 -24.2118 0.0000 32.4605 0.0000
# 6 0.0000 0.0000 0.0000 -21.3048 0.0000 30.5643
#
#
#
# Elastic Compliance Matrix: (Units=1/GPa)
#
#
# Indices 1 2 3 4 5 6 
#
# 1 0.045722 0.001780 -0.005098 0.000000 0.031066 0.000000
# 2 0.001780 0.010516 -0.000861 0.000000 0.002600 0.000000
# 3 -0.005098 -0.000861 0.016610 0.000000 0.008382 0.000000
# 4 0.000000 0.000000 0.000000 0.046509 0.000000 0.032419
# 5 0.031066 0.002600 0.008382 0.000000 0.061001 0.000000
# 6 0.000000 0.000000 0.000000 0.032419 0.000000 0.055316
#
#
# Mechanical properties :
#
#
# Convention : Reuss Voigt Hill
#
# Bulk Modulus (GPa) = 15.50626 32.00322 23.75474
# Shear Modulus (GPa) = 18.83042 32.16281 25.49662
#
# Velocity S-wave (km/s) = 2.90848 3.80114 3.38437
# Velocity P-wave (km/s) = 4.27141 5.80016 5.09347
#
# Compressibility (1/GPa) = 0.06449007
#
# Stress axis : x y z
#
# Youngs Moduli (GPa) = 21.87153 95.09532 60.20326
#
# Poissons Ratio (x) = -0.16922 0.30690
# Poissons Ratio (y) = -0.03892 0.05181
# Poissons Ratio (z) = 0.11150 0.08183
#
# Static dielectric constant tensor:
#      x y z
#    x 1.904440 0.000000 -0.001070 
#    y 0.000000 1.777640 0.000000 
#    z -0.001070 0.000000 1.853080 
# 
# From -- ./inp_files/78141.got.cif
#   From: 2010.05.17/outbox.cif.g08.bks.cpg/sg13_40_cif.got.tgz:78141.got - 2010.06.03 16:44:36.
