data_PCOD9227149
_publ_section_title
;
Structure prediction by ZEFSAII (Michael W. Deem and Ramdas Pophale) SiO2 
 PCOD9227149
Probable space group: P 2/C
;
_chemical_formula_sum "Si O2"
_cell_formula_units_Z 16
_cell_length_a 8.610625
_cell_length_b 6.990513
_cell_length_c 24.729911
_cell_angle_alpha 90.000000
_cell_angle_beta 142.475936
_cell_angle_gamma 90.000000
_cell_volume 906.673687
_symmetry_space_group_name_H-M "P 2/C"
_symmetry_group_IT_number 13
_symmetry_cell_setting 'monoclinic'
loop_
_space_group_symop_operation_xyz
x,y,z
-x,y,1/2-z
-x,-y,-z
x,-y,1/2+z
loop_
_atom_site_type_symbol
_atom_site_label
_atom_site_fract_x
_atom_site_fract_y
_atom_site_fract_z
Si Si1 0.004756 0.418355 0.578714
Si Si2 0.357043 0.688259 0.609032
Si Si3 0.422936 0.901659 0.168426
Si Si4 0.172179 0.419906 0.744797
O O1 0.147231 0.602342 0.592640
O O2 0.183253 0.239798 0.609795
O O3 0.012115 0.428849 0.645137
O O4 0.736986 0.385804 0.475349
O O5 0.626863 0.594502 0.698393
O O6 0.367691 0.915304 0.616982
O O7 0.500000 0.969216 0.250000
O O8 0.651883 0.769794 0.209730
O O9 0.000000 0.421314 0.750000
#
# Coordination Sequence:
#
# PCOD9227149 Si02
#       4
#     4   4   4   4
#     4   9  19  33  52  77  97 122 166 210 240 282
#     4  10  18  33  56  74  94 128 167 204 245 284
#     4   9  17  32  52  72  97 128 163 202 242 284
#     4  10  21  34  47  72 107 132 158 198 242 294
#
# _framework density 17.646923000000001
#
# number of rings (size 3 to 8) (size 9 to 14) (size 15 to 20)
#    0.000    2.500    0.000    4.500    0.000    2.000 
#    0.000    1.250    0.000    0.000    0.000    0.000 
#    0.000    0.000    0.000    0.000    0.000    0.000 
#
# Total GULP energy -89250.830942 kJ/mol
# GULP energy per Si atom -5578.176934 kJ/mol
# Density = 1.760676 g / cm^3
# Si number density = 17.646923 Si / 1000 Ang^3
#
#
#
# Elastic Constant Matrix: (Units=GPa)
#
#
# Indices 1 2 3 4 5 6 
#
# 1 51.3458 -1.0854 6.8650 0.0000 -22.9836 0.0000
# 2 -1.0854 52.4203 5.0807 0.0000 -9.5155 0.0000
# 3 6.8650 5.0807 68.0027 0.0000 -26.1290 0.0000
# 4 0.0000 0.0000 0.0000 18.3654 0.0000 -6.1095
# 5 -22.9836 -9.5155 -26.1290 0.0000 21.5464 0.0000
# 6 0.0000 0.0000 0.0000 -6.1095 0.0000 4.8649
#
#
#
# Elastic Compliance Matrix: (Units=1/GPa)
#
#
# Indices 1 2 3 4 5 6 
#
# 1 0.100851 0.032078 0.064041 0.000000 0.199406 0.000000
# 2 0.032078 0.031448 0.024148 0.000000 0.077390 0.000000
# 3 0.064041 0.024148 0.068874 0.000000 0.162500 0.000000
# 4 0.000000 0.000000 0.000000 0.093520 0.000000 0.117446
# 5 0.199406 0.077390 0.162500 0.000000 0.490358 0.000000
# 6 0.000000 0.000000 0.000000 0.117446 0.000000 0.353049
#
#
# Mechanical properties :
#
#
# Convention : Reuss Voigt Hill
#
# Bulk Modulus (GPa) = 2.26395 21.49884 11.88139
# Shear Modulus (GPa) = 4.78559 19.68254 12.23407
#
# Velocity S-wave (km/s) = 1.64856 3.34331 2.63586
# Velocity P-wave (km/s) = 2.21571 5.20700 4.00139
#
# Compressibility (1/GPa) = 0.44170680
#
# Stress axis : x y z
#
# Youngs Moduli (GPa) = 9.91566 31.79810 14.51925
#
# Poissons Ratio (x) = -1.02002 -0.92983
# Poissons Ratio (y) = -0.31807 -0.35061
# Poissons Ratio (z) = -0.63501 -0.76786
#
# Static dielectric constant tensor:
#      x y z
#    x 1.557110 0.000000 -0.009910 
#    y 0.000000 1.587310 0.000000 
#    z -0.009910 0.000000 1.641570 
# 
# From -- ./inp_files/45121.got.cif
#   From: 2010.05.17/outbox.cif.g08.bks.cpg/sg13_23_cif.got.tgz:45121.got - 2010.06.03 16:44:36.
