data_PCOD9227185
_publ_section_title
;
Structure prediction by ZEFSAII (Michael W. Deem and Ramdas Pophale) SiO2 
 PCOD9227185
Probable space group: P 2/C
;
_chemical_formula_sum "Si O2"
_cell_formula_units_Z 28
_cell_length_a 17.760717
_cell_length_b 11.624189
_cell_length_c 15.059964
_cell_angle_alpha 90.000000
_cell_angle_beta 23.064018
_cell_angle_gamma 90.000000
_cell_volume 1218.053888
_symmetry_space_group_name_H-M "P 2/C"
_symmetry_group_IT_number 13
_symmetry_cell_setting 'monoclinic'
loop_
_space_group_symop_operation_xyz
x,y,z
-x,y,1/2-z
-x,-y,-z
x,-y,1/2+z
loop_
_atom_site_type_symbol
_atom_site_label
_atom_site_fract_x
_atom_site_fract_y
_atom_site_fract_z
Si Si1 0.346446 0.985670 0.990334
Si Si2 0.655606 0.730650 0.455792
Si Si3 0.745737 0.312696 0.345136
Si Si4 0.011235 0.861931 0.641843
Si Si5 0.353285 0.573952 0.723808
Si Si6 0.947720 0.470580 0.659122
Si Si7 0.435619 0.152379 0.636948
O O1 0.500000 0.025001 0.750000
O O2 0.418132 0.045063 0.005051
O O3 0.343654 0.848720 0.992520
O O4 0.134778 0.032074 0.200505
O O5 0.478063 0.642764 0.658955
O O6 0.841228 0.651918 0.273652
O O7 0.618659 0.780415 0.395313
O O8 0.921990 0.227405 0.170065
O O9 0.733016 0.337300 0.254225
O O10 0.794250 0.428540 0.345632
O O11 0.543421 0.248591 0.581432
O O12 0.000000 0.804035 0.750000
O O13 0.229295 0.892772 0.389958
O O14 0.500000 0.500000 0.500000
O O15 0.158665 0.518755 0.974713
O O16 0.000000 0.500000 0.500000
#
# Coordination Sequence:
#
# PCOD9227185 Si02
#       7
#     4   4   4   4   4   4   4
#     4  11  24  43  59  86 124 164 208 249 310 375
#     4  11  22  36  65  93 123 158 203 261 302 365
#     4   9  20  31  59  92 120 150 202 246 299 369
#     4  11  22  39  64  81 117 171 203 254 312 361
#     4  10  18  33  58  89 124 159 186 242 312 359
#     4  10  18  34  58  92 129 153 192 244 311 362
#     4  10  21  38  63  92 118 154 212 255 305 354
#
# _framework density 22.987487999999999
#
# number of rings (size 3 to 8) (size 9 to 14) (size 15 to 20)
#    0.000    1.714    4.286    2.143    2.000    1.714 
#    0.000    0.000    6.286    0.000    0.000    0.000 
#    0.000    0.000    0.000    0.000    0.000    0.000 
#
# Total GULP energy -155909.235790 kJ/mol
# GULP energy per Si atom -5568.186992 kJ/mol
# Density = 2.293517 g / cm^3
# Si number density = 22.987488 Si / 1000 Ang^3
#
#
#
# Elastic Constant Matrix: (Units=GPa)
#
#
# Indices 1 2 3 4 5 6 
#
# 1 36.4451 13.5429 27.9600 0.0000 -20.7691 0.0000
# 2 13.5429 126.1878 52.5108 0.0000 -21.0217 0.0000
# 3 27.9600 52.5108 130.3998 0.0000 -51.4111 0.0000
# 4 0.0000 0.0000 0.0000 29.6375 0.0000 -4.1130
# 5 -20.7691 -21.0217 -51.4111 0.0000 32.7683 0.0000
# 6 0.0000 0.0000 0.0000 -4.1130 0.0000 16.6055
#
#
#
# Elastic Compliance Matrix: (Units=1/GPa)
#
#
# Indices 1 2 3 4 5 6 
#
# 1 0.043837 -0.000849 0.004410 0.000000 0.034159 0.000000
# 2 -0.000849 0.009537 -0.003824 0.000000 -0.000419 0.000000
# 3 0.004410 -0.003824 0.022016 0.000000 0.034884 0.000000
# 4 0.000000 0.000000 0.000000 0.034942 0.000000 0.008655
# 5 0.034159 -0.000419 0.034884 0.000000 0.106629 0.000000
# 6 0.000000 0.000000 0.000000 0.008655 0.000000 0.062365
#
#
# Mechanical properties :
#
#
# Convention : Reuss Voigt Hill
#
# Bulk Modulus (GPa) = 13.35754 53.45112 33.40433
# Shear Modulus (GPa) = 16.40384 29.07019 22.73702
#
# Velocity S-wave (km/s) = 2.67423 3.55999 3.14841
# Velocity P-wave (km/s) = 3.91902 6.34041 5.27065
#
# Compressibility (1/GPa) = 0.07486410
#
# Stress axis : x y z
#
# Youngs Moduli (GPa) = 22.81174 104.85286 45.42156
#
# Poissons Ratio (x) = 0.08905 -0.20030
# Poissons Ratio (y) = 0.01937 0.17367
# Poissons Ratio (z) = -0.10060 0.40091
#
# Static dielectric constant tensor:
#      x y z
#    x 1.972980 0.000000 0.018330 
#    y 0.000000 1.934220 0.000000 
#    z 0.018330 0.000000 1.967390 
# 
# From -- ./inp_files/70662.got.cif
#   From: 2010.05.17/outbox.cif.g08.bks.cpg/sg13_36_cif.got.tgz:70662.got - 2010.06.03 16:44:36.
