data_PCOD9227320
_publ_section_title
;
Structure prediction by ZEFSAII (Michael W. Deem and Ramdas Pophale) SiO2 
 PCOD9227320
Probable space group: P 2/C
;
_chemical_formula_sum "Si O2"
_cell_formula_units_Z 32
_cell_length_a 20.911407
_cell_length_b 7.372658
_cell_length_c 12.843725
_cell_angle_alpha 90.000000
_cell_angle_beta 41.614395
_cell_angle_gamma 90.000000
_cell_volume 1315.046234
_symmetry_space_group_name_H-M "P 2/C"
_symmetry_group_IT_number 13
_symmetry_cell_setting 'monoclinic'
loop_
_space_group_symop_operation_xyz
x,y,z
-x,y,1/2-z
-x,-y,-z
x,-y,1/2+z
loop_
_atom_site_type_symbol
_atom_site_label
_atom_site_fract_x
_atom_site_fract_y
_atom_site_fract_z
Si Si1 0.208628 0.923285 0.140257
Si Si2 0.838278 0.394687 0.518064
Si Si3 0.304976 0.303706 0.347602
Si Si4 0.353547 0.480293 0.984376
Si Si5 0.668087 0.191231 0.826311
Si Si6 0.143822 0.675777 0.729348
Si Si7 0.966129 0.212407 0.539082
Si Si8 0.526422 0.297868 0.509877
O O1 0.274276 0.941018 0.165031
O O2 0.120804 0.783688 0.272294
O O3 0.161507 0.115341 0.178840
O O4 0.266274 0.850756 0.971428
O O5 0.784098 0.589142 0.596040
O O6 0.745021 0.262901 0.648667
O O7 0.883352 0.407975 0.348608
O O8 0.913910 0.295422 0.501047
O O9 0.358253 0.445456 0.361572
O O10 0.382641 0.238573 0.170606
O O11 0.356087 0.651230 0.059031
O O12 0.246483 0.405803 0.130444
O O13 0.430580 0.334015 0.928234
O O14 0.566050 0.171367 0.893075
O O15 0.065162 0.674450 0.916504
O O16 0.000000 0.000000 0.500000
O O17 0.500000 0.500000 0.500000
#
# Coordination Sequence:
#
# PCOD9227320 Si02
#       8
#     4   4   4   4   4   4   4   4
#     4   9  20  37  57  80 116 149 188 237 291 339
#     4  10  18  35  59  86 110 141 197 240 283 344
#     4  10  19  35  59  86 116 147 189 243 290 328
#     4   9  19  33  57  84 111 144 193 236 281 339
#     4   9  18  36  57  79 112 149 190 239 280 339
#     4  10  20  37  57  82 111 154 189 231 289 354
#     4   9  19  38  60  79 107 153 192 225 289 355
#     4  10  18  34  59  85 110 154 198 227 289 347
#
# _framework density 24.333743999999999
#
# number of rings (size 3 to 8) (size 9 to 14) (size 15 to 20)
#    0.000    2.500    2.500    0.375    0.000    4.500 
#    6.750   11.875    2.750    0.000    0.000    0.000 
#    0.000    0.000    0.000    0.000    0.000    0.000 
#
# Total GULP energy -178499.291326 kJ/mol
# GULP energy per Si atom -5578.102854 kJ/mol
# Density = 2.427836 g / cm^3
# Si number density = 24.333744 Si / 1000 Ang^3
#
#
#
# Elastic Constant Matrix: (Units=GPa)
#
#
# Indices 1 2 3 4 5 6 
#
# 1 108.0085 23.6002 23.1416 0.0000 -17.4650 0.0000
# 2 23.6002 57.0212 17.9678 0.0000 -2.4894 0.0000
# 3 23.1416 17.9678 101.2917 0.0000 -13.6517 0.0000
# 4 0.0000 0.0000 0.0000 23.4465 0.0000 1.6642
# 5 -17.4650 -2.4894 -13.6517 0.0000 39.1942 0.0000
# 6 0.0000 0.0000 0.0000 1.6642 0.0000 1.7166
#
#
#
# Elastic Compliance Matrix: (Units=1/GPa)
#
#
# Indices 1 2 3 4 5 6 
#
# 1 0.011090 -0.004011 -0.001249 0.000000 0.004252 0.000000
# 2 -0.004011 0.020026 -0.002839 0.000000 -0.001504 0.000000
# 3 -0.001249 -0.002839 0.011082 0.000000 0.003123 0.000000
# 4 0.000000 0.000000 0.000000 0.045802 0.000000 -0.044406
# 5 0.004252 -0.001504 0.003123 0.000000 0.028401 0.000000
# 6 0.000000 0.000000 0.000000 -0.044406 0.000000 0.625608
#
#
# Mechanical properties :
#
#
# Convention : Reuss Voigt Hill
#
# Bulk Modulus (GPa) = 38.45976 43.97117 41.21546
# Shear Modulus (GPa) = 6.51997 26.31223 16.41610
#
# Velocity S-wave (km/s) = 1.63866 3.29189 2.60017
# Velocity P-wave (km/s) = 4.40678 5.70596 5.09793
#
# Compressibility (1/GPa) = 0.02600120
#
# Stress axis : x y z
#
# Youngs Moduli (GPa) = 90.17073 49.93468 90.23354
#
# Poissons Ratio (x) = 0.20028 0.11272
# Poissons Ratio (y) = 0.36165 0.25615
# Poissons Ratio (z) = 0.11264 0.14175
#
# Static dielectric constant tensor:
#      x y z
#    x 2.009420 0.000000 -0.019020 
#    y 0.000000 1.991580 0.000000 
#    z -0.019020 0.000000 1.937880 
# 
# From -- ./inp_files/57260.got.cif
#   From: 2010.05.17/outbox.cif.g08.bks.cpg/sg13_29_cif.got.tgz:57260.got - 2010.06.03 16:44:36.
