data_PCOD9227528
_publ_section_title
;
Structure prediction by ZEFSAII (Michael W. Deem and Ramdas Pophale) SiO2 
 PCOD9227528
Probable space group: P 2/C
;
_chemical_formula_sum "Si O2"
_cell_formula_units_Z 24
_cell_length_a 11.449375
_cell_length_b 8.415459
_cell_length_c 16.329706
_cell_angle_alpha 90.000000
_cell_angle_beta 131.337668
_cell_angle_gamma 90.000000
_cell_volume 1181.352784
_symmetry_space_group_name_H-M "P 2/C"
_symmetry_group_IT_number 13
_symmetry_cell_setting 'monoclinic'
loop_
_space_group_symop_operation_xyz
x,y,z
-x,y,1/2-z
-x,-y,-z
x,-y,1/2+z
loop_
_atom_site_type_symbol
_atom_site_label
_atom_site_fract_x
_atom_site_fract_y
_atom_site_fract_z
Si Si1 0.542787 0.373825 0.589805
Si Si2 0.000000 0.411161 0.250000
Si Si3 0.500000 0.351122 0.750000
Si Si4 0.170161 0.712038 0.057030
Si Si5 0.815160 0.818727 0.145790
Si Si6 0.758073 0.173932 0.080714
Si Si7 0.908217 0.618681 0.052792
O O1 0.500000 0.500000 0.500000
O O2 0.521665 0.437843 0.672544
O O3 0.710647 0.293787 0.654466
O O4 0.413250 0.237166 0.517606
O O5 0.151068 0.298796 0.319764
O O6 0.011702 0.518337 0.336361
O O7 0.659107 0.250813 0.830252
O O8 0.030154 0.718315 0.055896
O O9 0.150501 0.809917 0.964054
O O10 0.171404 0.522092 0.035542
O O11 0.796136 0.738939 0.047525
O O12 0.000000 0.821831 0.250000
O O13 0.760696 0.999447 0.118147
#
# Coordination Sequence:
#
# PCOD9227528 Si02
#       7
#     4   2   2   4   4   4   4
#     4  11  24  42  66  92 123 169 212 263 306 369
#     4  10  18  36  58  90 114 158 208 250 290 374
#     4  10  20  36  60  88 116 154 210 256 306 356
#     4   9  20  37  57  85 120 159 201 264 298 362
#     4  12  22  37  62  94 122 168 204 248 317 380
#     4  10  22  38  59  89 128 158 203 253 319 364
#     4  10  20  35  59  86 119 155 210 249 301 363
#
# _framework density 20.315691000000001
#
# number of rings (size 3 to 8) (size 9 to 14) (size 15 to 20)
#    0.000    1.667    1.667    4.500    2.333    0.667 
#    0.000    0.000    0.000   10.000    0.000    0.000 
#    0.000    0.000    0.000    0.000    0.000    0.000 
#
# Total GULP energy -133815.275472 kJ/mol
# GULP energy per Si atom -5575.636478 kJ/mol
# Density = 2.026945 g / cm^3
# Si number density = 20.315691 Si / 1000 Ang^3
#
#
#
# Elastic Constant Matrix: (Units=GPa)
#
#
# Indices 1 2 3 4 5 6 
#
# 1 118.1209 22.3344 21.6627 0.0000 -6.4595 0.0000
# 2 22.3344 77.7788 16.2764 0.0000 -3.7674 0.0000
# 3 21.6627 16.2764 68.1687 0.0000 5.6003 0.0000
# 4 0.0000 0.0000 0.0000 11.3641 0.0000 3.3019
# 5 -6.4595 -3.7674 5.6003 0.0000 38.3922 0.0000
# 6 0.0000 0.0000 0.0000 3.3019 0.0000 23.7667
#
#
#
# Elastic Compliance Matrix: (Units=1/GPa)
#
#
# Indices 1 2 3 4 5 6 
#
# 1 0.009440 -0.002070 -0.002651 0.000000 0.001772 0.000000
# 2 -0.002070 0.014114 -0.002831 0.000000 0.001450 0.000000
# 3 -0.002651 -0.002831 0.016445 0.000000 -0.003123 0.000000
# 4 0.000000 0.000000 0.000000 0.091698 0.000000 -0.012739
# 5 0.001772 0.001450 -0.003123 0.000000 0.026943 0.000000
# 6 0.000000 0.000000 0.000000 -0.012739 0.000000 0.043846
#
#
# Mechanical properties :
#
#
# Convention : Reuss Voigt Hill
#
# Bulk Modulus (GPa) = 40.17068 42.73503 41.45286
# Shear Modulus (GPa) = 22.13475 28.29091 25.21283
#
# Velocity S-wave (km/s) = 3.30440 3.73576 3.52668
# Velocity P-wave (km/s) = 5.86301 6.29992 6.08539
#
# Compressibility (1/GPa) = 0.02489378
#
# Stress axis : x y z
#
# Youngs Moduli (GPa) = 105.92701 70.85092 60.81039
#
# Poissons Ratio (x) = 0.14668 0.16122
# Poissons Ratio (y) = 0.21929 0.17217
# Poissons Ratio (z) = 0.28084 0.20059
#
# Static dielectric constant tensor:
#      x y z
#    x 1.760600 0.000000 -0.013490 
#    y 0.000000 1.708680 0.000000 
#    z -0.013490 0.000000 1.767000 
# 
# From -- ./inp_files/66128.got.cif
#   From: 2010.05.17/outbox.cif.g08.bks.cpg/sg13_34_cif.got.tgz:66128.got - 2010.06.03 16:44:36.
