data_PCOD9227195
_publ_section_title
;
Structure prediction by ZEFSAII (Michael W. Deem and Ramdas Pophale) SiO2 
 PCOD9227195
Probable space group: P 2/C
;
_chemical_formula_sum "Si O2"
_cell_formula_units_Z 26
_cell_length_a 14.755899
_cell_length_b 5.733934
_cell_length_c 27.649186
_cell_angle_alpha 90.000000
_cell_angle_beta 28.236817
_cell_angle_gamma 90.000000
_cell_volume 1106.800235
_symmetry_space_group_name_H-M "P 2/C"
_symmetry_group_IT_number 13
_symmetry_cell_setting 'monoclinic'
loop_
_space_group_symop_operation_xyz
x,y,z
-x,y,1/2-z
-x,-y,-z
x,-y,1/2+z
loop_
_atom_site_type_symbol
_atom_site_label
_atom_site_fract_x
_atom_site_fract_y
_atom_site_fract_z
Si Si1 0.907381 0.577946 0.715103
Si Si2 0.000000 0.220793 0.750000
Si Si3 0.193731 0.047512 0.075140
Si Si4 0.118157 0.204481 0.846453
Si Si5 0.280203 0.190704 0.872924
Si Si6 0.577921 0.895591 0.848173
Si Si7 0.367103 0.684157 0.860852
O O1 0.889586 0.382068 0.763770
O O2 0.885331 0.464039 0.672927
O O3 0.745962 0.771094 0.798863
O O4 0.117198 0.691191 0.617328
O O5 0.857780 0.074221 0.850124
O O6 0.055469 0.929936 0.098950
O O7 0.409776 0.009046 0.957966
O O8 0.139222 0.198898 0.893627
O O9 0.312377 0.085021 0.735631
O O10 0.500000 0.194553 0.750000
O O11 0.258130 0.435142 0.912195
O O12 0.263655 0.937247 0.905538
O O13 0.486500 0.709642 0.853952
O O14 0.500000 0.678051 0.750000
#
# Coordination Sequence:
#
# PCOD9227195 Si02
#       7
#     4   2   4   4   4   4   4
#     4  10  22  42  69  89 134 168 211 278 335 409
#     4  10  22  46  66  96 128 170 208 270 352 406
#     4  10  24  42  66  96 131 163 222 279 334 411
#     4  10  21  39  63  94 129 180 218 268 339 384
#     4  10  18  33  60  89 131 185 222 269 327 392
#     4  11  22  40  66  99 127 174 224 273 331 395
#     4  10  19  34  61  93 135 177 225 272 325 392
#
# _framework density 23.491140000000001
#
# number of rings (size 3 to 8) (size 9 to 14) (size 15 to 20)
#    0.000    1.846    3.077    2.308    2.154    3.077 
#    0.000   12.308    0.000    0.000    0.000    0.000 
#    0.000    0.000    0.000    0.000    0.000    0.000 
#
# Total GULP energy -145375.784900 kJ/mol
# GULP energy per Si atom -5591.376342 kJ/mol
# Density = 2.343767 g / cm^3
# Si number density = 23.491140 Si / 1000 Ang^3
#
#
#
# Elastic Constant Matrix: (Units=GPa)
#
#
# Indices 1 2 3 4 5 6 
#
# 1 37.3016 -9.9160 -1.2327 0.0000 7.2379 0.0000
# 2 -9.9160 103.4036 5.6308 0.0000 -4.9809 0.0000
# 3 -1.2327 5.6308 98.8376 0.0000 -1.3486 0.0000
# 4 0.0000 0.0000 0.0000 42.0653 0.0000 21.3714
# 5 7.2379 -4.9809 -1.3486 0.0000 18.3031 0.0000
# 6 0.0000 0.0000 0.0000 21.3714 0.0000 47.5909
#
#
#
# Elastic Compliance Matrix: (Units=1/GPa)
#
#
# Indices 1 2 3 4 5 6 
#
# 1 0.029569 0.002298 0.000087 0.000000 -0.011061 0.000000
# 2 0.002298 0.010005 -0.000517 0.000000 0.001776 0.000000
# 3 0.000087 -0.000517 0.010156 0.000000 0.000573 0.000000
# 4 0.000000 0.000000 0.000000 0.030799 0.000000 -0.013831
# 5 -0.011061 0.001776 0.000573 0.000000 0.059535 0.000000
# 6 0.000000 0.000000 0.000000 -0.013831 0.000000 0.027223
#
#
# Mechanical properties :
#
#
# Convention : Reuss Voigt Hill
#
# Bulk Modulus (GPa) = 18.70383 25.38968 22.04675
# Shear Modulus (GPa) = 27.56746 37.92926 32.74836
#
# Velocity S-wave (km/s) = 3.42939 4.02259 3.73778
# Velocity P-wave (km/s) = 4.86419 5.69268 5.29467
#
# Compressibility (1/GPa) = 0.05346499
#
# Stress axis : x y z
#
# Youngs Moduli (GPa) = 33.81977 99.95098 98.46428
#
# Poissons Ratio (x) = -0.22968 -0.00856
# Poissons Ratio (y) = -0.07772 0.05091
# Poissons Ratio (z) = -0.00294 0.05168
#
# Static dielectric constant tensor:
#      x y z
#    x 1.892490 0.000000 -0.012570 
#    y 0.000000 1.922220 0.000000 
#    z -0.012570 0.000000 1.873380 
# 
# From -- ./inp_files/96838.got.cif
#   From: 2010.05.17/outbox.cif.g08.bks.cpg/sg13_49_cif.got.tgz:96838.got - 2010.06.03 16:44:36.
