data_PCOD9227962
_publ_section_title
;
Structure prediction by ZEFSAII (Michael W. Deem and Ramdas Pophale) SiO2 
 PCOD9227962
Probable space group: P 2/C
;
_chemical_formula_sum "Si O2"
_cell_formula_units_Z 22
_cell_length_a 29.935557
_cell_length_b 7.908099
_cell_length_c 5.067210
_cell_angle_alpha 90.000000
_cell_angle_beta 99.439093
_cell_angle_gamma 90.000000
_cell_volume 1183.335903
_symmetry_space_group_name_H-M "P 2/C"
_symmetry_group_IT_number 13
_symmetry_cell_setting 'monoclinic'
loop_
_space_group_symop_operation_xyz
x,y,z
-x,y,1/2-z
-x,-y,-z
x,-y,1/2+z
loop_
_atom_site_type_symbol
_atom_site_label
_atom_site_fract_x
_atom_site_fract_y
_atom_site_fract_z
Si Si1 0.857035 0.616497 0.048178
Si Si2 0.316233 0.112723 0.144990
Si Si3 0.240620 0.383630 0.937754
Si Si4 0.500000 0.379663 0.250000
Si Si5 0.579084 0.114052 0.257407
Si Si6 0.047729 0.618498 0.236725
O O1 0.857397 0.543487 0.752405
O O2 0.808793 0.700620 0.060710
O O3 0.904447 0.708110 0.157616
O O4 0.281041 0.257424 0.039014
O O5 0.368535 0.169585 0.167375
O O6 0.309869 0.040811 0.432313
O O7 0.242788 0.538916 0.147737
O O8 0.500000 0.500000 0.500000
O O9 0.543912 0.260413 0.283347
O O10 0.572008 0.963380 0.460810
O O11 0.047678 0.460166 0.444064
O O12 0.000000 0.708700 0.250000
#
# Coordination Sequence:
#
# PCOD9227962 Si02
#       6
#     4   4   4   2   4   4
#     4   8  14  23  35  55  82 112 145 181 229 282
#     4  10  21  36  54  75  99 130 168 203 235 282
#     4  10  19  31  49  71  97 127 157 197 247 291
#     4  12  24  36  56  86 110 128 162 210 244 276
#     4  10  21  39  58  74 101 140 169 193 238 294
#     4   8  12  18  29  46  72 106 140 175 218 270
#
# _framework density 18.591508999999999
#
# number of rings (size 3 to 8) (size 9 to 14) (size 15 to 20)
#    0.000    2.545    0.000    2.727    0.000    1.455 
#    0.000    0.000    0.000    0.000    0.000    0.000 
#    0.000    1.455    0.000    0.000    0.000   11.636 
#
# Total GULP energy -122599.256245 kJ/mol
# GULP energy per Si atom -5572.693466 kJ/mol
# Density = 1.854919 g / cm^3
# Si number density = 18.591509 Si / 1000 Ang^3
#
#
#
# Elastic Constant Matrix: (Units=GPa)
#
#
# Indices 1 2 3 4 5 6 
#
# 1 131.2999 47.5345 -7.0829 0.0000 9.1197 0.0000
# 2 47.5345 24.6658 -7.2371 0.0000 4.4786 0.0000
# 3 -7.0829 -7.2371 73.2352 0.0000 -2.1481 0.0000
# 4 0.0000 0.0000 0.0000 3.4593 0.0000 -44.5009
# 5 9.1197 4.4786 -2.1481 0.0000 27.3189 0.0000
# 6 0.0000 0.0000 0.0000 -44.5009 0.0000 -210.8652
#
#
#
# Elastic Compliance Matrix: (Units=1/GPa)
#
#
# Indices 1 2 3 4 5 6 
#
# 1 0.025628 -0.050017 -0.002480 0.000000 -0.000551 0.000000
# 2 -0.050017 0.140564 0.008888 0.000000 -0.005648 0.000000
# 3 -0.002480 0.008888 0.014308 0.000000 0.000496 0.000000
# 4 0.000000 0.000000 0.000000 0.077816 0.000000 -0.016422
# 5 -0.000551 -0.005648 0.000496 0.000000 0.037754 0.000000
# 6 0.000000 0.000000 0.000000 -0.016422 0.000000 -0.001277
#
#
# Mechanical properties :
#
#
# Convention : Reuss Voigt Hill
#
# Bulk Modulus (GPa) = 10.72025 32.84776 21.78400
# Shear Modulus (GPa) = 12.10344 -22.95164 -5.42410
#
# Velocity S-wave (km/s) = 2.55428 -3.51739 -1.70993
# Velocity P-wave (km/s) = 3.80498 1.10021 2.80074
#
# Compressibility (1/GPa) = 0.09328138
#
# Stress axis : x y z
#
# Youngs Moduli (GPa) = 39.01963 7.11419 69.89302
#
# Poissons Ratio (x) = 0.35583 0.17335
# Poissons Ratio (y) = 1.95163 -0.62118
# Poissons Ratio (z) = 0.09678 -0.06323
#
# Static dielectric constant tensor:
#      x y z
#    x 1.721820 0.000000 0.006690 
#    y 0.000000 1.579760 0.000000 
#    z 0.006690 0.000000 1.631530 
# 
# From -- ./inp_files/7762.got.cif
#   From: 2010.05.17/outbox.cif.g08.bks.cpg/sg13_4_cif.got.tgz:7762.got - 2010.06.03 16:44:36.
