data_PCOD9227098
_publ_section_title
;
Structure prediction by ZEFSAII (Michael W. Deem and Ramdas Pophale) SiO2 
 PCOD9227098
Probable space group: P 2/C
;
_chemical_formula_sum "Si O2"
_cell_formula_units_Z 32
_cell_length_a 11.315942
_cell_length_b 15.516357
_cell_length_c 7.447113
_cell_angle_alpha 90.000000
_cell_angle_beta 91.224398
_cell_angle_gamma 90.000000
_cell_volume 1307.281900
_symmetry_space_group_name_H-M "P 2/C"
_symmetry_group_IT_number 13
_symmetry_cell_setting 'monoclinic'
loop_
_space_group_symop_operation_xyz
x,y,z
-x,y,1/2-z
-x,-y,-z
x,-y,1/2+z
loop_
_atom_site_type_symbol
_atom_site_label
_atom_site_fract_x
_atom_site_fract_y
_atom_site_fract_z
Si Si1 0.307636 0.214021 0.245191
Si Si2 0.002885 0.167243 0.950697
Si Si3 0.380982 0.564654 0.524634
Si Si4 0.771894 0.077981 0.979658
Si Si5 0.731181 0.113939 0.574044
Si Si6 0.105042 0.334076 0.366536
Si Si7 0.465289 0.719729 0.051604
Si Si8 0.740637 0.411580 0.825102
O O1 0.244917 0.132711 0.341246
O O2 0.342043 0.181258 0.047612
O O3 0.218413 0.296048 0.259558
O O4 0.410072 0.224550 0.394104
O O5 0.000000 0.202800 0.750000
O O6 0.913368 0.086420 0.955611
O O7 0.136063 0.139359 0.980924
O O8 0.956170 0.246016 0.065224
O O9 0.500000 0.500000 0.500000
O O10 0.444297 0.655124 0.544587
O O11 0.310365 0.508585 0.662800
O O12 0.272214 0.593545 0.387843
O O13 0.722483 0.117500 0.790213
O O14 0.717822 0.984657 0.012977
O O15 0.151726 0.389209 0.539348
O O16 0.000000 0.378503 0.250000
O O17 0.500000 0.755391 0.250000
O O18 0.358939 0.654725 0.109147
#
# Coordination Sequence:
#
# PCOD9227098 Si02
#       8
#     4   4   4   4   4   4   4   4
#     4  10  19  32  54  75 108 150 185 233 287 330
#     4   9  19  31  47  70 109 144 196 234 266 318
#     4   9  16  33  58  82 105 130 175 232 281 338
#     4  10  20  29  48  77 107 147 192 238 279 326
#     4  11  18  31  48  77 107 147 193 236 277 331
#     4  10  18  33  51  74 109 153 182 216 273 339
#     4   8  16  32  58  78 102 137 176 226 287 337
#     4   9  18  31  57  82 107 137 177 219 280 339
#
# _framework density 24.478270999999999
#
# number of rings (size 3 to 8) (size 9 to 14) (size 15 to 20)
#    0.000    2.500    2.500    1.500    0.000    0.000 
#    0.000    1.875   44.000    0.750    0.000    0.000 
#    0.000    0.000    0.000    0.000    0.000    0.000 
#
# Total GULP energy -178250.150924 kJ/mol
# GULP energy per Si atom -5570.317216 kJ/mol
# Density = 2.442256 g / cm^3
# Si number density = 24.478271 Si / 1000 Ang^3
#
#
#
# Elastic Constant Matrix: (Units=GPa)
#
#
# Indices 1 2 3 4 5 6 
#
# 1 39.1494 -2.7250 28.5238 0.0000 19.2995 0.0000
# 2 -2.7250 58.5452 20.6998 0.0000 5.8158 0.0000
# 3 28.5238 20.6998 167.0218 0.0000 20.0775 0.0000
# 4 0.0000 0.0000 0.0000 43.0713 0.0000 17.1507
# 5 19.2995 5.8158 20.0775 0.0000 45.6522 0.0000
# 6 0.0000 0.0000 0.0000 17.1507 0.0000 14.1459
#
#
#
# Elastic Compliance Matrix: (Units=1/GPa)
#
#
# Indices 1 2 3 4 5 6 
#
# 1 0.036432 0.004891 -0.005175 0.000000 -0.013749 0.000000
# 2 0.004891 0.018602 -0.002753 0.000000 -0.003227 0.000000
# 3 -0.005175 -0.002753 0.007293 0.000000 -0.000669 0.000000
# 4 0.000000 0.000000 0.000000 0.044888 0.000000 -0.054423
# 5 -0.013749 -0.003227 -0.000669 0.000000 0.028422 0.000000
# 6 0.000000 0.000000 0.000000 -0.054423 0.000000 0.136676
#
#
# Mechanical properties :
#
#
# Convention : Reuss Voigt Hill
#
# Bulk Modulus (GPa) = 17.77673 39.74595 28.76134
# Shear Modulus (GPa) = 16.82720 35.12175 25.97448
#
# Velocity S-wave (km/s) = 2.62474 3.79200 3.26102
# Velocity P-wave (km/s) = 4.05755 5.95356 5.09453
#
# Compressibility (1/GPa) = 0.05625332
#
# Stress axis : x y z
#
# Youngs Moduli (GPa) = 27.44840 53.75649 137.12456
#
# Poissons Ratio (x) = -0.26294 0.70966
# Poissons Ratio (y) = -0.13426 0.37749
# Poissons Ratio (z) = 0.14205 0.14799
#
# Static dielectric constant tensor:
#      x y z
#    x 2.114350 0.000000 -0.040100 
#    y 0.000000 1.995070 0.000000 
#    z -0.040100 0.000000 2.079160 
# 
# From -- ./inp_files/19670.got.cif
#   From: 2010.05.17/outbox.cif.g08.bks.cpg/sg13_10_cif.got.tgz:19670.got - 2010.06.03 16:44:36.
