data_PCOD9227886
_publ_section_title
;
Structure prediction by ZEFSAII (Michael W. Deem and Ramdas Pophale) SiO2 
 PCOD9227886
Probable space group: P 2/C
;
_chemical_formula_sum "Si O2"
_cell_formula_units_Z 20
_cell_length_a 25.334471
_cell_length_b 6.787957
_cell_length_c 5.205864
_cell_angle_alpha 90.000000
_cell_angle_beta 101.941031
_cell_angle_gamma 90.000000
_cell_volume 875.876557
_symmetry_space_group_name_H-M "P 2/C"
_symmetry_group_IT_number 13
_symmetry_cell_setting 'monoclinic'
loop_
_space_group_symop_operation_xyz
x,y,z
-x,y,1/2-z
-x,-y,-z
x,-y,1/2+z
loop_
_atom_site_type_symbol
_atom_site_label
_atom_site_fract_x
_atom_site_fract_y
_atom_site_fract_z
Si Si1 0.841888 0.281492 0.964033
Si Si2 0.114098 0.720405 0.491405
Si Si3 0.500000 0.859538 0.250000
Si Si4 0.385285 0.864912 0.203552
Si Si5 0.000000 0.862750 0.250000
Si Si6 0.270007 0.865580 0.988896
O O1 0.846366 0.191544 0.684830
O O2 0.781788 0.268520 0.011088
O O3 0.863953 0.500769 0.939746
O O4 0.881474 0.191802 0.218956
O O5 0.053999 0.733089 0.323950
O O6 0.500000 0.000000 0.500000
O O7 0.441883 0.753812 0.209079
O O8 0.328031 0.762492 0.093146
O O9 0.385212 0.957513 0.490124
O O10 0.000000 0.000000 0.500000
O O11 0.268143 0.036965 0.205554
#
# Coordination Sequence:
#
# PCOD9227886 Si02
#       6
#     4   4   2   4   2   4
#     4  10  21  37  57  77 105 139 170 203 246 301
#     4  10  23  40  58  79 103 134 166 198 249 306
#     4   8  12  20  34  52  84 128 166 200 246 296
#     4   8  14  23  36  59  91 128 166 206 250 289
#     4  12  26  42  62  86 106 124 158 208 256 304
#     4  10  19  30  48  75 105 135 172 216 253 285
#
# _framework density 22.834267000000001
#
# number of rings (size 3 to 8) (size 9 to 14) (size 15 to 20)
#    0.000    2.400    0.000    2.400    0.000    8.000 
#    0.000    0.000    0.000    0.000    0.000    0.000 
#    0.000    6.400    0.000    0.000    0.000   24.800 
#
# Total GULP energy -111492.636702 kJ/mol
# GULP energy per Si atom -5574.631835 kJ/mol
# Density = 2.278229 g / cm^3
# Si number density = 22.834267 Si / 1000 Ang^3
#
#
#
# Elastic Constant Matrix: (Units=GPa)
#
#
# Indices 1 2 3 4 5 6 
#
# 1 174.7004 4.8328 -2.3568 0.0000 28.8625 0.0000
# 2 4.8328 56.6244 -13.4201 0.0000 8.2753 0.0000
# 3 -2.3568 -13.4201 147.9793 0.0000 -19.1039 0.0000
# 4 0.0000 0.0000 0.0000 15.7384 0.0000 -7.3696
# 5 28.8625 8.2753 -19.1039 0.0000 45.9651 0.0000
# 6 0.0000 0.0000 0.0000 -7.3696 0.0000 12.1689
#
#
#
# Elastic Compliance Matrix: (Units=1/GPa)
#
#
# Indices 1 2 3 4 5 6 
#
# 1 0.006414 -0.000038 -0.000444 0.000000 -0.004205 0.000000
# 2 -0.000038 0.018375 0.001312 0.000000 -0.002739 0.000000
# 3 -0.000444 0.001312 0.007265 0.000000 0.003062 0.000000
# 4 0.000000 0.000000 0.000000 0.088689 0.000000 0.053711
# 5 -0.004205 -0.002739 0.003062 0.000000 0.026162 0.000000
# 6 0.000000 0.000000 0.000000 0.053711 0.000000 0.114705
#
#
# Mechanical properties :
#
#
# Convention : Reuss Voigt Hill
#
# Bulk Modulus (GPa) = 29.66182 39.71287 34.68735
# Shear Modulus (GPa) = 18.43746 40.79103 29.61424
#
# Velocity S-wave (km/s) = 2.84464 4.23116 3.60519
# Velocity P-wave (km/s) = 4.87930 6.42650 5.70559
#
# Compressibility (1/GPa) = 0.03371337
#
# Stress axis : x y z
#
# Youngs Moduli (GPa) = 155.91171 54.42254 137.64734
#
# Poissons Ratio (x) = 0.00208 0.06114
# Poissons Ratio (y) = 0.00594 -0.18062
# Poissons Ratio (z) = 0.06925 -0.07141
#
# Static dielectric constant tensor:
#      x y z
#    x 1.932430 0.000000 -0.004320 
#    y 0.000000 -0.749030 0.000000 
#    z -0.004320 0.000000 1.938940 
# 
# From -- ./inp_files/6683.got.cif
#   From: 2010.05.17/outbox.cif.g08.bks.cpg/sg13_4_cif.got.tgz:6683.got - 2010.06.03 16:44:36.
