data_PCOD9227222
_publ_section_title
;
Structure prediction by ZEFSAII (Michael W. Deem and Ramdas Pophale) SiO2 
 PCOD9227222
Probable space group: P 2/C
;
_chemical_formula_sum "Si O2"
_cell_formula_units_Z 32
_cell_length_a 16.429303
_cell_length_b 18.402761
_cell_length_c 16.865125
_cell_angle_alpha 90.000000
_cell_angle_beta 17.648272
_cell_angle_gamma 90.000000
_cell_volume 1545.902139
_symmetry_space_group_name_H-M "P 2/C"
_symmetry_group_IT_number 13
_symmetry_cell_setting 'monoclinic'
loop_
_space_group_symop_operation_xyz
x,y,z
-x,y,1/2-z
-x,-y,-z
x,-y,1/2+z
loop_
_atom_site_type_symbol
_atom_site_label
_atom_site_fract_x
_atom_site_fract_y
_atom_site_fract_z
Si Si1 0.170864 0.062548 0.761944
Si Si2 0.568974 0.272028 0.319057
Si Si3 0.291316 0.149999 0.809890
Si Si4 0.596257 0.117005 0.243784
Si Si5 0.155815 0.080507 0.181466
Si Si6 0.569082 0.566171 0.772535
Si Si7 0.851924 0.552405 0.201058
Si Si8 0.838478 0.286180 0.668459
O O1 0.235998 0.094952 0.787274
O O2 0.368329 0.102020 0.518554
O O3 0.203795 0.978497 0.706843
O O4 0.866854 0.081983 0.023498
O O5 0.630442 0.203554 0.207389
O O6 0.507516 0.347831 0.334041
O O7 0.311233 0.258852 0.613368
O O8 0.839220 0.279486 0.121907
O O9 0.565622 0.120817 0.592835
O O10 0.277725 0.232297 0.790083
O O11 0.049271 0.139340 0.094507
O O12 0.500000 0.085794 0.250000
O O13 0.000000 0.047154 0.250000
O O14 0.500000 0.535705 0.750000
O O15 0.890827 0.565032 0.481596
O O16 0.399223 0.533852 0.006298
O O17 0.777807 0.627489 0.224314
O O18 0.000000 0.500000 0.000000
#
# Coordination Sequence:
#
# PCOD9227222 Si02
#       8
#     4   4   4   4   4   4   4   4
#     4  12  24  40  58  85 113 154 206 245 309 368
#     4  10  18  34  51  84 121 154 195 231 286 353
#     4  12  22  42  66  84 113 156 206 252 305 368
#     4  12  21  33  54  81 123 157 189 241 294 361
#     4  12  26  42  60  86 117 154 202 264 318 360
#     4  10  20  34  57  87 125 165 200 240 292 370
#     4  10  21  37  61  91 126 160 203 247 303 360
#     4  10  20  36  61  86 115 152 200 250 282 355
#
# _framework density 20.699887
#
# number of rings (size 3 to 8) (size 9 to 14) (size 15 to 20)
#    0.000    1.000    2.500    5.625    0.000    0.000 
#    0.000    3.750    0.000    3.000    0.000    0.000 
#    0.000    0.000    0.000    0.000    0.000    0.000 
#
# Total GULP energy -178517.804321 kJ/mol
# GULP energy per Si atom -5578.681385 kJ/mol
# Density = 2.065277 g / cm^3
# Si number density = 20.699887 Si / 1000 Ang^3
#
#
#
# Elastic Constant Matrix: (Units=GPa)
#
#
# Indices 1 2 3 4 5 6 
#
# 1 57.3357 6.4327 19.3439 0.0000 -5.4031 0.0000
# 2 6.4327 65.5926 4.1267 0.0000 -0.8068 0.0000
# 3 19.3439 4.1267 115.5389 0.0000 -11.4057 0.0000
# 4 0.0000 0.0000 0.0000 24.4076 0.0000 1.7615
# 5 -5.4031 -0.8068 -11.4057 0.0000 27.3539 0.0000
# 6 0.0000 0.0000 0.0000 1.7615 0.0000 8.9065
#
#
#
# Elastic Compliance Matrix: (Units=1/GPa)
#
#
# Indices 1 2 3 4 5 6 
#
# 1 0.018819 -0.001636 -0.002847 0.000000 0.002482 0.000000
# 2 -0.001636 0.015424 -0.000275 0.000000 0.000017 0.000000
# 3 -0.002847 -0.000275 0.009475 0.000000 0.003380 0.000000
# 4 0.000000 0.000000 0.000000 0.041564 0.000000 -0.008220
# 5 0.002482 0.000017 0.003380 0.000000 0.038458 0.000000
# 6 0.000000 0.000000 0.000000 -0.008220 0.000000 0.113903
#
#
# Mechanical properties :
#
#
# Convention : Reuss Voigt Hill
#
# Bulk Modulus (GPa) = 29.23898 33.14153 31.19025
# Shear Modulus (GPa) = 19.33777 26.03785 22.68781
#
# Velocity S-wave (km/s) = 3.05978 3.55050 3.31423
# Velocity P-wave (km/s) = 5.16128 5.73178 5.45400
#
# Compressibility (1/GPa) = 0.03420092
#
# Stress axis : x y z
#
# Youngs Moduli (GPa) = 53.13723 64.83576 105.53707
#
# Poissons Ratio (x) = 0.10607 0.30050
# Poissons Ratio (y) = 0.08693 0.02906
# Poissons Ratio (z) = 0.15130 0.01785
#
# Static dielectric constant tensor:
#      x y z
#    x 1.771730 0.000000 0.003980 
#    y 0.000000 1.773490 0.000000 
#    z 0.003980 0.000000 1.722230 
# 
# From -- ./inp_files/53985.got.cif
#   From: 2010.05.17/outbox.cif.g08.bks.cpg/sg13_27_cif.got.tgz:53985.got - 2010.06.03 16:44:36.
