data_PCOD9227306
_publ_section_title
;
Structure prediction by ZEFSAII (Michael W. Deem and Ramdas Pophale) SiO2 
 PCOD9227306
Probable space group: P 2/C
;
_chemical_formula_sum "Si O2"
_cell_formula_units_Z 28
_cell_length_a 14.934977
_cell_length_b 13.630822
_cell_length_c 13.482960
_cell_angle_alpha 90.000000
_cell_angle_beta 27.810223
_cell_angle_gamma 90.000000
_cell_volume 1280.574624
_symmetry_space_group_name_H-M "P 2/C"
_symmetry_group_IT_number 13
_symmetry_cell_setting 'monoclinic'
loop_
_space_group_symop_operation_xyz
x,y,z
-x,y,1/2-z
-x,-y,-z
x,-y,1/2+z
loop_
_atom_site_type_symbol
_atom_site_label
_atom_site_fract_x
_atom_site_fract_y
_atom_site_fract_z
Si Si1 0.415635 0.867487 0.097880
Si Si2 0.407636 0.023291 0.249075
Si Si3 0.805449 0.411614 0.877086
Si Si4 0.177836 0.673772 0.355215
Si Si5 0.520184 0.436876 0.580138
Si Si6 0.230662 0.256199 0.238479
Si Si7 0.793281 0.776559 0.503045
O O1 0.306978 0.765837 0.194420
O O2 0.311912 0.940908 0.275084
O O3 0.437510 0.925712 0.974631
O O4 0.636244 0.839353 0.912584
O O5 0.500000 0.968057 0.250000
O O6 0.295571 0.115495 0.403660
O O7 0.860542 0.388554 0.708012
O O8 0.646542 0.496539 0.029383
O O9 0.713772 0.312839 0.014654
O O10 0.000000 0.432018 0.750000
O O11 0.985292 0.723108 0.585332
O O12 0.306099 0.607997 0.304464
O O13 0.500000 0.500000 0.500000
O O14 0.649470 0.344720 0.424090
O O15 0.213291 0.257835 0.375828
O O16 0.000000 0.788588 0.250000
#
# Coordination Sequence:
#
# PCOD9227306 Si02
#       7
#     4   4   4   4   4   4   4
#     4   9  21  38  59  97 116 167 220 254 328 393
#     4  10  20  37  61  87 131 158 205 277 323 382
#     4  10  18  34  58  88 128 156 213 268 318 375
#     4  10  18  37  62  82 124 166 208 259 312 382
#     4   9  21  35  57  88 119 160 211 248 311 386
#     4  10  19  37  65  81 124 167 208 261 313 382
#     4  10  19  35  57  95 122 161 208 266 328 369
#
# _framework density 21.865183999999999
#
# number of rings (size 3 to 8) (size 9 to 14) (size 15 to 20)
#    0.000    2.286    2.857    0.857    0.000    3.429 
#    2.571    2.143    6.286    0.000    0.000    0.000 
#    0.000    0.000    0.000    0.000    0.000    0.000 
#
# Total GULP energy -155958.967845 kJ/mol
# GULP energy per Si atom -5569.963137 kJ/mol
# Density = 2.181542 g / cm^3
# Si number density = 21.865184 Si / 1000 Ang^3
#
#
#
# Elastic Constant Matrix: (Units=GPa)
#
#
# Indices 1 2 3 4 5 6 
#
# 1 84.3953 51.0104 32.4631 0.0000 -14.3149 0.0000
# 2 51.0104 88.8882 23.9715 0.0000 -2.1464 0.0000
# 3 32.4631 23.9715 84.9423 0.0000 -19.3902 0.0000
# 4 0.0000 0.0000 0.0000 25.1222 0.0000 4.9769
# 5 -14.3149 -2.1464 -19.3902 0.0000 28.5638 0.0000
# 6 0.0000 0.0000 0.0000 4.9769 0.0000 22.9904
#
#
#
# Elastic Compliance Matrix: (Units=1/GPa)
#
#
# Indices 1 2 3 4 5 6 
#
# 1 0.021016 -0.011015 -0.003205 0.000000 0.007529 0.000000
# 2 -0.011015 0.018018 -0.002161 0.000000 -0.005633 0.000000
# 3 -0.003205 -0.002161 0.015625 0.000000 0.008838 0.000000
# 4 0.000000 0.000000 0.000000 0.041589 0.000000 -0.009003
# 5 0.007529 -0.005633 0.008838 0.000000 0.044359 0.000000
# 6 0.000000 0.000000 0.000000 -0.009003 0.000000 0.045445
#
#
# Mechanical properties :
#
#
# Convention : Reuss Voigt Hill
#
# Bulk Modulus (GPa) = 45.66641 52.56845 49.11743
# Shear Modulus (GPa) = 22.11285 25.38733 23.75009
#
# Velocity S-wave (km/s) = 3.18359 3.41117 3.29934
# Velocity P-wave (km/s) = 5.86894 6.29357 6.08496
#
# Compressibility (1/GPa) = 0.02189793
#
# Stress axis : x y z
#
# Youngs Moduli (GPa) = 47.58214 55.50060 64.00003
#
# Poissons Ratio (x) = 0.61131 0.20511
# Poissons Ratio (y) = 0.52410 0.13832
# Poissons Ratio (z) = 0.15249 0.11995
#
# Static dielectric constant tensor:
#      x y z
#    x 1.843660 0.000000 -0.047370 
#    y 0.000000 1.785800 0.000000 
#    z -0.047370 0.000000 1.845940 
# 
# From -- ./inp_files/53823.got.cif
#   From: 2010.05.17/outbox.cif.g08.bks.cpg/sg13_27_cif.got.tgz:53823.got - 2010.06.03 16:44:36.
