data_PCOD9227506
_publ_section_title
;
Structure prediction by ZEFSAII (Michael W. Deem and Ramdas Pophale) SiO2 
 PCOD9227506
Probable space group: P 2/C
;
_chemical_formula_sum "Si O2"
_cell_formula_units_Z 28
_cell_length_a 19.148361
_cell_length_b 12.361342
_cell_length_c 10.724007
_cell_angle_alpha 90.000000
_cell_angle_beta 33.584754
_cell_angle_gamma 90.000000
_cell_volume 1404.147898
_symmetry_space_group_name_H-M "P 2/C"
_symmetry_group_IT_number 13
_symmetry_cell_setting 'monoclinic'
loop_
_space_group_symop_operation_xyz
x,y,z
-x,y,1/2-z
-x,-y,-z
x,-y,1/2+z
loop_
_atom_site_type_symbol
_atom_site_label
_atom_site_fract_x
_atom_site_fract_y
_atom_site_fract_z
Si Si1 0.783497 0.208016 0.324535
Si Si2 0.865011 0.549221 0.741889
Si Si3 0.918882 0.977500 0.496919
Si Si4 0.389951 0.533197 0.816663
Si Si5 0.000000 0.658091 0.750000
Si Si6 0.200822 0.190869 0.900760
Si Si7 0.561750 0.668484 0.416105
Si Si8 0.500000 0.782533 0.250000
O O1 0.811751 0.336739 0.264132
O O2 0.860229 0.138840 0.111914
O O3 0.814187 0.184669 0.425221
O O4 0.638640 0.168280 0.528295
O O5 0.898964 0.584815 0.831631
O O6 0.000000 0.500000 0.500000
O O7 0.746555 0.468353 0.916451
O O8 0.816354 0.073534 0.632529
O O9 0.000000 0.000000 0.500000
O O10 0.000000 0.979522 0.250000
O O11 0.500000 0.499254 0.750000
O O12 0.444283 0.643538 0.679504
O O13 0.383158 0.447057 0.712853
O O14 0.081641 0.735028 0.538021
O O15 0.330889 0.254795 0.686580
O O16 0.517326 0.718669 0.352714
#
# Coordination Sequence:
#
# PCOD9227506 Si02
#       8
#     4   4   4   4   2   4   4   2
#     4  10  21  41  63  94 124 175 228 271 342 416
#     4  11  23  37  60  91 131 173 214 274 337 402
#     4  12  22  41  70  97 131 173 225 283 353 412
#     4  11  21  37  60  91 128 177 224 264 334 406
#     4  10  18  36  56  86 120 164 220 258 326 406
#     4  10  19  39  65  90 122 172 220 278 343 407
#     4  10  20  36  63  89 119 172 231 270 319 408
#     4  10  18  42  66  80 128 180 218 274 334 408
#
# _framework density 19.940919999999998
#
# number of rings (size 3 to 8) (size 9 to 14) (size 15 to 20)
#    0.000    1.429    7.143    0.857    2.000    1.143 
#    3.857    2.857    1.571    0.000    0.000    0.000 
#    0.000    0.000    0.000    0.000    0.000    0.000 
#
# Total GULP energy -155905.126462 kJ/mol
# GULP energy per Si atom -5568.040231 kJ/mol
# Density = 1.989553 g / cm^3
# Si number density = 19.940920 Si / 1000 Ang^3
#
#
#
# Elastic Constant Matrix: (Units=GPa)
#
#
# Indices 1 2 3 4 5 6 
#
# 1 58.2635 23.7261 41.1751 0.0000 -17.0543 0.0000
# 2 23.7261 70.0352 50.7699 0.0000 -2.0936 0.0000
# 3 41.1751 50.7699 131.6692 0.0000 -22.8229 0.0000
# 4 0.0000 0.0000 0.0000 35.9340 0.0000 2.4305
# 5 -17.0543 -2.0936 -22.8229 0.0000 31.5811 0.0000
# 6 0.0000 0.0000 0.0000 2.4305 0.0000 7.6006
#
#
#
# Elastic Compliance Matrix: (Units=1/GPa)
#
#
# Indices 1 2 3 4 5 6 
#
# 1 0.025206 -0.005295 -0.004050 0.000000 0.010334 0.000000
# 2 -0.005295 0.021591 -0.007908 0.000000 -0.007142 0.000000
# 3 -0.004050 -0.007908 0.013079 0.000000 0.006740 0.000000
# 4 0.000000 0.000000 0.000000 0.028444 0.000000 -0.009096
# 5 0.010334 -0.007142 0.006740 0.000000 0.041643 0.000000
# 6 0.000000 0.000000 0.000000 -0.009096 0.000000 0.134478
#
#
# Mechanical properties :
#
#
# Convention : Reuss Voigt Hill
#
# Bulk Modulus (GPa) = 39.41298 54.59000 47.00149
# Shear Modulus (GPa) = 16.26536 24.64291 20.45414
#
# Velocity S-wave (km/s) = 2.85911 3.51920 3.20619
# Velocity P-wave (km/s) = 5.54140 6.62936 6.10964
#
# Compressibility (1/GPa) = 0.02537235
#
# Stress axis : x y z
#
# Youngs Moduli (GPa) = 39.67259 46.31549 76.46106
#
# Poissons Ratio (x) = 0.24523 0.30963
# Poissons Ratio (y) = 0.21005 0.60462
# Poissons Ratio (z) = 0.16066 0.36624
#
# Static dielectric constant tensor:
#      x y z
#    x 1.823560 0.000000 -0.116340 
#    y 0.000000 1.753960 0.000000 
#    z -0.116340 0.000000 1.881050 
# 
# From -- ./inp_files/40806.got.cif
#   From: 2010.05.17/outbox.cif.g08.bks.cpg/sg13_21_cif.got.tgz:40806.got - 2010.06.03 16:44:36.
