data_PCOD9227705
_publ_section_title
;
Structure prediction by ZEFSAII (Michael W. Deem and Ramdas Pophale) SiO2 
 PCOD9227705
Probable space group: P 2/C
;
_chemical_formula_sum "Si O2"
_cell_formula_units_Z 24
_cell_length_a 9.410178
_cell_length_b 7.921402
_cell_length_c 22.248951
_cell_angle_alpha 90.000000
_cell_angle_beta 47.307637
_cell_angle_gamma 90.000000
_cell_volume 1218.988796
_symmetry_space_group_name_H-M "P 2/C"
_symmetry_group_IT_number 13
_symmetry_cell_setting 'monoclinic'
loop_
_space_group_symop_operation_xyz
x,y,z
-x,y,1/2-z
-x,-y,-z
x,-y,1/2+z
loop_
_atom_site_type_symbol
_atom_site_label
_atom_site_fract_x
_atom_site_fract_y
_atom_site_fract_z
Si Si1 0.211657 0.171813 0.168904
Si Si2 0.677933 0.669495 0.988093
Si Si3 0.667990 0.133515 0.933702
Si Si4 0.157857 0.322799 0.506707
Si Si5 0.172716 0.866782 0.444236
Si Si6 0.442178 0.839465 0.834676
O O1 0.270211 0.288706 0.095519
O O2 0.373021 0.176705 0.174511
O O3 0.000000 0.222880 0.250000
O O4 0.206714 0.977089 0.147413
O O5 0.766863 0.497031 0.987105
O O6 0.446775 0.703144 0.058462
O O7 0.765970 0.807292 0.007784
O O8 0.780635 0.187421 0.960462
O O9 0.500000 0.000000 0.000000
O O10 0.279064 0.280671 0.411559
O O11 0.930595 0.291828 0.559242
O O12 0.348659 0.971477 0.364506
O O13 0.000000 0.000000 0.500000
O O14 0.500000 0.799382 0.750000
#
# Coordination Sequence:
#
# PCOD9227705 Si02
#       6
#     4   4   4   4   4   4
#     4  11  23  38  63  89 121 164 211 257 304 356
#     4  11  21  40  66  90 122 157 208 257 302 367
#     4  10  18  38  63  87 113 158 210 247 287 362
#     4  11  22  38  67  93 119 162 202 253 314 365
#     4  10  21  39  63  89 117 160 208 247 296 374
#     4  11  23  39  61  89 125 164 205 257 309 362
#
# _framework density 19.688448999999999
#
# number of rings (size 3 to 8) (size 9 to 14) (size 15 to 20)
#    0.000    1.333    5.000    4.000    7.000    0.000 
#    0.000    1.667    0.000    0.000    0.000    0.000 
#    0.000    0.000    0.000    0.000    0.000    0.000 
#
# Total GULP energy -133818.393551 kJ/mol
# GULP energy per Si atom -5575.766398 kJ/mol
# Density = 1.964364 g / cm^3
# Si number density = 19.688449 Si / 1000 Ang^3
#
#
#
# Elastic Constant Matrix: (Units=GPa)
#
#
# Indices 1 2 3 4 5 6 
#
# 1 142.2943 35.6958 42.4004 0.0000 20.2670 0.0000
# 2 35.6958 86.1947 31.8617 0.0000 9.7881 0.0000
# 3 42.4004 31.8617 85.5858 0.0000 18.2072 0.0000
# 4 0.0000 0.0000 0.0000 12.3058 0.0000 4.2153
# 5 20.2670 9.7881 18.2072 0.0000 32.4975 0.0000
# 6 0.0000 0.0000 0.0000 4.2153 0.0000 49.2422
#
#
#
# Elastic Compliance Matrix: (Units=1/GPa)
#
#
# Indices 1 2 3 4 5 6 
#
# 1 0.008918 -0.002257 -0.002883 0.000000 -0.003267 0.000000
# 2 -0.002257 0.014081 -0.003998 0.000000 -0.000594 0.000000
# 3 -0.002883 -0.003998 0.015851 0.000000 -0.005879 0.000000
# 4 0.000000 0.000000 0.000000 0.083717 0.000000 -0.007166
# 5 -0.003267 -0.000594 -0.005879 0.000000 0.036282 0.000000
# 6 0.000000 0.000000 0.000000 -0.007166 0.000000 0.020921
#
#
# Mechanical properties :
#
#
# Convention : Reuss Voigt Hill
#
# Bulk Modulus (GPa) = 48.60053 59.33227 53.96640
# Shear Modulus (GPa) = 24.40153 32.41691 28.40922
#
# Velocity S-wave (km/s) = 3.52431 4.06210 3.80272
# Velocity P-wave (km/s) = 6.42646 7.22509 6.83744
#
# Compressibility (1/GPa) = 0.02057591
#
# Stress axis : x y z
#
# Youngs Moduli (GPa) = 112.13061 71.01560 63.08553
#
# Poissons Ratio (x) = 0.16025 0.18188
# Poissons Ratio (y) = 0.25303 0.25221
# Poissons Ratio (z) = 0.32329 0.28391
#
# Static dielectric constant tensor:
#      x y z
#    x 1.725840 0.000000 -0.011290 
#    y 0.000000 1.798200 0.000000 
#    z -0.011290 0.000000 1.735730 
# 
# From -- ./inp_files/75384.got.cif
#   From: 2010.05.17/outbox.cif.g08.bks.cpg/sg13_38_cif.got.tgz:75384.got - 2010.06.03 16:44:36.
