data_PCOD9227020
_publ_section_title
;
Structure prediction by ZEFSAII (Michael W. Deem and Ramdas Pophale) SiO2 
 PCOD9227020
Probable space group: P 2/C
;
_chemical_formula_sum "Si O2"
_cell_formula_units_Z 28
_cell_length_a 9.441574
_cell_length_b 9.815667
_cell_length_c 27.514491
_cell_angle_alpha 90.000000
_cell_angle_beta 142.225395
_cell_angle_gamma 90.000000
_cell_volume 1561.967701
_symmetry_space_group_name_H-M "P 2/C"
_symmetry_group_IT_number 13
_symmetry_cell_setting 'monoclinic'
loop_
_space_group_symop_operation_xyz
x,y,z
-x,y,1/2-z
-x,-y,-z
x,-y,1/2+z
loop_
_atom_site_type_symbol
_atom_site_label
_atom_site_fract_x
_atom_site_fract_y
_atom_site_fract_z
Si Si1 0.721159 0.137040 0.423783
Si Si2 0.471486 0.858120 0.520238
Si Si3 0.217793 0.851358 0.097118
Si Si4 0.406680 0.332209 0.279459
Si Si5 0.595967 0.355134 0.720224
Si Si6 0.002688 0.836820 0.146862
Si Si7 0.020727 0.140375 0.314238
O O1 0.627704 0.118511 0.452797
O O2 0.596342 0.262477 0.365119
O O3 0.996889 0.157413 0.501810
O O4 0.667843 0.998074 0.380739
O O5 0.730459 0.804600 0.599309
O O6 0.261533 0.787145 0.433899
O O7 0.500000 0.000000 0.500000
O O8 0.398562 0.730105 0.138931
O O9 0.118476 0.851106 0.124864
O O10 0.500000 0.330822 0.250000
O O11 0.369721 0.488627 0.284729
O O12 0.179890 0.238957 0.221330
O O13 0.500000 0.356062 0.750000
O O14 0.833304 0.270627 0.781927
O O15 0.003835 0.985212 0.172564
O O16 0.000000 0.137613 0.250000
#
# Coordination Sequence:
#
# PCOD9227020 Si02
#       7
#     4   4   4   4   4   4   4
#     4  10  18  32  55  84 111 140 185 235 279 323
#     4   9  19  34  55  79 110 143 181 227 282 328
#     4   9  18  32  56  85 111 135 186 235 277 324
#     4  11  22  35  55  80 113 150 188 226 274 331
#     4   9  19  35  53  79 112 150 184 225 278 332
#     4   9  18  35  57  79 107 146 181 232 279 321
#     4  11  20  34  57  83 111 144 185 228 280 329
#
# _framework density 17.926106000000001
#
# number of rings (size 3 to 8) (size 9 to 14) (size 15 to 20)
#    0.000    2.286    1.429    1.714    0.000    2.857 
#    0.000    1.429    0.000    0.000    0.000    0.000 
#    0.000    0.000    0.000    0.000    0.000    0.000 
#
# Total GULP energy -156033.964417 kJ/mol
# GULP energy per Si atom -5572.641586 kJ/mol
# Density = 1.788531 g / cm^3
# Si number density = 17.926106 Si / 1000 Ang^3
#
#
#
# Elastic Constant Matrix: (Units=GPa)
#
#
# Indices 1 2 3 4 5 6 
#
# 1 42.7902 31.9762 35.1107 0.0000 9.6203 0.0000
# 2 31.9762 128.6174 70.3159 0.0000 18.3097 0.0000
# 3 35.1107 70.3159 114.7051 0.0000 27.3193 0.0000
# 4 0.0000 0.0000 0.0000 6.6412 0.0000 -6.1972
# 5 9.6203 18.3097 27.3193 0.0000 26.3420 0.0000
# 6 0.0000 0.0000 0.0000 -6.1972 0.0000 12.4757
#
#
#
# Elastic Compliance Matrix: (Units=1/GPa)
#
#
# Indices 1 2 3 4 5 6 
#
# 1 0.032565 -0.003949 -0.007130 0.000000 -0.001754 0.000000
# 2 -0.003949 0.012190 -0.006095 0.000000 -0.000710 0.000000
# 3 -0.007130 -0.006095 0.017274 0.000000 -0.011075 0.000000
# 4 0.000000 0.000000 0.000000 0.280686 0.000000 0.139429
# 5 -0.001754 -0.000710 -0.011075 0.000000 0.050582 0.000000
# 6 0.000000 0.000000 0.000000 0.139429 0.000000 0.149417
#
#
# Mechanical properties :
#
#
# Convention : Reuss Voigt Hill
#
# Bulk Modulus (GPa) = 36.12321 62.32425 49.22373
# Shear Modulus (GPa) = 8.52824 19.00576 13.76700
#
# Velocity S-wave (km/s) = 2.18352 3.25965 2.77426
# Velocity P-wave (km/s) = 5.15286 7.00070 6.14662
#
# Compressibility (1/GPa) = 0.02768303
#
# Stress axis : x y z
#
# Youngs Moduli (GPa) = 30.70777 82.03577 57.88946
#
# Poissons Ratio (x) = 0.32393 0.41273
# Poissons Ratio (y) = 0.12125 0.35283
# Poissons Ratio (z) = 0.21894 0.49999
#
# Static dielectric constant tensor:
#      x y z
#    x 1.609410 0.000000 0.021670 
#    y 0.000000 1.585340 0.000000 
#    z 0.021670 0.000000 1.652820 
# 
# From -- ./inp_files/91458.got.cif
#   From: 2010.05.17/outbox.cif.g08.bks.cpg/sg13_46_cif.got.tgz:91458.got - 2010.06.03 16:44:36.
