data_PCOD9227864
_publ_section_title
;
Structure prediction by ZEFSAII (Michael W. Deem and Ramdas Pophale) SiO2 
 PCOD9227864
Probable space group: P 2/C
;
_chemical_formula_sum "Si O2"
_cell_formula_units_Z 26
_cell_length_a 11.883492
_cell_length_b 19.687819
_cell_length_c 5.068583
_cell_angle_alpha 90.000000
_cell_angle_beta 103.064979
_cell_angle_gamma 90.000000
_cell_volume 1155.149454
_symmetry_space_group_name_H-M "P 2/C"
_symmetry_group_IT_number 13
_symmetry_cell_setting 'monoclinic'
loop_
_space_group_symop_operation_xyz
x,y,z
-x,y,1/2-z
-x,-y,-z
x,-y,1/2+z
loop_
_atom_site_type_symbol
_atom_site_label
_atom_site_fract_x
_atom_site_fract_y
_atom_site_fract_z
Si Si1 0.500000 0.580717 0.250000
Si Si2 0.631862 0.303137 0.020834
Si Si3 0.661673 0.841004 0.604812
Si Si4 0.500000 0.950202 0.250000
Si Si5 0.783528 0.312813 0.596760
Si Si6 0.000000 0.049753 0.750000
Si Si7 0.758708 0.459332 0.768185
Si Si8 0.809630 0.834692 0.190737
O O1 0.450796 0.632897 0.006176
O O2 0.616221 0.454299 0.700457
O O3 0.587775 0.228223 0.059707
O O4 0.678118 0.299387 0.745976
O O5 0.736079 0.316859 0.276137
O O6 0.598153 0.899649 0.411907
O O7 0.773299 0.830289 0.477621
O O8 0.704664 0.849324 0.927357
O O9 0.500000 0.000000 0.500000
O O10 0.816274 0.388185 0.710650
O O11 0.853746 0.242018 0.648125
O O12 0.893154 0.101808 0.697194
O O13 0.000000 0.000000 0.500000
O O14 0.790566 0.516694 0.575400
#
# Coordination Sequence:
#
# PCOD9227864 Si02
#       8
#     2   4   4   2   4   2   4   4
#     4  10  19  30  44  68 105 146 188 242 294 332
#     4   9  18  31  50  68  92 135 190 231 267 321
#     4  10  21  39  58  80 111 153 197 242 278 326
#     4  12  25  36  52  80 111 150 198 232 274 334
#     4   9  19  35  51  72  99 141 186 220 268 334
#     4  12  26  42  66 102 126 144 180 232 308 386
#     4  11  21  31  45  71 107 147 190 240 290 336
#     4  10  22  41  64  85 116 153 189 234 293 357
#
# _framework density 22.507909999999999
#
# number of rings (size 3 to 8) (size 9 to 14) (size 15 to 20)
#    0.000    1.846    0.000    4.615    0.000    8.615 
#    0.000    7.692    0.000    0.000    0.000    1.077 
#    0.000    0.000    0.000    0.923    0.000    0.000 
#
# Total GULP energy -144862.121665 kJ/mol
# GULP energy per Si atom -5571.620064 kJ/mol
# Density = 2.245668 g / cm^3
# Si number density = 22.507910 Si / 1000 Ang^3
#
#
#
# Elastic Constant Matrix: (Units=GPa)
#
#
# Indices 1 2 3 4 5 6 
#
# 1 16.2921 22.7222 19.8436 0.0000 -8.6483 0.0000
# 2 22.7222 167.4455 40.1368 0.0000 -6.4554 0.0000
# 3 19.8436 40.1368 101.5615 0.0000 -25.7033 0.0000
# 4 0.0000 0.0000 0.0000 42.4807 0.0000 -5.5518
# 5 -8.6483 -6.4554 -25.7033 0.0000 21.8272 0.0000
# 6 0.0000 0.0000 0.0000 -5.5518 0.0000 52.6009
#
#
#
# Elastic Compliance Matrix: (Units=1/GPa)
#
#
# Indices 1 2 3 4 5 6 
#
# 1 0.100916 -0.010552 -0.008858 0.000000 0.026433 0.000000
# 2 -0.010552 0.007740 -0.002102 0.000000 -0.004368 0.000000
# 3 -0.008858 -0.002102 0.016186 0.000000 0.014929 0.000000
# 4 0.000000 0.000000 0.000000 0.023869 0.000000 0.002519
# 5 0.026433 -0.004368 0.014929 0.000000 0.072576 0.000000
# 6 0.000000 0.000000 0.000000 0.002519 0.000000 0.019277
#
#
# Mechanical properties :
#
#
# Convention : Reuss Voigt Hill
#
# Bulk Modulus (GPa) = 12.22226 50.07827 31.15027
# Shear Modulus (GPa) = 16.08438 36.88818 26.48628
#
# Velocity S-wave (km/s) = 2.67612 4.05272 3.43411
# Velocity P-wave (km/s) = 3.87180 6.64808 5.44002
#
# Compressibility (1/GPa) = 0.08181790
#
# Stress axis : x y z
#
# Youngs Moduli (GPa) = 9.90922 129.20673 61.78189
#
# Poissons Ratio (x) = 1.36339 0.54724
# Poissons Ratio (y) = 0.10456 0.12988
# Poissons Ratio (z) = 0.08777 0.27163
#
# Static dielectric constant tensor:
#      x y z
#    x 1.894050 0.000000 0.014540 
#    y 0.000000 1.936200 0.000000 
#    z 0.014540 0.000000 1.793670 
# 
# From -- ./inp_files/5294.got.cif
#   From: 2010.05.17/outbox.cif.g08.bks.cpg/sg13_3_cif.got.tgz:5294.got - 2010.06.03 16:44:36.
