data_PCOD9227055
_publ_section_title
;
Structure prediction by ZEFSAII (Michael W. Deem and Ramdas Pophale) SiO2 
 PCOD9227055
Probable space group: P 2/C
;
_chemical_formula_sum "Si O2"
_cell_formula_units_Z 26
_cell_length_a 7.782845
_cell_length_b 16.158071
_cell_length_c 16.294407
_cell_angle_alpha 90.000000
_cell_angle_beta 36.973666
_cell_angle_gamma 90.000000
_cell_volume 1232.436246
_symmetry_space_group_name_H-M "P 2/C"
_symmetry_group_IT_number 13
_symmetry_cell_setting 'monoclinic'
loop_
_space_group_symop_operation_xyz
x,y,z
-x,y,1/2-z
-x,-y,-z
x,-y,1/2+z
loop_
_atom_site_type_symbol
_atom_site_label
_atom_site_fract_x
_atom_site_fract_y
_atom_site_fract_z
Si Si1 0.833736 0.405133 0.643004
Si Si2 0.166895 0.244792 0.528460
Si Si3 0.147662 0.072875 0.604408
Si Si4 0.500000 0.694554 0.750000
Si Si5 0.972303 0.419646 0.115791
Si Si6 0.799968 0.104085 0.406305
Si Si7 0.263245 0.720443 0.585790
O O1 0.500000 0.409991 0.750000
O O2 0.993732 0.415707 0.495077
O O3 0.932665 0.315485 0.635185
O O4 0.928087 0.485837 0.658741
O O5 0.054842 0.152673 0.588436
O O6 0.297393 0.252952 0.386976
O O7 0.435367 0.265175 0.485525
O O8 0.483456 0.086561 0.492993
O O9 0.000000 0.074711 0.750000
O O10 0.108457 0.980314 0.583063
O O11 0.686835 0.634581 0.737080
O O12 0.233610 0.367174 0.052138
O O13 0.792836 0.196210 0.446957
O O14 0.000000 0.109933 0.250000
O O15 0.000000 0.718653 0.750000
#
# Coordination Sequence:
#
# PCOD9227055 Si02
#       7
#     4   4   4   2   4   4   4
#     4  10  22  38  54  76 111 160 186 210 285 360
#     4  10  21  34  58  87 114 149 191 235 285 334
#     4   9  17  32  53  83 118 147 180 233 288 344
#     4  10  18  36  56  78 108 156 194 222 270 352
#     4  10  20  35  58  76 107 146 189 231 274 336
#     4   8  16  30  52  84 114 148 181 225 291 341
#     4  10  18  32  57  91 110 131 189 250 276 309
#
# _framework density 21.096425
#
# number of rings (size 3 to 8) (size 9 to 14) (size 15 to 20)
#    0.000    2.462    2.308    0.000    0.000    3.077 
#    0.000    0.769    0.000    3.692    4.000    0.000 
#    0.000    0.000    0.000    0.000    0.000    0.000 
#
# Total GULP energy -144778.672650 kJ/mol
# GULP energy per Si atom -5568.410487 kJ/mol
# Density = 2.104841 g / cm^3
# Si number density = 21.096425 Si / 1000 Ang^3
#
#
#
# Elastic Constant Matrix: (Units=GPa)
#
#
# Indices 1 2 3 4 5 6 
#
# 1 30.0124 41.0197 -5.6222 0.0000 -10.4290 0.0000
# 2 41.0197 208.4410 8.0243 0.0000 -2.4092 0.0000
# 3 -5.6222 8.0243 57.4161 0.0000 -9.7461 0.0000
# 4 0.0000 0.0000 0.0000 34.0495 0.0000 -4.1403
# 5 -10.4290 -2.4092 -9.7461 0.0000 19.2921 0.0000
# 6 0.0000 0.0000 0.0000 -4.1403 0.0000 20.1715
#
#
#
# Elastic Compliance Matrix: (Units=1/GPa)
#
#
# Indices 1 2 3 4 5 6 
#
# 1 0.071669 -0.014222 0.016714 0.000000 0.045410 0.000000
# 2 -0.014222 0.007647 -0.003942 0.000000 -0.008725 0.000000
# 3 0.016714 -0.003942 0.023029 0.000000 0.020177 0.000000
# 4 0.000000 0.000000 0.000000 0.030121 0.000000 0.006182
# 5 0.045410 -0.008725 0.020177 0.000000 0.085486 0.000000
# 6 0.000000 0.000000 0.000000 0.006182 0.000000 0.050844
#
#
# Mechanical properties :
#
#
# Convention : Reuss Voigt Hill
#
# Bulk Modulus (GPa) = 10.05601 42.52368 26.28984
# Shear Modulus (GPa) = 16.40171 31.53248 23.96709
#
# Velocity S-wave (km/s) = 2.79133 3.87031 3.37423
# Velocity P-wave (km/s) = 3.89432 6.33821 5.26017
#
# Compressibility (1/GPa) = 0.09944304
#
# Stress axis : x y z
#
# Youngs Moduli (GPa) = 13.95305 130.76449 43.42303
#
# Poissons Ratio (x) = 1.85980 -0.72576
# Poissons Ratio (y) = 0.19845 0.17120
# Poissons Ratio (z) = -0.23321 0.51554
#
# Static dielectric constant tensor:
#      x y z
#    x 1.793040 0.000000 0.001950 
#    y 0.000000 1.885840 0.000000 
#    z 0.001950 0.000000 1.756140 
# 
# From -- ./inp_files/76589.got.cif
#   From: 2010.05.17/outbox.cif.g08.bks.cpg/sg13_39_cif.got.tgz:76589.got - 2010.06.03 16:44:36.
