data_PCOD9227157
_publ_section_title
;
Structure prediction by ZEFSAII (Michael W. Deem and Ramdas Pophale) SiO2 
 PCOD9227157
Probable space group: P 2/C
;
_chemical_formula_sum "Si O2"
_cell_formula_units_Z 24
_cell_length_a 8.126808
_cell_length_b 9.128319
_cell_length_c 16.353615
_cell_angle_alpha 90.000000
_cell_angle_beta 85.291410
_cell_angle_gamma 90.000000
_cell_volume 1209.083777
_symmetry_space_group_name_H-M "P 2/C"
_symmetry_group_IT_number 13
_symmetry_cell_setting 'monoclinic'
loop_
_space_group_symop_operation_xyz
x,y,z
-x,y,1/2-z
-x,-y,-z
x,-y,1/2+z
loop_
_atom_site_type_symbol
_atom_site_label
_atom_site_fract_x
_atom_site_fract_y
_atom_site_fract_z
Si Si1 0.844131 0.591976 0.038153
Si Si2 0.348286 0.807751 0.013025
Si Si3 0.263433 0.868052 0.531737
Si Si4 0.335991 0.610906 0.854843
Si Si5 0.825245 0.712677 0.795598
Si Si6 0.679181 0.525715 0.392056
O O1 0.790115 0.524772 0.126334
O O2 0.849747 0.765448 0.022452
O O3 0.696673 0.546840 0.981213
O O4 0.000000 0.500000 0.000000
O O5 0.544671 0.839156 0.999804
O O6 0.306629 0.722748 0.930988
O O7 0.317161 0.696805 0.089649
O O8 0.247958 0.957961 0.024363
O O9 0.228841 0.814599 0.626291
O O10 0.300897 0.699506 0.774355
O O11 0.514061 0.535818 0.857450
O O12 0.825257 0.549179 0.834968
O O13 0.000000 0.753194 0.750000
#
# Coordination Sequence:
#
# PCOD9227157 Si02
#       6
#     4   4   4   4   4   4
#     4  10  18  33  56  84 115 147 191 239 289 358
#     4  10  19  36  62  87 113 150 204 259 297 356
#     4  10  20  37  58  87 121 152 195 253 310 364
#     4  11  18  35  60  86 109 153 208 247 296 363
#     4  11  23  37  56  85 121 157 196 250 314 367
#     4  10  19  36  57  84 109 150 200 242 289 353
#
# _framework density 19.849740000000001
#
# number of rings (size 3 to 8) (size 9 to 14) (size 15 to 20)
#    0.000    1.667    5.000    3.500    0.000    0.000 
#    0.000   10.000    3.667    0.000    0.000    0.000 
#    0.000    0.000    0.000    0.000    0.000    0.000 
#
# Total GULP energy -133718.350523 kJ/mol
# GULP energy per Si atom -5571.597938 kJ/mol
# Density = 1.980456 g / cm^3
# Si number density = 19.849740 Si / 1000 Ang^3
#
#
#
# Elastic Constant Matrix: (Units=GPa)
#
#
# Indices 1 2 3 4 5 6 
#
# 1 56.9145 24.8402 2.8979 0.0000 -2.4820 0.0000
# 2 24.8402 164.5343 31.6062 0.0000 -3.5900 0.0000
# 3 2.8979 31.6062 60.8796 0.0000 1.1643 0.0000
# 4 0.0000 0.0000 0.0000 20.1508 0.0000 -2.3285
# 5 -2.4820 -3.5900 1.1643 0.0000 26.1352 0.0000
# 6 0.0000 0.0000 0.0000 -2.3285 0.0000 24.8367
#
#
#
# Elastic Compliance Matrix: (Units=1/GPa)
#
#
# Indices 1 2 3 4 5 6 
#
# 1 0.018880 -0.002936 0.000599 0.000000 0.001363 0.000000
# 2 -0.002936 0.007238 -0.003635 0.000000 0.000877 0.000000
# 3 0.000599 -0.003635 0.018308 0.000000 -0.001258 0.000000
# 4 0.000000 0.000000 0.000000 0.050169 0.000000 0.004704
# 5 0.001363 0.000877 -0.001258 0.000000 0.038569 0.000000
# 6 0.000000 0.000000 0.000000 0.004704 0.000000 0.040704
#
#
# Mechanical properties :
#
#
# Convention : Reuss Voigt Hill
#
# Bulk Modulus (GPa) = 30.78380 44.55745 37.67062
# Shear Modulus (GPa) = 25.42715 29.09014 27.25865
#
# Velocity S-wave (km/s) = 3.58296 3.83236 3.70976
# Velocity P-wave (km/s) = 5.71480 6.48681 6.11301
#
# Compressibility (1/GPa) = 0.03248462
#
# Stress axis : x y z
#
# Youngs Moduli (GPa) = 52.96480 138.15245 54.61948
#
# Poissons Ratio (x) = 0.40559 -0.03274
# Poissons Ratio (y) = 0.15550 0.19854
# Poissons Ratio (z) = -0.03175 0.50217
#
# Static dielectric constant tensor:
#      x y z
#    x 1.794310 0.000000 -0.002600 
#    y 0.000000 1.757980 0.000000 
#    z -0.002600 0.000000 1.745860 
# 
# From -- ./inp_files/63381.got.cif
#   From: 2010.05.17/outbox.cif.g08.bks.cpg/sg13_32_cif.got.tgz:63381.got - 2010.06.03 16:44:36.
