data_PCOD9227124
_publ_section_title
;
Structure prediction by ZEFSAII (Michael W. Deem and Ramdas Pophale) SiO2 
 PCOD9227124
Probable space group: P 2/C
;
_chemical_formula_sum "Si O2"
_cell_formula_units_Z 30
_cell_length_a 6.496246
_cell_length_b 9.348678
_cell_length_c 26.393488
_cell_angle_alpha 90.000000
_cell_angle_beta 127.312018
_cell_angle_gamma 90.000000
_cell_volume 1274.869546
_symmetry_space_group_name_H-M "P 2/C"
_symmetry_group_IT_number 13
_symmetry_cell_setting 'monoclinic'
loop_
_space_group_symop_operation_xyz
x,y,z
-x,y,1/2-z
-x,-y,-z
x,-y,1/2+z
loop_
_atom_site_type_symbol
_atom_site_label
_atom_site_fract_x
_atom_site_fract_y
_atom_site_fract_z
Si Si1 0.550794 0.035665 0.356409
Si Si2 0.404818 0.709896 0.487884
Si Si3 0.233828 0.842613 0.183441
Si Si4 0.293378 0.996086 0.417784
Si Si5 0.000000 0.859973 0.750000
Si Si6 0.936304 0.241156 0.355039
Si Si7 0.689824 0.514291 0.451014
Si Si8 0.862220 0.434071 0.872772
O O1 0.699787 0.891789 0.363818
O O2 0.519204 0.030928 0.411758
O O3 0.257614 0.048061 0.294055
O O4 0.696873 0.162263 0.347762
O O5 0.368078 0.877217 0.470042
O O6 0.594497 0.636565 0.475090
O O7 0.437797 0.633464 0.547779
O O8 0.123890 0.642292 0.430904
O O9 0.500000 0.891946 0.250000
O O10 0.219307 0.672811 0.184044
O O11 0.956367 0.919873 0.149264
O O12 0.171989 0.149432 0.414307
O O13 0.960588 0.777162 0.797710
O O14 0.926167 0.406442 0.365833
O O15 0.651344 0.552862 0.386481
O O16 0.000000 0.500000 0.500000
#
# Coordination Sequence:
#
# PCOD9227124 Si02
#       8
#     4   4   4   4   2   4   4   4
#     4  10  18  33  54  73 101 141 184 223 258 307
#     4   9  18  36  59  82 105 136 178 221 267 319
#     4  10  19  32  51  77 107 138 180 226 261 303
#     4   9  19  34  54  78 105 140 181 220 261 312
#     4  10  20  34  52  70 100 148 188 216 256 310
#     4  10  21  35  52  75 107 143 180 216 263 317
#     4   9  18  34  59  82 106 137 173 219 272 322
#     4  10  21  35  53  81 111 141 176 218 269 317
#
# _framework density 23.531817
#
# number of rings (size 3 to 8) (size 9 to 14) (size 15 to 20)
#    0.000    2.400    0.000    3.600    0.000    4.267 
#    0.000    3.333    0.000    8.800    0.000    0.000 
#    0.000    0.000    0.000    0.000    0.000    0.000 
#
# Total GULP energy -167260.434811 kJ/mol
# GULP energy per Si atom -5575.347827 kJ/mol
# Density = 2.347826 g / cm^3
# Si number density = 23.531817 Si / 1000 Ang^3
#
#
#
# Elastic Constant Matrix: (Units=GPa)
#
#
# Indices 1 2 3 4 5 6 
#
# 1 143.5637 47.9533 19.1099 0.0000 -25.4613 0.0000
# 2 47.9533 193.0702 3.8703 0.0000 -23.5732 0.0000
# 3 19.1099 3.8703 49.8295 0.0000 -16.1618 0.0000
# 4 0.0000 0.0000 0.0000 18.3142 0.0000 -3.6179
# 5 -25.4613 -23.5732 -16.1618 0.0000 34.0945 0.0000
# 6 0.0000 0.0000 0.0000 -3.6179 0.0000 15.9269
#
#
#
# Elastic Compliance Matrix: (Units=1/GPa)
#
#
# Indices 1 2 3 4 5 6 
#
# 1 0.008496 -0.001528 -0.001683 0.000000 0.004490 0.000000
# 2 -0.001528 0.005973 0.001290 0.000000 0.003600 0.000000
# 3 -0.001683 0.001290 0.024219 0.000000 0.011115 0.000000
# 4 0.000000 0.000000 0.000000 0.057168 0.000000 0.012986
# 5 0.004490 0.003600 0.011115 0.000000 0.040441 0.000000
# 6 0.000000 0.000000 0.000000 0.012986 0.000000 0.065737
#
#
# Mechanical properties :
#
#
# Convention : Reuss Voigt Hill
#
# Bulk Modulus (GPa) = 28.69900 58.70336 43.70118
# Shear Modulus (GPa) = 22.98928 34.70244 28.84586
#
# Velocity S-wave (km/s) = 3.12900 3.84435 3.50497
# Velocity P-wave (km/s) = 5.02757 6.68625 5.91534
#
# Compressibility (1/GPa) = 0.03484442
#
# Stress axis : x y z
#
# Youngs Moduli (GPa) = 117.69570 167.42858 41.28997
#
# Poissons Ratio (x) = 0.25588 0.06950
# Poissons Ratio (y) = 0.17987 -0.05325
# Poissons Ratio (z) = 0.19812 -0.21594
#
# Static dielectric constant tensor:
#      x y z
#    x 1.885240 0.000000 0.031340 
#    y 0.000000 1.938060 0.000000 
#    z 0.031340 0.000000 2.092790 
# 
# From -- ./inp_files/94882.got.cif
#   From: 2010.05.17/outbox.cif.g08.bks.cpg/sg13_48_cif.got.tgz:94882.got - 2010.06.03 16:44:36.
