data_PCOD9227729
_publ_section_title
;
Structure prediction by ZEFSAII (Michael W. Deem and Ramdas Pophale) SiO2 
 PCOD9227729
Probable space group: P 2/C
;
_chemical_formula_sum "Si O2"
_cell_formula_units_Z 22
_cell_length_a 9.567716
_cell_length_b 7.905134
_cell_length_c 13.562026
_cell_angle_alpha 90.000000
_cell_angle_beta 106.513743
_cell_angle_gamma 90.000000
_cell_volume 983.440702
_symmetry_space_group_name_H-M "P 2/C"
_symmetry_group_IT_number 13
_symmetry_cell_setting 'monoclinic'
loop_
_space_group_symop_operation_xyz
x,y,z
-x,y,1/2-z
-x,-y,-z
x,-y,1/2+z
loop_
_atom_site_type_symbol
_atom_site_label
_atom_site_fract_x
_atom_site_fract_y
_atom_site_fract_z
Si Si1 0.000000 0.562374 0.750000
Si Si2 0.289102 0.719268 0.730405
Si Si3 0.573123 0.244032 0.029605
Si Si4 0.751249 0.552707 0.417117
Si Si5 0.040610 0.304027 0.929730
Si Si6 0.287286 0.904898 0.527083
O O1 0.126359 0.682233 0.735980
O O2 0.060553 0.430103 0.842212
O O3 0.380792 0.757674 0.846409
O O4 0.330316 0.537784 0.689147
O O5 0.294598 0.861078 0.645487
O O6 0.644925 0.082951 0.989221
O O7 0.643604 0.395659 0.982031
O O8 0.399288 0.225287 0.995706
O O9 0.867034 0.406082 0.469773
O O10 0.867207 0.700862 0.413526
O O11 0.126775 0.127928 0.949460
#
# Coordination Sequence:
#
# PCOD9227729 Si02
#       6
#     2   4   4   4   4   4
#     4  10  18  38  66  90 124 156 200 272 306 340
#     4  10  21  40  64  90 120 163 206 253 306 362
#     4  11  22  43  62  87 133 167 195 256 306 361
#     4   9  19  37  66  88 120 154 207 256 299 358
#     4   9  18  37  60  91 120 154 204 256 297 361
#     4  10  24  40  61  90 131 164 202 247 309 368
#
# _framework density 22.370438
#
# number of rings (size 3 to 8) (size 9 to 14) (size 15 to 20)
#    0.000    2.182    1.818    1.636    0.000    3.636 
#    9.818    0.000    0.000    0.000    0.000    0.000 
#    0.000    0.000    0.000    0.000    0.000    0.000 
#
# Total GULP energy -122632.697992 kJ/mol
# GULP energy per Si atom -5574.213545 kJ/mol
# Density = 2.231952 g / cm^3
# Si number density = 22.370438 Si / 1000 Ang^3
#
#
#
# Elastic Constant Matrix: (Units=GPa)
#
#
# Indices 1 2 3 4 5 6 
#
# 1 82.2495 17.2397 40.5135 0.0000 -9.0257 0.0000
# 2 17.2397 41.5196 12.2028 0.0000 -8.2389 0.0000
# 3 40.5135 12.2028 98.8982 0.0000 -13.4033 0.0000
# 4 0.0000 0.0000 0.0000 31.5126 0.0000 -14.3214
# 5 -9.0257 -8.2389 -13.4033 0.0000 23.7862 0.0000
# 6 0.0000 0.0000 0.0000 -14.3214 0.0000 37.1777
#
#
#
# Elastic Compliance Matrix: (Units=1/GPa)
#
#
# Indices 1 2 3 4 5 6 
#
# 1 0.016182 -0.004756 -0.005882 0.000000 0.001178 0.000000
# 2 -0.004756 0.027686 -0.000447 0.000000 0.007533 0.000000
# 3 -0.005882 -0.000447 0.013266 0.000000 0.005088 0.000000
# 4 0.000000 0.000000 0.000000 0.038468 0.000000 0.014818
# 5 0.001178 0.007533 0.005088 0.000000 0.047965 0.000000
# 6 0.000000 0.000000 0.000000 0.014818 0.000000 0.032606
#
#
# Mechanical properties :
#
#
# Convention : Reuss Voigt Hill
#
# Bulk Modulus (GPa) = 28.60181 40.28658 34.44420
# Shear Modulus (GPa) = 23.80983 28.67605 26.24294
#
# Velocity S-wave (km/s) = 3.26597 3.58421 3.42878
# Velocity P-wave (km/s) = 5.19955 5.93099 5.57728
#
# Compressibility (1/GPa) = 0.03496283
#
# Stress axis : x y z
#
# Youngs Moduli (GPa) = 61.79787 36.11929 75.38170
#
# Poissons Ratio (x) = 0.17180 0.44342
# Poissons Ratio (y) = 0.29393 0.03368
# Poissons Ratio (z) = 0.36351 0.01614
#
# Static dielectric constant tensor:
#      x y z
#    x 1.914040 0.000000 0.031540 
#    y 0.000000 1.932750 0.000000 
#    z 0.031540 0.000000 1.921410 
# 
# From -- ./inp_files/46109.got.cif
#   From: 2010.05.17/outbox.cif.g08.bks.cpg/sg13_24_cif.got.tgz:46109.got - 2010.06.03 16:44:36.
