data_PCOD9227043
_publ_section_title
;
Structure prediction by ZEFSAII (Michael W. Deem and Ramdas Pophale) SiO2 
 PCOD9227043
Probable space group: P 2/C
;
_chemical_formula_sum "Si O2"
_cell_formula_units_Z 26
_cell_length_a 11.953072
_cell_length_b 8.858519
_cell_length_c 13.613060
_cell_angle_alpha 90.000000
_cell_angle_beta 131.479553
_cell_angle_gamma 90.000000
_cell_volume 1079.915135
_symmetry_space_group_name_H-M "P 2/C"
_symmetry_group_IT_number 13
_symmetry_cell_setting 'monoclinic'
loop_
_space_group_symop_operation_xyz
x,y,z
-x,y,1/2-z
-x,-y,-z
x,-y,1/2+z
loop_
_atom_site_type_symbol
_atom_site_label
_atom_site_fract_x
_atom_site_fract_y
_atom_site_fract_z
Si Si1 0.541458 0.520283 0.138026
Si Si2 0.154891 0.746387 0.500693
Si Si3 0.294855 0.777940 0.775115
Si Si4 0.756678 0.589199 0.411699
Si Si5 0.000000 0.909368 0.250000
Si Si6 0.215857 0.177013 0.429324
Si Si7 0.433524 0.067008 0.103132
O O1 0.603068 0.356903 0.207098
O O2 0.683795 0.616620 0.261543
O O3 0.391658 0.568347 0.106426
O O4 0.500000 0.500000 0.000000
O O5 0.180765 0.821495 0.623118
O O6 0.154397 0.567589 0.521839
O O7 0.302159 0.805006 0.525176
O O8 0.016830 0.805375 0.356169
O O9 0.224506 0.723549 0.835983
O O10 0.418895 0.901827 0.874579
O O11 0.842781 0.727487 0.512849
O O12 0.869099 0.030716 0.160717
O O13 0.367497 0.099080 0.553393
O O14 0.500000 0.076726 0.250000
#
# Coordination Sequence:
#
# PCOD9227043 Si02
#       7
#     4   4   4   4   2   4   4
#     4  10  18  32  56  90 125 140 174 227 293 352
#     4   9  19  38  58  74 109 155 190 224 275 340
#     4  10  18  33  58  85 114 144 184 230 284 351
#     4  10  20  33  58  86 113 151 183 230 283 340
#     4  10  24  42  56  72 108 160 198 236 274 330
#     4  11  22  34  56  84 115 145 191 238 284 324
#     4   9  18  32  52  83 116 147 176 223 289 344
#
# _framework density 24.075966000000001
#
# number of rings (size 3 to 8) (size 9 to 14) (size 15 to 20)
#    0.000    2.154    3.077    0.462    2.154    1.231 
#    0.000    0.000    3.385    2.769    0.000    0.000 
#    0.000    0.000    0.000    0.000    0.000    0.000 
#
# Total GULP energy -144752.109582 kJ/mol
# GULP energy per Si atom -5567.388830 kJ/mol
# Density = 2.402117 g / cm^3
# Si number density = 24.075966 Si / 1000 Ang^3
#
#
#
# Elastic Constant Matrix: (Units=GPa)
#
#
# Indices 1 2 3 4 5 6 
#
# 1 20.1323 2.4383 16.2765 0.0000 -8.5283 0.0000
# 2 2.4383 67.7783 47.7829 0.0000 2.3382 0.0000
# 3 16.2765 47.7829 160.9466 0.0000 -21.8427 0.0000
# 4 0.0000 0.0000 0.0000 38.4258 0.0000 3.8801
# 5 -8.5283 2.3382 -21.8427 0.0000 25.7006 0.0000
# 6 0.0000 0.0000 0.0000 3.8801 0.0000 11.7934
#
#
#
# Elastic Compliance Matrix: (Units=1/GPa)
#
#
# Indices 1 2 3 4 5 6 
#
# 1 0.059774 -0.000069 -0.003766 0.000000 0.016641 0.000000
# 2 -0.000069 0.019933 -0.006963 0.000000 -0.007754 0.000000
# 3 -0.003766 -0.006963 0.009696 0.000000 0.007624 0.000000
# 4 0.000000 0.000000 0.000000 0.026918 0.000000 -0.008856
# 5 0.016641 -0.007754 0.007624 0.000000 0.051617 0.000000
# 6 0.000000 0.000000 0.000000 -0.008856 0.000000 0.087707
#
#
# Mechanical properties :
#
#
# Convention : Reuss Voigt Hill
#
# Bulk Modulus (GPa) = 14.74805 42.42809 28.58807
# Shear Modulus (GPa) = 16.67532 27.34125 22.00829
#
# Velocity S-wave (km/s) = 2.63461 3.37356 3.02672
# Velocity P-wave (km/s) = 3.92350 5.73022 4.91066
#
# Compressibility (1/GPa) = 0.06780556
#
# Stress axis : x y z
#
# Youngs Moduli (GPa) = 16.72976 50.16819 103.13405
#
# Poissons Ratio (x) = 0.00349 0.38840
# Poissons Ratio (y) = 0.00116 0.71814
# Poissons Ratio (z) = 0.06300 0.34933
#
# Static dielectric constant tensor:
#      x y z
#    x 2.114710 0.000000 0.037130 
#    y 0.000000 2.052760 0.000000 
#    z 0.037130 0.000000 2.055190 
# 
# From -- ./inp_files/53396.got.cif
#   From: 2010.05.17/outbox.cif.g08.bks.cpg/sg13_27_cif.got.tgz:53396.got - 2010.06.03 16:44:36.
