data_PCOD9227950
_publ_section_title
;
Structure prediction by ZEFSAII (Michael W. Deem and Ramdas Pophale) SiO2 
 PCOD9227950
Probable space group: P 2/C
;
_chemical_formula_sum "Si O2"
_cell_formula_units_Z 32
_cell_length_a 5.596894
_cell_length_b 14.509139
_cell_length_c 20.582723
_cell_angle_alpha 90.000000
_cell_angle_beta 57.054313
_cell_angle_gamma 90.000000
_cell_volume 1402.652303
_symmetry_space_group_name_H-M "P 2/C"
_symmetry_group_IT_number 13
_symmetry_cell_setting 'monoclinic'
loop_
_space_group_symop_operation_xyz
x,y,z
-x,y,1/2-z
-x,-y,-z
x,-y,1/2+z
loop_
_atom_site_type_symbol
_atom_site_label
_atom_site_fract_x
_atom_site_fract_y
_atom_site_fract_z
Si Si1 0.819537 0.762935 0.340230
Si Si2 0.186701 0.513579 0.906649
Si Si3 0.195586 0.734083 0.902206
Si Si4 0.183178 0.280231 0.158411
Si Si5 0.685974 0.513583 0.907013
Si Si6 0.818675 0.984694 0.090664
Si Si7 0.178199 0.011848 0.660902
Si Si8 0.170899 0.232928 0.914549
O O1 0.812096 0.875718 0.343950
O O2 0.491036 0.732041 0.381157
O O3 0.000000 0.737650 0.250000
O O4 0.984326 0.732041 0.381158
O O5 0.217412 0.622974 0.891294
O O6 0.498144 0.476109 0.875910
O O7 0.998216 0.476109 0.875910
O O8 0.000000 0.500000 0.000000
O O9 0.519172 0.766753 0.865375
O O10 0.019325 0.766753 0.865376
O O11 0.013312 0.753840 0.993344
O O12 0.275643 0.377609 0.112179
O O13 0.000000 0.297431 0.250000
O O14 0.500000 0.500000 0.000000
O O15 0.501585 0.020165 0.123501
O O16 0.788962 0.875306 0.105521
O O17 0.004418 0.020164 0.123500
O O18 0.000000 0.000000 0.000000
O O19 0.000000 0.984761 0.750000
#
# Coordination Sequence:
#
# PCOD9227950 Si02
#       8
#     4   4   4   4   4   4   4   4
#     4   9  17  30  49  74  98 122 154 194 236 283
#     4   8  14  25  42  65  86 110 144 184 222 264
#     4  10  19  31  48  71  95 123 160 202 239 284
#     4  10  19  31  48  70  95 127 167 210 244 278
#     4   8  14  25  42  65  89 111 145 194 241 281
#     4  10  19  31  49  71  97 126 157 198 241 285
#     4   9  17  30  49  71  95 122 158 198 235 280
#     4  10  19  31  49  73  97 125 159 196 240 287
#
# _framework density 22.813922000000002
#
# number of rings (size 3 to 8) (size 9 to 14) (size 15 to 20)
#    0.000    2.750    0.000    2.250    0.000    3.000 
#    0.000    0.000    0.000    4.500    0.000   84.000 
#    0.000    0.000    0.000    0.000    0.000    0.000 
#
# Total GULP energy -178518.363391 kJ/mol
# GULP energy per Si atom -5578.698856 kJ/mol
# Density = 2.276200 g / cm^3
# Si number density = 22.813922 Si / 1000 Ang^3
#
#
#
# Elastic Constant Matrix: (Units=GPa)
#
#
# Indices 1 2 3 4 5 6 
#
# 1 329.9413 11.8540 90.7741 0.0000 -6.6838 0.0000
# 2 11.8540 90.7070 -7.6097 0.0000 -0.8444 0.0000
# 3 90.7741 -7.6097 121.3643 0.0000 -2.3672 0.0000
# 4 0.0000 0.0000 0.0000 21.1193 0.0000 1.8074
# 5 -6.6838 -0.8444 -2.3672 0.0000 42.7553 0.0000
# 6 0.0000 0.0000 0.0000 1.8074 0.0000 -20.5266
#
#
#
# Elastic Compliance Matrix: (Units=1/GPa)
#
#
# Indices 1 2 3 4 5 6 
#
# 1 0.003874 -0.000749 -0.002936 0.000000 0.000428 0.000000
# 2 -0.000749 0.011230 0.001268 0.000000 0.000175 0.000000
# 3 -0.002936 0.001268 0.010518 0.000000 0.000148 0.000000
# 4 0.000000 0.000000 0.000000 0.046996 0.000000 0.004138
# 5 0.000428 0.000175 0.000148 0.000000 0.023468 0.000000
# 6 0.000000 0.000000 0.000000 0.004138 0.000000 -0.048353
#
#
# Mechanical properties :
#
#
# Convention : Reuss Voigt Hill
#
# Bulk Modulus (GPa) = 48.10495 81.33884 64.72189
# Shear Modulus (GPa) = 84.03711 38.46922 61.25316
#
# Velocity S-wave (km/s) = 6.07584 4.11081 5.18723
# Velocity P-wave (km/s) = 8.38765 7.63297 8.01919
#
# Compressibility (1/GPa) = 0.02078788
#
# Stress axis : x y z
#
# Youngs Moduli (GPa) = 258.11336 89.04472 95.07286
#
# Poissons Ratio (x) = 0.06666 0.27917
# Poissons Ratio (y) = 0.19324 -0.12051
# Poissons Ratio (z) = 0.75791 -0.11287
#
# Static dielectric constant tensor:
#      x y z
#    x 1.871220 0.000000 -0.006330 
#    y 0.000000 1.835990 0.000000 
#    z -0.006330 0.000000 1.725410 
# 
# From -- ./inp_files/61859.got.cif
#   From: 2010.05.17/outbox.cif.g08.bks.cpg/sg13_31_cif.got.tgz:61859.got - 2010.06.03 16:44:36.
