data_PCOD9227783
_publ_section_title
;
Structure prediction by ZEFSAII (Michael W. Deem and Ramdas Pophale) SiO2 
 PCOD9227783
Probable space group: P 2/C
;
_chemical_formula_sum "Si O2"
_cell_formula_units_Z 18
_cell_length_a 28.922204
_cell_length_b 5.227692
_cell_length_c 26.615969
_cell_angle_alpha 90.000000
_cell_angle_beta 170.830568
_cell_angle_gamma 90.000000
_cell_volume 641.280500
_symmetry_space_group_name_H-M "P 2/C"
_symmetry_group_IT_number 13
_symmetry_cell_setting 'monoclinic'
loop_
_space_group_symop_operation_xyz
x,y,z
-x,y,1/2-z
-x,-y,-z
x,-y,1/2+z
loop_
_atom_site_type_symbol
_atom_site_label
_atom_site_fract_x
_atom_site_fract_y
_atom_site_fract_z
Si Si1 0.920100 0.190430 0.370005
Si Si2 0.376810 0.485828 0.792220
Si Si3 0.500000 0.129681 0.250000
Si Si4 0.902054 0.882348 0.261157
Si Si5 0.804220 0.266293 0.000034
O O1 0.193483 0.298446 0.632240
O O2 0.751946 0.010007 0.148518
O O3 0.709711 0.421081 0.161825
O O4 0.000000 0.000000 0.500000
O O5 0.376066 0.437916 0.731100
O O6 0.179882 0.738217 0.582209
O O7 0.712150 0.276316 0.516651
O O8 0.348891 0.942333 0.128781
O O9 0.005778 0.109878 0.336289
O O10 0.000000 0.417858 0.250000
#
# Coordination Sequence:
#
# PCOD9227783 Si02
#       5
#     4   4   2   4   4
#     4  11  25  45  68  97 134 179 235 292 348 417
#     4  11  24  42  67  98 130 178 227 284 353 423
#     4  10  18  40  66  88 140 182 218 290 354 426
#     4  10  23  40  65  97 138 177 233 288 358 427
#     4   9  20  38  60  92 134 178 217 280 346 421
#
# _framework density 28.068839000000001
#
# number of rings (size 3 to 8) (size 9 to 14) (size 15 to 20)
#    0.000    1.778    2.222    0.667    3.111    4.444 
#    0.000    1.111    0.000    0.000    0.000    0.000 
#    0.000    0.000    0.000    0.000    0.000    0.000 
#
# Total GULP energy -100583.355978 kJ/mol
# GULP energy per Si atom -5587.964221 kJ/mol
# Density = 2.800495 g / cm^3
# Si number density = 28.068839 Si / 1000 Ang^3
#
#
#
# Elastic Constant Matrix: (Units=GPa)
#
#
# Indices 1 2 3 4 5 6 
#
# 1 193.7956 41.3313 45.4103 0.0000 -17.9812 0.0000
# 2 41.3313 69.6836 6.4391 0.0000 -2.3525 0.0000
# 3 45.4103 6.4391 98.6097 0.0000 0.7896 0.0000
# 4 0.0000 0.0000 0.0000 20.0015 0.0000 6.2248
# 5 -17.9812 -2.3525 0.7896 0.0000 50.0829 0.0000
# 6 0.0000 0.0000 0.0000 6.2248 0.0000 70.4485
#
#
#
# Elastic Compliance Matrix: (Units=1/GPa)
#
#
# Indices 1 2 3 4 5 6 
#
# 1 0.006857 -0.003717 -0.002934 0.000000 0.002333 0.000000
# 2 -0.003717 0.016477 0.000640 0.000000 -0.000571 0.000000
# 3 -0.002934 0.000640 0.011460 0.000000 -0.001204 0.000000
# 4 0.000000 0.000000 0.000000 0.051410 0.000000 -0.004543
# 5 0.002333 -0.000571 -0.001204 0.000000 0.020797 0.000000
# 6 0.000000 0.000000 0.000000 -0.004543 0.000000 0.014596
#
#
# Mechanical properties :
#
#
# Convention : Reuss Voigt Hill
#
# Bulk Modulus (GPa) = 43.91194 60.93893 52.42543
# Shear Modulus (GPa) = 35.40885 46.03377 40.72131
#
# Velocity S-wave (km/s) = 3.55561 4.05412 3.81302
# Velocity P-wave (km/s) = 5.70393 6.60850 6.17281
#
# Compressibility (1/GPa) = 0.02277285
#
# Stress axis : x y z
#
# Youngs Moduli (GPa) = 145.84253 60.69128 87.26218
#
# Poissons Ratio (x) = 0.22559 0.25599
# Poissons Ratio (y) = 0.54211 -0.05588
# Poissons Ratio (z) = 0.42783 -0.03886
#
# Static dielectric constant tensor:
#      x y z
#    x 2.033500 0.000000 -0.102020 
#    y 0.000000 2.236470 0.000000 
#    z -0.102020 0.000000 2.813950 
# 
# From -- ./inp_files/82969.got.cif
#   From: 2010.05.17/outbox.cif.g08.bks.cpg/sg13_42_cif.got.tgz:82969.got - 2010.06.03 16:44:36.
