data_PCOD9227909
_publ_section_title
;
Structure prediction by ZEFSAII (Michael W. Deem and Ramdas Pophale) SiO2 
 PCOD9227909
Probable space group: P 2/C
;
_chemical_formula_sum "Si O2"
_cell_formula_units_Z 24
_cell_length_a 14.480699
_cell_length_b 5.068281
_cell_length_c 18.172289
_cell_angle_alpha 90.000000
_cell_angle_beta 137.340834
_cell_angle_gamma 90.000000
_cell_volume 903.766305
_symmetry_space_group_name_H-M "P 2/C"
_symmetry_group_IT_number 13
_symmetry_cell_setting 'monoclinic'
loop_
_space_group_symop_operation_xyz
x,y,z
-x,y,1/2-z
-x,-y,-z
x,-y,1/2+z
loop_
_atom_site_type_symbol
_atom_site_label
_atom_site_fract_x
_atom_site_fract_y
_atom_site_fract_z
Si Si1 0.501592 0.389271 0.583102
Si Si2 0.024400 0.444794 0.173642
Si Si3 0.878867 0.048606 0.740557
Si Si4 0.350914 0.863101 0.500782
Si Si5 0.788565 0.145196 0.946883
Si Si6 0.647255 0.344585 0.298222
O O1 0.500000 0.500000 0.500000
O O2 0.371274 0.560241 0.534140
O O3 0.613461 0.531531 0.698412
O O4 0.475143 0.076078 0.570547
O O5 0.000000 0.484919 0.250000
O O6 0.061837 0.735586 0.169483
O O7 0.921851 0.297840 0.057954
O O8 0.147324 0.241016 0.246065
O O9 0.738218 0.143776 0.624764
O O10 0.000000 0.013338 0.750000
O O11 0.258204 0.995844 0.507273
O O12 0.699786 0.388608 0.867023
O O13 0.753427 0.900823 0.868944
O O14 0.500000 0.260457 0.250000
#
# Coordination Sequence:
#
# PCOD9227909 Si02
#       6
#     4   4   4   4   4   4
#     4  12  27  43  60  86 124 173 216 250 298 374
#     4  10  19  30  50  85 133 146 184 237 320 375
#     4  10  19  30  53  89 126 148 187 249 319 361
#     4  12  21  38  63  90 126 158 206 257 312 363
#     4  12  21  35  58  95 125 158 190 256 326 368
#     4  12  23  37  60  88 123 159 208 262 314 360
#
# _framework density 26.555540000000001
#
# number of rings (size 3 to 8) (size 9 to 14) (size 15 to 20)
#    0.000    0.667    6.667    4.000    4.667    0.000 
#    0.000    0.000    0.000    0.000    0.000   23.333 
#    0.000    0.000    0.000    0.000    0.000    0.000 
#
# Total GULP energy -133621.132585 kJ/mol
# GULP energy per Si atom -5567.547191 kJ/mol
# Density = 2.649510 g / cm^3
# Si number density = 26.555540 Si / 1000 Ang^3
#
#
#
# Elastic Constant Matrix: (Units=GPa)
#
#
# Indices 1 2 3 4 5 6 
#
# 1 33.7189 12.9821 25.3943 0.0000 -7.0737 0.0000
# 2 12.9821 177.3083 21.1769 0.0000 -2.8667 0.0000
# 3 25.3943 21.1769 137.8550 0.0000 -20.1687 0.0000
# 4 0.0000 0.0000 0.0000 59.8134 0.0000 1.1022
# 5 -7.0737 -2.8667 -20.1687 0.0000 28.8365 0.0000
# 6 0.0000 0.0000 0.0000 1.1022 0.0000 6.9507
#
#
#
# Elastic Compliance Matrix: (Units=1/GPa)
#
#
# Indices 1 2 3 4 5 6 
#
# 1 0.035551 -0.001861 -0.005586 0.000000 0.004629 0.000000
# 2 -0.001861 0.005843 -0.000598 0.000000 -0.000294 0.000000
# 3 -0.005586 -0.000598 0.009096 0.000000 0.004933 0.000000
# 4 0.000000 0.000000 0.000000 0.016768 0.000000 -0.002659
# 5 0.004629 -0.000294 0.004933 0.000000 0.039235 0.000000
# 6 0.000000 0.000000 0.000000 -0.002659 0.000000 0.144292
#
#
# Mechanical properties :
#
#
# Convention : Reuss Voigt Hill
#
# Bulk Modulus (GPa) = 29.06847 51.99875 40.53361
# Shear Modulus (GPa) = 17.96357 38.40870 28.18613
#
# Velocity S-wave (km/s) = 2.60369 3.80722 3.26145
# Velocity P-wave (km/s) = 4.47314 6.24101 5.42951
#
# Compressibility (1/GPa) = 0.03440153
#
# Stress axis : x y z
#
# Youngs Moduli (GPa) = 28.12837 171.15107 109.93325
#
# Poissons Ratio (x) = 0.31851 0.61406
# Poissons Ratio (y) = 0.05235 0.06571
# Poissons Ratio (z) = 0.15712 0.10230
#
# Static dielectric constant tensor:
#      x y z
#    x 3.483900 0.000000 -0.457490 
#    y 0.000000 2.125150 0.000000 
#    z -0.457490 0.000000 2.349600 
# 
# From -- ./inp_files/81404.got.cif
#   From: 2010.05.17/outbox.cif.g08.bks.cpg/sg13_41_cif.got.tgz:81404.got - 2010.06.03 16:44:36.
