data_PCOD9227910
_publ_section_title
;
Structure prediction by ZEFSAII (Michael W. Deem and Ramdas Pophale) SiO2 
 PCOD9227910
Probable space group: P 2/C
;
_chemical_formula_sum "Si O2"
_cell_formula_units_Z 30
_cell_length_a 22.424308
_cell_length_b 13.529449
_cell_length_c 9.579395
_cell_angle_alpha 90.000000
_cell_angle_beta 148.021095
_cell_angle_gamma 90.000000
_cell_volume 1539.185470
_symmetry_space_group_name_H-M "P 2/C"
_symmetry_group_IT_number 13
_symmetry_cell_setting 'monoclinic'
loop_
_space_group_symop_operation_xyz
x,y,z
-x,y,1/2-z
-x,-y,-z
x,-y,1/2+z
loop_
_atom_site_type_symbol
_atom_site_label
_atom_site_fract_x
_atom_site_fract_y
_atom_site_fract_z
Si Si1 0.500000 0.068614 0.250000
Si Si2 0.664093 0.111226 0.094443
Si Si3 0.030202 0.336469 0.471885
Si Si4 0.244246 0.593585 0.697019
Si Si5 0.833182 0.464680 0.185812
Si Si6 0.532346 0.191972 0.593265
Si Si7 0.108783 0.211774 0.873311
Si Si8 0.524451 0.402718 0.962877
O O1 0.514341 0.134529 0.415087
O O2 0.611061 0.998108 0.469067
O O3 0.788747 0.134219 0.398447
O O4 0.642179 0.160750 0.899870
O O5 0.574266 0.161984 0.021224
O O6 0.110765 0.433798 0.643971
O O7 0.077412 0.241684 0.650935
O O8 0.000000 0.317605 0.250000
O O9 0.922405 0.377160 0.343708
O O10 0.201920 0.494578 0.538588
O O11 0.262336 0.567784 0.894747
O O12 0.155861 0.682181 0.519714
O O13 0.343692 0.623358 0.790631
O O14 0.533559 0.308990 0.583042
O O15 0.000000 0.184651 0.750000
O O16 0.500000 0.415199 0.750000
O O17 0.500000 0.500000 0.000000
#
# Coordination Sequence:
#
# PCOD9227910 Si02
#       8
#     2   4   4   4   4   4   4   4
#     4  10  22  40  78 106 116 156 222 282 326 396
#     4  10  19  41  67  94 127 160 215 280 338 379
#     4  10  19  32  48  78 117 165 227 276 303 362
#     4  11  20  35  52  79 118 175 218 264 312 379
#     4  10  19  30  51  73 110 167 228 270 298 362
#     4  10  20  42  68  96 129 165 214 270 323 393
#     4  11  21  34  60  87 125 170 216 260 337 401
#     4  12  24  40  59  91 138 178 210 260 326 390
#
# _framework density 19.490829000000002
#
# number of rings (size 3 to 8) (size 9 to 14) (size 15 to 20)
#    0.000    1.600    5.333    2.400    0.933    0.000 
#    0.000    1.333    0.000    3.200    0.000    0.000 
#    0.000    0.000    0.000    0.000    0.000    0.000 
#
# Total GULP energy -167122.137933 kJ/mol
# GULP energy per Si atom -5570.737931 kJ/mol
# Density = 1.944647 g / cm^3
# Si number density = 19.490829 Si / 1000 Ang^3
#
#
#
# Elastic Constant Matrix: (Units=GPa)
#
#
# Indices 1 2 3 4 5 6 
#
# 1 81.0697 47.0051 49.3918 0.0000 -12.4602 0.0000
# 2 47.0051 110.4071 50.8287 0.0000 -20.7791 0.0000
# 3 49.3918 50.8287 110.2318 0.0000 -13.6846 0.0000
# 4 0.0000 0.0000 0.0000 30.8429 0.0000 -5.8253
# 5 -12.4602 -20.7791 -13.6846 0.0000 31.3679 0.0000
# 6 0.0000 0.0000 0.0000 -5.8253 0.0000 15.3759
#
#
#
# Elastic Compliance Matrix: (Units=1/GPa)
#
#
# Indices 1 2 3 4 5 6 
#
# 1 0.019233 -0.005089 -0.006070 0.000000 0.001621 0.000000
# 2 -0.005089 0.013860 -0.003406 0.000000 0.005674 0.000000
# 3 -0.006070 -0.003406 0.013515 0.000000 0.001228 0.000000
# 4 0.000000 0.000000 0.000000 0.034921 0.000000 0.013230
# 5 0.001621 0.005674 0.001228 0.000000 0.036818 0.000000
# 6 0.000000 0.000000 0.000000 0.013230 0.000000 0.070049
#
#
# Mechanical properties :
#
#
# Convention : Reuss Voigt Hill
#
# Bulk Modulus (GPa) = 57.21738 66.23999 61.72869
# Shear Modulus (GPa) = 22.38615 25.81620 24.10118
#
# Velocity S-wave (km/s) = 3.39270 3.64336 3.52026
# Velocity P-wave (km/s) = 6.69081 7.19428 6.94711
#
# Compressibility (1/GPa) = 0.01747721
#
# Stress axis : x y z
#
# Youngs Moduli (GPa) = 51.99428 72.15027 73.99276
#
# Poissons Ratio (x) = 0.36715 0.44914
# Poissons Ratio (y) = 0.26459 0.25205
# Poissons Ratio (z) = 0.31561 0.24578
#
# Static dielectric constant tensor:
#      x y z
#    x 1.671400 0.000000 0.054350 
#    y 0.000000 1.724820 0.000000 
#    z 0.054350 0.000000 1.823080 
# 
# From -- ./inp_files/23514.got.cif
#   From: 2010.05.17/outbox.cif.g08.bks.cpg/sg13_12_cif.got.tgz:23514.got - 2010.06.03 16:44:36.
