data_PCOD9227436
_publ_section_title
;
Structure prediction by ZEFSAII (Michael W. Deem and Ramdas Pophale) SiO2 
 PCOD9227436
Probable space group: P 2/C
;
_chemical_formula_sum "Si O2"
_cell_formula_units_Z 32
_cell_length_a 17.186573
_cell_length_b 9.192244
_cell_length_c 13.548895
_cell_angle_alpha 90.000000
_cell_angle_beta 41.307148
_cell_angle_gamma 90.000000
_cell_volume 1412.932472
_symmetry_space_group_name_H-M "P 2/C"
_symmetry_group_IT_number 13
_symmetry_cell_setting 'monoclinic'
loop_
_space_group_symop_operation_xyz
x,y,z
-x,y,1/2-z
-x,-y,-z
x,-y,1/2+z
loop_
_atom_site_type_symbol
_atom_site_label
_atom_site_fract_x
_atom_site_fract_y
_atom_site_fract_z
Si Si1 0.690194 0.595822 0.506328
Si Si2 0.461583 0.048050 0.925325
Si Si3 0.742084 0.142750 0.847579
Si Si4 0.420007 0.540268 0.701052
Si Si5 0.326223 0.216045 0.811007
Si Si6 0.117518 0.874850 0.875536
Si Si7 0.309853 0.669867 0.616445
Si Si8 0.918053 0.088637 0.424264
O O1 0.773855 0.715868 0.378703
O O2 0.552567 0.591523 0.599319
O O3 0.672040 0.619734 0.638761
O O4 0.731433 0.437604 0.430115
O O5 0.580649 0.087694 0.755333
O O6 0.388812 0.198060 0.001389
O O7 0.500000 0.000000 0.000000
O O8 0.369427 0.923580 0.987141
O O9 0.702287 0.199948 0.778332
O O10 0.829464 0.010599 0.740041
O O11 0.391651 0.371548 0.756278
O O12 0.386419 0.580273 0.622491
O O13 0.202137 0.177991 0.980603
O O14 0.203806 0.742712 0.776065
O O15 0.993948 0.839132 0.941075
O O16 0.112299 0.935471 0.992050
O O17 0.000000 0.077751 0.250000
#
# Coordination Sequence:
#
# PCOD9227436 Si02
#       8
#     4   4   4   4   4   4   4   4
#     4  11  22  34  58  91 130 163 190 238 299 370
#     4   9  17  31  61  89 117 154 196 232 305 364
#     4   9  18  36  60  89 119 153 191 247 300 362
#     4  11  22  34  56  91 129 161 200 228 300 369
#     4  10  18  35  59  85 115 159 199 245 297 361
#     4   9  22  41  63  92 113 155 214 246 305 361
#     4  11  20  38  63  87 125 161 190 249 301 366
#     4  10  22  40  63  83 118 158 205 261 300 341
#
# _framework density 22.647932000000001
#
# number of rings (size 3 to 8) (size 9 to 14) (size 15 to 20)
#    0.000    2.000    2.500    2.625    1.750    1.000 
#    0.000    1.875    2.750    0.750    0.000    0.000 
#    0.000    0.000    0.000    0.000    0.000    0.000 
#
# Total GULP energy -178584.315863 kJ/mol
# GULP energy per Si atom -5580.759871 kJ/mol
# Density = 2.259638 g / cm^3
# Si number density = 22.647932 Si / 1000 Ang^3
#
#
#
# Elastic Constant Matrix: (Units=GPa)
#
#
# Indices 1 2 3 4 5 6 
#
# 1 41.7375 6.1888 5.0896 0.0000 -4.5766 0.0000
# 2 6.1888 78.7743 29.1421 0.0000 -5.8158 0.0000
# 3 5.0896 29.1421 105.9011 0.0000 -4.6894 0.0000
# 4 0.0000 0.0000 0.0000 33.0451 0.0000 -1.0472
# 5 -4.5766 -5.8158 -4.6894 0.0000 39.0466 0.0000
# 6 0.0000 0.0000 0.0000 -1.0472 0.0000 20.2125
#
#
#
# Elastic Compliance Matrix: (Units=1/GPa)
#
#
# Indices 1 2 3 4 5 6 
#
# 1 0.024543 -0.001496 -0.000654 0.000000 0.002575 0.000000
# 2 -0.001496 0.014331 -0.003805 0.000000 0.001502 0.000000
# 3 -0.000654 -0.003805 0.010549 0.000000 0.000624 0.000000
# 4 0.000000 0.000000 0.000000 0.030311 0.000000 0.001570
# 5 0.002575 0.001502 0.000624 0.000000 0.026211 0.000000
# 6 0.000000 0.000000 0.000000 0.001570 0.000000 0.049556
#
#
# Mechanical properties :
#
#
# Convention : Reuss Voigt Hill
#
# Bulk Modulus (GPa) = 26.65774 34.13932 30.39853
# Shear Modulus (GPa) = 27.79089 30.86034 29.32561
#
# Velocity S-wave (km/s) = 3.50677 3.69536 3.60230
# Velocity P-wave (km/s) = 5.30968 5.77185 5.54558
#
# Compressibility (1/GPa) = 0.03751256
#
# Stress axis : x y z
#
# Youngs Moduli (GPa) = 40.74438 69.78069 94.79663
#
# Poissons Ratio (x) = 0.10441 0.06198
# Poissons Ratio (y) = 0.06096 0.36071
# Poissons Ratio (z) = 0.02664 0.26552
#
# Static dielectric constant tensor:
#      x y z
#    x 1.890100 0.000000 0.025110 
#    y 0.000000 1.864670 0.000000 
#    z 0.025110 0.000000 1.900590 
# 
# From -- ./inp_files/57258.got.cif
#   From: 2010.05.17/outbox.cif.g08.bks.cpg/sg13_29_cif.got.tgz:57258.got - 2010.06.03 16:44:36.
