data_PCOD9227631
_publ_section_title
;
Structure prediction by ZEFSAII (Michael W. Deem and Ramdas Pophale) SiO2 
 PCOD9227631
Probable space group: P 2/C
;
_chemical_formula_sum "Si O2"
_cell_formula_units_Z 32
_cell_length_a 9.115093
_cell_length_b 9.547375
_cell_length_c 30.403684
_cell_angle_alpha 90.000000
_cell_angle_beta 36.435450
_cell_angle_gamma 90.000000
_cell_volume 1571.436687
_symmetry_space_group_name_H-M "P 2/C"
_symmetry_group_IT_number 13
_symmetry_cell_setting 'monoclinic'
loop_
_space_group_symop_operation_xyz
x,y,z
-x,y,1/2-z
-x,-y,-z
x,-y,1/2+z
loop_
_atom_site_type_symbol
_atom_site_label
_atom_site_fract_x
_atom_site_fract_y
_atom_site_fract_z
Si Si1 0.969492 0.740291 0.096304
Si Si2 0.619216 0.853349 0.361340
Si Si3 0.354695 0.417790 0.897566
Si Si4 0.870974 0.801059 0.215138
Si Si5 0.441256 0.073582 0.467326
Si Si6 0.703382 0.512536 0.997271
Si Si7 0.830833 0.527528 0.748230
Si Si8 0.773588 0.665956 0.900730
O O1 0.784677 0.676529 0.104812
O O2 0.862021 0.635317 0.227892
O O3 0.838950 0.805386 0.170657
O O4 0.136132 0.603833 0.067430
O O5 0.516613 0.696463 0.385441
O O6 0.862119 0.853161 0.333344
O O7 0.688467 0.877452 0.293396
O O8 0.447462 0.965656 0.425686
O O9 0.212296 0.485130 0.972864
O O10 0.539823 0.529997 0.830340
O O11 0.176481 0.850199 0.031332
O O12 0.655355 0.191797 0.411193
O O13 0.500000 0.000000 0.500000
O O14 0.423489 0.455399 0.065355
O O15 0.749432 0.654786 0.959428
O O16 0.000000 0.554275 0.750000
O O17 0.955022 0.627410 0.681972
#
# Coordination Sequence:
#
# PCOD9227631 Si02
#       8
#     4   4   4   4   4   4   4   4
#     4  11  23  36  60  93 125 160 212 255 325 380
#     4  10  20  36  59  82 121 163 212 258 298 361
#     4  11  22  36  61  90 128 159 196 263 322 385
#     4  10  18  37  59  84 115 159 210 261 309 367
#     4  11  22  38  60  89 122 167 220 260 300 370
#     4  10  19  35  59  87 125 157 195 264 325 371
#     4  11  18  35  59  90 116 147 207 256 317 371
#     4  10  20  34  61  90 119 157 209 260 307 370
#
# _framework density 20.363530999999998
#
# number of rings (size 3 to 8) (size 9 to 14) (size 15 to 20)
#    0.000    1.500    6.250    1.125    1.750    2.500 
#    2.250    0.000    0.000    0.000    0.000    0.000 
#    0.000    0.000    0.000    0.000    0.000    0.000 
#
# Total GULP energy -178290.571103 kJ/mol
# GULP energy per Si atom -5571.580347 kJ/mol
# Density = 2.031718 g / cm^3
# Si number density = 20.363531 Si / 1000 Ang^3
#
#
#
# Elastic Constant Matrix: (Units=GPa)
#
#
# Indices 1 2 3 4 5 6 
#
# 1 74.5721 3.1701 36.8355 0.0000 9.9954 0.0000
# 2 3.1701 46.7532 31.1511 0.0000 0.6953 0.0000
# 3 36.8355 31.1511 118.5658 0.0000 28.9712 0.0000
# 4 0.0000 0.0000 0.0000 32.5321 0.0000 -2.1670
# 5 9.9954 0.6953 28.9712 0.0000 16.9664 0.0000
# 6 0.0000 0.0000 0.0000 -2.1670 0.0000 17.9089
#
#
#
# Elastic Compliance Matrix: (Units=1/GPa)
#
#
# Indices 1 2 3 4 5 6 
#
# 1 0.016122 0.002778 -0.005817 0.000000 0.000321 0.000000
# 2 0.002778 0.030125 -0.013859 0.000000 0.020794 0.000000
# 3 -0.005817 -0.013859 0.022147 0.000000 -0.033822 0.000000
# 4 0.000000 0.000000 0.000000 0.030989 0.000000 0.003750
# 5 0.000321 0.020794 -0.033822 0.000000 0.115652 0.000000
# 6 0.000000 0.000000 0.000000 0.003750 0.000000 0.056292
#
#
# Mechanical properties :
#
#
# Convention : Reuss Voigt Hill
#
# Bulk Modulus (GPa) = 28.90316 42.46719 35.68518
# Shear Modulus (GPa) = 15.79005 24.73044 20.26025
#
# Velocity S-wave (km/s) = 2.78764 3.48867 3.15767
# Velocity P-wave (km/s) = 4.95839 6.09324 5.55487
#
# Compressibility (1/GPa) = 0.03459829
#
# Stress axis : x y z
#
# Youngs Moduli (GPa) = 62.02674 33.19477 45.15319
#
# Poissons Ratio (x) = -0.09221 0.26266
# Poissons Ratio (y) = -0.17230 0.62577
# Poissons Ratio (z) = 0.36081 0.46004
#
# Static dielectric constant tensor:
#      x y z
#    x 1.787900 0.000000 -0.005110 
#    y 0.000000 1.708730 0.000000 
#    z -0.005110 0.000000 1.865010 
# 
# From -- ./inp_files/85124.got.cif
#   From: 2010.05.17/outbox.cif.g08.bks.cpg/sg13_43_cif.got.tgz:85124.got - 2010.06.03 16:44:36.
