data_PCOD9227453
_publ_section_title
;
Structure prediction by ZEFSAII (Michael W. Deem and Ramdas Pophale) SiO2 
 PCOD9227453
Probable space group: P 2/C
;
_chemical_formula_sum "Si O2"
_cell_formula_units_Z 28
_cell_length_a 8.965269
_cell_length_b 9.494919
_cell_length_c 26.958663
_cell_angle_alpha 90.000000
_cell_angle_beta 144.277251
_cell_angle_gamma 90.000000
_cell_volume 1339.875170
_symmetry_space_group_name_H-M "P 2/C"
_symmetry_group_IT_number 13
_symmetry_cell_setting 'monoclinic'
loop_
_space_group_symop_operation_xyz
x,y,z
-x,y,1/2-z
-x,-y,-z
x,-y,1/2+z
loop_
_atom_site_type_symbol
_atom_site_label
_atom_site_fract_x
_atom_site_fract_y
_atom_site_fract_z
Si Si1 0.235371 0.951987 0.282823
Si Si2 0.309828 0.072951 0.151107
Si Si3 0.978380 0.646768 0.560770
Si Si4 0.602898 0.658116 0.135815
Si Si5 0.783056 0.448310 0.587392
Si Si6 0.605575 0.551194 0.326551
Si Si7 0.085438 0.809236 0.136216
O O1 0.486258 0.044676 0.338013
O O2 0.316937 0.819370 0.338089
O O3 0.149749 0.880963 0.206901
O O4 0.000000 0.020449 0.250000
O O5 0.500000 0.083888 0.250000
O O6 0.121229 0.939177 0.108362
O O7 0.126185 0.206592 0.099065
O O8 0.694136 0.655675 0.461962
O O9 0.949639 0.570396 0.606937
O O10 0.174699 0.538534 0.588403
O O11 0.781991 0.578669 0.145482
O O12 0.606270 0.589579 0.190921
O O13 0.500000 0.500000 0.500000
O O14 0.845427 0.295298 0.579733
O O15 0.500000 0.470988 0.250000
O O16 0.720865 0.694964 0.335233
#
# Coordination Sequence:
#
# PCOD9227453 Si02
#       7
#     4   4   4   4   4   4   4
#     4  11  20  35  63  88 115 154 212 261 294 357
#     4  10  21  40  60  86 120 165 205 248 303 381
#     4  10  23  38  58  88 128 160 194 254 320 365
#     4  11  20  37  61  90 122 153 208 260 300 360
#     4   9  20  37  59  88 123 156 195 256 314 365
#     4  11  19  35  60  89 115 159 208 248 300 368
#     4  10  18  35  61  84 113 159 208 245 296 369
#
# _framework density 20.897469999999998
#
# number of rings (size 3 to 8) (size 9 to 14) (size 15 to 20)
#    0.000    1.714    4.286    1.286    0.000    0.571 
#    0.000    5.714    0.000    0.000    0.000    0.000 
#    0.000    0.000    0.000    0.000    0.000    0.000 
#
# Total GULP energy -155942.235521 kJ/mol
# GULP energy per Si atom -5569.365554 kJ/mol
# Density = 2.084991 g / cm^3
# Si number density = 20.897470 Si / 1000 Ang^3
#
#
#
# Elastic Constant Matrix: (Units=GPa)
#
#
# Indices 1 2 3 4 5 6 
#
# 1 145.2568 50.4023 27.9879 0.0000 23.3582 0.0000
# 2 50.4023 108.8037 31.8354 0.0000 20.4788 0.0000
# 3 27.9879 31.8354 60.1394 0.0000 16.6281 0.0000
# 4 0.0000 0.0000 0.0000 19.6617 0.0000 12.1902
# 5 23.3582 20.4788 16.6281 0.0000 29.3594 0.0000
# 6 0.0000 0.0000 0.0000 12.1902 0.0000 16.3941
#
#
#
# Elastic Compliance Matrix: (Units=1/GPa)
#
#
# Indices 1 2 3 4 5 6 
#
# 1 0.008837 -0.002885 -0.001420 0.000000 -0.004214 0.000000
# 2 -0.002885 0.012510 -0.004152 0.000000 -0.004079 0.000000
# 3 -0.001420 -0.004152 0.021785 0.000000 -0.008312 0.000000
# 4 0.000000 0.000000 0.000000 0.094363 0.000000 -0.070166
# 5 -0.004214 -0.004079 -0.008312 0.000000 0.044966 0.000000
# 6 0.000000 0.000000 0.000000 -0.070166 0.000000 0.113171
#
#
# Mechanical properties :
#
#
# Convention : Reuss Voigt Hill
#
# Bulk Modulus (GPa) = 38.14189 59.40568 48.77379
# Shear Modulus (GPa) = 15.56250 26.68132 21.12191
#
# Velocity S-wave (km/s) = 2.73189 3.57707 3.18266
# Velocity P-wave (km/s) = 5.31437 6.74904 6.07421
#
# Compressibility (1/GPa) = 0.02621789
#
# Stress axis : x y z
#
# Youngs Moduli (GPa) = 113.16550 79.93735 45.90298
#
# Poissons Ratio (x) = 0.23060 0.06519
# Poissons Ratio (y) = 0.32646 0.19058
# Poissons Ratio (z) = 0.16072 0.33188
#
# Static dielectric constant tensor:
#      x y z
#    x 1.825390 0.000000 -0.008930 
#    y 0.000000 1.748370 0.000000 
#    z -0.008930 0.000000 1.814040 
# 
# From -- ./inp_files/88516.got.cif
#   From: 2010.05.17/outbox.cif.g08.bks.cpg/sg13_45_cif.got.tgz:88516.got - 2010.06.03 16:44:36.
