data_PCOD9227802
_publ_section_title
;
Structure prediction by ZEFSAII (Michael W. Deem and Ramdas Pophale) SiO2 
 PCOD9227802
Probable space group: P 2/C
;
_chemical_formula_sum "Si O2"
_cell_formula_units_Z 14
_cell_length_a 7.138081
_cell_length_b 9.770380
_cell_length_c 9.909743
_cell_angle_alpha 90.000000
_cell_angle_beta 127.356155
_cell_angle_gamma 90.000000
_cell_volume 549.359246
_symmetry_space_group_name_H-M "P 2/C"
_symmetry_group_IT_number 13
_symmetry_cell_setting 'monoclinic'
loop_
_space_group_symop_operation_xyz
x,y,z
-x,y,1/2-z
-x,-y,-z
x,-y,1/2+z
loop_
_atom_site_type_symbol
_atom_site_label
_atom_site_fract_x
_atom_site_fract_y
_atom_site_fract_z
Si Si1 0.665694 0.742804 0.008518
Si Si2 0.170584 0.456168 0.454010
Si Si3 0.500000 0.052778 0.250000
Si Si4 0.173943 0.198391 0.617806
O O1 0.641452 0.580263 0.973902
O O2 0.729186 0.764551 0.191191
O O3 0.895087 0.786880 0.019841
O O4 0.471805 0.845438 0.865258
O O5 0.252308 0.307454 0.538258
O O6 0.000000 0.451634 0.250000
O O7 0.000000 0.500000 0.500000
O O8 0.717411 0.948799 0.365754
#
# Coordination Sequence:
#
# PCOD9227802 Si02
#       4
#     4   4   2   4
#     4  10  21  43  67  90 131 164 212 267 315 374
#     4  10  18  41  70  93 120 169 218 264 315 369
#     4  12  24  40  60 100 130 168 208 256 324 386
#     4  10  22  43  65  94 126 168 214 259 319 380
#
# _framework density 25.484234000000001
#
# number of rings (size 3 to 8) (size 9 to 14) (size 15 to 20)
#    0.000    1.714    5.714    1.714    0.000    1.143 
#   25.714    2.857    0.000    0.000    0.000    0.000 
#    0.000    0.000    0.000    0.000    0.000    0.000 
#
# Total GULP energy -78320.616355 kJ/mol
# GULP energy per Si atom -5594.329740 kJ/mol
# Density = 2.542623 g / cm^3
# Si number density = 25.484234 Si / 1000 Ang^3
#
#
#
# Elastic Constant Matrix: (Units=GPa)
#
#
# Indices 1 2 3 4 5 6 
#
# 1 58.5538 38.4030 -7.4530 0.0000 9.5983 0.0000
# 2 38.4030 257.8018 96.9925 0.0000 -9.4081 0.0000
# 3 -7.4530 96.9925 147.6855 0.0000 -21.2251 0.0000
# 4 0.0000 0.0000 0.0000 59.7560 0.0000 5.2733
# 5 9.5983 -9.4081 -21.2251 0.0000 32.3591 0.0000
# 6 0.0000 0.0000 0.0000 5.2733 0.0000 19.4549
#
#
#
# Elastic Compliance Matrix: (Units=1/GPa)
#
#
# Indices 1 2 3 4 5 6 
#
# 1 0.021466 -0.004659 0.003349 0.000000 -0.005525 0.000000
# 2 -0.004659 0.006182 -0.004238 0.000000 0.000400 0.000000
# 3 0.003349 -0.004238 0.010382 0.000000 0.004584 0.000000
# 4 0.000000 0.000000 0.000000 0.017145 0.000000 -0.004647
# 5 -0.005525 0.000400 0.004584 0.000000 0.035665 0.000000
# 6 0.000000 0.000000 0.000000 -0.004647 0.000000 0.052661
#
#
# Mechanical properties :
#
#
# Convention : Reuss Voigt Hill
#
# Bulk Modulus (GPa) = 37.12676 79.99180 58.55928
# Shear Modulus (GPa) = 30.56704 44.72056 37.64380
#
# Velocity S-wave (km/s) = 3.46706 4.19362 3.84753
# Velocity P-wave (km/s) = 5.53421 7.40982 6.53961
#
# Compressibility (1/GPa) = 0.02693475
#
# Stress axis : x y z
#
# Youngs Moduli (GPa) = 46.58481 161.76098 96.31947
#
# Poissons Ratio (x) = 0.75371 -0.32261
# Poissons Ratio (y) = 0.21706 0.40817
# Poissons Ratio (z) = -0.15603 0.68549
#
# Static dielectric constant tensor:
#      x y z
#    x 2.085280 0.000000 0.069150 
#    y 0.000000 2.041260 0.000000 
#    z 0.069150 0.000000 1.953990 
# 
# From -- ./inp_files/10798.got.cif
#   From: 2010.05.17/outbox.cif.g08.bks.cpg/sg13_6_cif.got.tgz:10798.got - 2010.06.03 16:44:36.
