data_PCOD9227708
_publ_section_title
;
Structure prediction by ZEFSAII (Michael W. Deem and Ramdas Pophale) SiO2 
 PCOD9227708
Probable space group: P 2/C
;
_chemical_formula_sum "Si O2"
_cell_formula_units_Z 32
_cell_length_a 7.629040
_cell_length_b 15.410191
_cell_length_c 11.087079
_cell_angle_alpha 90.000000
_cell_angle_beta 95.829081
_cell_angle_gamma 90.000000
_cell_volume 1296.712264
_symmetry_space_group_name_H-M "P 2/C"
_symmetry_group_IT_number 13
_symmetry_cell_setting 'monoclinic'
loop_
_space_group_symop_operation_xyz
x,y,z
-x,y,1/2-z
-x,-y,-z
x,-y,1/2+z
loop_
_atom_site_type_symbol
_atom_site_label
_atom_site_fract_x
_atom_site_fract_y
_atom_site_fract_z
Si Si1 0.817750 0.988959 0.791304
Si Si2 0.366217 0.837016 0.851637
Si Si3 0.696169 0.483825 0.378652
Si Si4 0.180907 0.308736 0.210933
Si Si5 0.704379 0.554492 0.134547
Si Si6 0.797606 0.258372 0.695719
Si Si7 0.687799 0.848356 0.398366
Si Si8 0.908342 0.843787 0.985272
O O1 0.751486 0.921007 0.686830
O O2 0.854155 0.930790 0.912553
O O3 0.000000 0.025866 0.750000
O O4 0.684853 0.063425 0.822129
O O5 0.500000 0.838813 0.750000
O O6 0.270447 0.745098 0.825154
O O7 0.433468 0.843547 0.992521
O O8 0.699978 0.383151 0.338194
O O9 0.782896 0.531511 0.270871
O O10 0.498510 0.521909 0.375177
O O11 0.779431 0.488164 0.517719
O O12 0.131812 0.235009 0.109793
O O13 0.000000 0.347385 0.250000
O O14 0.719033 0.657500 0.126957
O O15 0.687743 0.230371 0.805077
O O16 0.811842 0.179736 0.602321
O O17 0.000000 0.276137 0.750000
O O18 0.885159 0.846863 0.469237
#
# Coordination Sequence:
#
# PCOD9227708 Si02
#       8
#     4   4   4   4   4   4   4   4
#     4  11  21  38  70  98 133 179 235 282 332 398
#     4  11  25  41  60  95 143 180 226 279 336 402
#     4  10  23  42  72  95 131 172 226 280 353 415
#     4  11  21  42  70  98 124 173 225 281 338 406
#     4  10  22  45  63  99 135 174 222 282 346 432
#     4  10  22  38  65 101 139 178 222 287 348 408
#     4  11  22  38  66  99 133 183 228 284 336 396
#     4  10  18  38  64 100 135 167 225 286 331 397
#
# _framework density 24.677795
#
# number of rings (size 3 to 8) (size 9 to 14) (size 15 to 20)
#    0.000    1.500    3.750    2.250    3.500    2.000 
#    4.500    1.250    2.750    0.000    0.000    0.000 
#    0.000    0.000    0.000    0.000    0.000    0.000 
#
# Total GULP energy -179008.742401 kJ/mol
# GULP energy per Si atom -5594.023200 kJ/mol
# Density = 2.462163 g / cm^3
# Si number density = 24.677795 Si / 1000 Ang^3
#
#
#
# Elastic Constant Matrix: (Units=GPa)
#
#
# Indices 1 2 3 4 5 6 
#
# 1 88.7258 31.7866 27.5863 0.0000 -1.2271 0.0000
# 2 31.7866 88.9432 29.1168 0.0000 -4.8639 0.0000
# 3 27.5863 29.1168 180.7916 0.0000 -33.5761 0.0000
# 4 0.0000 0.0000 0.0000 14.4945 0.0000 -46.3579
# 5 -1.2271 -4.8639 -33.5761 0.0000 29.9767 0.0000
# 6 0.0000 0.0000 0.0000 -46.3579 0.0000 -89.8981
#
#
#
# Elastic Compliance Matrix: (Units=1/GPa)
#
#
# Indices 1 2 3 4 5 6 
#
# 1 0.013323 -0.004310 -0.001726 0.000000 -0.002088 0.000000
# 2 -0.004310 0.013265 -0.001404 0.000000 0.000404 0.000000
# 3 -0.001726 -0.001404 0.007532 0.000000 0.008138 0.000000
# 4 0.000000 0.000000 0.000000 0.026042 0.000000 -0.013429
# 5 -0.002088 0.000404 0.008138 0.000000 0.042455 0.000000
# 6 0.000000 0.000000 0.000000 -0.013429 0.000000 -0.004199
#
#
# Mechanical properties :
#
#
# Convention : Reuss Voigt Hill
#
# Bulk Modulus (GPa) = 51.97732 59.49333 55.73532
# Shear Modulus (GPa) = 41.76713 8.91268 25.33991
#
# Velocity S-wave (km/s) = 4.11846 1.90249 3.20790
# Velocity P-wave (km/s) = 6.61239 5.38389 6.02951
#
# Compressibility (1/GPa) = 0.01923916
#
# Stress axis : x y z
#
# Youngs Moduli (GPa) = 75.05952 75.38552 132.76491
#
# Poissons Ratio (x) = 0.32493 0.22921
# Poissons Ratio (y) = 0.32353 0.18636
# Poissons Ratio (z) = 0.12958 0.10582
#
# Static dielectric constant tensor:
#      x y z
#    x 2.019490 0.000000 -0.030420 
#    y 0.000000 1.904380 0.000000 
#    z -0.030420 0.000000 2.131940 
# 
# From -- ./inp_files/30412.got.cif
#   From: 2010.05.17/outbox.cif.g08.bks.cpg/sg13_16_cif.got.tgz:30412.got - 2010.06.03 16:44:36.
