data_PCOD9227588
_publ_section_title
;
Structure prediction by ZEFSAII (Michael W. Deem and Ramdas Pophale) SiO2 
 PCOD9227588
Probable space group: P 2/C
;
_chemical_formula_sum "Si O2"
_cell_formula_units_Z 28
_cell_length_a 9.340773
_cell_length_b 8.346292
_cell_length_c 29.553274
_cell_angle_alpha 90.000000
_cell_angle_beta 37.207026
_cell_angle_gamma 90.000000
_cell_volume 1393.219850
_symmetry_space_group_name_H-M "P 2/C"
_symmetry_group_IT_number 13
_symmetry_cell_setting 'monoclinic'
loop_
_space_group_symop_operation_xyz
x,y,z
-x,y,1/2-z
-x,-y,-z
x,-y,1/2+z
loop_
_atom_site_type_symbol
_atom_site_label
_atom_site_fract_x
_atom_site_fract_y
_atom_site_fract_z
Si Si1 0.974063 0.366749 0.680170
Si Si2 0.769812 0.923556 0.781176
Si Si3 0.655480 0.713340 0.340802
Si Si4 0.874975 0.666348 0.045255
Si Si5 0.778789 0.055063 0.681807
Si Si6 0.249680 0.487565 0.337557
Si Si7 0.755150 0.165542 0.102820
O O1 0.211973 0.346926 0.648163
O O2 0.766318 0.381015 0.770126
O O3 0.925410 0.205774 0.663449
O O4 0.804558 0.366332 0.614661
O O5 0.508313 0.849130 0.851501
O O6 0.000000 0.857550 0.750000
O O7 0.731103 0.104356 0.810278
O O8 0.808182 0.932709 0.717109
O O9 0.376720 0.694995 0.414856
O O10 0.000000 0.500000 0.000000
O O11 0.051145 0.509422 0.848716
O O12 0.053834 0.803661 0.984439
O O13 0.500000 0.098321 0.750000
O O14 0.819898 0.975127 0.622374
O O15 0.500000 0.509095 0.250000
O O16 0.249812 0.324480 0.365082
#
# Coordination Sequence:
#
# PCOD9227588 Si02
#       7
#     4   4   4   4   4   4   4
#     4  10  19  34  64  93 109 146 211 265 292 345
#     4  10  18  36  63  91 123 152 210 264 299 354
#     4  10  19  38  62  89 120 153 203 261 310 347
#     4  10  23  41  57  85 131 164 202 248 311 380
#     4   9  17  33  57  87 116 151 200 251 299 352
#     4  11  20  37  62  89 113 158 217 250 294 368
#     4  10  23  38  56  88 129 165 191 248 326 370
#
# _framework density 20.097332000000002
#
# number of rings (size 3 to 8) (size 9 to 14) (size 15 to 20)
#    0.000    2.000    4.286    1.714    4.000    0.571 
#    0.000   10.714    0.000    0.000    0.000    0.000 
#    0.000    0.000    0.000    0.000    0.000    0.000 
#
# Total GULP energy -156146.963996 kJ/mol
# GULP energy per Si atom -5576.677286 kJ/mol
# Density = 2.005159 g / cm^3
# Si number density = 20.097332 Si / 1000 Ang^3
#
#
#
# Elastic Constant Matrix: (Units=GPa)
#
#
# Indices 1 2 3 4 5 6 
#
# 1 155.5364 33.1590 43.0216 0.0000 -19.3899 0.0000
# 2 33.1590 41.0553 25.1035 0.0000 1.0283 0.0000
# 3 43.0216 25.1035 102.7947 0.0000 -8.1772 0.0000
# 4 0.0000 0.0000 0.0000 -18.5612 0.0000 -21.7316
# 5 -19.3899 1.0283 -8.1772 0.0000 31.1608 0.0000
# 6 0.0000 0.0000 0.0000 -21.7316 0.0000 11.5943
#
#
#
# Elastic Compliance Matrix: (Units=1/GPa)
#
#
# Indices 1 2 3 4 5 6 
#
# 1 0.008912 -0.006238 -0.001786 0.000000 0.005283 0.000000
# 2 -0.006238 0.033247 -0.006031 0.000000 -0.006561 0.000000
# 3 -0.001786 -0.006031 0.012129 0.000000 0.002270 0.000000
# 4 0.000000 0.000000 0.000000 -0.016865 0.000000 -0.031611
# 5 0.005283 -0.006561 0.002270 0.000000 0.036191 0.000000
# 6 0.000000 0.000000 0.000000 -0.031611 0.000000 0.026999
#
#
# Mechanical properties :
#
#
# Convention : Reuss Voigt Hill
#
# Bulk Modulus (GPa) = 38.19885 55.77272 46.98578
# Shear Modulus (GPa) = 36.37708 18.04557 27.21133
#
# Velocity S-wave (km/s) = 4.25908 2.99976 3.68363
# Velocity P-wave (km/s) = 6.57530 6.30949 6.44376
#
# Compressibility (1/GPa) = 0.02617880
#
# Stress axis : x y z
#
# Youngs Moduli (GPa) = 112.21011 30.07761 82.44687
#
# Poissons Ratio (x) = 0.18762 0.14727
# Poissons Ratio (y) = 0.69996 0.49720
# Poissons Ratio (z) = 0.20043 0.18138
#
# Static dielectric constant tensor:
#      x y z
#    x 1.719380 0.000000 0.024630 
#    y 0.000000 1.804140 0.000000 
#    z 0.024630 0.000000 1.713530 
# 
# From -- ./inp_files/95924.got.cif
#   From: 2010.05.17/outbox.cif.g08.bks.cpg/sg13_48_cif.got.tgz:95924.got - 2010.06.03 16:44:36.
