data_PCOD9227892
_publ_section_title
;
Structure prediction by ZEFSAII (Michael W. Deem and Ramdas Pophale) SiO2 
 PCOD9227892
Probable space group: P 2/C
;
_chemical_formula_sum "Si O2"
_cell_formula_units_Z 28
_cell_length_a 18.394498
_cell_length_b 6.840963
_cell_length_c 14.032799
_cell_angle_alpha 90.000000
_cell_angle_beta 143.675131
_cell_angle_gamma 90.000000
_cell_volume 1046.013672
_symmetry_space_group_name_H-M "P 2/C"
_symmetry_group_IT_number 13
_symmetry_cell_setting 'monoclinic'
loop_
_space_group_symop_operation_xyz
x,y,z
-x,y,1/2-z
-x,-y,-z
x,-y,1/2+z
loop_
_atom_site_type_symbol
_atom_site_label
_atom_site_fract_x
_atom_site_fract_y
_atom_site_fract_z
Si Si1 0.558238 0.880843 0.949613
Si Si2 0.235970 0.120033 0.302763
Si Si3 0.374208 0.597661 0.334376
Si Si4 0.135230 0.320321 0.682945
Si Si5 0.903936 0.802603 0.039927
Si Si6 0.334535 0.309719 0.126315
Si Si7 0.010059 0.759009 0.660228
O O1 0.616857 0.732209 0.929698
O O2 0.416699 0.846645 0.773822
O O3 0.625050 0.090764 0.014677
O O4 0.593381 0.816178 0.094889
O O5 0.185385 0.897521 0.254354
O O6 0.187198 0.183638 0.147895
O O7 0.153521 0.238330 0.288769
O O8 0.500000 0.500000 0.500000
O O9 0.256103 0.556206 0.278445
O O10 0.351130 0.514545 0.203345
O O11 0.022339 0.328374 0.638665
O O12 0.062620 0.316509 0.506751
O O13 0.809356 0.736236 0.020603
O O14 0.953937 0.020997 0.109499
O O15 0.000000 0.659871 0.750000
#
# Coordination Sequence:
#
# PCOD9227892 Si02
#       7
#     4   4   4   4   4   4   4
#     4   9  18  33  50  69  95 131 176 214 251 308
#     4   8  15  29  47  67  95 128 161 202 252 306
#     4   9  18  34  52  67  92 133 171 208 253 292
#     4   8  16  30  46  67  95 127 164 203 245 302
#     4   9  17  28  46  74 100 125 160 205 260 313
#     4  10  19  30  49  73  96 129 172 215 256 306
#     4   9  15  26  47  70  96 128 158 198 254 309
#
# _framework density 26.768293
#
# number of rings (size 3 to 8) (size 9 to 14) (size 15 to 20)
#    0.000    3.143    0.000    2.571    0.000    1.143 
#    0.000    2.857    0.000    0.857    0.000   14.000 
#    0.000    0.000    0.000    0.000    0.000    0.000 
#
# Total GULP energy -155984.110876 kJ/mol
# GULP energy per Si atom -5570.861103 kJ/mol
# Density = 2.670737 g / cm^3
# Si number density = 26.768293 Si / 1000 Ang^3
#
#
#
# Elastic Constant Matrix: (Units=GPa)
#
#
# Indices 1 2 3 4 5 6 
#
# 1 183.9618 24.7690 74.4514 0.0000 31.8304 0.0000
# 2 24.7690 35.5694 32.6549 0.0000 -3.0348 0.0000
# 3 74.4514 32.6549 154.2587 0.0000 3.2263 0.0000
# 4 0.0000 0.0000 0.0000 32.9326 0.0000 6.8825
# 5 31.8304 -3.0348 3.2263 0.0000 67.2527 0.0000
# 6 0.0000 0.0000 0.0000 6.8825 0.0000 27.7211
#
#
#
# Elastic Compliance Matrix: (Units=1/GPa)
#
#
# Indices 1 2 3 4 5 6 
#
# 1 0.007670 -0.002880 -0.003017 0.000000 -0.003616 0.000000
# 2 -0.002880 0.036230 -0.006348 0.000000 0.003303 0.000000
# 3 -0.003017 -0.006348 0.009268 0.000000 0.000697 0.000000
# 4 0.000000 0.000000 0.000000 0.032027 0.000000 -0.007951
# 5 -0.003616 0.003303 0.000697 0.000000 0.016696 0.000000
# 6 0.000000 0.000000 0.000000 -0.007951 0.000000 0.038048
#
#
# Mechanical properties :
#
#
# Convention : Reuss Voigt Hill
#
# Bulk Modulus (GPa) = 34.87081 70.83784 52.85433
# Shear Modulus (GPa) = 28.73763 41.70892 35.22327
#
# Velocity S-wave (km/s) = 3.28009 3.95162 3.63141
# Velocity P-wave (km/s) = 5.23455 6.88049 6.11317
#
# Compressibility (1/GPa) = 0.02867728
#
# Stress axis : x y z
#
# Youngs Moduli (GPa) = 130.37575 27.60165 107.89978
#
# Poissons Ratio (x) = 0.07950 0.32549
# Poissons Ratio (y) = 0.37551 0.68499
# Poissons Ratio (z) = 0.39329 0.17523
#
# Static dielectric constant tensor:
#      x y z
#    x 2.332570 0.000000 0.065470 
#    y 0.000000 2.195110 0.000000 
#    z 0.065470 0.000000 2.100680 
# 
# From -- ./inp_files/55302.got.cif
#   From: 2010.05.17/outbox.cif.g08.bks.cpg/sg13_28_cif.got.tgz:55302.got - 2010.06.03 16:44:36.
