data_PCOD9227473
_publ_section_title
;
Structure prediction by ZEFSAII (Michael W. Deem and Ramdas Pophale) SiO2 
 PCOD9227473
Probable space group: P 2/C
;
_chemical_formula_sum "Si O2"
_cell_formula_units_Z 24
_cell_length_a 23.216830
_cell_length_b 7.494696
_cell_length_c 17.486200
_cell_angle_alpha 90.000000
_cell_angle_beta 162.025804
_cell_angle_gamma 90.000000
_cell_volume 938.928064
_symmetry_space_group_name_H-M "P 2/C"
_symmetry_group_IT_number 13
_symmetry_cell_setting 'monoclinic'
loop_
_space_group_symop_operation_xyz
x,y,z
-x,y,1/2-z
-x,-y,-z
x,-y,1/2+z
loop_
_atom_site_type_symbol
_atom_site_label
_atom_site_fract_x
_atom_site_fract_y
_atom_site_fract_z
Si Si1 0.204687 0.035886 0.477717
Si Si2 0.189714 0.453388 0.824273
Si Si3 0.169230 0.050057 0.767607
Si Si4 0.443300 0.098345 0.504485
Si Si5 0.226054 0.608877 0.533383
Si Si6 0.234452 0.454866 0.214228
O O1 0.362528 0.157469 0.713937
O O2 0.000000 0.072875 0.250000
O O3 0.198147 0.067370 0.378954
O O4 0.250772 0.826542 0.558298
O O5 0.138544 0.244964 0.760800
O O6 0.285889 0.478556 0.027925
O O7 0.294133 0.479154 0.875127
O O8 0.978711 0.532875 0.555940
O O9 0.000000 0.000000 0.500000
O O10 0.353198 0.038750 0.949928
O O11 0.287883 0.246926 0.293397
O O12 0.500000 0.000000 0.500000
O O13 0.300588 0.529522 0.708531
O O14 0.000000 0.586223 0.250000
#
# Coordination Sequence:
#
# PCOD9227473 Si02
#       6
#     4   4   4   4   4   4
#     4  10  20  37  63  93 129 167 226 283 339 408
#     4   9  19  35  63  93 132 178 221 271 338 414
#     4  11  21  38  63  95 131 172 227 278 343 412
#     4  12  22  36  64  98 132 173 221 285 341 406
#     4   8  15  31  58  90 124 172 218 263 332 410
#     4  10  18  35  63  96 132 172 222 278 339 405
#
# _framework density 25.561063999999998
#
# number of rings (size 3 to 8) (size 9 to 14) (size 15 to 20)
#    0.000    2.000    3.333    2.500    0.000    0.000 
#    0.000    0.833   11.000    4.000    0.000    0.000 
#    0.000    0.167    0.000    0.000    0.000    0.000 
#
# Total GULP energy -133885.175972 kJ/mol
# GULP energy per Si atom -5578.548999 kJ/mol
# Density = 2.550289 g / cm^3
# Si number density = 25.561064 Si / 1000 Ang^3
#
#
#
# Elastic Constant Matrix: (Units=GPa)
#
#
# Indices 1 2 3 4 5 6 
#
# 1 222.9137 14.9500 76.4414 0.0000 -44.2019 0.0000
# 2 14.9500 45.0338 16.5424 0.0000 -11.9201 0.0000
# 3 76.4414 16.5424 121.9247 0.0000 -16.8667 0.0000
# 4 0.0000 0.0000 0.0000 10.0931 0.0000 -7.7972
# 5 -44.2019 -11.9201 -16.8667 0.0000 50.7850 0.0000
# 6 0.0000 0.0000 0.0000 -7.7972 0.0000 31.5574
#
#
#
# Elastic Compliance Matrix: (Units=1/GPa)
#
#
# Indices 1 2 3 4 5 6 
#
# 1 0.006599 0.000340 -0.003540 0.000000 0.004647 0.000000
# 2 0.000340 0.024483 -0.002829 0.000000 0.005103 0.000000
# 3 -0.003540 -0.002829 0.010783 0.000000 -0.000164 0.000000
# 4 0.000000 0.000000 0.000000 0.122450 0.000000 0.030255
# 5 0.004647 0.005103 -0.000164 0.000000 0.024879 0.000000
# 6 0.000000 0.000000 0.000000 0.030255 0.000000 0.039164
#
#
# Mechanical properties :
#
#
# Convention : Reuss Voigt Hill
#
# Bulk Modulus (GPa) = 33.55123 67.30443 50.42783
# Shear Modulus (GPa) = 19.97197 37.28299 28.62748
#
# Velocity S-wave (km/s) = 2.79828 3.82329 3.35022
# Velocity P-wave (km/s) = 4.85746 6.77333 5.89377
#
# Compressibility (1/GPa) = 0.02980516
#
# Stress axis : x y z
#
# Youngs Moduli (GPa) = 151.54131 40.84549 92.74243
#
# Poissons Ratio (x) = -0.01389 0.32835
# Poissons Ratio (y) = -0.05153 0.26237
# Poissons Ratio (z) = 0.53652 0.11555
#
# Static dielectric constant tensor:
#      x y z
#    x 2.066480 0.000000 -0.042140 
#    y 0.000000 2.048540 0.000000 
#    z -0.042140 0.000000 2.084500 
# 
# From -- ./inp_files/71178.got.cif
#   From: 2010.05.17/outbox.cif.g08.bks.cpg/sg13_36_cif.got.tgz:71178.got - 2010.06.03 16:44:36.
