data_PCOD9227655
_publ_section_title
;
Structure prediction by ZEFSAII (Michael W. Deem and Ramdas Pophale) SiO2 
 PCOD9227655
Probable space group: P 2/C
;
_chemical_formula_sum "Si O2"
_cell_formula_units_Z 24
_cell_length_a 9.852662
_cell_length_b 14.981604
_cell_length_c 16.128945
_cell_angle_alpha 90.000000
_cell_angle_beta 147.468792
_cell_angle_gamma 90.000000
_cell_volume 1280.281508
_symmetry_space_group_name_H-M "P 2/C"
_symmetry_group_IT_number 13
_symmetry_cell_setting 'monoclinic'
loop_
_space_group_symop_operation_xyz
x,y,z
-x,y,1/2-z
-x,-y,-z
x,-y,1/2+z
loop_
_atom_site_type_symbol
_atom_site_label
_atom_site_fract_x
_atom_site_fract_y
_atom_site_fract_z
Si Si1 0.738536 0.089999 0.562257
Si Si2 0.557271 0.459761 0.617960
Si Si3 0.256642 0.893999 0.934795
Si Si4 0.496164 0.738666 0.346320
Si Si5 0.042609 0.739341 0.370948
Si Si6 0.095248 0.453179 0.965491
O O1 0.493238 0.100972 0.493360
O O2 0.759563 0.180518 0.521147
O O3 0.000000 0.090400 0.750000
O O4 0.738507 0.992393 0.520735
O O5 0.500000 0.500000 0.500000
O O6 0.494042 0.355252 0.599435
O O7 0.366857 0.508643 0.582240
O O8 0.854778 0.474516 0.783513
O O9 0.000000 0.883963 0.750000
O O10 0.302285 0.811109 0.019346
O O11 0.500000 0.721423 0.250000
O O12 0.221904 0.775161 0.230419
O O13 0.111130 0.653563 0.461372
O O14 0.000000 0.715565 0.250000
O O15 0.000000 0.500000 0.000000
#
# Coordination Sequence:
#
# PCOD9227655 Si02
#       6
#     4   4   4   4   4   4
#     4   9  17  35  64  88 115 157 207 240 290 363
#     4  11  23  39  61  86 113 157 204 246 288 362
#     4  10  20  34  62  97 118 147 205 264 290 336
#     4  11  22  39  59  87 125 164 194 242 315 371
#     4  10  18  37  65  81 110 169 209 224 286 388
#     4  11  22  38  59  87 119 154 194 247 305 353
#
# _framework density 18.745875999999999
#
# number of rings (size 3 to 8) (size 9 to 14) (size 15 to 20)
#    0.000    1.667    3.333    5.000    0.000    1.333 
#    0.000    0.833    0.000    0.000    0.000    0.000 
#    0.000    0.000    0.000    0.000    0.000    0.000 
#
# Total GULP energy -133636.384436 kJ/mol
# GULP energy per Si atom -5568.182685 kJ/mol
# Density = 1.870321 g / cm^3
# Si number density = 18.745876 Si / 1000 Ang^3
#
#
#
# Elastic Constant Matrix: (Units=GPa)
#
#
# Indices 1 2 3 4 5 6 
#
# 1 82.3963 20.1781 12.1877 0.0000 0.9823 0.0000
# 2 20.1781 122.5623 37.3174 0.0000 -14.4824 0.0000
# 3 12.1877 37.3174 57.5554 0.0000 7.1063 0.0000
# 4 0.0000 0.0000 0.0000 0.2742 0.0000 20.1496
# 5 0.9823 -14.4824 7.1063 0.0000 39.0522 0.0000
# 6 0.0000 0.0000 0.0000 20.1496 0.0000 18.4205
#
#
#
# Elastic Compliance Matrix: (Units=1/GPa)
#
#
# Indices 1 2 3 4 5 6 
#
# 1 0.012790 -0.001730 -0.001501 0.000000 -0.000690 0.000000
# 2 -0.001730 0.011493 -0.007792 0.000000 0.005723 0.000000
# 3 -0.001501 -0.007792 0.023628 0.000000 -0.007151 0.000000
# 4 0.000000 0.000000 0.000000 -0.045942 0.000000 0.050254
# 5 -0.000690 0.005723 -0.007151 0.000000 0.029048 0.000000
# 6 0.000000 0.000000 0.000000 0.050254 0.000000 -0.000684
#
#
# Mechanical properties :
#
#
# Convention : Reuss Voigt Hill
#
# Bulk Modulus (GPa) = 38.66417 44.65337 41.65877
# Shear Modulus (GPa) = 81.96546 24.40477 53.18511
#
# Velocity S-wave (km/s) = 6.61963 3.61206 5.33228
# Velocity P-wave (km/s) = 8.89360 6.42402 7.75771
#
# Compressibility (1/GPa) = 0.02586374
#
# Stress axis : x y z
#
# Youngs Moduli (GPa) = 78.18317 87.01176 42.32356
#
# Poissons Ratio (x) = 0.15054 0.06355
# Poissons Ratio (y) = 0.13527 0.32978
# Poissons Ratio (z) = 0.11739 0.67798
#
# Static dielectric constant tensor:
#      x y z
#    x 1.660270 0.000000 -0.000950 
#    y 0.000000 1.725850 0.000000 
#    z -0.000950 0.000000 1.675550 
# 
# From -- ./inp_files/47775.got.cif
#   From: 2010.05.17/outbox.cif.g08.bks.cpg/sg13_24_cif.got.tgz:47775.got - 2010.06.03 16:44:36.
