data_PCOD9227570
_publ_section_title
;
Structure prediction by ZEFSAII (Michael W. Deem and Ramdas Pophale) SiO2 
 PCOD9227570
Probable space group: P 2/C
;
_chemical_formula_sum "Si O2"
_cell_formula_units_Z 28
_cell_length_a 22.691426
_cell_length_b 9.242282
_cell_length_c 14.271911
_cell_angle_alpha 90.000000
_cell_angle_beta 27.837055
_cell_angle_gamma 90.000000
_cell_volume 1397.660009
_symmetry_space_group_name_H-M "P 2/C"
_symmetry_group_IT_number 13
_symmetry_cell_setting 'monoclinic'
loop_
_space_group_symop_operation_xyz
x,y,z
-x,y,1/2-z
-x,-y,-z
x,-y,1/2+z
loop_
_atom_site_type_symbol
_atom_site_label
_atom_site_fract_x
_atom_site_fract_y
_atom_site_fract_z
Si Si1 0.265188 0.353401 0.454455
Si Si2 0.869560 0.179087 0.157578
Si Si3 0.841095 0.849991 0.248362
Si Si4 0.664424 0.630761 0.843808
Si Si5 0.000000 0.549541 0.250000
Si Si6 0.181417 0.347738 0.898797
Si Si7 0.744874 0.687603 0.996112
Si Si8 0.500000 0.290364 0.750000
O O1 0.255029 0.226416 0.544314
O O2 0.358254 0.334894 0.234508
O O3 0.285832 0.514993 0.467625
O O4 0.122594 0.366565 0.612752
O O5 0.774870 0.258141 0.219894
O O6 0.857954 0.273461 0.268117
O O7 0.826282 0.018570 0.247173
O O8 0.013780 0.170840 0.921296
O O9 0.830968 0.767134 0.164396
O O10 0.715244 0.467749 0.772615
O O11 0.559571 0.639445 0.071757
O O12 0.943720 0.443615 0.408270
O O13 0.220258 0.284234 0.945569
O O14 0.625687 0.775124 0.121392
#
# Coordination Sequence:
#
# PCOD9227570 Si02
#       8
#     4   4   4   4   2   4   4   2
#     4  10  19  32  53  80 105 135 173 214 257 310
#     4  10  21  33  50  78 109 147 177 203 256 311
#     4  11  20  31  51  79 114 143 169 209 254 311
#     4   9  20  36  55  76 100 135 178 218 261 306
#     4   8  16  30  52  76 108 138 168 208 256 306
#     4  10  19  32  53  80 105 135 173 214 257 310
#     4   9  20  36  55  76 100 135 178 218 261 306
#     4  10  18  36  62  76  98 130 172 226 268 304
#
# _framework density 20.033484000000001
#
# number of rings (size 3 to 8) (size 9 to 14) (size 15 to 20)
#    0.000    2.571    0.000    5.143    0.000    5.143 
#    0.000    2.857    0.000   27.429    0.000    0.000 
#    0.000    0.000    0.000    0.000    0.000    0.000 
#
# Total GULP energy -155876.332778 kJ/mol
# GULP energy per Si atom -5567.011885 kJ/mol
# Density = 1.998789 g / cm^3
# Si number density = 20.033484 Si / 1000 Ang^3
#
#
#
# Elastic Constant Matrix: (Units=GPa)
#
#
# Indices 1 2 3 4 5 6 
#
# 1 38.1570 31.5302 13.0319 0.0000 23.6803 0.0000
# 2 31.5302 71.4758 18.7049 0.0000 26.0936 0.0000
# 3 13.0319 18.7049 89.5770 0.0000 33.6636 0.0000
# 4 0.0000 0.0000 0.0000 -3.7493 0.0000 -14.4117
# 5 23.6803 26.0936 33.6636 0.0000 42.0460 0.0000
# 6 0.0000 0.0000 0.0000 -14.4117 0.0000 -12.0725
#
#
#
# Elastic Compliance Matrix: (Units=1/GPa)
#
#
# Indices 1 2 3 4 5 6 
#
# 1 0.051945 -0.015645 0.004370 0.000000 -0.023045 0.000000
# 2 -0.015645 0.022826 -0.000684 0.000000 -0.004807 0.000000
# 3 0.004370 -0.000684 0.016358 0.000000 -0.015134 0.000000
# 4 0.000000 0.000000 0.000000 0.074324 0.000000 -0.088724
# 5 -0.023045 -0.004807 -0.015134 0.000000 0.051862 0.000000
# 6 0.000000 0.000000 0.000000 -0.088724 0.000000 0.023082
#
#
# Mechanical properties :
#
#
# Convention : Reuss Voigt Hill
#
# Bulk Modulus (GPa) = 14.87843 36.19376 25.53610
# Shear Modulus (GPa) = 17.43874 14.30768 15.87321
#
# Velocity S-wave (km/s) = 2.95359 2.67533 2.81790
# Velocity P-wave (km/s) = 4.36744 5.25824 4.83340
#
# Compressibility (1/GPa) = 0.06721137
#
# Stress axis : x y z
#
# Youngs Moduli (GPa) = 19.25130 43.80943 61.13239
#
# Poissons Ratio (x) = 0.68540 -0.26717
# Poissons Ratio (y) = 0.30119 0.04181
# Poissons Ratio (z) = -0.08413 0.02996
#
# Static dielectric constant tensor:
#      x y z
#    x 1.767640 0.000000 -0.029440 
#    y 0.000000 1.704330 0.000000 
#    z -0.029440 0.000000 1.786150 
# 
# From -- ./inp_files/58518.got.cif
#   From: 2010.05.17/outbox.cif.g08.bks.cpg/sg13_30_cif.got.tgz:58518.got - 2010.06.03 16:44:36.
