data_PCOD9227455
_publ_section_title
;
Structure prediction by ZEFSAII (Michael W. Deem and Ramdas Pophale) SiO2 
 PCOD9227455
Probable space group: P 2/C
;
_chemical_formula_sum "Si O2"
_cell_formula_units_Z 26
_cell_length_a 8.254773
_cell_length_b 10.417459
_cell_length_c 19.931137
_cell_angle_alpha 90.000000
_cell_angle_beta 54.656401
_cell_angle_gamma 90.000000
_cell_volume 1398.067733
_symmetry_space_group_name_H-M "P 2/C"
_symmetry_group_IT_number 13
_symmetry_cell_setting 'monoclinic'
loop_
_space_group_symop_operation_xyz
x,y,z
-x,y,1/2-z
-x,-y,-z
x,-y,1/2+z
loop_
_atom_site_type_symbol
_atom_site_label
_atom_site_fract_x
_atom_site_fract_y
_atom_site_fract_z
Si Si1 0.907865 0.381285 0.981245
Si Si2 0.000000 0.050285 0.250000
Si Si3 0.912680 0.488547 0.341827
Si Si4 0.004115 0.137894 0.034518
Si Si5 0.683557 0.076057 0.425772
Si Si6 0.206582 0.748001 0.798886
Si Si7 0.453823 0.327566 0.120629
O O1 0.915491 0.409618 0.900446
O O2 0.018824 0.251286 0.976862
O O3 0.677510 0.369795 0.056327
O O4 0.000000 0.500000 0.000000
O O5 0.831565 0.994408 0.340682
O O6 0.877906 0.143158 0.230328
O O7 0.697698 0.430457 0.375555
O O8 0.000000 0.534939 0.250000
O O9 0.049401 0.369383 0.334466
O O10 0.810944 0.181216 0.125206
O O11 0.181844 0.130350 0.045762
O O12 0.000000 0.000000 0.000000
O O13 0.593384 0.194839 0.406110
O O14 0.500000 0.000000 0.500000
O O15 0.394335 0.693523 0.712873
#
# Coordination Sequence:
#
# PCOD9227455 Si02
#       7
#     4   2   4   4   4   4   4
#     4  12  23  36  59  99 126 160 205 270 321 364
#     4   8  14  30  58  86 114 138 214 264 282 354
#     4  10  18  38  63  87 121 158 209 255 311 378
#     4  11  22  37  57  92 134 159 197 269 320 371
#     4  10  18  35  61  88 114 165 214 250 305 379
#     4   9  15  35  60  89 114 155 202 255 302 366
#     4  10  19  35  63  91 114 162 220 252 296 392
#
# _framework density 18.597096000000001
#
# number of rings (size 3 to 8) (size 9 to 14) (size 15 to 20)
#    0.000    1.846    6.923    1.385    0.000    0.615 
#    0.000    1.538   22.000    0.000   12.000    0.000 
#    0.000    0.000    0.000    0.000    0.000    0.000 
#
# Total GULP energy -144834.729350 kJ/mol
# GULP energy per Si atom -5570.566513 kJ/mol
# Density = 1.855477 g / cm^3
# Si number density = 18.597096 Si / 1000 Ang^3
#
#
#
# Elastic Constant Matrix: (Units=GPa)
#
#
# Indices 1 2 3 4 5 6 
#
# 1 89.8197 53.8534 68.7145 0.0000 0.2702 0.0000
# 2 53.8534 89.8297 60.9849 0.0000 12.4486 0.0000
# 3 68.7145 60.9849 156.1138 0.0000 4.3026 0.0000
# 4 0.0000 0.0000 0.0000 50.5874 0.0000 12.1423
# 5 0.2702 12.4486 4.3026 0.0000 43.3530 0.0000
# 6 0.0000 0.0000 0.0000 12.1423 0.0000 38.9400
#
#
#
# Elastic Compliance Matrix: (Units=1/GPa)
#
#
# Indices 1 2 3 4 5 6 
#
# 1 0.020989 -0.009087 -0.005773 0.000000 0.003051 0.000000
# 2 -0.009087 0.019725 -0.003561 0.000000 -0.005254 0.000000
# 3 -0.005773 -0.003561 0.010337 0.000000 0.000033 0.000000
# 4 0.000000 0.000000 0.000000 0.021367 0.000000 -0.006663
# 5 0.003051 -0.005254 0.000033 0.000000 0.024553 0.000000
# 6 0.000000 0.000000 0.000000 -0.006663 0.000000 0.027758
#
#
# Mechanical properties :
#
#
# Convention : Reuss Voigt Hill
#
# Bulk Modulus (GPa) = 70.37484 78.09654 74.23569
# Shear Modulus (GPa) = 30.06495 36.72342 33.39418
#
# Velocity S-wave (km/s) = 4.02512 4.44856 4.24213
# Velocity P-wave (km/s) = 7.71532 8.27475 7.99992
#
# Compressibility (1/GPa) = 0.01420962
#
# Stress axis : x y z
#
# Youngs Moduli (GPa) = 47.64497 50.69587 96.74152
#
# Poissons Ratio (x) = 0.46065 0.55847
# Poissons Ratio (y) = 0.43293 0.34453
# Poissons Ratio (z) = 0.27504 0.18055
#
# Static dielectric constant tensor:
#      x y z
#    x 1.678550 0.000000 -0.000220 
#    y 0.000000 1.618470 0.000000 
#    z -0.000220 0.000000 1.708300 
# 
# From -- ./inp_files/75925.got.cif
#   From: 2010.05.17/outbox.cif.g08.bks.cpg/sg13_38_cif.got.tgz:75925.got - 2010.06.03 16:44:36.
