data_PCOD9227192
_publ_section_title
;
Structure prediction by ZEFSAII (Michael W. Deem and Ramdas Pophale) SiO2 
 PCOD9227192
Probable space group: P 2/C
;
_chemical_formula_sum "Si O2"
_cell_formula_units_Z 28
_cell_length_a 8.181654
_cell_length_b 16.434111
_cell_length_c 11.198533
_cell_angle_alpha 90.000000
_cell_angle_beta 57.593187
_cell_angle_gamma 90.000000
_cell_volume 1271.237911
_symmetry_space_group_name_H-M "P 2/C"
_symmetry_group_IT_number 13
_symmetry_cell_setting 'monoclinic'
loop_
_space_group_symop_operation_xyz
x,y,z
-x,y,1/2-z
-x,-y,-z
x,-y,1/2+z
loop_
_atom_site_type_symbol
_atom_site_label
_atom_site_fract_x
_atom_site_fract_y
_atom_site_fract_z
Si Si1 0.736083 0.431024 0.671961
Si Si2 0.209078 0.078804 0.365589
Si Si3 0.000000 0.821392 0.750000
Si Si4 0.334188 0.711427 0.593340
Si Si5 0.872630 0.916203 0.187457
Si Si6 0.500000 0.202483 0.250000
Si Si7 0.273427 0.525257 0.588020
Si Si8 0.665958 0.254103 0.777094
O O1 0.500000 0.433493 0.750000
O O2 0.803514 0.475112 0.767285
O O3 0.799569 0.473702 0.521972
O O4 0.772891 0.334038 0.679988
O O5 0.139637 0.123246 0.273177
O O6 0.363528 0.137074 0.369416
O O7 0.022455 0.084204 0.520717
O O8 0.269718 0.988553 0.300568
O O9 0.847018 0.765130 0.882036
O O10 0.382670 0.741757 0.706626
O O11 0.265771 0.619666 0.623053
O O12 0.535239 0.718601 0.441536
O O13 0.790765 0.826798 0.246801
O O14 0.000000 0.944203 0.250000
O O15 0.500000 0.500000 0.500000
O O16 0.500000 0.228903 0.750000
#
# Coordination Sequence:
#
# PCOD9227192 Si02
#       8
#     4   4   2   4   4   2   4   4
#     4   9  18  32  54  92 121 156 204 257 310 370
#     4  10  22  43  59  86 124 160 201 255 302 376
#     4  10  22  42  60  84 124 166 202 250 310 380
#     4  11  21  37  63  88 123 160 209 253 310 367
#     4  11  23  39  63  87 124 162 199 247 328 359
#     4  10  24  38  58  90 116 154 216 246 300 362
#     4  10  18  33  59  89 123 159 204 257 312 374
#     4  11  20  36  60  95 115 157 210 256 303 373
#
# _framework density 22.025773999999998
#
# number of rings (size 3 to 8) (size 9 to 14) (size 15 to 20)
#    0.000    1.714    5.000    1.714    4.000    0.000 
#    0.000    2.143    1.571    0.857    0.000    0.000 
#    0.000    0.000    0.000    0.000    0.000    0.000 
#
# Total GULP energy -155940.772014 kJ/mol
# GULP energy per Si atom -5569.313286 kJ/mol
# Density = 2.197564 g / cm^3
# Si number density = 22.025774 Si / 1000 Ang^3
#
#
#
# Elastic Constant Matrix: (Units=GPa)
#
#
# Indices 1 2 3 4 5 6 
#
# 1 47.2350 29.5928 14.2956 0.0000 8.3830 0.0000
# 2 29.5928 120.7832 42.6916 0.0000 8.6178 0.0000
# 3 14.2956 42.6916 66.1557 0.0000 13.2976 0.0000
# 4 0.0000 0.0000 0.0000 34.7656 0.0000 0.4796
# 5 8.3830 8.6178 13.2976 0.0000 22.8530 0.0000
# 6 0.0000 0.0000 0.0000 0.4796 0.0000 14.0389
#
#
#
# Elastic Compliance Matrix: (Units=1/GPa)
#
#
# Indices 1 2 3 4 5 6 
#
# 1 0.026180 -0.005716 -0.000534 0.000000 -0.007137 0.000000
# 2 -0.005716 0.011974 -0.006801 0.000000 0.001539 0.000000
# 3 -0.000534 -0.006801 0.021590 0.000000 -0.009802 0.000000
# 4 0.000000 0.000000 0.000000 0.028778 0.000000 -0.000983
# 5 -0.007137 0.001539 -0.009802 0.000000 0.051499 0.000000
# 6 0.000000 0.000000 0.000000 -0.000983 0.000000 0.071264
#
#
# Mechanical properties :
#
#
# Convention : Reuss Voigt Hill
#
# Bulk Modulus (GPa) = 29.72471 45.25931 37.49201
# Shear Modulus (GPa) = 20.11241 24.17110 22.14176
#
# Velocity S-wave (km/s) = 3.02508 3.31630 3.17403
# Velocity P-wave (km/s) = 5.07210 5.93774 5.52191
#
# Compressibility (1/GPa) = 0.03364204
#
# Stress axis : x y z
#
# Youngs Moduli (GPa) = 38.19661 83.51458 46.31693
#
# Poissons Ratio (x) = 0.47741 0.02472
# Poissons Ratio (y) = 0.21835 0.31501
# Poissons Ratio (z) = 0.02039 0.56799
#
# Static dielectric constant tensor:
#      x y z
#    x 1.846800 0.000000 -0.064090 
#    y 0.000000 1.824820 0.000000 
#    z -0.064090 0.000000 1.876710 
# 
# From -- ./inp_files/30234.got.cif
#   From: 2010.05.17/outbox.cif.g08.bks.cpg/sg13_16_cif.got.tgz:30234.got - 2010.06.03 16:44:36.
