data_PCOD9227556
_publ_section_title
;
Structure prediction by ZEFSAII (Michael W. Deem and Ramdas Pophale) SiO2 
 PCOD9227556
Probable space group: P 2/C
;
_chemical_formula_sum "Si O2"
_cell_formula_units_Z 22
_cell_length_a 5.518081
_cell_length_b 13.131713
_cell_length_c 15.223407
_cell_angle_alpha 90.000000
_cell_angle_beta 76.952863
_cell_angle_gamma 90.000000
_cell_volume 1074.639013
_symmetry_space_group_name_H-M "P 2/C"
_symmetry_group_IT_number 13
_symmetry_cell_setting 'monoclinic'
loop_
_space_group_symop_operation_xyz
x,y,z
-x,y,1/2-z
-x,-y,-z
x,-y,1/2+z
loop_
_atom_site_type_symbol
_atom_site_label
_atom_site_fract_x
_atom_site_fract_y
_atom_site_fract_z
Si Si1 0.268986 0.942214 0.060066
Si Si2 0.288633 0.762739 0.192522
Si Si3 0.285848 0.464919 0.691295
Si Si4 0.048087 0.871366 0.896131
Si Si5 0.500000 0.812265 0.750000
Si Si6 0.197767 0.321413 0.153161
O O1 0.332150 0.851818 0.120022
O O2 0.122826 0.894701 0.989612
O O3 0.122944 0.034346 0.117570
O O4 0.500000 0.000000 0.000000
O O5 0.500000 0.772460 0.250000
O O6 0.327667 0.648375 0.151084
O O7 0.000000 0.770431 0.250000
O O8 0.500000 0.481564 0.750000
O O9 0.280470 0.563232 0.627864
O O10 0.000000 0.459952 0.750000
O O11 0.272306 0.873207 0.808342
O O12 0.923931 0.759255 0.902842
O O13 0.574258 0.739291 0.823947
O O14 0.000000 0.328431 0.250000
#
# Coordination Sequence:
#
# PCOD9227556 Si02
#       6
#     4   4   4   4   2   4
#     4  11  25  44  59  85 130 170 210 267 320 364
#     4  10  24  43  68  94 122 168 220 256 309 387
#     4   9  17  35  61  92 125 157 203 262 313 368
#     4  10  23  38  60  89 126 165 205 260 322 372
#     4  10  18  36  60  94 122 154 210 252 308 390
#     4   9  17  32  58  92 121 155 201 255 312 374
#
# _framework density 20.471990999999999
#
# number of rings (size 3 to 8) (size 9 to 14) (size 15 to 20)
#    0.000    2.182    0.909    1.091    5.091    3.636 
#    1.636    0.909    0.000    4.364    0.000    0.000 
#    0.000    0.000    0.000    0.000    0.000    0.000 
#
# Total GULP energy -122589.422249 kJ/mol
# GULP energy per Si atom -5572.246466 kJ/mol
# Density = 2.042540 g / cm^3
# Si number density = 20.471991 Si / 1000 Ang^3
#
#
#
# Elastic Constant Matrix: (Units=GPa)
#
#
# Indices 1 2 3 4 5 6 
#
# 1 110.2105 63.5650 24.9281 0.0000 -5.6580 0.0000
# 2 63.5650 222.7281 68.6416 0.0000 -2.3254 0.0000
# 3 24.9281 68.6416 38.2754 0.0000 -3.5007 0.0000
# 4 0.0000 0.0000 0.0000 87.4874 0.0000 -33.4098
# 5 -5.6580 -2.3254 -3.5007 0.0000 21.7296 0.0000
# 6 0.0000 0.0000 0.0000 -33.4098 0.0000 -5.2994
#
#
#
# Elastic Compliance Matrix: (Units=1/GPa)
#
#
# Indices 1 2 3 4 5 6 
#
# 1 0.011160 -0.002199 -0.003127 0.000000 0.002167 0.000000
# 2 -0.002199 0.010544 -0.017688 0.000000 -0.002294 0.000000
# 3 -0.003127 -0.017688 0.060528 0.000000 0.007044 0.000000
# 4 0.000000 0.000000 0.000000 0.003354 0.000000 -0.021148
# 5 0.002167 -0.002294 0.007044 0.000000 0.047474 0.000000
# 6 0.000000 0.000000 0.000000 -0.021148 0.000000 -0.055377
#
#
# Mechanical properties :
#
#
# Convention : Reuss Voigt Hill
#
# Bulk Modulus (GPa) = 27.62035 76.16483 51.89259
# Shear Modulus (GPa) = 36.82430 35.05547 35.93989
#
# Velocity S-wave (km/s) = 4.24579 4.14256 4.19449
# Velocity P-wave (km/s) = 6.12835 7.75669 6.99010
#
# Compressibility (1/GPa) = 0.03620519
#
# Stress axis : x y z
#
# Youngs Moduli (GPa) = 89.60389 94.83672 16.52122
#
# Poissons Ratio (x) = 0.20851 0.05167
# Poissons Ratio (y) = 0.19700 0.29222
# Poissons Ratio (z) = 0.28023 1.67746
#
# Static dielectric constant tensor:
#      x y z
#    x 2.049630 0.000000 -0.009360 
#    y 0.000000 1.758180 0.000000 
#    z -0.009360 0.000000 1.763280 
# 
# From -- ./inp_files/61046.got.cif
#   From: 2010.05.17/outbox.cif.g08.bks.cpg/sg13_31_cif.got.tgz:61046.got - 2010.06.03 16:44:36.
