data_PCOD9227578
_publ_section_title
;
Structure prediction by ZEFSAII (Michael W. Deem and Ramdas Pophale) SiO2 
 PCOD9227578
Probable space group: P 2/C
;
_chemical_formula_sum "Si O2"
_cell_formula_units_Z 26
_cell_length_a 18.424063
_cell_length_b 8.332108
_cell_length_c 16.227513
_cell_angle_alpha 90.000000
_cell_angle_beta 148.581856
_cell_angle_gamma 90.000000
_cell_volume 1298.563666
_symmetry_space_group_name_H-M "P 2/C"
_symmetry_group_IT_number 13
_symmetry_cell_setting 'monoclinic'
loop_
_space_group_symop_operation_xyz
x,y,z
-x,y,1/2-z
-x,-y,-z
x,-y,1/2+z
loop_
_atom_site_type_symbol
_atom_site_label
_atom_site_fract_x
_atom_site_fract_y
_atom_site_fract_z
Si Si1 0.000000 0.185765 0.750000
Si Si2 0.893954 0.121282 0.357184
Si Si3 0.390400 0.029091 0.967151
Si Si4 0.925029 0.293228 0.095482
Si Si5 0.855140 0.624289 0.960451
Si Si6 0.271292 0.031667 0.521640
Si Si7 0.565790 0.250128 0.231181
O O1 0.050079 0.289167 0.877280
O O2 0.136932 0.077302 0.865510
O O3 0.754261 0.018614 0.214208
O O4 0.876566 0.277123 0.397716
O O5 0.961782 0.180408 0.338362
O O6 0.000000 0.000000 0.500000
O O7 0.365876 0.937436 0.032186
O O8 0.500000 0.000000 0.000000
O O9 0.440287 0.203033 0.048784
O O10 0.888683 0.437127 0.998985
O O11 0.793048 0.186265 0.995679
O O12 0.000000 0.358767 0.250000
O O13 0.691328 0.644426 0.820675
O O14 0.358413 0.917786 0.668187
O O15 0.500000 0.320526 0.250000
#
# Coordination Sequence:
#
# PCOD9227578 Si02
#       7
#     2   4   4   4   4   4   4
#     4  10  18  36  62  90 118 160 226 266 314 386
#     4  12  24  41  69  98 127 171 230 286 332 390
#     4  11  20  36  63  95 123 155 215 275 321 379
#     4  12  23  40  63  95 136 174 219 279 346 411
#     4  11  22  38  61  95 133 170 213 279 349 393
#     4  10  19  37  60  91 122 166 221 264 315 390
#     4   9  20  37  62  88 122 170 218 266 318 396
#
# _framework density 20.022120999999999
#
# number of rings (size 3 to 8) (size 9 to 14) (size 15 to 20)
#    0.000    1.231    4.615    3.231    0.000    0.000 
#    0.000    2.308    0.000    1.846    0.000    0.000 
#    0.000    0.000    0.000    0.000    0.000    0.000 
#
# Total GULP energy -144878.544104 kJ/mol
# GULP energy per Si atom -5572.251696 kJ/mol
# Density = 1.997655 g / cm^3
# Si number density = 20.022121 Si / 1000 Ang^3
#
#
#
# Elastic Constant Matrix: (Units=GPa)
#
#
# Indices 1 2 3 4 5 6 
#
# 1 99.1675 4.9847 26.8610 0.0000 27.6153 0.0000
# 2 4.9847 53.0536 37.3906 0.0000 17.5340 0.0000
# 3 26.8610 37.3906 109.8479 0.0000 18.2988 0.0000
# 4 0.0000 0.0000 0.0000 24.6660 0.0000 1.4947
# 5 27.6153 17.5340 18.2988 0.0000 30.7641 0.0000
# 6 0.0000 0.0000 0.0000 1.4947 0.0000 13.6541
#
#
#
# Elastic Compliance Matrix: (Units=1/GPa)
#
#
# Indices 1 2 3 4 5 6 
#
# 1 0.014684 0.005591 -0.003071 0.000000 -0.014541 0.000000
# 2 0.005591 0.030128 -0.008797 0.000000 -0.016957 0.000000
# 3 -0.003071 -0.008797 0.012825 0.000000 0.000143 0.000000
# 4 0.000000 0.000000 0.000000 0.040812 0.000000 -0.004468
# 5 -0.014541 -0.016957 0.000143 0.000000 0.055138 0.000000
# 6 0.000000 0.000000 0.000000 -0.004468 0.000000 0.073727
#
#
# Mechanical properties :
#
#
# Convention : Reuss Voigt Hill
#
# Bulk Modulus (GPa) = 22.18238 44.50462 33.34350
# Shear Modulus (GPa) = 19.61569 26.67235 23.14402
#
# Velocity S-wave (km/s) = 3.13341 3.65381 3.40357
# Velocity P-wave (km/s) = 4.91874 6.33060 5.66880
#
# Compressibility (1/GPa) = 0.04508082
#
# Stress axis : x y z
#
# Youngs Moduli (GPa) = 68.10139 33.19166 77.97074
#
# Poissons Ratio (x) = -0.18556 0.23948
# Poissons Ratio (y) = -0.38073 0.68594
# Poissons Ratio (z) = 0.20917 0.29200
#
# Static dielectric constant tensor:
#      x y z
#    x 1.734100 0.000000 -0.019800 
#    y 0.000000 1.649090 0.000000 
#    z -0.019800 0.000000 1.732180 
# 
# From -- ./inp_files/69536.got.cif
#   From: 2010.05.17/outbox.cif.g08.bks.cpg/sg13_35_cif.got.tgz:69536.got - 2010.06.03 16:44:36.
