data_PCOD9227370
_publ_section_title
;
Structure prediction by ZEFSAII (Michael W. Deem and Ramdas Pophale) SiO2 
 PCOD9227370
Probable space group: P 2/C
;
_chemical_formula_sum "Si O2"
_cell_formula_units_Z 20
_cell_length_a 4.832546
_cell_length_b 6.777066
_cell_length_c 30.043513
_cell_angle_alpha 90.000000
_cell_angle_beta 59.985858
_cell_angle_gamma 90.000000
_cell_volume 851.995205
_symmetry_space_group_name_H-M "P 2/C"
_symmetry_group_IT_number 13
_symmetry_cell_setting 'monoclinic'
loop_
_space_group_symop_operation_xyz
x,y,z
-x,y,1/2-z
-x,-y,-z
x,-y,1/2+z
loop_
_atom_site_type_symbol
_atom_site_label
_atom_site_fract_x
_atom_site_fract_y
_atom_site_fract_z
Si Si1 0.735706 0.019257 0.059228
Si Si2 0.848370 0.238674 0.216372
Si Si3 0.936479 0.324944 0.803051
Si Si4 0.808150 0.325519 0.625321
Si Si5 0.103175 0.748444 0.599547
O O1 0.415704 0.117893 0.064036
O O2 0.831794 0.178591 0.088343
O O3 0.759984 0.817228 0.086513
O O4 0.000000 0.000000 0.000000
O O5 0.500000 0.155304 0.250000
O O6 0.025011 0.197432 0.156550
O O7 0.000000 0.182929 0.250000
O O8 0.561646 0.384934 0.835820
O O9 0.000000 0.227298 0.750000
O O10 0.052641 0.228165 0.840195
O O11 0.145889 0.523142 0.784583
O O12 0.056975 0.509454 0.598683
#
# Coordination Sequence:
#
# PCOD9227370 Si02
#       5
#     4   4   4   4   4
#     4  12  27  45  65  92 126 168 226 285 332 387
#     4  10  18  34  63  95 128 167 206 250 316 397
#     4  10  18  35  63  96 131 169 209 257 324 403
#     4  11  23  41  66  95 130 170 217 270 331 403
#     4  11  23  43  67  93 129 169 212 269 333 395
#
# _framework density 23.474311
#
# number of rings (size 3 to 8) (size 9 to 14) (size 15 to 20)
#    0.000    1.200    0.000   10.800    0.000    1.600 
#    0.000   10.000    0.000    0.000    0.000    0.000 
#    0.000    0.000    0.000    0.000    0.000    0.000 
#
# Total GULP energy -111457.241073 kJ/mol
# GULP energy per Si atom -5572.862054 kJ/mol
# Density = 2.342088 g / cm^3
# Si number density = 23.474311 Si / 1000 Ang^3
#
#
#
# Elastic Constant Matrix: (Units=GPa)
#
#
# Indices 1 2 3 4 5 6 
#
# 1 128.3237 1.6924 8.3231 0.0000 -10.1959 0.0000
# 2 1.6924 134.8772 19.9005 0.0000 -8.8890 0.0000
# 3 8.3231 19.9005 105.8137 0.0000 -19.6227 0.0000
# 4 0.0000 0.0000 0.0000 21.7341 0.0000 11.6151
# 5 -10.1959 -8.8890 -19.6227 0.0000 33.6005 0.0000
# 6 0.0000 0.0000 0.0000 11.6151 0.0000 23.9822
#
#
#
# Elastic Compliance Matrix: (Units=1/GPa)
#
#
# Indices 1 2 3 4 5 6 
#
# 1 0.007990 0.000084 -0.000214 0.000000 0.002322 0.000000
# 2 0.000084 0.007679 -0.001199 0.000000 0.001357 0.000000
# 3 -0.000214 -0.001199 0.010791 0.000000 0.005920 0.000000
# 4 0.000000 0.000000 0.000000 0.062078 0.000000 -0.030066
# 5 0.002322 0.001357 0.005920 0.000000 0.034282 0.000000
# 6 0.000000 0.000000 0.000000 -0.030066 0.000000 0.056259
#
#
# Mechanical properties :
#
#
# Convention : Reuss Voigt Hill
#
# Bulk Modulus (GPa) = 42.01196 47.64965 44.83081
# Shear Modulus (GPa) = 26.36137 38.46993 32.41565
#
# Velocity S-wave (km/s) = 3.35474 4.05261 3.72008
# Velocity P-wave (km/s) = 5.73947 6.49930 6.13117
#
# Compressibility (1/GPa) = 0.02380274
#
# Stress axis : x y z
#
# Youngs Moduli (GPa) = 125.15586 130.21741 92.67232
#
# Poissons Ratio (x) = -0.01098 0.01981
# Poissons Ratio (y) = -0.01055 0.11114
# Poissons Ratio (z) = 0.02675 0.15617
#
# Static dielectric constant tensor:
#      x y z
#    x 1.875120 0.000000 -0.000960 
#    y 0.000000 2.022530 0.000000 
#    z -0.000960 0.000000 1.860160 
# 
# From -- ./inp_files/83265.got.cif
#   From: 2010.05.17/outbox.cif.g08.bks.cpg/sg13_42_cif.got.tgz:83265.got - 2010.06.03 16:44:36.
