data_PCOD9227019
_publ_section_title
;
Structure prediction by ZEFSAII (Michael W. Deem and Ramdas Pophale) SiO2 
 PCOD9227019
Probable space group: P 2/C
;
_chemical_formula_sum "Si O2"
_cell_formula_units_Z 30
_cell_length_a 8.204963
_cell_length_b 7.770664
_cell_length_c 23.085868
_cell_angle_alpha 90.000000
_cell_angle_beta 102.096629
_cell_angle_gamma 90.000000
_cell_volume 1439.226113
_symmetry_space_group_name_H-M "P 2/C"
_symmetry_group_IT_number 13
_symmetry_cell_setting 'monoclinic'
loop_
_space_group_symop_operation_xyz
x,y,z
-x,y,1/2-z
-x,-y,-z
x,-y,1/2+z
loop_
_atom_site_type_symbol
_atom_site_label
_atom_site_fract_x
_atom_site_fract_y
_atom_site_fract_z
Si Si1 0.761556 0.815476 0.633771
Si Si2 0.260838 0.396661 0.007415
Si Si3 0.000000 0.243217 0.250000
Si Si4 0.813193 0.422717 0.333714
Si Si5 0.401058 0.746073 0.182085
Si Si6 0.440581 0.881071 0.678593
Si Si7 0.041309 0.294779 0.451075
Si Si8 0.583891 0.463011 0.597828
O O1 0.592664 0.900004 0.644820
O O2 0.706132 0.612835 0.630047
O O3 0.899025 0.855864 0.692995
O O4 0.844253 0.840633 0.576323
O O5 0.123566 0.262897 0.022008
O O6 0.424849 0.437258 0.057493
O O7 0.325760 0.362457 0.947660
O O8 0.163332 0.579982 0.995540
O O9 0.872867 0.360354 0.275862
O O10 0.749640 0.614261 0.326566
O O11 0.667781 0.288061 0.339626
O O12 0.956226 0.399391 0.391668
O O13 0.500000 0.744491 0.250000
O O14 0.520681 0.665989 0.141950
O O15 0.343019 0.940037 0.166243
O O16 0.500000 0.866894 0.750000
#
# Coordination Sequence:
#
# PCOD9227019 Si02
#       8
#     4   4   2   4   4   4   4   4
#     4  10  18  32  55  83 110 153 192 229 294 346
#     4   9  17  32  56  90 110 146 200 238 299 350
#     4  10  20  30  60  80 118 156 182 236 294 348
#     4  11  19  37  58  84 115 152 191 237 288 350
#     4  11  22  34  58  88 115 148 198 236 283 347
#     4  11  21  35  57  81 117 158 196 234 284 346
#     4   9  18  30  58  85 109 147 189 238 300 345
#     4  10  18  33  59  84 113 152 194 244 286 350
#
# _framework density 20.844535
#
# number of rings (size 3 to 8) (size 9 to 14) (size 15 to 20)
#    0.000    1.867    4.000    1.200    0.000    0.000 
#    0.000    0.667   17.600   14.400    0.000    0.000 
#    0.000    0.000    0.000    0.000    0.000    0.000 
#
# Total GULP energy -167166.136458 kJ/mol
# GULP energy per Si atom -5572.204549 kJ/mol
# Density = 2.079709 g / cm^3
# Si number density = 20.844535 Si / 1000 Ang^3
#
#
#
# Elastic Constant Matrix: (Units=GPa)
#
#
# Indices 1 2 3 4 5 6 
#
# 1 90.6051 -16.0841 -3.9066 0.0000 -19.5971 0.0000
# 2 -16.0841 31.4325 -20.5709 0.0000 9.8901 0.0000
# 3 -3.9066 -20.5709 44.2917 0.0000 -13.1136 0.0000
# 4 0.0000 0.0000 0.0000 0.2914 0.0000 -2.0757
# 5 -19.5971 9.8901 -13.1136 0.0000 51.7580 0.0000
# 6 0.0000 0.0000 0.0000 -2.0757 0.0000 10.0909
#
#
#
# Elastic Compliance Matrix: (Units=1/GPa)
#
#
# Indices 1 2 3 4 5 6 
#
# 1 0.014488 0.010912 0.007949 0.000000 0.005414 0.000000
# 2 0.010912 0.054565 0.026423 0.000000 0.000400 0.000000
# 3 0.007949 0.026423 0.037781 0.000000 0.007533 0.000000
# 4 0.000000 0.000000 0.000000 -7.375140 0.000000 -1.517043
# 5 0.005414 0.000400 0.007533 0.000000 0.023203 0.000000
# 6 0.000000 0.000000 0.000000 -1.517043 0.000000 -0.212952
#
#
# Mechanical properties :
#
#
# Convention : Reuss Voigt Hill
#
# Bulk Modulus (GPa) = 5.06584 9.46734 7.26659
# Shear Modulus (GPa) = -0.66820 26.22080 12.77630
#
# Velocity S-wave (km/s) = -0.56680 3.55057 2.47843
# Velocity P-wave (km/s) = 1.41677 4.62174 3.41816
#
# Compressibility (1/GPa) = 0.19740078
#
# Stress axis : x y z
#
# Youngs Moduli (GPa) = 69.02366 18.32692 26.46837
#
# Poissons Ratio (x) = -0.19998 -0.21039
# Poissons Ratio (y) = -0.75318 -0.69937
# Poissons Ratio (z) = -0.54866 -0.48425
#
# Static dielectric constant tensor:
#      x y z
#    x 1.830350 0.000000 -0.043340 
#    y 0.000000 1.710890 0.000000 
#    z -0.043340 0.000000 1.771040 
# 
# From -- ./inp_files/84824.got.cif
#   From: 2010.05.17/outbox.cif.g08.bks.cpg/sg13_43_cif.got.tgz:84824.got - 2010.06.03 16:44:36.
