data_PCOD9227284
_publ_section_title
;
Structure prediction by ZEFSAII (Michael W. Deem and Ramdas Pophale) SiO2 
 PCOD9227284
Probable space group: P 2/C
;
_chemical_formula_sum "Si O2"
_cell_formula_units_Z 24
_cell_length_a 16.611715
_cell_length_b 11.375531
_cell_length_c 11.934369
_cell_angle_alpha 90.000000
_cell_angle_beta 145.346826
_cell_angle_gamma 90.000000
_cell_volume 1282.325077
_symmetry_space_group_name_H-M "P 2/C"
_symmetry_group_IT_number 13
_symmetry_cell_setting 'monoclinic'
loop_
_space_group_symop_operation_xyz
x,y,z
-x,y,1/2-z
-x,-y,-z
x,-y,1/2+z
loop_
_atom_site_type_symbol
_atom_site_label
_atom_site_fract_x
_atom_site_fract_y
_atom_site_fract_z
Si Si1 0.666725 0.826625 0.454136
Si Si2 0.872169 0.265209 0.862423
Si Si3 0.171118 0.656840 0.427546
Si Si4 0.861048 0.050503 0.016686
Si Si5 0.178207 0.197012 0.140643
Si Si6 0.833330 0.610360 0.534705
O O1 0.500000 0.820855 0.250000
O O2 0.732040 0.932333 0.454959
O O3 0.715562 0.834310 0.638487
O O4 0.741208 0.709747 0.489348
O O5 0.802865 0.281993 0.661813
O O6 0.843535 0.144880 0.896934
O O7 0.824363 0.368908 0.890882
O O8 0.041820 0.262718 0.037216
O O9 0.238411 0.722792 0.610156
O O10 0.206734 0.519416 0.471495
O O11 0.000000 0.664338 0.250000
O O12 0.874289 0.922459 0.978661
O O13 0.000000 0.077734 0.250000
O O14 0.000000 0.629143 0.750000
#
# Coordination Sequence:
#
# PCOD9227284 Si02
#       6
#     4   4   4   4   4   4
#     4  11  24  40  58  82 117 157 193 232 287 342
#     4  10  18  34  57  92 117 139 187 244 285 337
#     4   9  21  30  57  94 117 141 187 245 297 325
#     4  11  21  37  65  87 111 153 190 237 292 335
#     4  11  21  35  60  87 119 144 192 240 286 338
#     4  10  19  37  61  84 112 153 191 237 288 335
#
# _framework density 18.716004000000002
#
# number of rings (size 3 to 8) (size 9 to 14) (size 15 to 20)
#    0.000    1.667    3.333    3.000    4.667    2.667 
#    0.000    0.833    0.000    0.000    0.000    0.000 
#    0.000    0.000    0.000    0.000    0.000    0.000 
#
# Total GULP energy -133933.033307 kJ/mol
# GULP energy per Si atom -5580.543054 kJ/mol
# Density = 1.867341 g / cm^3
# Si number density = 18.716004 Si / 1000 Ang^3
#
#
#
# Elastic Constant Matrix: (Units=GPa)
#
#
# Indices 1 2 3 4 5 6 
#
# 1 77.0701 25.1740 44.1974 0.0000 -19.7504 0.0000
# 2 25.1740 66.4601 10.5271 0.0000 -10.1406 0.0000
# 3 44.1974 10.5271 53.4310 0.0000 -10.7679 0.0000
# 4 0.0000 0.0000 0.0000 8.9336 0.0000 -9.9762
# 5 -19.7504 -10.1406 -10.7679 0.0000 34.6508 0.0000
# 6 0.0000 0.0000 0.0000 -9.9762 0.0000 12.6340
#
#
#
# Elastic Compliance Matrix: (Units=1/GPa)
#
#
# Indices 1 2 3 4 5 6 
#
# 1 0.029548 -0.006529 -0.021492 0.000000 0.008252 0.000000
# 2 -0.006529 0.017467 0.002389 0.000000 0.002133 0.000000
# 3 -0.021492 0.002389 0.035946 0.000000 -0.000380 0.000000
# 4 0.000000 0.000000 0.000000 0.946833 0.000000 0.747649
# 5 0.008252 0.002133 -0.000380 0.000000 0.034069 0.000000
# 6 0.000000 0.000000 0.000000 0.747649 0.000000 0.669518
#
#
# Mechanical properties :
#
#
# Convention : Reuss Voigt Hill
#
# Bulk Modulus (GPa) = 31.54876 39.63980 35.59428
# Shear Modulus (GPa) = 2.78519 19.04786 10.91653
#
# Velocity S-wave (km/s) = 1.22121 3.19365 2.41772
# Velocity P-wave (km/s) = 4.34530 5.90126 5.18201
#
# Compressibility (1/GPa) = 0.03169697
#
# Stress axis : x y z
#
# Youngs Moduli (GPa) = 33.84376 57.25208 27.81927
#
# Poissons Ratio (x) = 0.37378 0.59789
# Poissons Ratio (y) = 0.22096 -0.06646
# Poissons Ratio (z) = 0.72737 -0.13678
#
# Static dielectric constant tensor:
#      x y z
#    x 1.664160 0.000000 -0.031560 
#    y 0.000000 1.653550 0.000000 
#    z -0.031560 0.000000 1.626540 
# 
# From -- ./inp_files/29328.got.cif
#   From: 2010.05.17/outbox.cif.g08.bks.cpg/sg13_15_cif.got.tgz:29328.got - 2010.06.03 16:44:36.
