data_PCOD9227451
_publ_section_title
;
Structure prediction by ZEFSAII (Michael W. Deem and Ramdas Pophale) SiO2 
 PCOD9227451
Probable space group: P 2/C
;
_chemical_formula_sum "Si O2"
_cell_formula_units_Z 24
_cell_length_a 27.736194
_cell_length_b 9.291177
_cell_length_c 20.146604
_cell_angle_alpha 90.000000
_cell_angle_beta 164.203293
_cell_angle_gamma 90.000000
_cell_volume 1413.342334
_symmetry_space_group_name_H-M "P 2/C"
_symmetry_group_IT_number 13
_symmetry_cell_setting 'monoclinic'
loop_
_space_group_symop_operation_xyz
x,y,z
-x,y,1/2-z
-x,-y,-z
x,-y,1/2+z
loop_
_atom_site_type_symbol
_atom_site_label
_atom_site_fract_x
_atom_site_fract_y
_atom_site_fract_z
Si Si1 0.491574 0.886554 0.914587
Si Si2 0.400740 0.649107 0.688282
Si Si3 0.826251 0.082944 0.061322
Si Si4 0.035990 0.798373 0.217587
Si Si5 0.447745 0.683903 0.257767
Si Si6 0.669429 0.831939 0.663189
O O1 0.484705 0.761851 0.851406
O O2 0.463910 0.819286 0.950444
O O3 0.319752 0.990355 0.673835
O O4 0.655033 0.996998 0.127790
O O5 0.500000 0.665165 0.750000
O O6 0.194477 0.691952 0.409707
O O7 0.416906 0.483831 0.731458
O O8 0.000000 0.125085 0.250000
O O9 0.894692 0.961174 0.202644
O O10 0.723911 0.217762 0.955414
O O11 0.000000 0.787252 0.250000
O O12 0.857559 0.780839 0.939862
O O13 0.500000 0.698754 0.250000
O O14 0.598427 0.745338 0.506299
#
# Coordination Sequence:
#
# PCOD9227451 Si02
#       6
#     4   4   4   4   4   4
#     4   9  18  33  58  84 106 142 182 229 281 322
#     4  10  21  39  55  78 119 153 180 221 277 335
#     4   9  16  33  56  80 110 135 183 233 275 319
#     4  10  18  36  60  85 109 139 189 234 278 324
#     4  10  23  38  53  78 118 155 183 221 278 331
#     4  10  18  35  61  82 111 139 188 236 273 326
#
# _framework density 16.981024000000001
#
# number of rings (size 3 to 8) (size 9 to 14) (size 15 to 20)
#    0.000    2.333    5.000    0.000    0.000    7.333 
#    0.000    8.333    0.000    0.000    0.000    0.000 
#    0.000    0.000    0.000    0.000    0.000    0.000 
#
# Total GULP energy -133661.355789 kJ/mol
# GULP energy per Si atom -5569.223158 kJ/mol
# Density = 1.694237 g / cm^3
# Si number density = 16.981024 Si / 1000 Ang^3
#
#
#
# Elastic Constant Matrix: (Units=GPa)
#
#
# Indices 1 2 3 4 5 6 
#
# 1 77.0144 68.9292 45.0098 0.0000 -10.7155 0.0000
# 2 68.9292 115.2366 47.2068 0.0000 -6.5232 0.0000
# 3 45.0098 47.2068 98.5049 0.0000 -10.4557 0.0000
# 4 0.0000 0.0000 0.0000 7.7065 0.0000 3.7694
# 5 -10.7155 -6.5232 -10.4557 0.0000 25.5345 0.0000
# 6 0.0000 0.0000 0.0000 3.7694 0.0000 30.4581
#
#
#
# Elastic Compliance Matrix: (Units=1/GPa)
#
#
# Indices 1 2 3 4 5 6 
#
# 1 0.032116 -0.016312 -0.006136 0.000000 0.006798 0.000000
# 2 -0.016312 0.019093 -0.001992 0.000000 -0.002783 0.000000
# 3 -0.006136 -0.001992 0.014200 0.000000 0.002731 0.000000
# 4 0.000000 0.000000 0.000000 0.138122 0.000000 -0.017094
# 5 0.006798 -0.002783 0.002731 0.000000 0.042423 0.000000
# 6 0.000000 0.000000 0.000000 -0.017094 0.000000 0.034947
#
#
# Mechanical properties :
#
#
# Convention : Reuss Voigt Hill
#
# Bulk Modulus (GPa) = 60.49902 68.11639 64.30770
# Shear Modulus (GPa) = 14.91244 21.38049 18.14646
#
# Velocity S-wave (km/s) = 2.96663 3.55220 3.27254
# Velocity P-wave (km/s) = 6.88762 7.55146 7.22716
#
# Compressibility (1/GPa) = 0.01652919
#
# Stress axis : x y z
#
# Youngs Moduli (GPa) = 31.13742 52.37445 70.42216
#
# Poissons Ratio (x) = 0.85432 0.43211
# Poissons Ratio (y) = 0.50790 0.14030
# Poissons Ratio (z) = 0.19106 0.10434
#
# Static dielectric constant tensor:
#      x y z
#    x 1.574430 0.000000 -0.003520 
#    y 0.000000 1.575520 0.000000 
#    z -0.003520 0.000000 1.609610 
# 
# From -- ./inp_files/71320.got.cif
#   From: 2010.05.17/outbox.cif.g08.bks.cpg/sg13_36_cif.got.tgz:71320.got - 2010.06.03 16:44:36.
