data_PCOD9227249
_publ_section_title
;
Structure prediction by ZEFSAII (Michael W. Deem and Ramdas Pophale) SiO2 
 PCOD9227249
Probable space group: P 2/C
;
_chemical_formula_sum "Si O2"
_cell_formula_units_Z 28
_cell_length_a 11.799774
_cell_length_b 9.971767
_cell_length_c 19.880150
_cell_angle_alpha 90.000000
_cell_angle_beta 43.028429
_cell_angle_gamma 90.000000
_cell_volume 1596.172289
_symmetry_space_group_name_H-M "P 2/C"
_symmetry_group_IT_number 13
_symmetry_cell_setting 'monoclinic'
loop_
_space_group_symop_operation_xyz
x,y,z
-x,y,1/2-z
-x,-y,-z
x,-y,1/2+z
loop_
_atom_site_type_symbol
_atom_site_label
_atom_site_fract_x
_atom_site_fract_y
_atom_site_fract_z
Si Si1 0.378895 0.507964 0.856336
Si Si2 0.187759 0.229031 0.648033
Si Si3 0.543323 0.591579 0.418557
Si Si4 0.358040 0.027797 0.366501
Si Si5 0.444774 0.865146 0.122760
Si Si6 0.752770 0.762331 0.158194
Si Si7 0.856246 0.267397 0.989836
O O1 0.500000 0.577976 0.750000
O O2 0.491267 0.480526 0.873099
O O3 0.319037 0.369494 0.847354
O O4 0.223416 0.597505 0.945706
O O5 0.267386 0.359036 0.651228
O O6 0.197432 0.251251 0.564631
O O7 0.000000 0.208063 0.750000
O O8 0.696588 0.111059 0.871710
O O9 0.500000 0.500000 0.500000
O O10 0.455154 0.738547 0.451759
O O11 0.500000 0.061277 0.250000
O O12 0.450121 0.988034 0.396056
O O13 0.271005 0.890889 0.379366
O O14 0.227384 0.144799 0.433833
O O15 0.352530 0.803258 0.229460
O O16 0.944939 0.738509 0.091947
#
# Coordination Sequence:
#
# PCOD9227249 Si02
#       7
#     4   4   4   4   4   4   4
#     4  12  20  36  57  83 112 145 184 223 273 330
#     4  10  19  34  53  79 105 138 187 223 262 324
#     4  10  18  34  55  80 106 141 181 227 264 318
#     4  10  21  38  55  78 109 145 181 221 274 328
#     4   9  18  35  59  75  98 150 189 211 258 333
#     4  11  19  37  57  78 108 147 187 219 263 332
#     4  12  23  32  54  88 114 135 175 243 277 307
#
# _framework density 17.541965000000001
#
# number of rings (size 3 to 8) (size 9 to 14) (size 15 to 20)
#    0.857    0.571    5.714    1.714    0.000    0.571 
#    0.000    0.000    0.000    0.000    0.000    1.000 
#    0.000    0.000    0.000    0.000    0.000    0.000 
#
# Total GULP energy -155883.898410 kJ/mol
# GULP energy per Si atom -5567.282086 kJ/mol
# Density = 1.750204 g / cm^3
# Si number density = 17.541965 Si / 1000 Ang^3
#
#
#
# Elastic Constant Matrix: (Units=GPa)
#
#
# Indices 1 2 3 4 5 6 
#
# 1 109.8535 15.5661 21.2223 0.0000 2.3167 0.0000
# 2 15.5661 53.5653 14.9230 0.0000 1.3823 0.0000
# 3 21.2223 14.9230 36.7287 0.0000 7.0650 0.0000
# 4 0.0000 0.0000 0.0000 21.6556 0.0000 -2.0373
# 5 2.3167 1.3823 7.0650 0.0000 23.9244 0.0000
# 6 0.0000 0.0000 0.0000 -2.0373 0.0000 13.3650
#
#
#
# Elastic Compliance Matrix: (Units=1/GPa)
#
#
# Indices 1 2 3 4 5 6 
#
# 1 0.010366 -0.001493 -0.005520 0.000000 0.000713 0.000000
# 2 -0.001493 0.021310 -0.008044 0.000000 0.001289 0.000000
# 3 -0.005520 -0.008044 0.035509 0.000000 -0.009487 0.000000
# 4 0.000000 0.000000 0.000000 0.046849 0.000000 0.007142
# 5 0.000713 0.001289 -0.009487 0.000000 0.044456 0.000000
# 6 0.000000 0.000000 0.000000 0.007142 0.000000 0.075911
#
#
# Mechanical properties :
#
#
# Convention : Reuss Voigt Hill
#
# Bulk Modulus (GPa) = 26.97442 33.73004 30.35223
# Shear Modulus (GPa) = 18.05881 21.68475 19.87178
#
# Velocity S-wave (km/s) = 3.21201 3.51973 3.36938
# Velocity P-wave (km/s) = 5.40060 5.98230 5.69888
#
# Compressibility (1/GPa) = 0.03707215
#
# Stress axis : x y z
#
# Youngs Moduli (GPa) = 96.46965 46.92560 28.16160
#
# Poissons Ratio (x) = 0.07005 0.15545
# Poissons Ratio (y) = 0.14402 0.22653
# Poissons Ratio (z) = 0.53252 0.37746
#
# Static dielectric constant tensor:
#      x y z
#    x 1.626980 0.000000 0.016150 
#    y 0.000000 1.614060 0.000000 
#    z 0.016150 0.000000 1.594020 
# 
# From -- ./inp_files/78002.got.cif
#   From: 2010.05.17/outbox.cif.g08.bks.cpg/sg13_40_cif.got.tgz:78002.got - 2010.06.03 16:44:36.
