data_PCOD9227372
_publ_section_title
;
Structure prediction by ZEFSAII (Michael W. Deem and Ramdas Pophale) SiO2 
 PCOD9227372
Probable space group: P 2/C
;
_chemical_formula_sum "Si O2"
_cell_formula_units_Z 22
_cell_length_a 9.176131
_cell_length_b 6.368337
_cell_length_c 18.825506
_cell_angle_alpha 90.000000
_cell_angle_beta 68.439665
_cell_angle_gamma 90.000000
_cell_volume 1023.127544
_symmetry_space_group_name_H-M "P 2/C"
_symmetry_group_IT_number 13
_symmetry_cell_setting 'monoclinic'
loop_
_space_group_symop_operation_xyz
x,y,z
-x,y,1/2-z
-x,-y,-z
x,-y,1/2+z
loop_
_atom_site_type_symbol
_atom_site_label
_atom_site_fract_x
_atom_site_fract_y
_atom_site_fract_z
Si Si1 0.000000 0.617234 0.250000
Si Si2 0.507355 0.690003 0.052558
Si Si3 0.085254 0.037189 0.847753
Si Si4 0.740371 0.319640 0.273068
Si Si5 0.633901 0.684533 0.180981
Si Si6 0.275743 0.949108 0.586126
O O1 0.048800 0.770691 0.302570
O O2 0.141342 0.467628 0.204893
O O3 0.558626 0.612478 0.120713
O O4 0.345563 0.818598 0.085290
O O5 0.500000 0.500000 0.000000
O O6 0.634410 0.847481 0.996017
O O7 0.224872 0.155794 0.865386
O O8 0.165757 0.847145 0.791607
O O9 0.910073 0.959429 0.898662
O O10 0.670944 0.484705 0.226513
O O11 0.675346 0.177530 0.350038
O O12 0.500000 0.807165 0.250000
#
# Coordination Sequence:
#
# PCOD9227372 Si02
#       6
#     2   4   4   4   4   4
#     4  10  18  34  64 104 122 166 222 270 332 384
#     4  11  27  46  67  96 138 185 224 278 347 405
#     4  11  22  39  70  99 133 171 232 281 329 395
#     4  11  21  38  70 101 131 171 223 278 334 394
#     4  11  26  42  66 102 135 173 224 285 335 401
#     4  11  23  43  71  97 133 183 227 277 342 407
#
# _framework density 21.502697000000001
#
# number of rings (size 3 to 8) (size 9 to 14) (size 15 to 20)
#    0.000    1.091    3.636    2.182    5.091    5.818 
#    0.000    1.818    0.000    0.000    0.000    0.000 
#    0.000    0.000    0.000    0.000    0.000    0.000 
#
# Total GULP energy -122485.411931 kJ/mol
# GULP energy per Si atom -5567.518724 kJ/mol
# Density = 2.145376 g / cm^3
# Si number density = 21.502697 Si / 1000 Ang^3
#
#
#
# Elastic Constant Matrix: (Units=GPa)
#
#
# Indices 1 2 3 4 5 6 
#
# 1 92.2409 33.4585 45.6333 0.0000 2.5417 0.0000
# 2 33.4585 103.3391 27.7439 0.0000 1.3485 0.0000
# 3 45.6333 27.7439 93.4027 0.0000 6.5599 0.0000
# 4 0.0000 0.0000 0.0000 46.7237 0.0000 -2.5276
# 5 2.5417 1.3485 6.5599 0.0000 34.4127 0.0000
# 6 0.0000 0.0000 0.0000 -2.5276 0.0000 56.2095
#
#
#
# Elastic Compliance Matrix: (Units=1/GPa)
#
#
# Indices 1 2 3 4 5 6 
#
# 1 0.015204 -0.003181 -0.006500 0.000000 0.000241 0.000000
# 2 -0.003181 0.011182 -0.001777 0.000000 0.000135 0.000000
# 3 -0.006500 -0.001777 0.014566 0.000000 -0.002227 0.000000
# 4 0.000000 0.000000 0.000000 0.021455 0.000000 0.000965
# 5 0.000241 0.000135 -0.002227 0.000000 0.029460 0.000000
# 6 0.000000 0.000000 0.000000 0.000965 0.000000 0.017834
#
#
# Mechanical properties :
#
#
# Convention : Reuss Voigt Hill
#
# Bulk Modulus (GPa) = 55.44309 55.85044 55.64676
# Shear Modulus (GPa) = 36.06732 39.61232 37.83982
#
# Velocity S-wave (km/s) = 4.09998 4.29674 4.19951
# Velocity P-wave (km/s) = 6.94646 7.11661 7.03205
#
# Compressibility (1/GPa) = 0.01803651
#
# Stress axis : x y z
#
# Youngs Moduli (GPa) = 65.77180 89.42940 68.65113
#
# Poissons Ratio (x) = 0.28444 0.44625
# Poissons Ratio (y) = 0.20920 0.12199
# Poissons Ratio (z) = 0.42754 0.15892
#
# Static dielectric constant tensor:
#      x y z
#    x 1.887000 0.000000 -0.085710 
#    y 0.000000 1.805200 0.000000 
#    z -0.085710 0.000000 1.755220 
# 
# From -- ./inp_files/74481.got.cif
#   From: 2010.05.17/outbox.cif.g08.bks.cpg/sg13_38_cif.got.tgz:74481.got - 2010.06.03 16:44:36.
