data_PCOD9227645
_publ_section_title
;
Structure prediction by ZEFSAII (Michael W. Deem and Ramdas Pophale) SiO2 
 PCOD9227645
Probable space group: P 2/C
;
_chemical_formula_sum "Si O2"
_cell_formula_units_Z 28
_cell_length_a 11.410976
_cell_length_b 16.824347
_cell_length_c 19.548881
_cell_angle_alpha 90.000000
_cell_angle_beta 22.617691
_cell_angle_gamma 90.000000
_cell_volume 1443.344541
_symmetry_space_group_name_H-M "P 2/C"
_symmetry_group_IT_number 13
_symmetry_cell_setting 'monoclinic'
loop_
_space_group_symop_operation_xyz
x,y,z
-x,y,1/2-z
-x,-y,-z
x,-y,1/2+z
loop_
_atom_site_type_symbol
_atom_site_label
_atom_site_fract_x
_atom_site_fract_y
_atom_site_fract_z
Si Si1 0.757320 0.290549 0.319372
Si Si2 0.096750 0.427464 0.536111
Si Si3 0.687080 0.419798 0.880757
Si Si4 0.649105 0.951156 0.316624
Si Si5 0.229457 0.971601 0.935821
Si Si6 0.182724 0.598791 0.835585
Si Si7 0.684773 0.886309 0.878518
O O1 0.488946 0.345512 0.493070
O O2 0.882068 0.332513 0.183926
O O3 0.663832 0.199916 0.356714
O O4 0.000000 0.289170 0.250000
O O5 0.451140 0.418901 0.368399
O O6 0.103518 0.386915 0.457712
O O7 0.815568 0.400235 0.735550
O O8 0.016598 0.521008 0.574070
O O9 0.000000 0.434555 0.750000
O O10 0.500000 0.500000 0.000000
O O11 0.402306 0.959771 0.387638
O O12 0.553692 0.898581 0.431992
O O13 0.661448 0.041988 0.337737
O O14 0.990006 0.926854 0.112191
O O15 0.500000 0.927756 0.750000
O O16 0.000000 0.000000 0.000000
O O17 0.000000 0.894975 0.750000
#
# Coordination Sequence:
#
# PCOD9227645 Si02
#       7
#     4   4   4   4   4   4   4
#     4  11  24  39  58  85 123 158 201 252 310 361
#     4  10  20  36  60  84 115 151 205 241 298 356
#     4  12  21  36  60  89 116 154 201 251 303 360
#     4  10  18  37  62  87 115 154 208 246 307 364
#     4   9  18  32  60  91 119 152 196 249 299 371
#     4  10  21  37  58  85 113 158 195 254 290 362
#     4  10  21  37  61  86 117 156 196 263 305 364
#
# _framework density 19.399387999999998
#
# number of rings (size 3 to 8) (size 9 to 14) (size 15 to 20)
#    0.000    1.714    4.286    0.429    2.000    0.000 
#    2.571    0.000   18.857    0.000    0.000    0.000 
#    0.000    0.000    0.000    0.000    0.000    0.000 
#
# Total GULP energy -155890.540086 kJ/mol
# GULP energy per Si atom -5567.519289 kJ/mol
# Density = 1.935523 g / cm^3
# Si number density = 19.399388 Si / 1000 Ang^3
#
#
#
# Elastic Constant Matrix: (Units=GPa)
#
#
# Indices 1 2 3 4 5 6 
#
# 1 81.7655 37.9414 26.7021 0.0000 16.6011 0.0000
# 2 37.9414 56.8245 7.5204 0.0000 10.2526 0.0000
# 3 26.7021 7.5204 125.5452 0.0000 24.9336 0.0000
# 4 0.0000 0.0000 0.0000 10.3982 0.0000 -0.6357
# 5 16.6011 10.2526 24.9336 0.0000 44.2749 0.0000
# 6 0.0000 0.0000 0.0000 -0.6357 0.0000 11.2091
#
#
#
# Elastic Compliance Matrix: (Units=1/GPa)
#
#
# Indices 1 2 3 4 5 6 
#
# 1 0.019299 -0.011995 -0.002816 0.000000 -0.002873 0.000000
# 2 -0.011995 0.025830 0.001462 0.000000 -0.002307 0.000000
# 3 -0.002816 0.001462 0.009384 0.000000 -0.004567 0.000000
# 4 0.000000 0.000000 0.000000 0.096505 0.000000 0.005473
# 5 -0.002873 -0.002307 -0.004567 0.000000 0.026770 0.000000
# 6 0.000000 0.000000 0.000000 0.005473 0.000000 0.089523
#
#
# Mechanical properties :
#
#
# Convention : Reuss Voigt Hill
#
# Bulk Modulus (GPa) = 35.95091 45.38479 40.66785
# Shear Modulus (GPa) = 16.48649 25.97452 21.23050
#
# Velocity S-wave (km/s) = 2.91837 3.66312 3.31175
# Velocity P-wave (km/s) = 5.47066 6.42938 5.96930
#
# Compressibility (1/GPa) = 0.02781570
#
# Stress axis : x y z
#
# Youngs Moduli (GPa) = 51.81688 38.71531 106.56897
#
# Poissons Ratio (x) = 0.46438 0.30005
# Poissons Ratio (y) = 0.62153 -0.15582
# Poissons Ratio (z) = 0.14589 -0.05661
#
# Static dielectric constant tensor:
#      x y z
#    x 1.819090 0.000000 0.073820 
#    y 0.000000 1.648130 0.000000 
#    z 0.073820 0.000000 1.753650 
# 
# From -- ./inp_files/78768.got.cif
#   From: 2010.05.17/outbox.cif.g08.bks.cpg/sg13_40_cif.got.tgz:78768.got - 2010.06.03 16:44:36.
