data_PCOD9227508
_publ_section_title
;
Structure prediction by ZEFSAII (Michael W. Deem and Ramdas Pophale) SiO2 
 PCOD9227508
Probable space group: P 2/C
;
_chemical_formula_sum "Si O2"
_cell_formula_units_Z 28
_cell_length_a 12.139953
_cell_length_b 11.283693
_cell_length_c 22.811551
_cell_angle_alpha 90.000000
_cell_angle_beta 151.114164
_cell_angle_gamma 90.000000
_cell_volume 1509.487443
_symmetry_space_group_name_H-M "P 2/C"
_symmetry_group_IT_number 13
_symmetry_cell_setting 'monoclinic'
loop_
_space_group_symop_operation_xyz
x,y,z
-x,y,1/2-z
-x,-y,-z
x,-y,1/2+z
loop_
_atom_site_type_symbol
_atom_site_label
_atom_site_fract_x
_atom_site_fract_y
_atom_site_fract_z
Si Si1 0.000000 0.437556 0.750000
Si Si2 0.944522 0.816985 0.882068
Si Si3 0.093104 0.551188 0.103893
Si Si4 0.750689 0.214285 0.870113
Si Si5 0.246215 0.311122 0.969228
Si Si6 0.761809 0.616686 0.728158
Si Si7 0.500000 0.111966 0.250000
Si Si8 0.137485 0.927767 0.482147
O O1 0.146681 0.353882 0.860958
O O2 0.147313 0.525588 0.777957
O O3 0.908898 0.734575 0.809318
O O4 0.704671 0.823000 0.807641
O O5 0.039212 0.948477 0.913004
O O6 0.139573 0.763846 0.015349
O O7 0.255484 0.661733 0.166575
O O8 0.218315 0.453888 0.201207
O O9 0.886215 0.609115 0.044270
O O10 0.000000 0.500000 0.000000
O O11 0.500000 0.163208 0.750000
O O12 0.929440 0.128042 0.922137
O O13 0.204231 0.173649 0.966555
O O14 0.509755 0.342142 0.096143
O O15 0.653231 0.056266 0.374347
#
# Coordination Sequence:
#
# PCOD9227508 Si02
#       8
#     2   4   4   4   4   4   2   4
#     4  10  24  44  66  88 110 152 214 262 322 358
#     4  11  22  33  59  88 124 165 204 238 288 372
#     4  10  21  34  52  91 123 156 197 239 296 375
#     4  10  21  32  49  81 128 166 190 235 285 349
#     4  10  22  41  63  84 117 161 204 256 309 366
#     4  11  22  39  65  85 120 158 206 258 309 364
#     4  10  18  36  56  86 128 172 188 230 288 368
#     4  10  22  35  58  88 122 165 208 231 296 369
#
# _framework density 18.549344000000001
#
# number of rings (size 3 to 8) (size 9 to 14) (size 15 to 20)
#    0.000    1.714    2.857    2.143    6.000    0.000 
#    0.000    2.143    0.000    1.714    0.000    0.000 
#    0.000    0.000    0.000    0.000    0.000    0.000 
#
# Total GULP energy -156148.845573 kJ/mol
# GULP energy per Si atom -5576.744485 kJ/mol
# Density = 1.850712 g / cm^3
# Si number density = 18.549344 Si / 1000 Ang^3
#
#
#
# Elastic Constant Matrix: (Units=GPa)
#
#
# Indices 1 2 3 4 5 6 
#
# 1 55.8958 36.0273 59.4087 0.0000 -11.0697 0.0000
# 2 36.0273 134.3813 69.9328 0.0000 -13.9196 0.0000
# 3 59.4087 69.9328 154.3630 0.0000 1.7524 0.0000
# 4 0.0000 0.0000 0.0000 21.7366 0.0000 -10.5592
# 5 -11.0697 -13.9196 1.7524 0.0000 33.0243 0.0000
# 6 0.0000 0.0000 0.0000 -10.5592 0.0000 19.4812
#
#
#
# Elastic Compliance Matrix: (Units=1/GPa)
#
#
# Indices 1 2 3 4 5 6 
#
# 1 0.034848 -0.001405 -0.012909 0.000000 0.011774 0.000000
# 2 -0.001405 0.010458 -0.004244 0.000000 0.004162 0.000000
# 3 -0.012909 -0.004244 0.013447 0.000000 -0.006829 0.000000
# 4 0.000000 0.000000 0.000000 0.062448 0.000000 0.033848
# 5 0.011774 0.004162 -0.006829 0.000000 0.036344 0.000000
# 6 0.000000 0.000000 0.000000 0.033848 0.000000 0.069678
#
#
# Mechanical properties :
#
#
# Convention : Reuss Voigt Hill
#
# Bulk Modulus (GPa) = 46.21923 75.04198 60.63060
# Shear Modulus (GPa) = 18.41273 26.79983 22.60628
#
# Velocity S-wave (km/s) = 3.15403 3.80516 3.49479
# Velocity P-wave (km/s) = 6.18344 7.73620 7.00299
#
# Compressibility (1/GPa) = 0.02163602
#
# Stress axis : x y z
#
# Youngs Moduli (GPa) = 28.69616 95.61849 74.36754
#
# Poissons Ratio (x) = 0.13438 0.95999
# Poissons Ratio (y) = 0.04033 0.31564
# Poissons Ratio (z) = 0.37043 0.40584
#
# Static dielectric constant tensor:
#      x y z
#    x 1.641180 0.000000 0.005220 
#    y 0.000000 1.707780 0.000000 
#    z 0.005220 0.000000 1.628950 
# 
# From -- ./inp_files/78621.got.cif
#   From: 2010.05.17/outbox.cif.g08.bks.cpg/sg13_40_cif.got.tgz:78621.got - 2010.06.03 16:44:36.
