data_PCOD9227514
_publ_section_title
;
Structure prediction by ZEFSAII (Michael W. Deem and Ramdas Pophale) SiO2 
 PCOD9227514
Probable space group: P 2/C
;
_chemical_formula_sum "Si O2"
_cell_formula_units_Z 24
_cell_length_a 23.653705
_cell_length_b 11.112574
_cell_length_c 30.015419
_cell_angle_alpha 90.000000
_cell_angle_beta 8.473507
_cell_angle_gamma 90.000000
_cell_volume 1162.557750
_symmetry_space_group_name_H-M "P 2/C"
_symmetry_group_IT_number 13
_symmetry_cell_setting 'monoclinic'
loop_
_space_group_symop_operation_xyz
x,y,z
-x,y,1/2-z
-x,-y,-z
x,-y,1/2+z
loop_
_atom_site_type_symbol
_atom_site_label
_atom_site_fract_x
_atom_site_fract_y
_atom_site_fract_z
Si Si1 0.383141 0.192265 0.126154
Si Si2 0.508677 0.231234 0.930620
Si Si3 0.595567 0.940893 0.223212
Si Si4 0.703950 0.667024 0.046222
Si Si5 0.886862 0.378081 0.564137
Si Si6 0.535182 0.983244 0.864468
O O1 0.606233 0.214491 0.906401
O O2 0.045211 0.096222 0.376213
O O3 0.183007 0.315580 0.298887
O O4 0.574926 0.128950 0.019050
O O5 0.157375 0.325552 0.199863
O O6 0.833070 0.280875 0.645349
O O7 0.390363 0.103578 0.001724
O O8 0.500000 0.995484 0.250000
O O9 0.410309 0.807849 0.369421
O O10 0.441825 0.014915 0.385001
O O11 0.500000 0.621158 0.250000
O O12 0.509443 0.607973 0.154863
O O13 0.000000 0.500000 0.500000
O O14 0.000000 0.000000 0.500000
#
# Coordination Sequence:
#
# PCOD9227514 Si02
#       6
#     4   4   4   4   4   4
#     4  10  20  36  52  88 121 147 194 241 293 368
#     4  12  19  34  66  83 115 160 193 245 312 340
#     4   9  15  30  51  80 119 143 185 235 282 340
#     4  10  18  36  57  89 115 141 205 258 282 348
#     4  11  23  37  57  88 120 154 203 255 297 345
#     4  10  19  32  53  89 126 148 183 248 301 363
#
# _framework density 20.644134999999999
#
# number of rings (size 3 to 8) (size 9 to 14) (size 15 to 20)
#    0.000    1.667   10.000    1.000    0.000    0.667 
#    0.000    0.000    0.000    1.000    8.667    0.000 
#    0.000    0.000    0.000    0.000    0.000    0.000 
#
# Total GULP energy -133848.975929 kJ/mol
# GULP energy per Si atom -5577.040664 kJ/mol
# Density = 2.059715 g / cm^3
# Si number density = 20.644135 Si / 1000 Ang^3
#
#
#
# Elastic Constant Matrix: (Units=GPa)
#
#
# Indices 1 2 3 4 5 6 
#
# 1 187.6001 40.5484 10.5307 0.0000 23.0964 0.0000
# 2 40.5484 52.8516 -1.9676 0.0000 -4.7929 0.0000
# 3 10.5307 -1.9676 24.8020 0.0000 9.5426 0.0000
# 4 0.0000 0.0000 0.0000 6.9681 0.0000 -11.2922
# 5 23.0964 -4.7929 9.5426 0.0000 25.3676 0.0000
# 6 0.0000 0.0000 0.0000 -11.2922 0.0000 29.5094
#
#
#
# Elastic Compliance Matrix: (Units=1/GPa)
#
#
# Indices 1 2 3 4 5 6 
#
# 1 0.007840 -0.006781 -0.000734 0.000000 -0.008143 0.000000
# 2 -0.006781 0.025116 0.000784 0.000000 0.010624 0.000000
# 3 -0.000734 0.000784 0.047212 0.000000 -0.016944 0.000000
# 4 0.000000 0.000000 0.000000 0.377789 0.000000 0.144566
# 5 -0.008143 0.010624 -0.016944 0.000000 0.055215 0.000000
# 6 0.000000 0.000000 0.000000 0.144566 0.000000 0.089208
#
#
# Mechanical properties :
#
#
# Convention : Reuss Voigt Hill
#
# Bulk Modulus (GPa) = 14.99089 40.38629 27.68859
# Shear Modulus (GPa) = 7.83606 26.77850 17.30728
#
# Velocity S-wave (km/s) = 1.95039 3.60550 2.89859
# Velocity P-wave (km/s) = 3.51417 6.07770 4.96426
#
# Compressibility (1/GPa) = 0.06670716
#
# Stress axis : x y z
#
# Youngs Moduli (GPa) = 127.55503 39.81586 21.18093
#
# Poissons Ratio (x) = 0.26997 0.01554
# Poissons Ratio (y) = 0.86489 -0.01660
# Poissons Ratio (z) = 0.09357 -0.03121
#
# Static dielectric constant tensor:
#      x y z
#    x 1.807580 0.000000 -0.025910 
#    y 0.000000 1.730870 0.000000 
#    z -0.025910 0.000000 1.843520 
# 
# From -- ./inp_files/97687.got.cif
#   From: 2010.05.17/outbox.cif.g08.bks.cpg/sg13_49_cif.got.tgz:97687.got - 2010.06.03 16:44:36.
