data_PCOD9227748
_publ_section_title
;
Structure prediction by ZEFSAII (Michael W. Deem and Ramdas Pophale) SiO2 
 PCOD9227748
Probable space group: P 2/C
;
_chemical_formula_sum "Si O2"
_cell_formula_units_Z 26
_cell_length_a 10.005080
_cell_length_b 6.637354
_cell_length_c 18.594462
_cell_angle_alpha 90.000000
_cell_angle_beta 92.742823
_cell_angle_gamma 90.000000
_cell_volume 1233.392622
_symmetry_space_group_name_H-M "P 2/C"
_symmetry_group_IT_number 13
_symmetry_cell_setting 'monoclinic'
loop_
_space_group_symop_operation_xyz
x,y,z
-x,y,1/2-z
-x,-y,-z
x,-y,1/2+z
loop_
_atom_site_type_symbol
_atom_site_label
_atom_site_fract_x
_atom_site_fract_y
_atom_site_fract_z
Si Si1 0.035970 0.779682 0.522550
Si Si2 0.636278 0.381173 0.015728
Si Si3 0.500000 0.827575 0.250000
Si Si4 0.121799 0.520667 0.397686
Si Si5 0.271902 0.587436 0.609459
Si Si6 0.448796 0.188473 0.354314
Si Si7 0.263330 0.495061 0.762872
O O1 0.032584 0.659319 0.446649
O O2 0.180668 0.738592 0.561220
O O3 0.932339 0.696999 0.579283
O O4 0.000000 0.000000 0.500000
O O5 0.728037 0.525333 0.067018
O O6 0.611054 0.188151 0.065738
O O7 0.500000 0.500000 0.000000
O O8 0.705397 0.388263 0.939381
O O9 0.629046 0.682169 0.249078
O O10 0.485048 0.978210 0.317873
O O11 0.146108 0.560048 0.315470
O O12 0.414933 0.683240 0.633500
O O13 0.204129 0.546738 0.683741
O O14 0.346587 0.316623 0.300732
#
# Coordination Sequence:
#
# PCOD9227748 Si02
#       7
#     4   4   2   4   4   4   4
#     4  10  22  43  64  85 115 164 214 260 299 357
#     4   8  17  33  62  83 117 162 199 242 312 367
#     4  12  20  34  60  96 128 164 200 252 332 380
#     4   9  21  40  61  85 119 161 204 250 309 369
#     4  10  18  39  62  86 125 163 205 256 309 369
#     4  10  19  38  56  91 129 158 202 260 309 370
#     4  11  21  38  64  89 129 163 196 256 330 379
#
# _framework density 21.080069000000002
#
# number of rings (size 3 to 8) (size 9 to 14) (size 15 to 20)
#    0.000    2.154    3.077    0.000    0.000    3.077 
#    8.308    0.769    0.000    0.000    0.000    0.000 
#    0.000    0.000    0.000    0.000    0.000    0.000 
#
# Total GULP energy -144816.387381 kJ/mol
# GULP energy per Si atom -5569.861053 kJ/mol
# Density = 2.103209 g / cm^3
# Si number density = 21.080069 Si / 1000 Ang^3
#
#
#
# Elastic Constant Matrix: (Units=GPa)
#
#
# Indices 1 2 3 4 5 6 
#
# 1 54.8209 9.0253 27.3249 0.0000 -15.5223 0.0000
# 2 9.0253 82.2577 35.8018 0.0000 -11.0956 0.0000
# 3 27.3249 35.8018 153.6847 0.0000 -23.8342 0.0000
# 4 0.0000 0.0000 0.0000 23.3889 0.0000 0.2571
# 5 -15.5223 -11.0956 -23.8342 0.0000 30.3189 0.0000
# 6 0.0000 0.0000 0.0000 0.2571 0.0000 16.3636
#
#
#
# Elastic Compliance Matrix: (Units=1/GPa)
#
#
# Indices 1 2 3 4 5 6 
#
# 1 0.022135 -0.000094 -0.002462 0.000000 0.009363 0.000000
# 2 -0.000094 0.013744 -0.002747 0.000000 0.002822 0.000000
# 3 -0.002462 -0.002747 0.008237 0.000000 0.004210 0.000000
# 4 0.000000 0.000000 0.000000 0.042763 0.000000 -0.000672
# 5 0.009363 0.002822 0.004210 0.000000 0.042118 0.000000
# 6 0.000000 0.000000 0.000000 -0.000672 0.000000 0.061122
#
#
# Mechanical properties :
#
#
# Convention : Reuss Voigt Hill
#
# Bulk Modulus (GPa) = 29.84244 48.34081 39.09162
# Shear Modulus (GPa) = 23.59666 28.58836 26.09251
#
# Velocity S-wave (km/s) = 3.34935 3.68663 3.52203
# Velocity P-wave (km/s) = 5.39861 6.41120 5.92657
#
# Compressibility (1/GPa) = 0.03350933
#
# Stress axis : x y z
#
# Youngs Moduli (GPa) = 45.17798 72.76113 121.39788
#
# Poissons Ratio (x) = 0.00687 0.29882
# Poissons Ratio (y) = 0.00426 0.33351
# Poissons Ratio (z) = 0.11121 0.19990
#
# Static dielectric constant tensor:
#      x y z
#    x 1.820510 0.000000 -0.040080 
#    y 0.000000 1.750580 0.000000 
#    z -0.040080 0.000000 1.833330 
# 
# From -- ./inp_files/65404.got.cif
#   From: 2010.05.17/outbox.cif.g08.bks.cpg/sg13_33_cif.got.tgz:65404.got - 2010.06.03 16:44:36.
