data_PCOD9227174
_publ_section_title
;
Structure prediction by ZEFSAII (Michael W. Deem and Ramdas Pophale) SiO2 
 PCOD9227174
Probable space group: P 2/C
;
_chemical_formula_sum "Si O2"
_cell_formula_units_Z 24
_cell_length_a 16.877782
_cell_length_b 8.598373
_cell_length_c 22.604478
_cell_angle_alpha 90.000000
_cell_angle_beta 18.267251
_cell_angle_gamma 90.000000
_cell_volume 1028.238929
_symmetry_space_group_name_H-M "P 2/C"
_symmetry_group_IT_number 13
_symmetry_cell_setting 'monoclinic'
loop_
_space_group_symop_operation_xyz
x,y,z
-x,y,1/2-z
-x,-y,-z
x,-y,1/2+z
loop_
_atom_site_type_symbol
_atom_site_label
_atom_site_fract_x
_atom_site_fract_y
_atom_site_fract_z
Si Si1 0.459399 0.422749 0.710843
Si Si2 0.008996 0.209276 0.042655
Si Si3 0.372303 0.913136 0.782029
Si Si4 0.707470 0.125241 0.474288
Si Si5 0.612176 0.740343 0.926012
Si Si6 0.722567 0.575056 0.420996
O O1 0.500000 0.465626 0.750000
O O2 0.635516 0.274631 0.566037
O O3 0.533348 0.551406 0.610440
O O4 0.175325 0.359749 0.910142
O O5 0.828776 0.178259 0.114629
O O6 0.837981 0.218854 0.221947
O O7 0.210919 0.070529 0.910403
O O8 0.500000 0.844584 0.750000
O O9 0.607112 0.971932 0.576379
O O10 0.561352 0.143054 0.515526
O O11 0.000000 0.126462 0.250000
O O12 0.695676 0.582291 0.901045
O O13 0.370333 0.708259 0.057021
O O14 0.000000 0.593059 0.250000
#
# Coordination Sequence:
#
# PCOD9227174 Si02
#       6
#     4   4   4   4   4   4
#     4  10  18  33  58  80 103 141 184 222 260 313
#     4  10  20  36  56  80 109 140 180 222 266 316
#     4  10  21  37  56  80 110 142 178 223 267 315
#     4  10  18  33  58  80 103 141 184 222 260 313
#     4  10  20  36  56  80 109 140 180 222 266 316
#     4  10  21  37  56  80 110 142 178 223 267 315
#
# _framework density 23.340878
#
# number of rings (size 3 to 8) (size 9 to 14) (size 15 to 20)
#    0.000    2.000    0.000    7.000    0.000    1.333 
#    0.000   16.667    0.000    0.000    0.000    0.000 
#    0.000    0.000    0.000    0.000    0.000    0.000 
#
# Total GULP energy -134301.716248 kJ/mol
# GULP energy per Si atom -5595.904844 kJ/mol
# Density = 2.328775 g / cm^3
# Si number density = 23.340878 Si / 1000 Ang^3
#
#
#
# Elastic Constant Matrix: (Units=GPa)
#
#
# Indices 1 2 3 4 5 6 
#
# 1 187.7054 32.8764 36.4475 0.0000 1.6090 0.0000
# 2 32.8764 29.2935 17.5040 0.0000 -1.7228 0.0000
# 3 36.4475 17.5040 58.7347 0.0000 5.5394 0.0000
# 4 0.0000 0.0000 0.0000 15.2599 0.0000 1.4200
# 5 1.6090 -1.7228 5.5394 0.0000 42.3974 0.0000
# 6 0.0000 0.0000 0.0000 1.4200 0.0000 7.8560
#
#
#
# Elastic Compliance Matrix: (Units=1/GPa)
#
#
# Indices 1 2 3 4 5 6 
#
# 1 0.006900 -0.006339 -0.002373 0.000000 -0.000209 0.000000
# 2 -0.006339 0.047830 -0.010658 0.000000 0.003577 0.000000
# 3 -0.002373 -0.010658 0.021978 0.000000 -0.003215 0.000000
# 4 0.000000 0.000000 0.000000 0.066652 0.000000 -0.012048
# 5 -0.000209 0.003577 -0.003215 0.000000 0.024160 0.000000
# 6 0.000000 0.000000 0.000000 -0.012048 0.000000 0.129469
#
#
# Mechanical properties :
#
#
# Convention : Reuss Voigt Hill
#
# Bulk Modulus (GPa) = 26.33767 49.93215 38.13491
# Shear Modulus (GPa) = 14.35193 25.69637 20.02415
#
# Velocity S-wave (km/s) = 2.48238 3.32161 2.93217
# Velocity P-wave (km/s) = 4.41867 6.01247 5.27610
#
# Compressibility (1/GPa) = 0.03796843
#
# Stress axis : x y z
#
# Youngs Moduli (GPa) = 144.92142 20.90737 45.50027
#
# Poissons Ratio (x) = 0.13252 0.10798
# Poissons Ratio (y) = 0.91859 0.48495
# Poissons Ratio (z) = 0.34393 0.22283
#
# Static dielectric constant tensor:
#      x y z
#    x 1.871050 0.000000 -0.006130 
#    y 0.000000 1.917820 0.000000 
#    z -0.006130 0.000000 1.828300 
# 
# From -- ./inp_files/80138.got.cif
#   From: 2010.05.17/outbox.cif.g08.bks.cpg/sg13_41_cif.got.tgz:80138.got - 2010.06.03 16:44:36.
