data_PCOD9227034
_publ_section_title
;
Structure prediction by ZEFSAII (Michael W. Deem and Ramdas Pophale) SiO2 
 PCOD9227034
Probable space group: P 2/C
;
_chemical_formula_sum "Si O2"
_cell_formula_units_Z 32
_cell_length_a 14.336796
_cell_length_b 11.105235
_cell_length_c 12.266978
_cell_angle_alpha 90.000000
_cell_angle_beta 139.707174
_cell_angle_gamma 90.000000
_cell_volume 1263.038141
_symmetry_space_group_name_H-M "P 2/C"
_symmetry_group_IT_number 13
_symmetry_cell_setting 'monoclinic'
loop_
_space_group_symop_operation_xyz
x,y,z
-x,y,1/2-z
-x,-y,-z
x,-y,1/2+z
loop_
_atom_site_type_symbol
_atom_site_label
_atom_site_fract_x
_atom_site_fract_y
_atom_site_fract_z
Si Si1 0.259018 0.190017 0.673219
Si Si2 0.156387 0.950454 0.349092
Si Si3 0.402304 0.387645 0.370987
Si Si4 0.352094 0.651869 0.068105
Si Si5 0.357218 0.757675 0.507338
Si Si6 0.838117 0.058469 0.356696
Si Si7 0.814714 0.561132 0.005349
Si Si8 0.993735 0.736666 0.422846
O O1 0.331637 0.237164 0.630402
O O2 0.335843 0.222003 0.856161
O O3 0.104380 0.256567 0.557180
O O4 0.242395 0.045835 0.649408
O O5 0.303748 0.881644 0.516974
O O6 0.912230 0.829803 0.270261
O O7 0.000000 0.001685 0.250000
O O8 0.210103 0.047836 0.309963
O O9 0.500000 0.500000 0.500000
O O10 0.363648 0.325095 0.450757
O O11 0.483198 0.298147 0.359024
O O12 0.271129 0.442324 0.186143
O O13 0.500000 0.591952 0.250000
O O14 0.215147 0.565873 0.966236
O O15 0.261605 0.653668 0.478603
O O16 0.858298 0.190566 0.420492
O O17 0.000000 0.000000 0.500000
O O18 0.968153 0.613880 0.102789
#
# Coordination Sequence:
#
# PCOD9227034 Si02
#       8
#     4   4   4   4   4   4   4   4
#     4   9  19  36  64  87 115 149 194 238 288 349
#     4   9  15  29  56  89 109 147 194 232 289 340
#     4  12  22  37  53  81 109 156 205 232 284 340
#     4  12  22  37  58  82 110 158 203 235 285 346
#     4  10  18  32  56  85 109 145 197 243 272 334
#     4   7  15  32  56  84 115 142 183 229 281 347
#     4  12  22  34  59  85 119 151 193 245 290 345
#     4   9  19  36  57  89 121 145 185 242 296 344
#
# _framework density 25.335737000000002
#
# number of rings (size 3 to 8) (size 9 to 14) (size 15 to 20)
#    0.000    2.500    5.000    0.375    0.000    0.500 
#    0.000    4.375    5.500    5.250    0.000    0.000 
#    0.000    0.000    0.000    0.000    0.000    0.000 
#
# Total GULP energy -178164.527606 kJ/mol
# GULP energy per Si atom -5567.641488 kJ/mol
# Density = 2.527807 g / cm^3
# Si number density = 25.335737 Si / 1000 Ang^3
#
#
#
# Elastic Constant Matrix: (Units=GPa)
#
#
# Indices 1 2 3 4 5 6 
#
# 1 155.1314 29.8657 6.9374 0.0000 -8.8807 0.0000
# 2 29.8657 61.7531 0.9327 0.0000 4.9784 0.0000
# 3 6.9374 0.9327 49.2958 0.0000 -2.4644 0.0000
# 4 0.0000 0.0000 0.0000 26.9176 0.0000 -0.9323
# 5 -8.8807 4.9784 -2.4644 0.0000 28.6498 0.0000
# 6 0.0000 0.0000 0.0000 -0.9323 0.0000 30.2482
#
#
#
# Elastic Compliance Matrix: (Units=1/GPa)
#
#
# Indices 1 2 3 4 5 6 
#
# 1 0.007376 -0.003787 -0.000823 0.000000 0.002874 0.000000
# 2 -0.003787 0.018378 -0.000033 0.000000 -0.004370 0.000000
# 3 -0.000823 -0.000033 0.020478 0.000000 0.001512 0.000000
# 4 0.000000 0.000000 0.000000 0.037190 0.000000 0.001146
# 5 0.002874 -0.004370 0.001512 0.000000 0.036684 0.000000
# 6 0.000000 0.000000 0.000000 0.001146 0.000000 0.033095
#
#
# Mechanical properties :
#
#
# Convention : Reuss Voigt Hill
#
# Bulk Modulus (GPa) = 27.06630 37.96133 32.51381
# Shear Modulus (GPa) = 28.60368 32.39275 30.49821
#
# Velocity S-wave (km/s) = 3.36368 3.57955 3.47329
# Velocity P-wave (km/s) = 5.07859 5.66569 5.38015
#
# Compressibility (1/GPa) = 0.03694632
#
# Stress axis : x y z
#
# Youngs Moduli (GPa) = 135.56612 54.41369 48.83354
#
# Poissons Ratio (x) = 0.20605 0.04018
# Poissons Ratio (y) = 0.51335 0.00163
# Poissons Ratio (z) = 0.11154 0.00181
#
# Static dielectric constant tensor:
#      x y z
#    x 2.110720 0.000000 0.022760 
#    y 0.000000 2.086690 0.000000 
#    z 0.022760 0.000000 2.263090 
# 
# From -- ./inp_files/53731.got.cif
#   From: 2010.05.17/outbox.cif.g08.bks.cpg/sg13_27_cif.got.tgz:53731.got - 2010.06.03 16:44:36.
