data_PCOD9227789
_publ_section_title
;
Structure prediction by ZEFSAII (Michael W. Deem and Ramdas Pophale) SiO2 
 PCOD9227789
Probable space group: P 2/C
;
_chemical_formula_sum "Si O2"
_cell_formula_units_Z 18
_cell_length_a 5.643365
_cell_length_b 10.215783
_cell_length_c 15.920530
_cell_angle_alpha 90.000000
_cell_angle_beta 122.150937
_cell_angle_gamma 90.000000
_cell_volume 777.089078
_symmetry_space_group_name_H-M "P 2/C"
_symmetry_group_IT_number 13
_symmetry_cell_setting 'monoclinic'
loop_
_space_group_symop_operation_xyz
x,y,z
-x,y,1/2-z
-x,-y,-z
x,-y,1/2+z
loop_
_atom_site_type_symbol
_atom_site_label
_atom_site_fract_x
_atom_site_fract_y
_atom_site_fract_z
Si Si1 0.135218 0.318815 0.092527
Si Si2 0.476285 0.928155 0.643819
Si Si3 0.577808 0.445094 0.924811
Si Si4 0.000000 0.244317 0.250000
Si Si5 0.332236 0.196519 0.807421
O O1 0.224621 0.172602 0.081354
O O2 0.373951 0.426339 0.121127
O O3 0.081422 0.320704 0.181782
O O4 0.869389 0.366664 0.989748
O O5 0.500000 0.939133 0.750000
O O6 0.750780 0.848340 0.671052
O O7 0.502136 0.076019 0.616396
O O8 0.358643 0.338061 0.853863
O O9 0.500000 0.500000 0.000000
O O10 0.500000 0.210652 0.750000
O O11 0.000000 0.160918 0.750000
#
# Coordination Sequence:
#
# PCOD9227789 Si02
#       5
#     4   4   4   2   4
#     4  10  23  41  68  99 136 180 227 288 340 419
#     4   9  19  40  68  98 132 173 231 280 343 411
#     4  11  26  46  63 100 144 180 235 282 348 413
#     4  10  18  40  68 102 128 172 230 278 350 410
#     4  11  26  47  73 102 138 185 231 290 350 415
#
# _framework density 23.16337
#
# number of rings (size 3 to 8) (size 9 to 14) (size 15 to 20)
#    0.000    1.778    1.111    1.333    6.222    5.333 
#    2.000    4.444    0.000    0.000    0.000    0.000 
#    0.000    0.000    0.000    0.000    0.000    0.000 
#
# Total GULP energy -100508.406449 kJ/mol
# GULP energy per Si atom -5583.800358 kJ/mol
# Density = 2.311065 g / cm^3
# Si number density = 23.163370 Si / 1000 Ang^3
#
#
#
# Elastic Constant Matrix: (Units=GPa)
#
#
# Indices 1 2 3 4 5 6 
#
# 1 112.6402 42.6582 17.3319 0.0000 -17.7101 0.0000
# 2 42.6582 145.1925 18.8847 0.0000 -18.1272 0.0000
# 3 17.3319 18.8847 19.2411 0.0000 -2.7401 0.0000
# 4 0.0000 0.0000 0.0000 16.1819 0.0000 -2.0398
# 5 -17.7101 -18.1272 -2.7401 0.0000 39.6351 0.0000
# 6 0.0000 0.0000 0.0000 -2.0398 0.0000 0.6042
#
#
#
# Elastic Compliance Matrix: (Units=1/GPa)
#
#
# Indices 1 2 3 4 5 6 
#
# 1 0.011376 -0.001854 -0.007902 0.000000 0.003689 0.000000
# 2 -0.001854 0.008595 -0.006387 0.000000 0.002661 0.000000
# 3 -0.007902 -0.006387 0.065081 0.000000 -0.001953 0.000000
# 4 0.000000 0.000000 0.000000 0.107585 0.000000 0.363223
# 5 0.003689 0.002661 -0.001953 0.000000 0.027960 0.000000
# 6 0.000000 0.000000 0.000000 0.363223 0.000000 2.881413
#
#
# Mechanical properties :
#
#
# Convention : Reuss Voigt Hill
#
# Bulk Modulus (GPa) = 18.95175 48.31370 33.63273
# Shear Modulus (GPa) = 1.58635 24.49749 13.04192
#
# Velocity S-wave (km/s) = 0.82846 3.25560 2.37542
# Velocity P-wave (km/s) = 3.01905 5.91904 4.69838
#
# Compressibility (1/GPa) = 0.05276557
#
# Stress axis : x y z
#
# Youngs Moduli (GPa) = 87.90575 116.34598 15.36553
#
# Poissons Ratio (x) = 0.21569 0.12142
# Poissons Ratio (y) = 0.16297 0.09814
# Poissons Ratio (z) = 0.69465 0.74310
#
# Static dielectric constant tensor:
#      x y z
#    x 2.006410 0.000000 0.065840 
#    y 0.000000 1.879650 0.000000 
#    z 0.065840 0.000000 1.837560 
# 
# From -- ./inp_files/60337.got.cif
#   From: 2010.05.17/outbox.cif.g08.bks.cpg/sg13_31_cif.got.tgz:60337.got - 2010.06.03 16:44:36.
