data_PCOD9227576
_publ_section_title
;
Structure prediction by ZEFSAII (Michael W. Deem and Ramdas Pophale) SiO2 
 PCOD9227576
Probable space group: P 2/C
;
_chemical_formula_sum "Si O2"
_cell_formula_units_Z 22
_cell_length_a 8.171133
_cell_length_b 12.612691
_cell_length_c 10.792707
_cell_angle_alpha 90.000000
_cell_angle_beta 76.651629
_cell_angle_gamma 90.000000
_cell_volume 1082.246674
_symmetry_space_group_name_H-M "P 2/C"
_symmetry_group_IT_number 13
_symmetry_cell_setting 'monoclinic'
loop_
_space_group_symop_operation_xyz
x,y,z
-x,y,1/2-z
-x,-y,-z
x,-y,1/2+z
loop_
_atom_site_type_symbol
_atom_site_label
_atom_site_fract_x
_atom_site_fract_y
_atom_site_fract_z
Si Si1 0.000000 0.854961 0.250000
Si Si2 0.442428 0.878217 0.395601
Si Si3 0.214955 0.294682 0.878432
Si Si4 0.110727 0.481235 0.356283
Si Si5 0.766079 0.068011 0.997735
Si Si6 0.078527 0.248470 0.369934
O O1 0.144051 0.776888 0.277937
O O2 0.913900 0.924495 0.371043
O O3 0.500000 0.915632 0.250000
O O4 0.385223 0.757496 0.395749
O O5 0.592353 0.893600 0.465068
O O6 0.279294 0.948955 0.456191
O O7 0.230153 0.416579 0.837750
O O8 0.073289 0.275727 0.008581
O O9 0.178439 0.360875 0.346852
O O10 0.000000 0.488546 0.250000
O O11 0.000000 0.500000 0.500000
O O12 0.817847 0.149385 0.096244
O O13 0.000000 0.226122 0.250000
#
# Coordination Sequence:
#
# PCOD9227576 Si02
#       6
#     2   4   4   4   4   4
#     4  10  18  36  62  88 112 148 210 244 284 354
#     4  11  23  40  57  85 125 162 193 242 312 359
#     4  10  19  35  59  88 113 155 195 242 291 358
#     4   9  17  32  58  87 120 148 194 249 302 345
#     4  10  23  40  59  86 121 160 197 250 299 355
#     4   9  20  37  59  91 116 152 198 248 294 346
#
# _framework density 20.328081999999998
#
# number of rings (size 3 to 8) (size 9 to 14) (size 15 to 20)
#    0.000    2.182    2.727    0.000    0.000    5.818 
#    3.273    0.909    0.000    1.091    0.000    0.000 
#    0.000    0.000    0.000    0.000    0.000    0.000 
#
# Total GULP energy -122771.296347 kJ/mol
# GULP energy per Si atom -5580.513470 kJ/mol
# Density = 2.028181 g / cm^3
# Si number density = 20.328082 Si / 1000 Ang^3
#
#
#
# Elastic Constant Matrix: (Units=GPa)
#
#
# Indices 1 2 3 4 5 6 
#
# 1 60.1284 44.0800 9.9454 0.0000 14.8425 0.0000
# 2 44.0800 130.0552 36.5044 0.0000 6.9562 0.0000
# 3 9.9454 36.5044 72.9055 0.0000 16.4779 0.0000
# 4 0.0000 0.0000 0.0000 12.0341 0.0000 -5.9105
# 5 14.8425 6.9562 16.4779 0.0000 29.1965 0.0000
# 6 0.0000 0.0000 0.0000 -5.9105 0.0000 23.0268
#
#
#
# Elastic Compliance Matrix: (Units=1/GPa)
#
#
# Indices 1 2 3 4 5 6 
#
# 1 0.026037 -0.009262 0.004102 0.000000 -0.013345 0.000000
# 2 -0.009262 0.012247 -0.006044 0.000000 0.005202 0.000000
# 3 0.004102 -0.006044 0.018717 0.000000 -0.011209 0.000000
# 4 0.000000 0.000000 0.000000 0.095085 0.000000 0.024407
# 5 -0.013345 0.005202 -0.011209 0.000000 0.046121 0.000000
# 6 0.000000 0.000000 0.000000 0.024407 0.000000 0.049692
#
#
# Mechanical properties :
#
#
# Convention : Reuss Voigt Hill
#
# Bulk Modulus (GPa) = 28.90936 49.34989 39.12963
# Shear Modulus (GPa) = 17.74070 24.35542 21.04806
#
# Velocity S-wave (km/s) = 2.95739 3.46514 3.22128
# Velocity P-wave (km/s) = 5.09056 6.35130 5.75555
#
# Compressibility (1/GPa) = 0.03459087
#
# Stress axis : x y z
#
# Youngs Moduli (GPa) = 38.40709 81.65500 53.42872
#
# Poissons Ratio (x) = 0.75632 -0.21917
# Poissons Ratio (y) = 0.35574 0.32294
# Poissons Ratio (z) = -0.15755 0.49354
#
# Static dielectric constant tensor:
#      x y z
#    x 1.703850 0.000000 -0.007660 
#    y 0.000000 1.748420 0.000000 
#    z -0.007660 0.000000 1.736770 
# 
# From -- ./inp_files/29340.got.cif
#   From: 2010.05.17/outbox.cif.g08.bks.cpg/sg13_15_cif.got.tgz:29340.got - 2010.06.03 16:44:36.
