data_PCOD9227648
_publ_section_title
;
Structure prediction by ZEFSAII (Michael W. Deem and Ramdas Pophale) SiO2 
 PCOD9227648
Probable space group: P 2/C
;
_chemical_formula_sum "Si O2"
_cell_formula_units_Z 28
_cell_length_a 15.288389
_cell_length_b 9.576888
_cell_length_c 21.852538
_cell_angle_alpha 90.000000
_cell_angle_beta 151.485318
_cell_angle_gamma 90.000000
_cell_volume 1527.410678
_symmetry_space_group_name_H-M "P 2/C"
_symmetry_group_IT_number 13
_symmetry_cell_setting 'monoclinic'
loop_
_space_group_symop_operation_xyz
x,y,z
-x,y,1/2-z
-x,-y,-z
x,-y,1/2+z
loop_
_atom_site_type_symbol
_atom_site_label
_atom_site_fract_x
_atom_site_fract_y
_atom_site_fract_z
Si Si1 0.764758 0.403762 0.686602
Si Si2 0.043022 0.890575 0.942267
Si Si3 0.620389 0.772727 0.901094
Si Si4 0.933232 0.351321 0.142119
Si Si5 0.728353 0.899570 0.846187
Si Si6 0.001965 0.128348 0.819657
Si Si7 0.438763 0.507522 0.561272
O O1 0.859594 0.253599 0.742260
O O2 0.627325 0.432685 0.658355
O O3 0.640945 0.421469 0.549703
O O4 0.926267 0.520168 0.784262
O O5 0.064483 0.758974 0.911392
O O6 0.891910 0.865085 0.901191
O O7 0.977166 0.014111 0.856707
O O8 0.217941 0.958106 0.085178
O O9 0.699210 0.782184 0.880638
O O10 0.464101 0.891858 0.807323
O O11 0.539209 0.627391 0.874391
O O12 0.795366 0.807735 0.049064
O O13 0.000000 0.295798 0.250000
O O14 0.726060 0.406211 0.020771
O O15 0.000000 0.069429 0.750000
#
# Coordination Sequence:
#
# PCOD9227648 Si02
#       7
#     4   4   4   4   4   4   4
#     4  10  19  34  58  93 125 152 189 242 310 381
#     4  10  21  38  60  84 117 157 207 252 298 353
#     4  10  18  37  63  79 113 164 202 242 298 364
#     4  10  19  36  59  91 127 151 187 256 321 358
#     4   9  21  38  59  77 111 163 211 236 288 350
#     4  11  19  36  60  91 120 159 197 242 310 378
#     4  10  19  33  61  88 123 153 196 243 309 361
#
# _framework density 18.331676999999999
#
# number of rings (size 3 to 8) (size 9 to 14) (size 15 to 20)
#    0.000    2.000    2.857    1.714    0.000    0.000 
#    7.714    1.429   15.714    0.000    0.000    0.000 
#    0.000    0.000    0.000    0.000    0.000    0.000 
#
# Total GULP energy -156009.727621 kJ/mol
# GULP energy per Si atom -5571.775986 kJ/mol
# Density = 1.828995 g / cm^3
# Si number density = 18.331677 Si / 1000 Ang^3
#
#
#
# Elastic Constant Matrix: (Units=GPa)
#
#
# Indices 1 2 3 4 5 6 
#
# 1 117.5550 41.6628 27.1221 0.0000 19.4837 0.0000
# 2 41.6628 62.5587 12.1345 0.0000 8.2143 0.0000
# 3 27.1221 12.1345 57.6637 0.0000 19.1566 0.0000
# 4 0.0000 0.0000 0.0000 17.9882 0.0000 -6.6996
# 5 19.4837 8.2143 19.1566 0.0000 20.9072 0.0000
# 6 0.0000 0.0000 0.0000 -6.6996 0.0000 37.4902
#
#
#
# Elastic Compliance Matrix: (Units=1/GPa)
#
#
# Indices 1 2 3 4 5 6 
#
# 1 0.012690 -0.007110 -0.002116 0.000000 -0.007094 0.000000
# 2 -0.007110 0.020989 -0.000768 0.000000 -0.000917 0.000000
# 3 -0.002116 -0.000768 0.025508 0.000000 -0.021098 0.000000
# 4 0.000000 0.000000 0.000000 0.059556 0.000000 0.010643
# 5 -0.007094 -0.000917 -0.021098 0.000000 0.074134 0.000000
# 6 0.000000 0.000000 0.000000 0.010643 0.000000 0.028576
#
#
# Mechanical properties :
#
#
# Convention : Reuss Voigt Hill
#
# Bulk Modulus (GPa) = 25.51020 44.40179 34.95599
# Shear Modulus (GPa) = 19.64580 25.73431 22.69005
#
# Velocity S-wave (km/s) = 3.27721 3.75082 3.52199
# Velocity P-wave (km/s) = 5.31661 6.55989 5.97070
#
# Compressibility (1/GPa) = 0.03920001
#
# Stress axis : x y z
#
# Youngs Moduli (GPa) = 78.79996 47.64342 39.20333
#
# Poissons Ratio (x) = 0.33872 0.08295
# Poissons Ratio (y) = 0.56023 0.03012
# Poissons Ratio (z) = 0.16674 0.03660
#
# Static dielectric constant tensor:
#      x y z
#    x 1.645110 0.000000 -0.024870 
#    y 0.000000 1.619870 0.000000 
#    z -0.024870 0.000000 1.683950 
# 
# From -- ./inp_files/79997.got.cif
#   From: 2010.05.17/outbox.cif.g08.bks.cpg/sg13_40_cif.got.tgz:79997.got - 2010.06.03 16:44:36.
