data_PCOD9227942
_publ_section_title
;
Structure prediction by ZEFSAII (Michael W. Deem and Ramdas Pophale) SiO2 
 PCOD9227942
Probable space group: P 2/C
;
_chemical_formula_sum "Si O2"
_cell_formula_units_Z 32
_cell_length_a 11.381812
_cell_length_b 5.458156
_cell_length_c 27.482304
_cell_angle_alpha 90.000000
_cell_angle_beta 130.166460
_cell_angle_gamma 90.000000
_cell_volume 1304.675778
_symmetry_space_group_name_H-M "P 2/C"
_symmetry_group_IT_number 13
_symmetry_cell_setting 'monoclinic'
loop_
_space_group_symop_operation_xyz
x,y,z
-x,y,1/2-z
-x,-y,-z
x,-y,1/2+z
loop_
_atom_site_type_symbol
_atom_site_label
_atom_site_fract_x
_atom_site_fract_y
_atom_site_fract_z
Si Si1 0.318176 0.210396 0.696477
Si Si2 0.165754 0.699683 0.687530
Si Si3 0.246014 0.921733 0.071019
Si Si4 0.419549 0.770892 0.371034
Si Si5 0.747295 0.725677 0.687612
Si Si6 0.714449 0.743715 0.569902
Si Si7 0.644005 0.754954 0.031152
Si Si8 0.038787 0.696204 0.551611
O O1 0.500000 0.165783 0.750000
O O2 0.280042 0.470612 0.710088
O O3 0.257967 0.228477 0.624806
O O4 0.233565 0.970689 0.695395
O O5 0.132941 0.692062 0.736483
O O6 0.045218 0.654699 0.611444
O O7 0.405588 0.855196 0.088631
O O8 0.205462 0.191741 0.080791
O O9 0.102992 0.876132 0.997646
O O10 0.372642 0.502887 0.338644
O O11 0.377893 0.747467 0.416527
O O12 0.324749 0.002693 0.325190
O O13 0.795823 0.720853 0.643691
O O14 0.529723 0.761944 0.534914
O O15 0.721433 0.501034 0.539194
O O16 0.739844 0.000084 0.550048
O O17 0.000000 0.500000 0.500000
#
# Coordination Sequence:
#
# PCOD9227942 Si02
#       8
#     4   4   4   4   4   4   4   4
#     4  11  21  32  48  68  92 118 149 190 242 284
#     4  11  21  33  48  65  91 121 158 194 226 275
#     4  10  21  34  49  67  89 123 162 202 236 271
#     4  10  20  31  49  72  99 120 152 194 238 282
#     4  10  19  31  46  74  99 123 148 189 238 284
#     4   8  14  25  43  63  96 124 146 170 218 285
#     4   8  14  26  42  66  92 125 146 173 220 279
#     4  10  21  37  49  62  86 128 170 201 232 271
#
# _framework density 24.527163999999999
#
# number of rings (size 3 to 8) (size 9 to 14) (size 15 to 20)
#    0.000    2.250    1.250    2.625    1.750    1.000 
#    0.000    0.000    0.000    0.000    0.000    0.875 
#    0.000    0.000    0.000    0.000    0.000    0.000 
#
# Total GULP energy -178453.848888 kJ/mol
# GULP energy per Si atom -5576.682778 kJ/mol
# Density = 2.447134 g / cm^3
# Si number density = 24.527164 Si / 1000 Ang^3
#
#
#
# Elastic Constant Matrix: (Units=GPa)
#
#
# Indices 1 2 3 4 5 6 
#
# 1 38.6675 22.9028 30.2914 0.0000 10.3446 0.0000
# 2 22.9028 153.2424 20.4395 0.0000 2.5659 0.0000
# 3 30.2914 20.4395 179.9126 0.0000 -22.0849 0.0000
# 4 0.0000 0.0000 0.0000 -88.7904 0.0000 6.9788
# 5 10.3446 2.5659 -22.0849 0.0000 39.2849 0.0000
# 6 0.0000 0.0000 0.0000 6.9788 0.0000 4.1513
#
#
#
# Elastic Compliance Matrix: (Units=1/GPa)
#
#
# Indices 1 2 3 4 5 6 
#
# 1 0.038286 -0.004463 -0.007670 0.000000 -0.014102 0.000000
# 2 -0.004463 0.007177 0.000024 0.000000 0.000720 0.000000
# 3 -0.007670 0.000024 0.007621 0.000000 0.006302 0.000000
# 4 0.000000 0.000000 0.000000 -0.009948 0.000000 0.016724
# 5 -0.014102 0.000720 0.006302 0.000000 0.032664 0.000000
# 6 0.000000 0.000000 0.000000 0.016724 0.000000 0.212776
#
#
# Mechanical properties :
#
#
# Convention : Reuss Voigt Hill
#
# Bulk Modulus (GPa) = 34.64206 57.67665 46.15936
# Shear Modulus (GPa) = 15.50794 10.80842 13.15818
#
# Velocity S-wave (km/s) = 2.51724 2.10150 2.31870
# Velocity P-wave (km/s) = 4.75429 5.42723 5.10187
#
# Compressibility (1/GPa) = 0.02886664
#
# Stress axis : x y z
#
# Youngs Moduli (GPa) = 26.11908 139.32822 131.22488
#
# Poissons Ratio (x) = 0.62181 1.00652
# Poissons Ratio (y) = 0.11657 -0.00320
# Poissons Ratio (z) = 0.20034 -0.00340
#
# Static dielectric constant tensor:
#      x y z
#    x 1.952780 0.000000 -0.012730 
#    y 0.000000 2.065980 0.000000 
#    z -0.012730 0.000000 1.996360 
# 
# From -- ./inp_files/96880.got.cif
#   From: 2010.05.17/outbox.cif.g08.bks.cpg/sg13_49_cif.got.tgz:96880.got - 2010.06.03 16:44:36.
