data_PCOD9227154
_publ_section_title
;
Structure prediction by ZEFSAII (Michael W. Deem and Ramdas Pophale) SiO2 
 PCOD9227154
Probable space group: P 2/C
;
_chemical_formula_sum "Si O2"
_cell_formula_units_Z 20
_cell_length_a 14.865760
_cell_length_b 9.316313
_cell_length_c 22.022907
_cell_angle_alpha 90.000000
_cell_angle_beta 16.626405
_cell_angle_gamma 90.000000
_cell_volume 872.708495
_symmetry_space_group_name_H-M "P 2/C"
_symmetry_group_IT_number 13
_symmetry_cell_setting 'monoclinic'
loop_
_space_group_symop_operation_xyz
x,y,z
-x,y,1/2-z
-x,-y,-z
x,-y,1/2+z
loop_
_atom_site_type_symbol
_atom_site_label
_atom_site_fract_x
_atom_site_fract_y
_atom_site_fract_z
Si Si1 0.027350 0.887831 0.333029
Si Si2 0.771777 0.307660 0.444330
Si Si3 0.139862 0.319513 0.980870
Si Si4 0.557774 0.013150 0.049017
Si Si5 0.937183 0.359278 0.596911
O O1 0.021670 0.738256 0.370987
O O2 0.686414 0.921234 0.527584
O O3 0.188626 0.999240 0.275669
O O4 0.264844 0.906598 0.121484
O O5 0.959078 0.289211 0.386201
O O6 0.439286 0.387026 0.666661
O O7 0.000000 0.384611 0.250000
O O8 0.677240 0.152594 0.477137
O O9 0.500000 0.266381 0.750000
O O10 0.983246 0.277577 0.018017
O O11 0.117503 0.492727 0.988854
#
# Coordination Sequence:
#
# PCOD9227154 Si02
#       5
#     4   4   4   4   4
#     4   9  16  31  54  79 107 150 177 224 278 330
#     4  10  18  33  56  82 112 144 181 226 287 335
#     4   9  19  37  56  74 110 149 183 228 277 333
#     4   9  17  31  53  79 116 145 176 223 283 326
#     4   9  19  35  56  78 107 149 187 227 277 328
#
# _framework density 22.917159999999999
#
# number of rings (size 3 to 8) (size 9 to 14) (size 15 to 20)
#    0.000    2.800    2.000    0.000    0.000    0.800 
#    3.600    7.000    0.000    3.600    0.000    0.000 
#    0.000    0.000    0.000    0.000    0.000    0.000 
#
# Total GULP energy -111375.280047 kJ/mol
# GULP energy per Si atom -5568.764002 kJ/mol
# Density = 2.286500 g / cm^3
# Si number density = 22.917160 Si / 1000 Ang^3
#
#
#
# Elastic Constant Matrix: (Units=GPa)
#
#
# Indices 1 2 3 4 5 6 
#
# 1 142.9995 23.2324 24.0469 0.0000 -0.8640 0.0000
# 2 23.2324 34.0840 8.2285 0.0000 0.8014 0.0000
# 3 24.0469 8.2285 49.6456 0.0000 7.9729 0.0000
# 4 0.0000 0.0000 0.0000 -3.2464 0.0000 8.0476
# 5 -0.8640 0.8014 7.9729 0.0000 30.9144 0.0000
# 6 0.0000 0.0000 0.0000 8.0476 0.0000 44.2734
#
#
#
# Elastic Compliance Matrix: (Units=1/GPa)
#
#
# Indices 1 2 3 4 5 6 
#
# 1 0.008377 -0.004908 -0.003445 0.000000 0.001250 0.000000
# 2 -0.004908 0.033446 -0.003135 0.000000 -0.000196 0.000000
# 3 -0.003445 -0.003135 0.023298 0.000000 -0.006024 0.000000
# 4 0.000000 0.000000 0.000000 -0.212350 0.000000 0.038599
# 5 0.001250 -0.000196 -0.006024 0.000000 0.033941 0.000000
# 6 0.000000 0.000000 0.000000 0.038599 0.000000 0.015571
#
#
# Mechanical properties :
#
#
# Convention : Reuss Voigt Hill
#
# Bulk Modulus (GPa) = 23.72686 37.52720 30.62703
# Shear Modulus (GPa) = -82.38195 25.80303 -28.28946
#
# Velocity S-wave (km/s) = -6.00215 3.35912 -3.51725
# Velocity P-wave (km/s) = 6.13666 5.60853 1.76109
#
# Compressibility (1/GPa) = 0.04214633
#
# Stress axis : x y z
#
# Youngs Moduli (GPa) = 119.37100 29.89895 42.92141
#
# Poissons Ratio (x) = 0.14674 0.14786
# Poissons Ratio (y) = 0.58585 0.13455
# Poissons Ratio (z) = 0.41123 0.09373
#
# Static dielectric constant tensor:
#      x y z
#    x 1.963510 0.000000 0.003950 
#    y 0.000000 1.865970 0.000000 
#    z 0.003950 0.000000 1.931110 
# 
# From -- ./inp_files/29067.got.cif
#   From: 2010.05.17/outbox.cif.g08.bks.cpg/sg13_15_cif.got.tgz:29067.got - 2010.06.03 16:44:36.
