data_PCOD9227590
_publ_section_title
;
Structure prediction by ZEFSAII (Michael W. Deem and Ramdas Pophale) SiO2 
 PCOD9227590
Probable space group: P 2/C
;
_chemical_formula_sum "Si O2"
_cell_formula_units_Z 30
_cell_length_a 31.338031
_cell_length_b 9.673605
_cell_length_c 18.425782
_cell_angle_alpha 90.000000
_cell_angle_beta 15.808847
_cell_angle_gamma 90.000000
_cell_volume 1521.735010
_symmetry_space_group_name_H-M "P 2/C"
_symmetry_group_IT_number 13
_symmetry_cell_setting 'monoclinic'
loop_
_space_group_symop_operation_xyz
x,y,z
-x,y,1/2-z
-x,-y,-z
x,-y,1/2+z
loop_
_atom_site_type_symbol
_atom_site_label
_atom_site_fract_x
_atom_site_fract_y
_atom_site_fract_z
Si Si1 0.500000 0.767033 0.250000
Si Si2 0.141909 0.324673 0.963118
Si Si3 0.369967 0.077690 0.820947
Si Si4 0.990384 0.885717 0.937822
Si Si5 0.036680 0.185236 0.857200
Si Si6 0.179318 0.849127 0.977268
Si Si7 0.217191 0.371855 0.290744
Si Si8 0.390619 0.122734 0.623804
O O1 0.564636 0.856569 0.212097
O O2 0.365336 0.670644 0.501790
O O3 0.000000 0.357310 0.250000
O O4 0.064608 0.218034 0.033135
O O5 0.198808 0.467953 0.836466
O O6 0.289508 0.247034 0.757535
O O7 0.419977 0.147648 0.661767
O O8 0.455237 0.928229 0.671609
O O9 0.180285 0.094524 0.131990
O O10 0.936246 0.042617 0.010341
O O11 0.924434 0.829644 0.122010
O O12 0.169418 0.186699 0.578614
O O13 0.930969 0.315673 0.011989
O O14 0.000000 0.882509 0.250000
O O15 0.223557 0.720221 0.854180
O O16 0.279768 0.986205 0.801751
#
# Coordination Sequence:
#
# PCOD9227590 Si02
#       8
#     2   4   4   4   4   4   4   4
#     4  12  24  46  64  92 136 180 214 268 332 406
#     4  12  23  42  67  97 136 170 220 275 331 385
#     4  11  23  40  69  94 128 171 221 268 337 382
#     4  11  22  38  67  99 128 165 217 285 326 381
#     4  10  20  37  60  96 127 158 221 268 325 381
#     4  10  18  36  63  93 120 166 215 265 315 383
#     4  11  24  40  65  90 131 183 213 260 330 401
#     4  11  22  41  68  98 124 172 217 274 324 392
#
# _framework density 19.71434
#
# number of rings (size 3 to 8) (size 9 to 14) (size 15 to 20)
#    0.000    1.067    5.333    3.200    0.000    0.533 
#    0.000    4.000    0.000    0.000    0.000    0.000 
#    0.000    0.000    0.000    0.000    0.000    0.000 
#
# Total GULP energy -167405.006119 kJ/mol
# GULP energy per Si atom -5580.166871 kJ/mol
# Density = 1.966947 g / cm^3
# Si number density = 19.714340 Si / 1000 Ang^3
#
#
#
# Elastic Constant Matrix: (Units=GPa)
#
#
# Indices 1 2 3 4 5 6 
#
# 1 109.7260 42.8078 39.3752 0.0000 3.9238 0.0000
# 2 42.8078 96.8340 29.7851 0.0000 -16.2490 0.0000
# 3 39.3752 29.7851 79.0350 0.0000 -3.8159 0.0000
# 4 0.0000 0.0000 0.0000 20.3152 0.0000 1.3099
# 5 3.9238 -16.2490 -3.8159 0.0000 33.8442 0.0000
# 6 0.0000 0.0000 0.0000 1.3099 0.0000 14.9363
#
#
#
# Elastic Compliance Matrix: (Units=1/GPa)
#
#
# Indices 1 2 3 4 5 6 
#
# 1 0.012934 -0.004993 -0.004776 0.000000 -0.004435 0.000000
# 2 -0.004993 0.014571 -0.002652 0.000000 0.007275 0.000000
# 3 -0.004776 -0.002652 0.016085 0.000000 0.001094 0.000000
# 4 0.000000 0.000000 0.000000 0.049504 0.000000 -0.004342
# 5 -0.004435 0.007275 0.001094 0.000000 0.033678 0.000000
# 6 0.000000 0.000000 0.000000 -0.004342 0.000000 0.067332
#
#
# Mechanical properties :
#
#
# Convention : Reuss Voigt Hill
#
# Bulk Modulus (GPa) = 53.34392 56.61458 54.97925
# Shear Modulus (GPa) = 22.20298 25.39427 23.79862
#
# Velocity S-wave (km/s) = 3.35958 3.59292 3.47821
# Velocity P-wave (km/s) = 6.49355 6.78173 6.63921
#
# Compressibility (1/GPa) = 0.01874628
#
# Stress axis : x y z
#
# Youngs Moduli (GPa) = 77.31506 68.62997 62.17136
#
# Poissons Ratio (x) = 0.34266 0.29695
# Poissons Ratio (y) = 0.38603 0.16491
# Poissons Ratio (z) = 0.36928 0.18204
#
# Static dielectric constant tensor:
#      x y z
#    x 1.746090 0.000000 -0.002040 
#    y 0.000000 1.656820 0.000000 
#    z -0.002040 0.000000 1.756790 
# 
# From -- ./inp_files/72369.got.cif
#   From: 2010.05.17/outbox.cif.g08.bks.cpg/sg13_37_cif.got.tgz:72369.got - 2010.06.03 16:44:36.
