data_PCOD9227595
_publ_section_title
;
Structure prediction by ZEFSAII (Michael W. Deem and Ramdas Pophale) SiO2 
 PCOD9227595
Probable space group: P 2/C
;
_chemical_formula_sum "Si O2"
_cell_formula_units_Z 24
_cell_length_a 13.614228
_cell_length_b 12.197736
_cell_length_c 17.962965
_cell_angle_alpha 90.000000
_cell_angle_beta 21.634194
_cell_angle_gamma 90.000000
_cell_volume 1099.763030
_symmetry_space_group_name_H-M "P 2/C"
_symmetry_group_IT_number 13
_symmetry_cell_setting 'monoclinic'
loop_
_space_group_symop_operation_xyz
x,y,z
-x,y,1/2-z
-x,-y,-z
x,-y,1/2+z
loop_
_atom_site_type_symbol
_atom_site_label
_atom_site_fract_x
_atom_site_fract_y
_atom_site_fract_z
Si Si1 0.928785 0.530144 0.646097
Si Si2 0.495787 0.293962 0.431070
Si Si3 0.000000 0.431693 0.750000
Si Si4 0.298099 0.054521 0.567053
Si Si5 0.682806 0.305589 0.772442
Si Si6 0.781660 0.063645 0.701794
Si Si7 0.500000 0.624703 0.250000
O O1 0.758768 0.632862 0.736472
O O2 0.847059 0.418425 0.662933
O O3 0.883495 0.505121 0.765715
O O4 0.238942 0.552789 0.428204
O O5 0.252808 0.352291 0.557429
O O6 0.472601 0.165091 0.431939
O O7 0.449320 0.299074 0.553213
O O8 0.239597 0.031208 0.695852
O O9 0.000000 0.073521 0.750000
O O10 0.470211 0.962562 0.402337
O O11 0.842736 0.192460 0.653094
O O12 0.497354 0.310890 0.830119
O O13 0.000000 0.000000 0.500000
#
# Coordination Sequence:
#
# PCOD9227595 Si02
#       7
#     4   4   2   4   4   4   2
#     4  11  22  38  62  92 130 165 209 264 317 392
#     4  10  20  39  66  92 123 163 215 267 319 386
#     4  10  18  36  64  88 120 162 206 250 326 378
#     4  10  22  44  71  98 127 172 222 272 328 391
#     4  10  23  41  59  93 124 165 217 258 321 395
#     4  10  24  45  68  95 134 168 219 279 324 385
#     4  12  24  38  58  90 134 168 204 256 326 384
#
# _framework density 21.822883000000001
#
# number of rings (size 3 to 8) (size 9 to 14) (size 15 to 20)
#    0.000    1.667    0.833    4.500    2.333    2.000 
#    6.000    0.000    0.000    0.000    0.000    0.000 
#    0.000    0.000    0.000    0.000    0.000    0.000 
#
# Total GULP energy -133751.906965 kJ/mol
# GULP energy per Si atom -5572.996124 kJ/mol
# Density = 2.177321 g / cm^3
# Si number density = 21.822883 Si / 1000 Ang^3
#
#
#
# Elastic Constant Matrix: (Units=GPa)
#
#
# Indices 1 2 3 4 5 6 
#
# 1 76.9634 15.8276 12.1909 0.0000 -6.9243 0.0000
# 2 15.8276 109.2359 57.3635 0.0000 -1.2843 0.0000
# 3 12.1909 57.3635 102.7969 0.0000 -11.3632 0.0000
# 4 0.0000 0.0000 0.0000 31.2925 0.0000 -4.0043
# 5 -6.9243 -1.2843 -11.3632 0.0000 29.9869 0.0000
# 6 0.0000 0.0000 0.0000 -4.0043 0.0000 12.8530
#
#
#
# Elastic Compliance Matrix: (Units=1/GPa)
#
#
# Indices 1 2 3 4 5 6 
#
# 1 0.013675 -0.001793 -0.000293 0.000000 0.002970 0.000000
# 2 -0.001793 0.013335 -0.007527 0.000000 -0.002695 0.000000
# 3 -0.000293 -0.007527 0.014528 0.000000 0.005115 0.000000
# 4 0.000000 0.000000 0.000000 0.033283 0.000000 0.010369
# 5 0.002970 -0.002695 0.005115 0.000000 0.035857 0.000000
# 6 0.000000 0.000000 0.000000 0.010369 0.000000 0.081033
#
#
# Mechanical properties :
#
#
# Convention : Reuss Voigt Hill
#
# Bulk Modulus (GPa) = 44.81514 51.08445 47.94980
# Shear Modulus (GPa) = 22.89637 28.40075 25.64856
#
# Velocity S-wave (km/s) = 3.24264 3.61143 3.43199
# Velocity P-wave (km/s) = 5.88218 6.39136 6.14205
#
# Compressibility (1/GPa) = 0.02231389
#
# Stress axis : x y z
#
# Youngs Moduli (GPa) = 73.12354 74.99035 68.83163
#
# Poissons Ratio (x) = 0.13443 0.02018
# Poissons Ratio (y) = 0.13108 0.51807
# Poissons Ratio (z) = 0.02144 0.56443
#
# Static dielectric constant tensor:
#      x y z
#    x 1.908680 0.000000 0.019620 
#    y 0.000000 1.840370 0.000000 
#    z 0.019620 0.000000 1.854410 
# 
# From -- ./inp_files/80158.got.cif
#   From: 2010.05.17/outbox.cif.g08.bks.cpg/sg13_41_cif.got.tgz:80158.got - 2010.06.03 16:44:36.
