data_PCOD9227097
_publ_section_title
;
Structure prediction by ZEFSAII (Michael W. Deem and Ramdas Pophale) SiO2 
 PCOD9227097
Probable space group: P 2/C
;
_chemical_formula_sum "Si O2"
_cell_formula_units_Z 26
_cell_length_a 33.566625
_cell_length_b 6.668752
_cell_length_c 5.215939
_cell_angle_alpha 90.000000
_cell_angle_beta 99.383896
_cell_angle_gamma 90.000000
_cell_volume 1151.950439
_symmetry_space_group_name_H-M "P 2/C"
_symmetry_group_IT_number 13
_symmetry_cell_setting 'monoclinic'
loop_
_space_group_symop_operation_xyz
x,y,z
-x,y,1/2-z
-x,-y,-z
x,-y,1/2+z
loop_
_atom_site_type_symbol
_atom_site_label
_atom_site_fract_x
_atom_site_fract_y
_atom_site_fract_z
Si Si1 0.913748 0.132959 0.225966
Si Si2 0.713468 0.705032 0.852116
Si Si3 0.831873 0.630752 0.544008
Si Si4 0.000000 0.141930 0.250000
Si Si5 0.746008 0.253230 0.884246
Si Si6 0.631045 0.859105 0.917738
Si Si7 0.456854 0.142416 0.194531
O O1 0.873756 0.257875 0.133356
O O2 0.956391 0.247579 0.220128
O O3 0.913347 0.045326 0.513550
O O4 0.733737 0.488921 0.830830
O O5 0.714737 0.802890 0.573521
O O6 0.668478 0.710022 0.916062
O O7 0.740898 0.818681 0.089072
O O8 0.829792 0.541056 0.256898
O O9 0.791541 0.762831 0.529743
O O10 0.000000 0.000000 0.500000
O O11 0.633437 0.022887 0.689814
O O12 0.586970 0.754474 0.851570
O O13 0.500000 0.255756 0.250000
O O14 0.456937 0.994949 0.440056
#
# Coordination Sequence:
#
# PCOD9227097 Si02
#       7
#     4   4   4   2   4   4   4
#     4  10  21  38  59  87 113 145 185 226 273 326
#     4  10  18  33  51  69  88 129 172 200 239 303
#     4  12  21  38  60  81 110 149 185 231 270 324
#     4   8  16  34  58  78 112 150 176 210 272 342
#     4  10  19  35  54  64  89 131 179 201 240 300
#     4  10  19  30  45  72 103 123 152 207 257 297
#     4   8  14  25  41  61  90 126 155 183 237 307
#
# _framework density 22.570415000000001
#
# number of rings (size 3 to 8) (size 9 to 14) (size 15 to 20)
#    0.000    2.154    3.077    1.846    0.000    0.000 
#    0.000    5.385    0.000    0.000    0.000    4.308 
#    0.000    0.000    0.000    0.000    0.000    0.000 
#
# Total GULP energy -144918.657841 kJ/mol
# GULP energy per Si atom -5573.794532 kJ/mol
# Density = 2.251904 g / cm^3
# Si number density = 22.570415 Si / 1000 Ang^3
#
#
#
# Elastic Constant Matrix: (Units=GPa)
#
#
# Indices 1 2 3 4 5 6 
#
# 1 196.9526 0.0401 -7.7821 0.0000 27.8727 0.0000
# 2 0.0401 27.7967 -18.4505 0.0000 0.4254 0.0000
# 3 -7.7821 -18.4505 124.1452 0.0000 -12.2421 0.0000
# 4 0.0000 0.0000 0.0000 90.7186 0.0000 -70.0636
# 5 27.8727 0.4254 -12.2421 0.0000 40.8187 0.0000
# 6 0.0000 0.0000 0.0000 -70.0636 0.0000 78.7912
#
#
#
# Elastic Compliance Matrix: (Units=1/GPa)
#
#
# Indices 1 2 3 4 5 6 
#
# 1 0.005621 0.000037 -0.000021 0.000000 -0.003845 0.000000
# 2 0.000037 0.039991 0.006082 0.000000 0.001382 0.000000
# 3 -0.000021 0.006082 0.009226 0.000000 0.002718 0.000000
# 4 0.000000 0.000000 0.000000 0.035192 0.000000 0.031294
# 5 -0.003845 0.001382 0.002718 0.000000 0.027925 0.000000
# 6 0.000000 0.000000 0.000000 0.031294 0.000000 0.040519
#
#
# Mechanical properties :
#
#
# Convention : Reuss Voigt Hill
#
# Bulk Modulus (GPa) = 14.91817 32.94550 23.93183
# Shear Modulus (GPa) = 29.65202 67.07149 48.36176
#
# Velocity S-wave (km/s) = 3.62851 5.45720 4.63396
# Velocity P-wave (km/s) = 4.91719 7.37133 6.26559
#
# Compressibility (1/GPa) = 0.06703237
#
# Stress axis : x y z
#
# Youngs Moduli (GPa) = 177.91608 25.00538 108.39268
#
# Poissons Ratio (x) = -0.00091 0.00232
# Poissons Ratio (y) = -0.00650 -0.65926
# Poissons Ratio (z) = 0.00380 -0.15209
#
# Static dielectric constant tensor:
#      x y z
#    x 1.899450 0.000000 0.010360 
#    y 0.000000 -0.365660 0.000000 
#    z 0.010360 0.000000 1.881190 
# 
# From -- ./inp_files/7797.got.cif
#   From: 2010.05.17/outbox.cif.g08.bks.cpg/sg13_4_cif.got.tgz:7797.got - 2010.06.03 16:44:36.
