data_PCOD9227234
_publ_section_title
;
Structure prediction by ZEFSAII (Michael W. Deem and Ramdas Pophale) SiO2 
 PCOD9227234
Probable space group: P 2/C
;
_chemical_formula_sum "Si O2"
_cell_formula_units_Z 32
_cell_length_a 10.609465
_cell_length_b 10.519300
_cell_length_c 19.467088
_cell_angle_alpha 90.000000
_cell_angle_beta 44.603788
_cell_angle_gamma 90.000000
_cell_volume 1525.605411
_symmetry_space_group_name_H-M "P 2/C"
_symmetry_group_IT_number 13
_symmetry_cell_setting 'monoclinic'
loop_
_space_group_symop_operation_xyz
x,y,z
-x,y,1/2-z
-x,-y,-z
x,-y,1/2+z
loop_
_atom_site_type_symbol
_atom_site_label
_atom_site_fract_x
_atom_site_fract_y
_atom_site_fract_z
Si Si1 0.753543 0.660938 0.946362
Si Si2 0.359187 0.372153 0.163017
Si Si3 0.208611 0.098712 0.985842
Si Si4 0.221111 0.376441 0.546267
Si Si5 0.951909 0.164981 0.974554
Si Si6 0.595405 0.893844 0.285924
Si Si7 0.698144 0.159169 0.205134
Si Si8 0.336323 0.656809 0.155757
O O1 0.738063 0.660397 0.870675
O O2 0.837702 0.788016 0.944296
O O3 0.832120 0.524809 0.938146
O O4 0.548045 0.659783 0.053731
O O5 0.575048 0.363141 0.063928
O O6 0.297811 0.274314 0.243872
O O7 0.310833 0.518022 0.198611
O O8 0.421508 0.075407 0.901248
O O9 0.111280 0.965615 0.036498
O O10 0.144369 0.145967 0.935105
O O11 0.089579 0.283827 0.556828
O O12 0.235262 0.341193 0.621646
O O13 0.829177 0.174532 0.090457
O O14 0.500000 0.863779 0.250000
O O15 0.694619 0.774589 0.281836
O O16 0.712378 0.021186 0.234911
O O17 0.500000 0.156978 0.250000
#
# Coordination Sequence:
#
# PCOD9227234 Si02
#       8
#     4   4   4   4   4   4   4   4
#     4   8  17  32  52  74 100 129 168 211 248 293
#     4   9  16  31  52  76 101 128 167 214 252 290
#     4  10  20  35  51  74 102 135 168 202 252 303
#     4   9  16  32  52  76 102 127 171 212 245 292
#     4  11  21  33  51  75 105 136 167 205 252 305
#     4  10  18  34  53  76 104 128 165 212 254 293
#     4  11  19  32  49  77 105 131 166 210 254 295
#     4   8  17  30  52  79  99 127 166 215 250 288
#
# _framework density 20.975279
#
# number of rings (size 3 to 8) (size 9 to 14) (size 15 to 20)
#    0.000    2.500    3.750    1.500    0.000    2.000 
#    2.250    4.375    0.000    0.750    0.000    0.000 
#    0.000    0.000    0.000    0.000    0.000    0.000 
#
# Total GULP energy -178662.863752 kJ/mol
# GULP energy per Si atom -5583.214492 kJ/mol
# Density = 2.092754 g / cm^3
# Si number density = 20.975279 Si / 1000 Ang^3
#
#
#
# Elastic Constant Matrix: (Units=GPa)
#
#
# Indices 1 2 3 4 5 6 
#
# 1 25.2491 40.0861 16.0132 0.0000 1.7118 0.0000
# 2 40.0861 164.8683 49.3598 0.0000 36.3745 0.0000
# 3 16.0132 49.3598 60.7522 0.0000 -4.0128 0.0000
# 4 0.0000 0.0000 0.0000 21.3761 0.0000 19.7362
# 5 1.7118 36.3745 -4.0128 0.0000 24.5659 0.0000
# 6 0.0000 0.0000 0.0000 19.7362 0.0000 37.5142
#
#
#
# Elastic Compliance Matrix: (Units=1/GPa)
#
#
# Indices 1 2 3 4 5 6 
#
# 1 0.081645 -0.030636 0.006056 0.000000 0.040662 0.000000
# 2 -0.030636 0.028129 -0.017579 0.000000 -0.042387 0.000000
# 3 0.006056 -0.017579 0.031174 0.000000 0.030699 0.000000
# 4 0.000000 0.000000 0.000000 0.090968 0.000000 -0.047858
# 5 0.040662 -0.042387 0.030699 0.000000 0.105650 0.000000
# 6 0.000000 0.000000 0.000000 -0.047858 0.000000 0.051835
#
#
# Mechanical properties :
#
#
# Convention : Reuss Voigt Hill
#
# Bulk Modulus (GPa) = 17.65783 51.30977 34.48380
# Shear Modulus (GPa) = 10.15034 26.38528 18.26781
#
# Velocity S-wave (km/s) = 2.20220 3.55057 2.95434
# Velocity P-wave (km/s) = 3.86043 6.42836 5.30221
#
# Compressibility (1/GPa) = 0.05663209
#
# Stress axis : x y z
#
# Youngs Moduli (GPa) = 12.24809 35.55077 32.07793
#
# Poissons Ratio (x) = 1.08912 -0.19427
# Poissons Ratio (y) = 0.37523 0.56389
# Poissons Ratio (z) = -0.07418 0.62494
#
# Static dielectric constant tensor:
#      x y z
#    x 1.751600 0.000000 -0.039390 
#    y 0.000000 1.749760 0.000000 
#    z -0.039390 0.000000 1.785280 
# 
# From -- ./inp_files/78264.got.cif
#   From: 2010.05.17/outbox.cif.g08.bks.cpg/sg13_40_cif.got.tgz:78264.got - 2010.06.03 16:44:36.
