data_PCOD9227611
_publ_section_title
;
Structure prediction by ZEFSAII (Michael W. Deem and Ramdas Pophale) SiO2 
 PCOD9227611
Probable space group: P 2/C
;
_chemical_formula_sum "Si O2"
_cell_formula_units_Z 20
_cell_length_a 20.145853
_cell_length_b 8.490003
_cell_length_c 14.069992
_cell_angle_alpha 90.000000
_cell_angle_beta 159.801180
_cell_angle_gamma 90.000000
_cell_volume 830.916451
_symmetry_space_group_name_H-M "P 2/C"
_symmetry_group_IT_number 13
_symmetry_cell_setting 'monoclinic'
loop_
_space_group_symop_operation_xyz
x,y,z
-x,y,1/2-z
-x,-y,-z
x,-y,1/2+z
loop_
_atom_site_type_symbol
_atom_site_label
_atom_site_fract_x
_atom_site_fract_y
_atom_site_fract_z
Si Si1 0.419687 0.438088 0.994073
Si Si2 0.000000 0.945706 0.750000
Si Si3 0.000000 0.557125 0.250000
Si Si4 0.312668 0.189373 0.201142
Si Si5 0.621676 0.777218 0.498823
Si Si6 0.001478 0.687389 0.597412
O O1 0.453863 0.598027 0.095569
O O2 0.195902 0.390875 0.702716
O O3 0.500000 0.500000 0.000000
O O4 0.533602 0.274719 0.159587
O O5 0.047786 0.835027 0.902424
O O6 0.812039 0.051937 0.512659
O O7 0.155556 0.671089 0.505373
O O8 0.913987 0.443708 0.215638
O O9 0.391842 0.149864 0.413297
O O10 0.843990 0.752778 0.768501
O O11 0.500000 0.854904 0.250000
#
# Coordination Sequence:
#
# PCOD9227611 Si02
#       6
#     4   2   2   4   4   4
#     4  10  20  39  65  98 123 165 218 275 324 374
#     4  10  26  42  68  90 136 184 216 250 332 402
#     4  10  18  36  66  86 126 164 222 264 314 378
#     4  10  22  42  63  92 130 175 214 261 323 393
#     4  11  23  38  66  99 128 160 220 281 322 367
#     4  11  22  39  66  98 125 170 220 270 329 381
#
# _framework density 24.069807000000001
#
# number of rings (size 3 to 8) (size 9 to 14) (size 15 to 20)
#    0.000    1.600    4.000    1.800    8.400    1.600 
#    0.000    0.000    0.000    0.000    0.000    0.000 
#    0.000    0.000    0.000    0.000    0.000    0.000 
#
# Total GULP energy -111636.119766 kJ/mol
# GULP energy per Si atom -5581.805988 kJ/mol
# Density = 2.401502 g / cm^3
# Si number density = 24.069807 Si / 1000 Ang^3
#
#
#
# Elastic Constant Matrix: (Units=GPa)
#
#
# Indices 1 2 3 4 5 6 
#
# 1 35.8314 -19.1639 0.7408 0.0000 6.6156 0.0000
# 2 -19.1639 44.9431 -12.6634 0.0000 -8.8437 0.0000
# 3 0.7408 -12.6634 78.6391 0.0000 -2.4366 0.0000
# 4 0.0000 0.0000 0.0000 24.7883 0.0000 7.3350
# 5 6.6156 -8.8437 -2.4366 0.0000 36.2921 0.0000
# 6 0.0000 0.0000 0.0000 7.3350 0.0000 16.4499
#
#
#
# Elastic Compliance Matrix: (Units=1/GPa)
#
#
# Indices 1 2 3 4 5 6 
#
# 1 0.036789 0.015743 0.002104 0.000000 -0.002729 0.000000
# 2 0.015743 0.031399 0.005067 0.000000 0.005122 0.000000
# 3 0.002104 0.005067 0.013567 0.000000 0.001762 0.000000
# 4 0.000000 0.000000 0.000000 0.046474 0.000000 -0.020723
# 5 -0.002729 0.005122 0.001762 0.000000 0.029418 0.000000
# 6 0.000000 0.000000 0.000000 -0.020723 0.000000 0.070031
#
#
# Mechanical properties :
#
#
# Convention : Reuss Voigt Hill
#
# Bulk Modulus (GPa) = 7.83820 10.80452 9.32136
# Shear Modulus (GPa) = 22.28393 28.20605 25.24499
#
# Velocity S-wave (km/s) = 3.04600 3.42693 3.24207
# Velocity P-wave (km/s) = 3.95403 4.48966 4.23033
#
# Compressibility (1/GPa) = 0.12758038
#
# Stress axis : x y z
#
# Youngs Moduli (GPa) = 27.18237 31.84863 73.70848
#
# Poissons Ratio (x) = -0.50138 -0.15508
# Poissons Ratio (y) = -0.42792 -0.37345
# Poissons Ratio (z) = -0.05719 -0.16136
#
# Static dielectric constant tensor:
#      x y z
#    x 1.957690 0.000000 0.001600 
#    y 0.000000 1.929380 0.000000 
#    z 0.001600 0.000000 1.983690 
# 
# From -- ./inp_files/57409.got.cif
#   From: 2010.05.17/outbox.cif.g08.bks.cpg/sg13_29_cif.got.tgz:57409.got - 2010.06.03 16:44:36.
