data_PCOD9227842
_publ_section_title
;
Structure prediction by ZEFSAII (Michael W. Deem and Ramdas Pophale) SiO2 
 PCOD9227842
Probable space group: P 2/C
;
_chemical_formula_sum "Si O2"
_cell_formula_units_Z 32
_cell_length_a 11.425414
_cell_length_b 5.611600
_cell_length_c 30.611427
_cell_angle_alpha 90.000000
_cell_angle_beta 48.761299
_cell_angle_gamma 90.000000
_cell_volume 1475.851421
_symmetry_space_group_name_H-M "P 2/C"
_symmetry_group_IT_number 13
_symmetry_cell_setting 'monoclinic'
loop_
_space_group_symop_operation_xyz
x,y,z
-x,y,1/2-z
-x,-y,-z
x,-y,1/2+z
loop_
_atom_site_type_symbol
_atom_site_label
_atom_site_fract_x
_atom_site_fract_y
_atom_site_fract_z
Si Si1 0.901698 0.750023 0.228878
Si Si2 0.019745 0.250023 0.192570
Si Si3 0.349910 0.250041 0.319079
Si Si4 0.456377 0.250027 0.394060
Si Si5 0.698492 0.249999 0.436932
Si Si6 0.348033 0.249959 0.818723
Si Si7 0.325366 0.250001 0.512322
Si Si8 0.440977 0.249974 0.649646
O O1 0.720603 0.750007 0.285069
O O2 0.000000 0.750029 0.250000
O O3 0.943993 0.499338 0.196525
O O4 0.943977 0.000717 0.196530
O O5 0.194858 0.250006 0.132261
O O6 0.000000 0.250029 0.250000
O O7 0.500000 0.250041 0.250000
O O8 0.413385 0.250039 0.353249
O O9 0.264766 0.499425 0.332791
O O10 0.264766 0.000656 0.332792
O O11 0.313160 0.250005 0.462784
O O12 0.544369 0.502042 0.379669
O O13 0.544383 0.998022 0.379662
O O14 0.513194 0.249999 0.474155
O O15 0.733531 0.500012 0.453286
O O16 0.733533 0.999985 0.453286
O O17 0.500000 0.249958 0.750000
O O18 0.419096 0.249965 0.849899
#
# Coordination Sequence:
#
# PCOD9227842 Si02
#       8
#     4   4   4   4   4   4   4   4
#     4  10  21  30  44  68  89 126 161 197 243 272
#     4  10  21  35  50  67  86 125 165 211 244 280
#     4   8  14  25  40  63  91 122 148 177 229 289
#     4  10  19  29  48  68  94 131 158 197 234 294
#     4  10  21  36  48  66  92 122 170 210 242 281
#     4   8  14  25  40  59  88 127 149 175 233 286
#     4  10  21  33  50  68  90 129 163 205 245 285
#     4  10  19  29  44  69  98 124 160 198 228 295
#
# _framework density 21.682399
#
# number of rings (size 3 to 8) (size 9 to 14) (size 15 to 20)
#    0.000    2.500    0.000    2.250    7.000    0.000 
#    0.000    0.000    0.000    0.000    0.000    0.000 
#    0.000    0.000    0.000  360.000    0.000    0.000 
#
# Total GULP energy -178315.874192 kJ/mol
# GULP energy per Si atom -5572.371068 kJ/mol
# Density = 2.163305 g / cm^3
# Si number density = 21.682399 Si / 1000 Ang^3
#
#
#
# Elastic Constant Matrix: (Units=GPa)
#
#
# Indices 1 2 3 4 5 6 
#
# 1 55.2522 22.8695 13.6101 0.0000 12.8829 0.0000
# 2 22.8695 296.1982 42.8987 0.0000 -1.4844 0.0000
# 3 13.6101 42.8987 116.2060 0.0000 10.9268 0.0000
# 4 0.0000 0.0000 0.0000 35.2331 0.0000 -2.5075
# 5 12.8829 -1.4844 10.9268 0.0000 23.3867 0.0000
# 6 0.0000 0.0000 0.0000 -2.5075 0.0000 -4.9143
#
#
#
# Elastic Compliance Matrix: (Units=1/GPa)
#
#
# Indices 1 2 3 4 5 6 
#
# 1 0.021692 -0.001610 -0.000850 0.000000 -0.011654 0.000000
# 2 -0.001610 0.003704 -0.001343 0.000000 0.001750 0.000000
# 3 -0.000850 -0.001343 0.009586 0.000000 -0.004096 0.000000
# 4 0.000000 0.000000 0.000000 0.027388 0.000000 -0.013974
# 5 -0.011654 0.001750 -0.004096 0.000000 0.051204 0.000000
# 6 0.000000 0.000000 0.000000 -0.013974 0.000000 -0.196355
#
#
# Mechanical properties :
#
#
# Convention : Reuss Voigt Hill
#
# Bulk Modulus (GPa) = 36.53030 69.60143 53.06587
# Shear Modulus (GPa) = -75.70075 36.62630 -19.53722
#
# Velocity S-wave (km/s) = -5.91517 4.11447 -3.00503
# Velocity P-wave (km/s) = 5.45599 7.39878 3.53370
#
# Compressibility (1/GPa) = 0.02737454
#
# Stress axis : x y z
#
# Youngs Moduli (GPa) = 46.09963 269.99729 104.31911
#
# Poissons Ratio (x) = 0.43472 0.08871
# Poissons Ratio (y) = 0.07423 0.14012
# Poissons Ratio (z) = 0.03920 0.36266
#
# Static dielectric constant tensor:
#      x y z
#    x 1.772350 0.000000 0.049440 
#    y 0.000000 1.927120 0.000000 
#    z 0.049440 0.000000 1.753110 
# 
# From -- ./inp_files/81261.got.cif
#   From: 2010.05.17/outbox.cif.g08.bks.cpg/sg13_41_cif.got.tgz:81261.got - 2010.06.03 16:44:36.
