data_PCOD9227247
_publ_section_title
;
Structure prediction by ZEFSAII (Michael W. Deem and Ramdas Pophale) SiO2 
 PCOD9227247
Probable space group: P 2/C
;
_chemical_formula_sum "Si O2"
_cell_formula_units_Z 24
_cell_length_a 8.818274
_cell_length_b 5.481278
_cell_length_c 18.751695
_cell_angle_alpha 90.000000
_cell_angle_beta 108.045343
_cell_angle_gamma 90.000000
_cell_volume 861.788017
_symmetry_space_group_name_H-M "P 2/C"
_symmetry_group_IT_number 13
_symmetry_cell_setting 'monoclinic'
loop_
_space_group_symop_operation_xyz
x,y,z
-x,y,1/2-z
-x,-y,-z
x,-y,1/2+z
loop_
_atom_site_type_symbol
_atom_site_label
_atom_site_fract_x
_atom_site_fract_y
_atom_site_fract_z
Si Si1 0.733066 0.330079 0.790259
Si Si2 0.915542 0.752366 0.959874
Si Si3 0.318245 0.740409 0.455949
Si Si4 0.492312 0.879509 0.138498
Si Si5 0.000000 0.508419 0.250000
Si Si6 0.840822 0.239297 0.118119
Si Si7 0.500000 0.272172 0.250000
O O1 0.679418 0.175204 0.850853
O O2 0.622301 0.270881 0.705052
O O3 0.658720 0.589342 0.796535
O O4 0.914940 0.321394 0.795418
O O5 0.980470 0.751450 0.888985
O O6 0.738282 0.759731 0.969628
O O7 0.000000 0.500000 0.000000
O O8 0.000000 0.000000 0.000000
O O9 0.486681 0.795995 0.440101
O O10 0.262830 0.466795 0.427931
O O11 0.226830 0.971354 0.405860
O O12 0.536290 0.135638 0.180588
O O13 0.867015 0.329237 0.201342
#
# Coordination Sequence:
#
# PCOD9227247 Si02
#       7
#     4   4   4   4   2   4   2
#     4   9  19  31  45  70 105 136 172 212 260 313
#     4   8  16  31  50  74 102 130 174 223 252 292
#     4  10  18  34  55  77 101 137 180 220 256 299
#     4   9  17  31  50  70  95 137 179 219 249 307
#     4  12  20  34  50  78 116 144 164 212 274 332
#     4  10  21  32  51  80 108 138 172 212 266 314
#     4   8  16  32  46  64  98 132 182 212 246 304
#
# _framework density 27.849074999999999
#
# number of rings (size 3 to 8) (size 9 to 14) (size 15 to 20)
#    0.000    3.000    1.667    1.000    2.333    0.667 
#    6.000    0.000    0.000    1.000    0.000    1.167 
#    0.000    0.000    0.000    0.000    0.000    0.000 
#
# Total GULP energy -133733.133690 kJ/mol
# GULP energy per Si atom -5572.213904 kJ/mol
# Density = 2.778569 g / cm^3
# Si number density = 27.849075 Si / 1000 Ang^3
#
#
#
# Elastic Constant Matrix: (Units=GPa)
#
#
# Indices 1 2 3 4 5 6 
#
# 1 138.7403 47.0283 30.8200 0.0000 -48.4117 0.0000
# 2 47.0283 126.3015 24.3899 0.0000 3.8720 0.0000
# 3 30.8200 24.3899 84.8281 0.0000 -21.7430 0.0000
# 4 0.0000 0.0000 0.0000 24.0975 0.0000 -10.0712
# 5 -48.4117 3.8720 -21.7430 0.0000 57.0295 0.0000
# 6 0.0000 0.0000 0.0000 -10.0712 0.0000 23.3832
#
#
#
# Elastic Compliance Matrix: (Units=1/GPa)
#
#
# Indices 1 2 3 4 5 6 
#
# 1 0.012903 -0.005075 -0.000369 0.000000 0.011157 0.000000
# 2 -0.005075 0.010522 -0.002736 0.000000 -0.006066 0.000000
# 3 -0.000369 -0.002736 0.014050 0.000000 0.005229 0.000000
# 4 0.000000 0.000000 0.000000 0.050608 0.000000 0.021797
# 5 0.011157 -0.006066 0.005229 0.000000 0.029412 0.000000
# 6 0.000000 0.000000 0.000000 0.021797 0.000000 0.052154
#
#
# Mechanical properties :
#
#
# Convention : Reuss Voigt Hill
#
# Bulk Modulus (GPa) = 47.36216 61.59402 54.47809
# Shear Modulus (GPa) = 25.90054 37.41083 31.65569
#
# Velocity S-wave (km/s) = 3.05295 3.66914 3.37514
# Velocity P-wave (km/s) = 5.42872 6.33366 5.89857
#
# Compressibility (1/GPa) = 0.02111390
#
# Stress axis : x y z
#
# Youngs Moduli (GPa) = 77.49981 95.04199 71.17659
#
# Poissons Ratio (x) = 0.48237 0.02626
# Poissons Ratio (y) = 0.39334 0.19474
# Poissons Ratio (z) = 0.02859 0.26004
#
# Static dielectric constant tensor:
#      x y z
#    x 3.150430 0.000000 0.090530 
#    y 0.000000 2.546030 0.000000 
#    z 0.090530 0.000000 2.206790 
# 
# From -- ./inp_files/84370.got.cif
#   From: 2010.05.17/outbox.cif.g08.bks.cpg/sg13_43_cif.got.tgz:84370.got - 2010.06.03 16:44:36.
