data_PCOD9227959
_publ_section_title
;
Structure prediction by ZEFSAII (Michael W. Deem and Ramdas Pophale) SiO2 
 PCOD9227959
Probable space group: P 2/C
;
_chemical_formula_sum "Si O2"
_cell_formula_units_Z 20
_cell_length_a 28.593631
_cell_length_b 4.976707
_cell_length_c 5.081378
_cell_angle_alpha 90.000000
_cell_angle_beta 100.417115
_cell_angle_gamma 90.000000
_cell_volume 711.172537
_symmetry_space_group_name_H-M "P 2/C"
_symmetry_group_IT_number 13
_symmetry_cell_setting 'monoclinic'
loop_
_space_group_symop_operation_xyz
x,y,z
-x,y,1/2-z
-x,-y,-z
x,-y,1/2+z
loop_
_atom_site_type_symbol
_atom_site_label
_atom_site_fract_x
_atom_site_fract_y
_atom_site_fract_z
Si Si1 0.048471 0.665072 0.379425
Si Si2 0.648724 0.188395 0.336889
Si Si3 0.252796 0.188318 0.929961
Si Si4 0.844218 0.839539 0.015575
Si Si5 0.450440 0.812293 0.634273
O O1 0.045984 0.590747 0.681273
O O2 0.101615 0.760035 0.376199
O O3 0.000000 0.818302 0.250000
O O4 0.648742 0.940746 0.548231
O O5 0.698051 0.336782 0.453187
O O6 0.599089 0.333070 0.350733
O O7 0.253641 0.943056 0.144096
O O8 0.202098 0.325146 0.937836
O O9 0.840032 0.096565 0.204819
O O10 0.500000 0.667249 0.750000
O O11 0.450430 0.939441 0.344780
#
# Coordination Sequence:
#
# PCOD9227959 Si02
#       5
#     4   4   4   4   4
#     4  10  21  36  51  68  93 122 147 174 216 266
#     4   8  12  18  27  39  59  86 114 148 190 230
#     4   8  14  23  35  53  75  97 124 162 204 240
#     4  10  19  31  49  71  91 113 147 186 216 250
#     4   8  12  16  22  33  50  76 112 148 178 216
#
# _framework density 28.122567
#
# number of rings (size 3 to 8) (size 9 to 14) (size 15 to 20)
#    0.000    3.200    0.000    1.200    0.000    0.800 
#    0.000    0.000    0.000    0.000    0.000    0.000 
#    0.000    0.000    0.000    0.000    0.000    2.000 
#
# Total GULP energy -111768.647771 kJ/mol
# GULP energy per Si atom -5588.432389 kJ/mol
# Density = 2.805856 g / cm^3
# Si number density = 28.122567 Si / 1000 Ang^3
#
#
#
# Elastic Constant Matrix: (Units=GPa)
#
#
# Indices 1 2 3 4 5 6 
#
# 1 325.5719 27.2182 21.5925 0.0000 39.9139 0.0000
# 2 27.2182 61.1777 40.1584 0.0000 -2.8202 0.0000
# 3 21.5925 40.1584 145.0601 0.0000 -4.7175 0.0000
# 4 0.0000 0.0000 0.0000 68.6367 0.0000 55.9836
# 5 39.9139 -2.8202 -4.7175 0.0000 58.0982 0.0000
# 6 0.0000 0.0000 0.0000 55.9836 0.0000 198.4237
#
#
#
# Elastic Compliance Matrix: (Units=1/GPa)
#
#
# Indices 1 2 3 4 5 6 
#
# 1 0.003522 -0.001570 -0.000171 0.000000 -0.002510 0.000000
# 2 -0.001570 0.020692 -0.005441 0.000000 0.001641 0.000000
# 3 -0.000171 -0.005441 0.008443 0.000000 0.000539 0.000000
# 4 0.000000 0.000000 0.000000 0.018925 0.000000 -0.005339
# 5 -0.002510 0.001641 0.000539 0.000000 0.019060 0.000000
# 6 0.000000 0.000000 0.000000 -0.005339 0.000000 0.006546
#
#
# Mechanical properties :
#
#
# Convention : Reuss Voigt Hill
#
# Bulk Modulus (GPa) = 54.67012 78.86088 66.76550
# Shear Modulus (GPa) = 51.20351 94.55442 72.87897
#
# Velocity S-wave (km/s) = 4.27163 5.80476 5.09618
# Velocity P-wave (km/s) = 6.61900 8.54574 7.64333
#
# Compressibility (1/GPa) = 0.01829153
#
# Stress axis : x y z
#
# Youngs Moduli (GPa) = 283.94474 48.32830 118.44079
#
# Poissons Ratio (x) = 0.07589 0.02027
# Poissons Ratio (y) = 0.44585 0.64446
# Poissons Ratio (z) = 0.04860 0.26296
#
# Static dielectric constant tensor:
#      x y z
#    x 2.354380 0.000000 0.056840 
#    y 0.000000 2.353430 0.000000 
#    z 0.056840 0.000000 2.071160 
# 
# From -- ./inp_files/7683.got.cif
#   From: 2010.05.17/outbox.cif.g08.bks.cpg/sg13_4_cif.got.tgz:7683.got - 2010.06.03 16:44:36.
