data_PCOD9227202
_publ_section_title
;
Structure prediction by ZEFSAII (Michael W. Deem and Ramdas Pophale) SiO2 
 PCOD9227202
Probable space group: P 2/C
;
_chemical_formula_sum "Si O2"
_cell_formula_units_Z 20
_cell_length_a 13.656625
_cell_length_b 11.328936
_cell_length_c 9.545063
_cell_angle_alpha 90.000000
_cell_angle_beta 33.800797
_cell_angle_gamma 90.000000
_cell_volume 821.534806
_symmetry_space_group_name_H-M "P 2/C"
_symmetry_group_IT_number 13
_symmetry_cell_setting 'monoclinic'
loop_
_space_group_symop_operation_xyz
x,y,z
-x,y,1/2-z
-x,-y,-z
x,-y,1/2+z
loop_
_atom_site_type_symbol
_atom_site_label
_atom_site_fract_x
_atom_site_fract_y
_atom_site_fract_z
Si Si1 0.296094 0.632859 0.537589
Si Si2 0.373835 0.754328 0.723936
Si Si3 0.851032 0.611382 0.310346
Si Si4 0.780591 0.237581 0.647945
Si Si5 0.633602 0.987600 0.213770
O O1 0.500000 0.613091 0.250000
O O2 0.296014 0.726750 0.663450
O O3 0.204285 0.511907 0.693117
O O4 0.206497 0.681311 0.503887
O O5 0.581935 0.754727 0.447358
O O6 0.308567 0.876859 0.872271
O O7 0.313864 0.653327 0.899816
O O8 0.892499 0.708489 0.141491
O O9 0.000000 0.598656 0.250000
O O10 0.782876 0.104401 0.583278
O O11 0.500000 0.946254 0.250000
O O12 0.500000 0.000000 0.500000
#
# Coordination Sequence:
#
# PCOD9227202 Si02
#       5
#     4   4   4   4   4
#     4  10  21  37  59  86 112 144 190 239 286 335
#     4  10  20  37  62  88 113 144 184 235 288 339
#     4  12  25  38  54  80 117 159 196 230 275 332
#     4  10  20  37  61  88 113 143 187 237 287 337
#     4  10  18  33  61  92 115 138 177 231 288 340
#
# _framework density 24.344677000000001
#
# number of rings (size 3 to 8) (size 9 to 14) (size 15 to 20)
#    0.000    1.600    0.000    8.400    0.000    6.400 
#    0.000    1.000    0.000    2.400    0.000    0.000 
#    0.000    0.000    0.000    0.000    0.000    0.000 
#
# Total GULP energy -111801.379759 kJ/mol
# GULP energy per Si atom -5590.068988 kJ/mol
# Density = 2.428927 g / cm^3
# Si number density = 24.344677 Si / 1000 Ang^3
#
#
#
# Elastic Constant Matrix: (Units=GPa)
#
#
# Indices 1 2 3 4 5 6 
#
# 1 134.6833 37.6228 24.4443 0.0000 16.8173 0.0000
# 2 37.6228 122.6219 8.4317 0.0000 -4.8085 0.0000
# 3 24.4443 8.4317 45.9704 0.0000 0.2074 0.0000
# 4 0.0000 0.0000 0.0000 2.7695 0.0000 17.2634
# 5 16.8173 -4.8085 0.2074 0.0000 43.4875 0.0000
# 6 0.0000 0.0000 0.0000 17.2634 0.0000 34.7911
#
#
#
# Elastic Compliance Matrix: (Units=1/GPa)
#
#
# Indices 1 2 3 4 5 6 
#
# 1 0.009514 -0.002763 -0.004535 0.000000 -0.003963 0.000000
# 2 -0.002763 0.009099 -0.000209 0.000000 0.002075 0.000000
# 3 -0.004535 -0.000209 0.024195 0.000000 0.001615 0.000000
# 4 0.000000 0.000000 0.000000 -0.172516 0.000000 0.085602
# 5 -0.003963 0.002075 0.001615 0.000000 0.024750 0.000000
# 6 0.000000 0.000000 0.000000 0.085602 0.000000 -0.013733
#
#
# Mechanical properties :
#
#
# Convention : Reuss Voigt Hill
#
# Bulk Modulus (GPa) = 35.97709 49.36369 42.67039
# Shear Modulus (GPa) = -52.95924 31.72808 -10.61558
#
# Velocity S-wave (km/s) = -4.66917 3.61402 -2.09045
# Velocity P-wave (km/s) = 3.77596 6.14295 3.42622
#
# Compressibility (1/GPa) = 0.02779547
#
# Stress axis : x y z
#
# Youngs Moduli (GPa) = 105.10289 109.90696 41.33013
#
# Poissons Ratio (x) = 0.30366 0.18742
# Poissons Ratio (y) = 0.29038 0.00864
# Poissons Ratio (z) = 0.47660 0.02298
#
# Static dielectric constant tensor:
#      x y z
#    x 1.977640 0.000000 -0.029560 
#    y 0.000000 2.099370 0.000000 
#    z -0.029560 0.000000 1.913520 
# 
# From -- ./inp_files/11656.got.cif
#   From: 2010.05.17/outbox.cif.g08.bks.cpg/sg13_6_cif.got.tgz:11656.got - 2010.06.03 16:44:36.
