data_PCOD9227406
_publ_section_title
;
Structure prediction by ZEFSAII (Michael W. Deem and Ramdas Pophale) SiO2 
 PCOD9227406
Probable space group: P 2/C
;
_chemical_formula_sum "Si O2"
_cell_formula_units_Z 26
_cell_length_a 21.444765
_cell_length_b 7.789069
_cell_length_c 15.685251
_cell_angle_alpha 90.000000
_cell_angle_beta 155.803353
_cell_angle_gamma 90.000000
_cell_volume 1073.851138
_symmetry_space_group_name_H-M "P 2/C"
_symmetry_group_IT_number 13
_symmetry_cell_setting 'monoclinic'
loop_
_space_group_symop_operation_xyz
x,y,z
-x,y,1/2-z
-x,-y,-z
x,-y,1/2+z
loop_
_atom_site_type_symbol
_atom_site_label
_atom_site_fract_x
_atom_site_fract_y
_atom_site_fract_z
Si Si1 0.163144 0.447725 0.316262
Si Si2 0.821381 0.944446 0.869296
Si Si3 0.831359 0.960355 0.694023
Si Si4 0.727910 0.554059 0.720947
Si Si5 0.308643 0.874458 0.634014
Si Si6 0.000000 0.351421 0.750000
Si Si7 0.598261 0.485595 0.238719
O O1 0.151744 0.244374 0.290805
O O2 0.178516 0.528369 0.240783
O O3 0.026152 0.528748 0.199902
O O4 0.308346 0.476272 0.559435
O O5 0.792746 0.022719 0.740932
O O6 0.791399 0.742848 0.817698
O O7 0.709703 0.995725 0.806820
O O8 0.997766 0.973683 0.111646
O O9 0.705150 0.024320 0.470465
O O10 0.561630 0.576910 0.470404
O O11 0.692338 0.472680 0.769066
O O12 0.149584 0.765285 0.437444
O O13 0.429054 0.722002 0.793993
#
# Coordination Sequence:
#
# PCOD9227406 Si02
#       7
#     4   4   4   4   4   2   4
#     4  10  21  34  56  89 118 153 199 245 290 348
#     4   9  18  32  57  83 114 157 187 238 289 348
#     4  10  19  33  55  85 116 156 193 233 299 347
#     4   9  18  37  61  86 114 157 198 240 294 346
#     4  10  18  35  57  80 117 155 191 243 290 342
#     4  10  20  32  52  82 116 154 194 232 294 344
#     4   9  19  36  62  86 112 157 199 241 296 346
#
# _framework density 24.211922999999999
#
# number of rings (size 3 to 8) (size 9 to 14) (size 15 to 20)
#    0.000    2.462    1.538    0.462    2.154    0.000 
#    0.000   15.385    0.000   23.077    0.000    0.000 
#    0.000    0.000    0.000    0.000    0.000    0.000 
#
# Total GULP energy -145151.545847 kJ/mol
# GULP energy per Si atom -5582.751763 kJ/mol
# Density = 2.415682 g / cm^3
# Si number density = 24.211923 Si / 1000 Ang^3
#
#
#
# Elastic Constant Matrix: (Units=GPa)
#
#
# Indices 1 2 3 4 5 6 
#
# 1 132.7968 14.1719 14.3229 0.0000 -38.3355 0.0000
# 2 14.1719 57.1503 8.3003 0.0000 2.4364 0.0000
# 3 14.3229 8.3003 24.1663 0.0000 -4.4237 0.0000
# 4 0.0000 0.0000 0.0000 27.3368 0.0000 -12.3187
# 5 -38.3355 2.4364 -4.4237 0.0000 37.2044 0.0000
# 6 0.0000 0.0000 0.0000 -12.3187 0.0000 19.1413
#
#
#
# Elastic Compliance Matrix: (Units=1/GPa)
#
#
# Indices 1 2 3 4 5 6 
#
# 1 0.011620 -0.002833 -0.003770 0.000000 0.011710 0.000000
# 2 -0.002833 0.019254 -0.005826 0.000000 -0.004873 0.000000
# 3 -0.003770 -0.005826 0.045975 0.000000 0.001963 0.000000
# 4 0.000000 0.000000 0.000000 0.051523 0.000000 0.033158
# 5 0.011710 -0.004873 0.001963 0.000000 0.039497 0.000000
# 6 0.000000 0.000000 0.000000 0.033158 0.000000 0.073583
#
#
# Mechanical properties :
#
#
# Convention : Reuss Voigt Hill
#
# Bulk Modulus (GPa) = 19.23437 31.96707 25.60072
# Shear Modulus (GPa) = 17.62800 28.55773 23.09286
#
# Velocity S-wave (km/s) = 2.70121 3.43810 3.09168
# Velocity P-wave (km/s) = 4.20596 5.38446 4.83128
#
# Compressibility (1/GPa) = 0.05199027
#
# Stress axis : x y z
#
# Youngs Moduli (GPa) = 86.06014 51.93691 21.75106
#
# Poissons Ratio (x) = 0.14714 0.08200
# Poissons Ratio (y) = 0.24382 0.12672
# Poissons Ratio (z) = 0.32446 0.30258
#
# Static dielectric constant tensor:
#      x y z
#    x 2.077510 0.000000 -0.050670 
#    y 0.000000 1.925320 0.000000 
#    z -0.050670 0.000000 2.003480 
# 
# From -- ./inp_files/57335.got.cif
#   From: 2010.05.17/outbox.cif.g08.bks.cpg/sg13_29_cif.got.tgz:57335.got - 2010.06.03 16:44:36.
