data_PCOD9227340
_publ_section_title
;
Structure prediction by ZEFSAII (Michael W. Deem and Ramdas Pophale) SiO2 
 PCOD9227340
Probable space group: P 2/C
;
_chemical_formula_sum "Si O2"
_cell_formula_units_Z 22
_cell_length_a 13.752226
_cell_length_b 4.778353
_cell_length_c 12.540533
_cell_angle_alpha 90.000000
_cell_angle_beta 91.324464
_cell_angle_gamma 90.000000
_cell_volume 823.855757
_symmetry_space_group_name_H-M "P 2/C"
_symmetry_group_IT_number 13
_symmetry_cell_setting 'monoclinic'
loop_
_space_group_symop_operation_xyz
x,y,z
-x,y,1/2-z
-x,-y,-z
x,-y,1/2+z
loop_
_atom_site_type_symbol
_atom_site_label
_atom_site_fract_x
_atom_site_fract_y
_atom_site_fract_z
Si Si1 0.355302 0.084466 0.550006
Si Si2 0.839832 0.868018 0.335772
Si Si3 0.000000 0.566232 0.750000
Si Si4 0.592056 0.454219 0.320733
Si Si5 0.077401 0.715684 0.956406
Si Si6 0.260112 0.723879 0.840616
O O1 0.261732 0.212383 0.609980
O O2 0.436256 0.278899 0.607477
O O3 0.330344 0.112913 0.425345
O O4 0.372233 0.775650 0.593229
O O5 0.895129 0.934583 0.451323
O O6 0.910137 0.631897 0.285571
O O7 0.799593 0.079190 0.244472
O O8 0.971892 0.779787 0.656630
O O9 0.500000 0.356774 0.250000
O O10 0.673883 0.473560 0.229581
O O11 0.178872 0.583917 0.915106
O O12 0.000000 0.500000 0.000000
#
# Coordination Sequence:
#
# PCOD9227340 Si02
#       6
#     4   4   2   4   4   4
#     4  10  23  42  66  96 131 175 224 274 336 404
#     4   9  20  38  59  90 126 171 220 270 331 394
#     4  10  18  34  60  88 128 170 220 278 330 384
#     4  11  24  42  67 100 134 172 223 277 336 406
#     4   9  19  37  60  88 120 167 220 267 322 391
#     4  10  22  41  64  90 133 176 219 281 338 391
#
# _framework density 26.703700999999999
#
# number of rings (size 3 to 8) (size 9 to 14) (size 15 to 20)
#    0.000    2.182    0.000    1.636    0.000    8.000 
#    0.000   23.636    0.000    0.000    0.000    0.000 
#    0.000    0.000    0.000    0.000    0.000    0.000 
#
# Total GULP energy -122615.675605 kJ/mol
# GULP energy per Si atom -5573.439800 kJ/mol
# Density = 2.664292 g / cm^3
# Si number density = 26.703701 Si / 1000 Ang^3
#
#
#
# Elastic Constant Matrix: (Units=GPa)
#
#
# Indices 1 2 3 4 5 6 
#
# 1 71.8911 1.5099 27.4068 0.0000 -2.2626 0.0000
# 2 1.5099 53.6778 28.3199 0.0000 1.1037 0.0000
# 3 27.4068 28.3199 199.4727 0.0000 31.2063 0.0000
# 4 0.0000 0.0000 0.0000 21.9155 0.0000 6.3052
# 5 -2.2626 1.1037 31.2063 0.0000 38.1501 0.0000
# 6 0.0000 0.0000 0.0000 6.3052 0.0000 21.0219
#
#
#
# Elastic Compliance Matrix: (Units=1/GPa)
#
#
# Indices 1 2 3 4 5 6 
#
# 1 0.015004 0.000924 -0.002669 0.000000 0.003047 0.000000
# 2 0.000924 0.020331 -0.003360 0.000000 0.002215 0.000000
# 3 -0.002669 -0.003360 0.006727 0.000000 -0.005564 0.000000
# 4 0.000000 0.000000 0.000000 0.049939 0.000000 -0.014978
# 5 0.003047 0.002215 -0.005564 0.000000 0.030880 0.000000
# 6 0.000000 0.000000 0.000000 -0.014978 0.000000 0.052062
#
#
# Mechanical properties :
#
#
# Convention : Reuss Voigt Hill
#
# Bulk Modulus (GPa) = 31.39600 48.83499 40.11550
# Shear Modulus (GPa) = 25.53999 34.07118 29.80558
#
# Velocity S-wave (km/s) = 3.09596 3.57585 3.34452
# Velocity P-wave (km/s) = 4.95607 5.94780 5.47444
#
# Compressibility (1/GPa) = 0.03185119
#
# Stress axis : x y z
#
# Youngs Moduli (GPa) = 66.64896 49.18653 148.64506
#
# Poissons Ratio (x) = -0.04543 0.39677
# Poissons Ratio (y) = -0.06156 0.49942
# Poissons Ratio (z) = 0.17790 0.16526
#
# Static dielectric constant tensor:
#      x y z
#    x 2.357770 0.000000 0.084010 
#    y 0.000000 2.064180 0.000000 
#    z 0.084010 0.000000 2.140780 
# 
# From -- ./inp_files/35522.got.cif
#   From: 2010.05.17/outbox.cif.g08.bks.cpg/sg13_18_cif.got.tgz:35522.got - 2010.06.03 16:44:36.
