data_PCOD9227990
_publ_section_title
;
Structure prediction by ZEFSAII (Michael W. Deem and Ramdas Pophale) SiO2 
 PCOD9227990
Probable space group: P 2/C
;
_chemical_formula_sum "Si O2"
_cell_formula_units_Z 32
_cell_length_a 11.159515
_cell_length_b 16.663950
_cell_length_c 10.132127
_cell_angle_alpha 90.000000
_cell_angle_beta 83.107315
_cell_angle_gamma 90.000000
_cell_volume 1870.568914
_symmetry_space_group_name_H-M "P 2/C"
_symmetry_group_IT_number 13
_symmetry_cell_setting 'monoclinic'
loop_
_space_group_symop_operation_xyz
x,y,z
-x,y,1/2-z
-x,-y,-z
x,-y,1/2+z
loop_
_atom_site_type_symbol
_atom_site_label
_atom_site_fract_x
_atom_site_fract_y
_atom_site_fract_z
Si Si1 0.640869 0.304925 0.496521
Si Si2 0.729077 0.146865 0.644705
Si Si3 0.353900 0.597224 0.758004
Si Si4 0.749507 0.849269 0.456640
Si Si5 0.583897 0.016861 0.112571
Si Si6 0.007501 0.924232 0.402384
Si Si7 0.646466 0.416293 0.732351
Si Si8 0.650253 0.682395 0.482266
O O1 0.686187 0.222329 0.560156
O O2 0.679955 0.335409 0.345786
O O3 0.678225 0.378447 0.587493
O O4 0.494221 0.301161 0.508132
O O5 0.714271 0.157252 0.805245
O O6 0.868674 0.124971 0.597980
O O7 0.654014 0.066053 0.627772
O O8 0.500000 0.596830 0.750000
O O9 0.314142 0.506079 0.736392
O O10 0.317665 0.618955 0.910219
O O11 0.676003 0.914898 0.550667
O O12 0.889805 0.870690 0.442991
O O13 0.715874 0.762980 0.514409
O O14 0.500000 0.037967 0.250000
O O15 0.500000 0.000000 0.000000
O O16 0.000000 0.951262 0.250000
O O17 0.000000 0.000000 0.500000
O O18 0.500000 0.418092 0.750000
O O19 0.686923 0.353504 0.837280
#
# Coordination Sequence:
#
# PCOD9227990 Si02
#       8
#     4   4   4   4   4   4   4   4
#     4  10  19  31  53  79 113 146 177 224 276 328
#     4  11  22  39  58  80 110 145 190 227 274 328
#     4   9  18  31  46  80 114 143 182 218 262 334
#     4  11  22  39  58  80 110 145 187 230 276 321
#     4  12  24  35  56  81 112 146 176 218 278 342
#     4  10  22  42  62  79 100 143 194 240 269 318
#     4   9  16  29  52  74 108 152 180 210 270 333
#     4  10  19  31  51  79 114 143 176 226 275 324
#
# _framework density 17.107095000000001
#
# number of rings (size 3 to 8) (size 9 to 14) (size 15 to 20)
#    0.000    1.750    3.750    1.500    0.000    5.500 
#    2.250    0.000    0.000    0.000    0.000    5.250 
#    0.000    0.000    0.000    0.000    0.000    0.000 
#
# Total GULP energy -178242.106802 kJ/mol
# GULP energy per Si atom -5570.065838 kJ/mol
# Density = 1.706816 g / cm^3
# Si number density = 17.107095 Si / 1000 Ang^3
#
#
#
# Elastic Constant Matrix: (Units=GPa)
#
#
# Indices 1 2 3 4 5 6 
#
# 1 57.6761 25.0747 27.2890 0.0000 -3.9981 0.0000
# 2 25.0747 98.9035 18.9504 0.0000 3.1300 0.0000
# 3 27.2890 18.9504 76.8287 0.0000 0.6460 0.0000
# 4 0.0000 0.0000 0.0000 22.0647 0.0000 -4.0733
# 5 -3.9981 3.1300 0.6460 0.0000 17.8236 0.0000
# 6 0.0000 0.0000 0.0000 -4.0733 0.0000 -4.0705
#
#
#
# Elastic Compliance Matrix: (Units=1/GPa)
#
#
# Indices 1 2 3 4 5 6 
#
# 1 0.023197 -0.004714 -0.007129 0.000000 0.006290 0.000000
# 2 -0.004714 0.011626 -0.001168 0.000000 -0.003057 0.000000
# 3 -0.007129 -0.001168 0.015853 0.000000 -0.001969 0.000000
# 4 0.000000 0.000000 0.000000 0.038254 0.000000 -0.038281
# 5 0.006290 -0.003057 -0.001969 0.000000 0.058125 0.000000
# 6 0.000000 0.000000 0.000000 -0.038281 0.000000 -0.207365
#
#
# Mechanical properties :
#
#
# Convention : Reuss Voigt Hill
#
# Bulk Modulus (GPa) = 40.56161 41.78182 41.17172
# Shear Modulus (GPa) = -191.79554 17.96985 -86.91285
#
# Velocity S-wave (km/s) = -10.59991 3.24455 -7.13551
# Velocity P-wave (km/s) = 11.22715 6.20587 6.61574
#
# Compressibility (1/GPa) = 0.02465385
#
# Stress axis : x y z
#
# Youngs Moduli (GPa) = 43.10929 86.01058 63.08000
#
# Poissons Ratio (x) = 0.40546 0.44973
# Poissons Ratio (y) = 0.20322 0.07366
# Poissons Ratio (z) = 0.30735 0.10043
#
# Static dielectric constant tensor:
#      x y z
#    x 1.557830 0.000000 -0.015300 
#    y 0.000000 1.670540 0.000000 
#    z -0.015300 0.000000 1.595510 
# 
# From -- ./inp_files/16795.got.cif
#   From: 2010.05.17/outbox.cif.g08.bks.cpg/sg13_9_cif.got.tgz:16795.got - 2010.06.03 16:44:36.
