data_PCOD9227958
_publ_section_title
;
Structure prediction by ZEFSAII (Michael W. Deem and Ramdas Pophale) SiO2 
 PCOD9227958
Probable space group: P 2/C
;
_chemical_formula_sum "Si O2"
_cell_formula_units_Z 22
_cell_length_a 31.339146
_cell_length_b 4.934712
_cell_length_c 5.096472
_cell_angle_alpha 90.000000
_cell_angle_beta 99.201659
_cell_angle_gamma 90.000000
_cell_volume 778.025232
_symmetry_space_group_name_H-M "P 2/C"
_symmetry_group_IT_number 13
_symmetry_cell_setting 'monoclinic'
loop_
_space_group_symop_operation_xyz
x,y,z
-x,y,1/2-z
-x,-y,-z
x,-y,1/2+z
loop_
_atom_site_type_symbol
_atom_site_label
_atom_site_fract_x
_atom_site_fract_y
_atom_site_fract_z
Si Si1 0.859041 0.660136 0.662456
Si Si2 0.500000 0.304011 0.750000
Si Si3 0.590811 0.690445 0.251698
Si Si4 0.770631 0.688897 0.422993
Si Si5 0.955735 0.163760 0.125847
Si Si6 0.318908 0.310596 0.532954
O O1 0.855391 0.400382 0.465161
O O2 0.816813 0.825138 0.527324
O O3 0.907859 0.740697 0.646734
O O4 0.500000 0.500000 0.500000
O O5 0.454012 0.155791 0.730132
O O6 0.590832 0.442082 0.463966
O O7 0.635991 0.163989 0.859127
O O8 0.769853 0.557423 0.135901
O O9 0.725972 0.838879 0.445818
O O10 0.000000 0.315298 0.250000
O O11 0.957838 0.904421 0.322884
O O12 0.318902 0.441200 0.245235
#
# Coordination Sequence:
#
# PCOD9227958 Si02
#       6
#     4   2   4   4   4   4
#     4  10  19  31  49  71  91 113 145 183 216 248
#     4   8  12  16  20  28  42  62  94 134 168 200
#     4   8  12  16  22  31  45  68  98 132 170 210
#     4   8  14  23  35  53  75  95 119 156 198 234
#     4  10  21  36  51  68  93 122 147 174 213 259
#     4   8  12  18  27  39  57  81 106 136 180 226
#
# _framework density 28.276721999999999
#
# number of rings (size 3 to 8) (size 9 to 14) (size 15 to 20)
#    0.000    3.273    0.000    1.091    0.000    0.727 
#    0.000    0.000    0.000    0.000    0.000    0.000 
#    0.000    0.000    0.000    0.000    0.000    0.000 
#
# Total GULP energy -122953.591067 kJ/mol
# GULP energy per Si atom -5588.799594 kJ/mol
# Density = 2.821236 g / cm^3
# Si number density = 28.276722 Si / 1000 Ang^3
#
#
#
# Elastic Constant Matrix: (Units=GPa)
#
#
# Indices 1 2 3 4 5 6 
#
# 1 327.8474 27.7382 12.6211 0.0000 31.1237 0.0000
# 2 27.7382 61.8163 43.7428 0.0000 -3.7474 0.0000
# 3 12.6211 43.7428 147.1753 0.0000 -24.8141 0.0000
# 4 0.0000 0.0000 0.0000 53.7750 0.0000 12.3304
# 5 31.1237 -3.7474 -24.8141 0.0000 54.1428 0.0000
# 6 0.0000 0.0000 0.0000 12.3304 0.0000 244.9416
#
#
#
# Elastic Compliance Matrix: (Units=1/GPa)
#
#
# Indices 1 2 3 4 5 6 
#
# 1 0.003389 -0.001506 -0.000205 0.000000 -0.002146 0.000000
# 2 -0.001506 0.021266 -0.006283 0.000000 -0.000542 0.000000
# 3 -0.000205 -0.006283 0.009348 0.000000 0.003967 0.000000
# 4 0.000000 0.000000 0.000000 0.018813 0.000000 -0.000947
# 5 -0.002146 -0.000542 0.003967 0.000000 0.021484 0.000000
# 6 0.000000 0.000000 0.000000 -0.000947 0.000000 0.004130
#
#
# Mechanical properties :
#
#
# Convention : Reuss Voigt Hill
#
# Bulk Modulus (GPa) = 55.50567 78.33813 66.92190
# Shear Modulus (GPa) = 49.78900 100.75433 75.27166
#
# Velocity S-wave (km/s) = 4.20071 5.97569 5.16502
# Velocity P-wave (km/s) = 6.57268 8.68194 7.69988
#
# Compressibility (1/GPa) = 0.01801618
#
# Stress axis : x y z
#
# Youngs Moduli (GPa) = 295.04843 47.02418 106.96970
#
# Poissons Ratio (x) = 0.07081 0.02193
# Poissons Ratio (y) = 0.44432 0.67206
# Poissons Ratio (z) = 0.06048 0.29544
#
# Static dielectric constant tensor:
#      x y z
#    x 2.355190 0.000000 0.078980 
#    y 0.000000 2.766050 0.000000 
#    z 0.078980 0.000000 2.095270 
# 
# From -- ./inp_files/7980.got.cif
#   From: 2010.05.17/outbox.cif.g08.bks.cpg/sg13_4_cif.got.tgz:7980.got - 2010.06.03 16:44:36.
