data_PCOD9227873
_publ_section_title
;
Structure prediction by ZEFSAII (Michael W. Deem and Ramdas Pophale) SiO2 
 PCOD9227873
Probable space group: P 2/C
;
_chemical_formula_sum "Si O2"
_cell_formula_units_Z 24
_cell_length_a 24.580122
_cell_length_b 12.767981
_cell_length_c 27.022978
_cell_angle_alpha 90.000000
_cell_angle_beta 10.242267
_cell_angle_gamma 90.000000
_cell_volume 1507.986446
_symmetry_space_group_name_H-M "P 2/C"
_symmetry_group_IT_number 13
_symmetry_cell_setting 'monoclinic'
loop_
_space_group_symop_operation_xyz
x,y,z
-x,y,1/2-z
-x,-y,-z
x,-y,1/2+z
loop_
_atom_site_type_symbol
_atom_site_label
_atom_site_fract_x
_atom_site_fract_y
_atom_site_fract_z
Si Si1 0.674634 0.800028 0.643888
Si Si2 0.537066 0.504606 0.383238
Si Si3 0.825630 0.340343 0.855895
Si Si4 0.138585 0.622452 0.819617
Si Si5 0.078995 0.079672 0.855328
Si Si6 0.778953 0.141053 0.227346
O O1 0.500000 0.833606 0.750000
O O2 0.927511 0.714626 0.400777
O O3 0.852127 0.890267 0.514236
O O4 0.428712 0.744359 0.899663
O O5 0.337590 0.436792 0.524299
O O6 0.329837 0.580200 0.602131
O O7 0.698102 0.423471 0.277208
O O8 0.803043 0.571703 0.119615
O O9 0.000000 0.372068 0.750000
O O10 0.142714 0.747055 0.819920
O O11 0.414638 0.127997 0.545940
O O12 0.118419 0.956173 0.830163
O O13 0.944998 0.127890 0.026003
#
# Coordination Sequence:
#
# PCOD9227873 Si02
#       6
#     4   4   4   4   4   4
#     4  10  19  31  50  73  96 123 155 195 238 280
#     4  10  19  30  47  68  94 124 153 190 231 273
#     4  10  20  33  50  72  97 125 157 194 236 281
#     4  10  19  30  46  70  95 122 154 190 232 275
#     4  10  19  32  50  71  97 126 156 195 241 284
#     4  10  20  32  49  72  97 126 157 194 238 285
#
# _framework density 15.915262999999999
#
# number of rings (size 3 to 8) (size 9 to 14) (size 15 to 20)
#    0.000    2.000    0.000    5.000    0.000    2.667 
#    0.000    0.000    0.000    2.000    0.000    0.000 
#    0.000    0.000    0.000    0.000    0.000    0.000 
#
# Total GULP energy -133976.570090 kJ/mol
# GULP energy per Si atom -5582.357087 kJ/mol
# Density = 1.587904 g / cm^3
# Si number density = 15.915263 Si / 1000 Ang^3
#
#
#
# Elastic Constant Matrix: (Units=GPa)
#
#
# Indices 1 2 3 4 5 6 
#
# 1 35.5313 33.9807 22.9281 0.0000 -24.2565 0.0000
# 2 33.9807 78.5903 31.0385 0.0000 -27.5102 0.0000
# 3 22.9281 31.0385 99.0876 0.0000 -7.6070 0.0000
# 4 0.0000 0.0000 0.0000 17.1776 0.0000 -10.7911
# 5 -24.2565 -27.5102 -7.6070 0.0000 28.4552 0.0000
# 6 0.0000 0.0000 0.0000 -10.7911 0.0000 20.3164
#
#
#
# Elastic Compliance Matrix: (Units=1/GPa)
#
#
# Indices 1 2 3 4 5 6 
#
# 1 0.089695 -0.012649 -0.012110 0.000000 0.060994 0.000000
# 2 -0.012649 0.023422 -0.003573 0.000000 0.010907 0.000000
# 3 -0.012110 -0.003573 0.013227 0.000000 -0.010241 0.000000
# 4 0.000000 0.000000 0.000000 0.087367 0.000000 0.046406
# 5 0.060994 0.010907 -0.010241 0.000000 0.094944 0.000000
# 6 0.000000 0.000000 0.000000 0.046406 0.000000 0.073870
#
#
# Mechanical properties :
#
#
# Convention : Reuss Voigt Hill
#
# Bulk Modulus (GPa) = 14.35104 43.23376 28.79240
# Shear Modulus (GPa) = 10.81280 21.54064 16.17672
#
# Velocity S-wave (km/s) = 2.60935 3.68293 3.19161
# Velocity P-wave (km/s) = 4.25618 6.73121 5.63135
#
# Compressibility (1/GPa) = 0.06968137
#
# Stress axis : x y z
#
# Youngs Moduli (GPa) = 11.14893 42.69465 75.60211
#
# Poissons Ratio (x) = 0.54003 0.91554
# Poissons Ratio (y) = 0.14102 0.27010
# Poissons Ratio (z) = 0.13501 0.15254
#
# Static dielectric constant tensor:
#      x y z
#    x 1.515810 0.000000 0.006570 
#    y 0.000000 1.500430 0.000000 
#    z 0.006570 0.000000 1.539540 
# 
# From -- ./inp_files/73272.got.cif
#   From: 2010.05.17/outbox.cif.g08.bks.cpg/sg13_37_cif.got.tgz:73272.got - 2010.06.03 16:44:36.
