data_PCOD9227639
_publ_section_title
;
Structure prediction by ZEFSAII (Michael W. Deem and Ramdas Pophale) SiO2 
 PCOD9227639
Probable space group: P 2/C
;
_chemical_formula_sum "Si O2"
_cell_formula_units_Z 28
_cell_length_a 8.952272
_cell_length_b 13.343164
_cell_length_c 14.523567
_cell_angle_alpha 90.000000
_cell_angle_beta 53.013490
_cell_angle_gamma 90.000000
_cell_volume 1385.769619
_symmetry_space_group_name_H-M "P 2/C"
_symmetry_group_IT_number 13
_symmetry_cell_setting 'monoclinic'
loop_
_space_group_symop_operation_xyz
x,y,z
-x,y,1/2-z
-x,-y,-z
x,-y,1/2+z
loop_
_atom_site_type_symbol
_atom_site_label
_atom_site_fract_x
_atom_site_fract_y
_atom_site_fract_z
Si Si1 0.811639 0.939151 0.582241
Si Si2 0.534873 0.105841 0.630582
Si Si3 0.320278 0.219111 0.073710
Si Si4 0.797409 0.437727 0.366032
Si Si5 0.202152 0.987521 0.700016
Si Si6 0.567676 0.517967 0.623789
Si Si7 0.374120 0.748070 0.885471
O O1 0.776770 0.948105 0.703655
O O2 0.799015 0.824487 0.555009
O O3 0.658121 0.004438 0.585618
O O4 0.000000 0.000000 0.500000
O O5 0.500000 0.126000 0.750000
O O6 0.624925 0.202872 0.551965
O O7 0.355208 0.074119 0.637888
O O8 0.198933 0.316791 0.135082
O O9 0.229642 0.112548 0.131147
O O10 0.501850 0.232107 0.070540
O O11 0.719671 0.467653 0.497518
O O12 0.626505 0.470614 0.362050
O O13 0.000000 0.472757 0.250000
O O14 0.000000 0.028812 0.750000
O O15 0.500000 0.478000 0.750000
O O16 0.653774 0.629220 0.610225
O O17 0.500000 0.776113 0.750000
#
# Coordination Sequence:
#
# PCOD9227639 Si02
#       7
#     4   4   4   4   4   4   4
#     4  11  21  34  55  84 119 155 205 249 293 371
#     4  10  22  38  52  79 120 161 198 251 309 360
#     4  11  20  35  61  83 117 158 200 256 309 361
#     4  10  22  40  66  97 123 158 216 264 316 389
#     4  11  21  33  55  83 114 158 203 248 301 367
#     4   9  21  41  68  91 125 167 202 265 329 376
#     4  10  18  37  61  86 114 158 205 249 304 369
#
# _framework density 20.205380000000002
#
# number of rings (size 3 to 8) (size 9 to 14) (size 15 to 20)
#    0.000    1.714    2.857    2.143    2.000    1.143 
#    0.000    0.000   18.857    0.000    0.000    0.000 
#    0.000    0.000    0.000    0.000    0.000    0.000 
#
# Total GULP energy -156039.472695 kJ/mol
# GULP energy per Si atom -5572.838311 kJ/mol
# Density = 2.015939 g / cm^3
# Si number density = 20.205380 Si / 1000 Ang^3
#
#
#
# Elastic Constant Matrix: (Units=GPa)
#
#
# Indices 1 2 3 4 5 6 
#
# 1 69.5654 21.5115 32.3015 0.0000 -9.1405 0.0000
# 2 21.5115 36.2009 37.4783 0.0000 -0.4487 0.0000
# 3 32.3015 37.4783 119.3212 0.0000 7.7584 0.0000
# 4 0.0000 0.0000 0.0000 34.3847 0.0000 3.8891
# 5 -9.1405 -0.4487 7.7584 0.0000 38.5871 0.0000
# 6 0.0000 0.0000 0.0000 3.8891 0.0000 24.2575
#
#
#
# Elastic Compliance Matrix: (Units=1/GPa)
#
#
# Indices 1 2 3 4 5 6 
#
# 1 0.018890 -0.008204 -0.002859 0.000000 0.004954 0.000000
# 2 -0.008204 0.044867 -0.011935 0.000000 0.000978 0.000000
# 3 -0.002859 -0.011935 0.013128 0.000000 -0.003456 0.000000
# 4 0.000000 0.000000 0.000000 0.029620 0.000000 -0.004749
# 5 0.004954 0.000978 -0.003456 0.000000 0.027795 0.000000
# 6 0.000000 0.000000 0.000000 -0.004749 0.000000 0.041986
#
#
# Mechanical properties :
#
#
# Convention : Reuss Voigt Hill
#
# Bulk Modulus (GPa) = 32.37364 45.29668 38.83516
# Shear Modulus (GPa) = 21.49802 28.36559 24.93181
#
# Velocity S-wave (km/s) = 3.26540 3.75088 3.51653
# Velocity P-wave (km/s) = 5.50220 6.42072 5.97912
#
# Compressibility (1/GPa) = 0.03088933
#
# Stress axis : x y z
#
# Youngs Moduli (GPa) = 52.93709 22.28800 76.17122
#
# Poissons Ratio (x) = 0.18284 0.21779
# Poissons Ratio (y) = 0.43428 0.90914
# Poissons Ratio (z) = 0.15136 0.26602
#
# Static dielectric constant tensor:
#      x y z
#    x 1.735840 0.000000 -0.039440 
#    y 0.000000 1.700240 0.000000 
#    z -0.039440 0.000000 1.891730 
# 
# From -- ./inp_files/47625.got.cif
#   From: 2010.05.17/outbox.cif.g08.bks.cpg/sg13_24_cif.got.tgz:47625.got - 2010.06.03 16:44:36.
