data_PCOD9227373
_publ_section_title
;
Structure prediction by ZEFSAII (Michael W. Deem and Ramdas Pophale) SiO2 
 PCOD9227373
Probable space group: P 2/C
;
_chemical_formula_sum "Si O2"
_cell_formula_units_Z 22
_cell_length_a 15.103031
_cell_length_b 8.939001
_cell_length_c 16.865780
_cell_angle_alpha 90.000000
_cell_angle_beta 153.071299
_cell_angle_gamma 90.000000
_cell_volume 1031.202587
_symmetry_space_group_name_H-M "P 2/C"
_symmetry_group_IT_number 13
_symmetry_cell_setting 'monoclinic'
loop_
_space_group_symop_operation_xyz
x,y,z
-x,y,1/2-z
-x,-y,-z
x,-y,1/2+z
loop_
_atom_site_type_symbol
_atom_site_label
_atom_site_fract_x
_atom_site_fract_y
_atom_site_fract_z
Si Si1 0.000000 0.480925 0.250000
Si Si2 0.500000 0.848031 0.750000
Si Si3 0.900830 0.269533 0.556005
Si Si4 0.691207 0.913108 0.285298
Si Si5 0.297328 0.758094 0.943478
Si Si6 0.000000 0.012523 0.750000
Si Si7 0.891268 0.819831 0.866637
O O1 0.001577 0.587004 0.174207
O O2 0.806314 0.378284 0.094255
O O3 0.319047 0.742590 0.584891
O O4 0.414851 0.961165 0.746944
O O5 0.895554 0.257790 0.456717
O O6 0.993966 0.121871 0.669802
O O7 0.882254 0.839441 0.477430
O O8 0.789255 0.017047 0.295945
O O9 0.527200 0.791900 0.132982
O O10 0.230181 0.740591 0.798665
O O11 0.185838 0.905381 0.887880
#
# Coordination Sequence:
#
# PCOD9227373 Si02
#       7
#     2   2   4   4   4   2   4
#     4  10  26  42  60  88 130 172 214 248 314 378
#     4  10  18  36  66  92 118 168 218 256 312 370
#     4  10  21  42  59  88 127 170 208 254 309 382
#     4  10  20  36  64 103 120 153 208 269 319 361
#     4  11  21  39  63  95 121 162 205 267 313 363
#     4  10  18  34  64  86 122 152 212 266 298 362
#     4  10  22  37  64  95 130 154 205 270 318 360
#
# _framework density 21.334313000000002
#
# number of rings (size 3 to 8) (size 9 to 14) (size 15 to 20)
#    0.000    1.818    1.818    3.818    2.545    0.727 
#    6.545    0.909    0.000    0.000    0.000    0.000 
#    0.000    0.000    0.000    0.000    0.000    0.000 
#
# Total GULP energy -122753.546320 kJ/mol
# GULP energy per Si atom -5579.706651 kJ/mol
# Density = 2.128576 g / cm^3
# Si number density = 21.334313 Si / 1000 Ang^3
#
#
#
# Elastic Constant Matrix: (Units=GPa)
#
#
# Indices 1 2 3 4 5 6 
#
# 1 89.9707 25.2290 30.4697 0.0000 -6.0647 0.0000
# 2 25.2290 91.6069 39.0069 0.0000 1.8503 0.0000
# 3 30.4697 39.0069 115.8544 0.0000 27.9790 0.0000
# 4 0.0000 0.0000 0.0000 9.0766 0.0000 3.6037
# 5 -6.0647 1.8503 27.9790 0.0000 38.5570 0.0000
# 6 0.0000 0.0000 0.0000 3.6037 0.0000 15.6408
#
#
#
# Elastic Compliance Matrix: (Units=1/GPa)
#
#
# Indices 1 2 3 4 5 6 
#
# 1 0.013426 -0.002062 -0.004087 0.000000 0.005176 0.000000
# 2 -0.002062 0.013359 -0.004513 0.000000 0.002310 0.000000
# 3 -0.004087 -0.004513 0.013736 0.000000 -0.010394 0.000000
# 4 0.000000 0.000000 0.000000 0.121267 0.000000 -0.027941
# 5 0.005176 0.002310 -0.010394 0.000000 0.034181 0.000000
# 6 0.000000 0.000000 0.000000 -0.027941 0.000000 0.070373
#
#
# Mechanical properties :
#
#
# Convention : Reuss Voigt Hill
#
# Bulk Modulus (GPa) = 52.09192 54.09369 53.09280
# Shear Modulus (GPa) = 17.00298 26.16996 21.58647
#
# Velocity S-wave (km/s) = 2.82614 3.50617 3.18436
# Velocity P-wave (km/s) = 5.92616 6.46539 6.20164
#
# Compressibility (1/GPa) = 0.01919684
#
# Stress axis : x y z
#
# Youngs Moduli (GPa) = 74.48272 74.85437 72.80055
#
# Poissons Ratio (x) = 0.15434 0.29753
# Poissons Ratio (y) = 0.15358 0.32858
# Poissons Ratio (z) = 0.30440 0.33785
#
# Static dielectric constant tensor:
#      x y z
#    x 1.825470 0.000000 -0.014860 
#    y 0.000000 1.777050 0.000000 
#    z -0.014860 0.000000 1.825250 
# 
# From -- ./inp_files/68326.got.cif
#   From: 2010.05.17/outbox.cif.g08.bks.cpg/sg13_35_cif.got.tgz:68326.got - 2010.06.03 16:44:36.
