data_PCOD9227817
_publ_section_title
;
Structure prediction by ZEFSAII (Michael W. Deem and Ramdas Pophale) SiO2 
 PCOD9227817
Probable space group: P 2/C
;
_chemical_formula_sum "Si O2"
_cell_formula_units_Z 22
_cell_length_a 27.944687
_cell_length_b 5.396965
_cell_length_c 17.146510
_cell_angle_alpha 90.000000
_cell_angle_beta 159.930306
_cell_angle_gamma 90.000000
_cell_volume 887.411283
_symmetry_space_group_name_H-M "P 2/C"
_symmetry_group_IT_number 13
_symmetry_cell_setting 'monoclinic'
loop_
_space_group_symop_operation_xyz
x,y,z
-x,y,1/2-z
-x,-y,-z
x,-y,1/2+z
loop_
_atom_site_type_symbol
_atom_site_label
_atom_site_fract_x
_atom_site_fract_y
_atom_site_fract_z
Si Si1 0.979960 0.341099 0.390563
Si Si2 0.323380 0.300877 0.519491
Si Si3 0.512528 0.307927 0.949966
Si Si4 0.707846 0.935977 0.286413
Si Si5 0.276837 0.810359 0.356451
Si Si6 0.000000 0.316660 0.250000
O O1 0.820820 0.256119 0.153560
O O2 0.000000 0.500000 0.500000
O O3 0.108526 0.147859 0.591592
O O4 0.998732 0.456943 0.331865
O O5 0.451718 0.362991 0.772656
O O6 0.298550 0.552061 0.433039
O O7 0.339812 0.047109 0.496352
O O8 0.395830 0.105400 0.800374
O O9 0.500000 0.500000 0.000000
O O10 0.670083 0.208402 0.197356
O O11 0.667444 0.784639 0.146194
O O12 0.863272 0.856941 0.543170
#
# Coordination Sequence:
#
# PCOD9227817 Si02
#       6
#     4   4   4   4   4   2
#     4   9  19  39  68 105 145 184 242 300 361 433
#     4  11  23  44  70 101 144 189 230 297 372 420
#     4  11  26  45  69  99 146 189 239 301 367 448
#     4  10  24  46  68 104 138 187 247 300 365 445
#     4  10  24  42  71 105 138 186 240 299 353 438
#     4  10  18  42  76  98 144 194 246 304 374 432
#
# _framework density 24.791208999999998
#
# number of rings (size 3 to 8) (size 9 to 14) (size 15 to 20)
#    0.000    1.818    1.818    0.545    7.636    0.727 
#    0.000    2.727    0.000    0.000    0.000    0.000 
#    0.000    0.000    0.000    0.000    0.000    0.000 
#
# Total GULP energy -122751.043023 kJ/mol
# GULP energy per Si atom -5579.592865 kJ/mol
# Density = 2.473478 g / cm^3
# Si number density = 24.791209 Si / 1000 Ang^3
#
#
#
# Elastic Constant Matrix: (Units=GPa)
#
#
# Indices 1 2 3 4 5 6 
#
# 1 137.5399 27.0009 43.7419 0.0000 -13.2173 0.0000
# 2 27.0009 85.5126 27.7488 0.0000 -18.7945 0.0000
# 3 43.7419 27.7488 122.0686 0.0000 -7.5820 0.0000
# 4 0.0000 0.0000 0.0000 25.6170 0.0000 -3.3307
# 5 -13.2173 -18.7945 -7.5820 0.0000 51.7131 0.0000
# 6 0.0000 0.0000 0.0000 -3.3307 0.0000 36.7414
#
#
#
# Elastic Compliance Matrix: (Units=1/GPa)
#
#
# Indices 1 2 3 4 5 6 
#
# 1 0.008531 -0.001574 -0.002623 0.000000 0.001224 0.000000
# 2 -0.001574 0.013892 -0.002327 0.000000 0.004306 0.000000
# 3 -0.002623 -0.002327 0.009655 0.000000 -0.000101 0.000000
# 4 0.000000 0.000000 0.000000 0.039502 0.000000 0.003581
# 5 0.001224 0.004306 -0.000101 0.000000 0.021200 0.000000
# 6 0.000000 0.000000 0.000000 0.003581 0.000000 0.027542
#
#
# Mechanical properties :
#
#
# Convention : Reuss Voigt Hill
#
# Bulk Modulus (GPa) = 52.54489 60.23380 56.38934
# Shear Modulus (GPa) = 35.78730 39.25626 37.52178
#
# Velocity S-wave (km/s) = 3.80353 3.98361 3.89461
# Velocity P-wave (km/s) = 6.36632 6.74596 6.55889
#
# Compressibility (1/GPa) = 0.01903135
#
# Stress axis : x y z
#
# Youngs Moduli (GPa) = 117.21300 71.98183 103.57470
#
# Poissons Ratio (x) = 0.11326 0.27172
# Poissons Ratio (y) = 0.18444 0.24099
# Poissons Ratio (z) = 0.30750 0.16748
#
# Static dielectric constant tensor:
#      x y z
#    x 2.073650 0.000000 0.005880 
#    y 0.000000 2.022610 0.000000 
#    z 0.005880 0.000000 2.009240 
# 
# From -- ./inp_files/72158.got.cif
#   From: 2010.05.17/outbox.cif.g08.bks.cpg/sg13_37_cif.got.tgz:72158.got - 2010.06.03 16:44:36.
