data_PCOD9227018
_publ_section_title
;
Structure prediction by ZEFSAII (Michael W. Deem and Ramdas Pophale) SiO2 
 PCOD9227018
Probable space group: P 2/C
;
_chemical_formula_sum "Si O2"
_cell_formula_units_Z 32
_cell_length_a 28.716275
_cell_length_b 12.307238
_cell_length_c 8.595254
_cell_angle_alpha 90.000000
_cell_angle_beta 36.370284
_cell_angle_gamma 90.000000
_cell_volume 1801.370738
_symmetry_space_group_name_H-M "P 2/C"
_symmetry_group_IT_number 13
_symmetry_cell_setting 'monoclinic'
loop_
_space_group_symop_operation_xyz
x,y,z
-x,y,1/2-z
-x,-y,-z
x,-y,1/2+z
loop_
_atom_site_type_symbol
_atom_site_label
_atom_site_fract_x
_atom_site_fract_y
_atom_site_fract_z
Si Si1 0.125922 0.266299 0.722085
Si Si2 0.843477 0.313106 0.204161
Si Si3 0.810190 0.437187 0.730888
Si Si4 0.237953 0.117977 0.562601
Si Si5 0.715827 0.714382 0.297096
Si Si6 0.593285 0.141763 0.993106
Si Si7 0.323564 0.952087 0.528686
Si Si8 0.964914 0.620077 0.617411
O O1 0.144530 0.253833 0.490322
O O2 0.181268 0.365566 0.635750
O O3 0.151734 0.160410 0.748886
O O4 0.036207 0.304534 0.979710
O O5 0.813190 0.435919 0.254283
O O6 0.781458 0.260521 0.489156
O O7 0.926238 0.330595 0.067300
O O8 0.738914 0.401142 0.810537
O O9 0.890152 0.399238 0.428807
O O10 0.271039 0.206730 0.592453
O O11 0.286538 0.113718 0.271302
O O12 0.254112 0.006997 0.612090
O O13 0.633487 0.746290 0.442944
O O14 0.624129 0.112175 0.737086
O O15 0.625885 0.047088 0.021643
O O16 0.500000 0.145008 0.250000
O O17 0.000000 0.500000 0.500000
#
# Coordination Sequence:
#
# PCOD9227018 Si02
#       8
#     4   4   4   4   4   4   4   4
#     4  11  19  27  46  74 105 136 173 208 258 300
#     4  11  19  30  47  71 102 142 173 210 256 301
#     4  10  19  31  46  69 103 144 172 208 252 300
#     4   9  19  34  52  76 102 136 168 210 254 317
#     4   9  20  33  47  75 105 133 172 211 253 316
#     4  10  18  32  55  83 109 129 160 210 266 312
#     4   9  18  34  55  79 106 133 166 206 263 318
#     4  11  19  29  44  72 107 138 170 212 261 291
#
# _framework density 17.764251000000002
#
# number of rings (size 3 to 8) (size 9 to 14) (size 15 to 20)
#    0.000    2.000    2.500    2.625    0.000    0.000 
#    0.000    0.000    0.000    0.750    0.000  122.500 
#    0.000    0.000    0.000    0.000    0.000    0.000 
#
# Total GULP energy -178291.758848 kJ/mol
# GULP energy per Si atom -5571.617464 kJ/mol
# Density = 1.772382 g / cm^3
# Si number density = 17.764251 Si / 1000 Ang^3
#
#
#
# Elastic Constant Matrix: (Units=GPa)
#
#
# Indices 1 2 3 4 5 6 
#
# 1 107.1487 28.2995 55.0228 0.0000 3.0903 0.0000
# 2 28.2995 37.0753 40.9376 0.0000 -7.4329 0.0000
# 3 55.0228 40.9376 79.6034 0.0000 -3.2817 0.0000
# 4 0.0000 0.0000 0.0000 22.5425 0.0000 -1.1694
# 5 3.0903 -7.4329 -3.2817 0.0000 39.4588 0.0000
# 6 0.0000 0.0000 0.0000 -1.1694 0.0000 30.0294
#
#
#
# Elastic Compliance Matrix: (Units=1/GPa)
#
#
# Indices 1 2 3 4 5 6 
#
# 1 0.014632 -0.000757 -0.009811 0.000000 -0.002105 0.000000
# 2 -0.000757 0.065902 -0.032967 0.000000 0.009732 0.000000
# 3 -0.009811 -0.032967 0.036197 0.000000 -0.002431 0.000000
# 4 0.000000 0.000000 0.000000 0.044450 0.000000 0.001731
# 5 -0.002105 0.009732 -0.002431 0.000000 0.027139 0.000000
# 6 0.000000 0.000000 0.000000 0.001731 0.000000 0.033368
#
#
# Mechanical properties :
#
#
# Convention : Reuss Voigt Hill
#
# Bulk Modulus (GPa) = 33.71413 52.48302 43.09857
# Shear Modulus (GPa) = 15.69142 25.04399 20.36771
#
# Velocity S-wave (km/s) = 2.97529 3.75880 3.38976
# Velocity P-wave (km/s) = 5.55184 6.96035 6.29561
#
# Compressibility (1/GPa) = 0.02966116
#
# Stress axis : x y z
#
# Youngs Moduli (GPa) = 68.34539 15.17395 27.62643
#
# Poissons Ratio (x) = 0.01149 0.27104
# Poissons Ratio (y) = 0.05176 0.91076
# Poissons Ratio (z) = 0.67052 0.50024
#
# Static dielectric constant tensor:
#      x y z
#    x 1.663910 0.000000 0.025720 
#    y 0.000000 1.637080 0.000000 
#    z 0.025720 0.000000 1.604420 
# 
# From -- ./inp_files/23563.got.cif
#   From: 2010.05.17/outbox.cif.g08.bks.cpg/sg13_12_cif.got.tgz:23563.got - 2010.06.03 16:44:36.
