data_PCOD9227150
_publ_section_title
;
Structure prediction by ZEFSAII (Michael W. Deem and Ramdas Pophale) SiO2 
 PCOD9227150
Probable space group: P 2/C
;
_chemical_formula_sum "Si O2"
_cell_formula_units_Z 16
_cell_length_a 24.343864
_cell_length_b 6.904574
_cell_length_c 16.577558
_cell_angle_alpha 90.000000
_cell_angle_beta 162.617754
_cell_angle_gamma 90.000000
_cell_volume 832.430024
_symmetry_space_group_name_H-M "P 2/C"
_symmetry_group_IT_number 13
_symmetry_cell_setting 'monoclinic'
loop_
_space_group_symop_operation_xyz
x,y,z
-x,y,1/2-z
-x,-y,-z
x,-y,1/2+z
loop_
_atom_site_type_symbol
_atom_site_label
_atom_site_fract_x
_atom_site_fract_y
_atom_site_fract_z
Si Si1 0.841224 0.373965 0.466826
Si Si2 0.967584 0.956455 0.361774
Si Si3 0.369029 0.059960 0.217490
Si Si4 0.723979 0.787833 0.273036
O O1 0.937937 0.244582 0.533805
O O2 0.719758 0.227325 0.349998
O O3 0.732625 0.557775 0.282171
O O4 0.000000 0.447435 0.750000
O O5 0.076760 0.120615 0.464347
O O6 0.000000 0.000000 0.500000
O O7 0.756597 0.952634 0.037222
O O8 0.581371 0.118171 0.509410
O O9 0.345631 0.865471 0.237742
#
# Coordination Sequence:
#
# PCOD9227150 Si02
#       4
#     4   4   4   4
#     4   9  17  32  54  78 102 132 172 214 257 304
#     4  10  21  34  49  75 110 139 167 205 255 312
#     4   9  19  33  53  79 100 130 175 218 254 298
#     4  10  18  33  56  75 100 135 173 216 256 296
#
# _framework density 19.220835999999998
#
# number of rings (size 3 to 8) (size 9 to 14) (size 15 to 20)
#    0.000    2.500    0.000    4.500    0.000    2.000 
#    0.000    0.000    0.000    9.000    0.000    0.000 
#    0.000    0.000    0.000    0.000    0.000    0.000 
#
# Total GULP energy -89255.561821 kJ/mol
# GULP energy per Si atom -5578.472614 kJ/mol
# Density = 1.917709 g / cm^3
# Si number density = 19.220836 Si / 1000 Ang^3
#
#
#
# Elastic Constant Matrix: (Units=GPa)
#
#
# Indices 1 2 3 4 5 6 
#
# 1 42.8152 22.2393 22.5910 0.0000 -23.3720 0.0000
# 2 22.2393 86.4702 24.7854 0.0000 -16.4876 0.0000
# 3 22.5910 24.7854 121.8981 0.0000 -21.0261 0.0000
# 4 0.0000 0.0000 0.0000 22.3578 0.0000 -0.1458
# 5 -23.3720 -16.4876 -21.0261 0.0000 27.7176 0.0000
# 6 0.0000 0.0000 0.0000 -0.1458 0.0000 6.7758
#
#
#
# Elastic Compliance Matrix: (Units=1/GPa)
#
#
# Indices 1 2 3 4 5 6 
#
# 1 0.045287 -0.004679 -0.001536 0.000000 0.034239 0.000000
# 2 -0.004679 0.013774 -0.001382 0.000000 0.003200 0.000000
# 3 -0.001536 -0.001382 0.009669 0.000000 0.005218 0.000000
# 4 0.000000 0.000000 0.000000 0.044733 0.000000 0.000963
# 5 0.034239 0.003200 0.005218 0.000000 0.070811 0.000000
# 6 0.000000 0.000000 0.000000 0.000963 0.000000 0.147605
#
#
# Mechanical properties :
#
#
# Convention : Reuss Voigt Hill
#
# Bulk Modulus (GPa) = 18.67824 43.37945 31.02885
# Shear Modulus (GPa) = 13.70169 23.47475 18.58822
#
# Velocity S-wave (km/s) = 2.67283 3.49853 3.11318
# Velocity P-wave (km/s) = 4.38910 6.24000 5.39452
#
# Compressibility (1/GPa) = 0.05353822
#
# Stress axis : x y z
#
# Youngs Moduli (GPa) = 22.08135 72.59940 103.42149
#
# Poissons Ratio (x) = 0.33967 0.15883
# Poissons Ratio (y) = 0.10331 0.14289
# Poissons Ratio (z) = 0.03391 0.10030
#
# Static dielectric constant tensor:
#      x y z
#    x 1.651900 0.000000 0.015840 
#    y 0.000000 1.658130 0.000000 
#    z 0.015840 0.000000 1.740560 
# 
# From -- ./inp_files/48501.got.cif
#   From: 2010.05.17/outbox.cif.g08.bks.cpg/sg13_25_cif.got.tgz:48501.got - 2010.06.03 16:44:36.
