data_PCOD9227155
_publ_section_title
;
Structure prediction by ZEFSAII (Michael W. Deem and Ramdas Pophale) SiO2 
 PCOD9227155
Probable space group: P 2/C
;
_chemical_formula_sum "Si O2"
_cell_formula_units_Z 32
_cell_length_a 15.140173
_cell_length_b 16.407731
_cell_length_c 10.608255
_cell_angle_alpha 90.000000
_cell_angle_beta 39.991203
_cell_angle_gamma 90.000000
_cell_volume 1693.601906
_symmetry_space_group_name_H-M "P 2/C"
_symmetry_group_IT_number 13
_symmetry_cell_setting 'monoclinic'
loop_
_space_group_symop_operation_xyz
x,y,z
-x,y,1/2-z
-x,-y,-z
x,-y,1/2+z
loop_
_atom_site_type_symbol
_atom_site_label
_atom_site_fract_x
_atom_site_fract_y
_atom_site_fract_z
Si Si1 0.671623 0.223865 0.951817
Si Si2 0.669657 0.089972 0.368946
Si Si3 0.613921 0.741435 0.802954
Si Si4 0.934384 0.685369 0.184643
Si Si5 0.163187 0.828959 0.595806
Si Si6 0.192721 0.664992 0.717064
Si Si7 0.648094 0.085930 0.810089
Si Si8 0.092719 0.495197 0.772788
O O1 0.826678 0.248399 0.756635
O O2 0.644243 0.128397 0.953152
O O3 0.550056 0.263170 0.002039
O O4 0.647021 0.257422 0.119310
O O5 0.671021 0.170612 0.282992
O O6 0.775172 0.110277 0.364846
O O7 0.505776 0.083090 0.580280
O O8 0.701868 0.005640 0.264494
O O9 0.687658 0.677691 0.811867
O O10 0.856748 0.598131 0.283157
O O11 0.000000 0.704172 0.250000
O O12 0.053899 0.677502 0.950904
O O13 0.194524 0.736883 0.611081
O O14 0.253181 0.855975 0.377815
O O15 0.000000 0.836597 0.750000
O O16 0.191428 0.573132 0.666862
O O17 0.000000 0.503423 0.750000
O O18 0.000000 0.500000 0.000000
#
# Coordination Sequence:
#
# PCOD9227155 Si02
#       8
#     4   4   4   4   4   4   4   4
#     4  10  19  33  54  82 107 140 183 229 277 328
#     4   9  21  38  57  78 104 146 192 230 266 327
#     4   9  19  34  55  79 107 141 181 232 278 324
#     4  10  18  33  56  83 108 142 187 227 271 332
#     4  11  22  35  54  81 115 144 175 227 290 337
#     4  10  19  36  56  81 111 147 183 225 281 333
#     4  10  21  37  58  79 106 147 192 228 271 332
#     4   9  19  33  56  85 113 145 190 235 273 332
#
# _framework density 18.894639999999999
#
# number of rings (size 3 to 8) (size 9 to 14) (size 15 to 20)
#    0.000    2.250    1.250    1.500    1.750    1.500 
#    0.000    1.250    0.000    0.000    6.500    0.000 
#    0.000    0.000    0.000    0.000    0.000    0.000 
#
# Total GULP energy -178186.848145 kJ/mol
# GULP energy per Si atom -5568.339005 kJ/mol
# Density = 1.885163 g / cm^3
# Si number density = 18.894640 Si / 1000 Ang^3
#
#
#
# Elastic Constant Matrix: (Units=GPa)
#
#
# Indices 1 2 3 4 5 6 
#
# 1 104.8619 43.2866 14.0813 0.0000 -8.8315 0.0000
# 2 43.2866 83.4976 0.9985 0.0000 0.0587 0.0000
# 3 14.0813 0.9985 37.5059 0.0000 -2.7997 0.0000
# 4 0.0000 0.0000 0.0000 21.2503 0.0000 -4.0811
# 5 -8.8315 0.0587 -2.7997 0.0000 26.4402 0.0000
# 6 0.0000 0.0000 0.0000 -4.0811 0.0000 12.4619
#
#
#
# Elastic Compliance Matrix: (Units=1/GPa)
#
#
# Indices 1 2 3 4 5 6 
#
# 1 0.013304 -0.006846 -0.004515 0.000000 0.003981 0.000000
# 2 -0.006846 0.015503 0.002000 0.000000 -0.002109 0.000000
# 3 -0.004515 0.002000 0.028416 0.000000 0.001496 0.000000
# 4 0.000000 0.000000 0.000000 0.050216 0.000000 0.016445
# 5 0.003981 -0.002109 0.001496 0.000000 0.039314 0.000000
# 6 0.000000 0.000000 0.000000 0.016445 0.000000 0.085630
#
#
# Mechanical properties :
#
#
# Convention : Reuss Voigt Hill
#
# Bulk Modulus (GPa) = 25.97358 38.06646 32.02002
# Shear Modulus (GPa) = 18.94376 23.19708 21.07042
#
# Velocity S-wave (km/s) = 3.16982 3.50767 3.34301
# Velocity P-wave (km/s) = 5.21281 6.04941 5.64663
#
# Compressibility (1/GPa) = 0.03850066
#
# Stress axis : x y z
#
# Youngs Moduli (GPa) = 75.16607 64.50393 35.19120
#
# Poissons Ratio (x) = 0.44158 0.15890
# Poissons Ratio (y) = 0.51457 -0.07038
# Poissons Ratio (z) = 0.33941 -0.12901
#
# Static dielectric constant tensor:
#      x y z
#    x 1.688030 0.000000 0.025990 
#    y 0.000000 1.663210 0.000000 
#    z 0.025990 0.000000 1.700590 
# 
# From -- ./inp_files/37509.got.cif
#   From: 2010.05.17/outbox.cif.g08.bks.cpg/sg13_19_cif.got.tgz:37509.got - 2010.06.03 16:44:36.
