data_PCOD9227550
_publ_section_title
;
Structure prediction by ZEFSAII (Michael W. Deem and Ramdas Pophale) SiO2 
 PCOD9227550
Probable space group: P 2/C
;
_chemical_formula_sum "Si O2"
_cell_formula_units_Z 24
_cell_length_a 26.238348
_cell_length_b 8.455307
_cell_length_c 19.358304
_cell_angle_alpha 90.000000
_cell_angle_beta 164.031029
_cell_angle_gamma 90.000000
_cell_volume 1181.544778
_symmetry_space_group_name_H-M "P 2/C"
_symmetry_group_IT_number 13
_symmetry_cell_setting 'monoclinic'
loop_
_space_group_symop_operation_xyz
x,y,z
-x,y,1/2-z
-x,-y,-z
x,-y,1/2+z
loop_
_atom_site_type_symbol
_atom_site_label
_atom_site_fract_x
_atom_site_fract_y
_atom_site_fract_z
Si Si1 0.282014 0.043441 0.722134
Si Si2 0.348600 0.606352 0.961975
Si Si3 0.671610 0.753132 0.081193
Si Si4 0.500000 0.026221 0.250000
Si Si5 0.000000 0.822045 0.750000
Si Si6 0.041824 0.155422 0.006611
Si Si7 0.285515 0.265177 0.521238
O O1 0.280145 0.174684 0.781095
O O2 0.177390 0.090861 0.515188
O O3 0.145080 0.908649 0.573803
O O4 0.500000 0.000000 0.000000
O O5 0.374682 0.429841 0.969984
O O6 0.183607 0.712888 0.718623
O O7 0.540020 0.701828 0.202042
O O8 0.304305 0.605817 0.985982
O O9 0.843431 0.762096 0.251329
O O10 0.526750 0.866175 0.852492
O O11 0.670602 0.904487 0.457937
O O12 0.907387 0.729296 0.692199
O O13 0.000000 0.000000 0.000000
#
# Coordination Sequence:
#
# PCOD9227550 Si02
#       7
#     4   4   4   2   2   4   4
#     4  11  23  40  62  90 124 165 209 255 314 382
#     4  10  20  37  58  87 117 153 204 260 314 362
#     4  11  21  36  62  89 117 156 205 261 310 364
#     4  10  18  36  60  86 112 152 206 254 298 362
#     4  12  22  38  60  88 120 160 206 254 306 378
#     4  10  19  35  57  82 110 152 205 250 297 365
#     4  10  20  36  60  84 118 159 199 251 307 373
#
# _framework density 20.312391000000002
#
# number of rings (size 3 to 8) (size 9 to 14) (size 15 to 20)
#    0.000    1.667    0.000   10.500    0.000    0.000 
#    0.000    5.000    0.000    3.000    0.000    0.000 
#    0.000    0.000    0.000    0.000    0.000    0.000 
#
# Total GULP energy -133671.041169 kJ/mol
# GULP energy per Si atom -5569.626715 kJ/mol
# Density = 2.026616 g / cm^3
# Si number density = 20.312391 Si / 1000 Ang^3
#
#
#
# Elastic Constant Matrix: (Units=GPa)
#
#
# Indices 1 2 3 4 5 6 
#
# 1 65.7601 15.5558 24.5477 0.0000 10.2931 0.0000
# 2 15.5558 99.9292 18.6196 0.0000 -10.2387 0.0000
# 3 24.5477 18.6196 77.0712 0.0000 5.2260 0.0000
# 4 0.0000 0.0000 0.0000 20.1617 0.0000 -5.8548
# 5 10.2931 -10.2387 5.2260 0.0000 47.9624 0.0000
# 6 0.0000 0.0000 0.0000 -5.8548 0.0000 19.8229
#
#
#
# Elastic Compliance Matrix: (Units=1/GPa)
#
#
# Indices 1 2 3 4 5 6 
#
# 1 0.018216 -0.002302 -0.004984 0.000000 -0.003858 0.000000
# 2 -0.002302 0.011084 -0.002154 0.000000 0.003095 0.000000
# 3 -0.004984 -0.002154 0.015154 0.000000 -0.001041 0.000000
# 4 0.000000 0.000000 0.000000 0.054252 0.000000 0.016024
# 5 -0.003858 0.003095 -0.001041 0.000000 0.022452 0.000000
# 6 0.000000 0.000000 0.000000 0.016024 0.000000 0.055179
#
#
# Mechanical properties :
#
#
# Convention : Reuss Voigt Hill
#
# Bulk Modulus (GPa) = 39.10523 40.02294 39.56408
# Shear Modulus (GPa) = 24.54087 29.85856 27.19971
#
# Velocity S-wave (km/s) = 3.47965 3.83818 3.66330
# Velocity P-wave (km/s) = 5.95295 6.27603 6.11663
#
# Compressibility (1/GPa) = 0.02557203
#
# Stress axis : x y z
#
# Youngs Moduli (GPa) = 54.89770 90.22020 65.99110
#
# Poissons Ratio (x) = 0.20770 0.32890
# Poissons Ratio (y) = 0.12638 0.14217
# Poissons Ratio (z) = 0.27361 0.19437
#
# Static dielectric constant tensor:
#      x y z
#    x 1.777880 0.000000 -0.046630 
#    y 0.000000 1.750730 0.000000 
#    z -0.046630 0.000000 1.821070 
# 
# From -- ./inp_files/71207.got.cif
#   From: 2010.05.17/outbox.cif.g08.bks.cpg/sg13_36_cif.got.tgz:71207.got - 2010.06.03 16:44:36.
