data_PCOD9227060
_publ_section_title
;
Structure prediction by ZEFSAII (Michael W. Deem and Ramdas Pophale) SiO2 
 PCOD9227060
Probable space group: P 2/C
;
_chemical_formula_sum "Si O2"
_cell_formula_units_Z 32
_cell_length_a 14.843499
_cell_length_b 20.198992
_cell_length_c 9.376829
_cell_angle_alpha 90.000000
_cell_angle_beta 40.176986
_cell_angle_gamma 90.000000
_cell_volume 1813.774321
_symmetry_space_group_name_H-M "P 2/C"
_symmetry_group_IT_number 13
_symmetry_cell_setting 'monoclinic'
loop_
_space_group_symop_operation_xyz
x,y,z
-x,y,1/2-z
-x,-y,-z
x,-y,1/2+z
loop_
_atom_site_type_symbol
_atom_site_label
_atom_site_fract_x
_atom_site_fract_y
_atom_site_fract_z
Si Si1 0.636558 0.809382 0.685377
Si Si2 0.722703 0.016300 0.757745
Si Si3 0.535792 0.569264 0.372908
Si Si4 0.850014 0.078860 0.864234
Si Si5 0.137596 0.571295 0.509760
Si Si6 0.378174 0.341722 0.280754
Si Si7 0.522608 0.899778 0.067992
Si Si8 0.872128 0.568342 0.315718
O O1 0.500000 0.811141 0.750000
O O2 0.758576 0.854305 0.471597
O O3 0.673207 0.733528 0.672719
O O4 0.594357 0.847535 0.879257
O O5 0.839227 0.045588 0.721713
O O6 0.621047 0.074176 0.826458
O O7 0.780990 0.974407 0.555549
O O8 0.621462 0.964629 0.962533
O O9 0.500000 0.559678 0.250000
O O10 0.500000 0.500000 0.500000
O O11 0.698667 0.592505 0.186899
O O12 0.439028 0.624615 0.564624
O O13 0.000000 0.092761 0.750000
O O14 0.103933 0.562783 0.382452
O O15 0.147651 0.503257 0.587827
O O16 0.000000 0.605661 0.750000
O O17 0.500000 0.340362 0.250000
O O18 0.261093 0.388226 0.488776
O O19 0.500000 0.870835 0.250000
O O20 0.000000 0.598720 0.250000
#
# Coordination Sequence:
#
# PCOD9227060 Si02
#       8
#     4   4   4   4   4   4   4   4
#     4  10  22  38  59  79 110 154 199 234 278 346
#     4  10  19  31  53  90 110 143 185 231 286 336
#     4  12  23  37  63  90 120 150 190 255 305 349
#     4  11  21  35  56  86 119 149 185 238 291 345
#     4  11  22  36  56  89 119 146 185 233 303 352
#     4  11  23  41  58  86 114 155 205 245 294 348
#     4  10  18  32  58  81 112 142 189 237 277 334
#     4  11  22  36  60  84 116 150 186 236 291 358
#
# _framework density 17.642768
#
# number of rings (size 3 to 8) (size 9 to 14) (size 15 to 20)
#    0.000    1.250    5.000    3.000    1.750    1.000 
#    0.000    0.000    0.000    0.000    0.000    0.000 
#    0.000    0.000    0.000    0.000    0.000    0.000 
#
# Total GULP energy -178393.173251 kJ/mol
# GULP energy per Si atom -5574.786664 kJ/mol
# Density = 1.760261 g / cm^3
# Si number density = 17.642768 Si / 1000 Ang^3
#
#
#
# Elastic Constant Matrix: (Units=GPa)
#
#
# Indices 1 2 3 4 5 6 
#
# 1 88.1774 2.7200 21.6458 0.0000 13.9781 0.0000
# 2 2.7200 51.5488 11.4132 0.0000 10.5932 0.0000
# 3 21.6458 11.4132 77.7124 0.0000 13.1181 0.0000
# 4 0.0000 0.0000 0.0000 -14.4896 0.0000 -7.8957
# 5 13.9781 10.5932 13.1181 0.0000 41.6276 0.0000
# 6 0.0000 0.0000 0.0000 -7.8957 0.0000 12.4753
#
#
#
# Elastic Compliance Matrix: (Units=1/GPa)
#
#
# Indices 1 2 3 4 5 6 
#
# 1 0.012612 0.000718 -0.003034 0.000000 -0.003462 0.000000
# 2 0.000718 0.020889 -0.002461 0.000000 -0.004781 0.000000
# 3 -0.003034 -0.002461 0.014572 0.000000 -0.002947 0.000000
# 4 0.000000 0.000000 0.000000 -0.051317 0.000000 -0.032479
# 5 -0.003462 -0.004781 -0.002947 0.000000 0.027330 0.000000
# 6 0.000000 0.000000 0.000000 -0.032479 0.000000 0.059602
#
#
# Mechanical properties :
#
#
# Convention : Reuss Voigt Hill
#
# Bulk Modulus (GPa) = 25.96150 32.11074 29.03612
# Shear Modulus (GPa) = 47.13324 20.03328 33.58326
#
# Velocity S-wave (km/s) = 5.17429 3.37337 4.36766
# Velocity P-wave (km/s) = 7.10245 5.78038 6.47525
#
# Compressibility (1/GPa) = 0.03851858
#
# Stress axis : x y z
#
# Youngs Moduli (GPa) = 79.28851 47.87311 68.62515
#
# Poissons Ratio (x) = -0.03435 0.20821
# Poissons Ratio (y) = -0.05690 0.16886
# Poissons Ratio (z) = 0.24056 0.11780
#
# Static dielectric constant tensor:
#      x y z
#    x 1.530180 0.000000 0.115350 
#    y 0.000000 1.580250 0.000000 
#    z 0.115350 0.000000 1.392450 
# 
# From -- ./inp_files/20180.got.cif
#   From: 2010.05.17/outbox.cif.g08.bks.cpg/sg13_11_cif.got.tgz:20180.got - 2010.06.03 16:44:36.
