data_PCOD9227023
_publ_section_title
;
Structure prediction by ZEFSAII (Michael W. Deem and Ramdas Pophale) SiO2 
 PCOD9227023
Probable space group: P 2/C
;
_chemical_formula_sum "Si O2"
_cell_formula_units_Z 32
_cell_length_a 7.677316
_cell_length_b 19.807060
_cell_length_c 9.688855
_cell_angle_alpha 90.000000
_cell_angle_beta 123.044704
_cell_angle_gamma 90.000000
_cell_volume 1235.017332
_symmetry_space_group_name_H-M "P 2/C"
_symmetry_group_IT_number 13
_symmetry_cell_setting 'monoclinic'
loop_
_space_group_symop_operation_xyz
x,y,z
-x,y,1/2-z
-x,-y,-z
x,-y,1/2+z
loop_
_atom_site_type_symbol
_atom_site_label
_atom_site_fract_x
_atom_site_fract_y
_atom_site_fract_z
Si Si1 0.443065 0.605602 0.882835
Si Si2 0.309420 0.473818 0.777666
Si Si3 0.031614 0.763682 0.570174
Si Si4 0.754670 0.659821 0.352610
Si Si5 0.278983 0.972601 0.716765
Si Si6 0.384753 0.157727 0.353281
Si Si7 0.957595 0.891921 0.382799
Si Si8 0.339757 0.735778 0.449240
O O1 0.500000 0.614042 0.750000
O O2 0.255525 0.550396 0.797854
O O3 0.473848 0.681535 0.947348
O O4 0.607675 0.564730 0.050072
O O5 0.500000 0.481286 0.750000
O O6 0.169620 0.416813 0.643642
O O7 0.184309 0.794980 0.750558
O O8 0.197003 0.741222 0.522306
O O9 0.885128 0.698811 0.524536
O O10 0.904236 0.828703 0.457319
O O11 0.500000 0.657517 0.250000
O O12 0.784937 0.706443 0.232108
O O13 0.500000 0.987111 0.750000
O O14 0.312906 0.918170 0.853506
O O15 0.142914 0.930184 0.546616
O O16 0.185854 0.044254 0.711653
O O17 0.500000 0.156368 0.250000
O O18 0.549412 0.192437 0.523959
O O19 0.000000 0.861991 0.250000
#
# Coordination Sequence:
#
# PCOD9227023 Si02
#       8
#     4   4   4   4   4   4   4   4
#     4   9  15  26  49  76  96 127 176 216 250 303
#     4   8  16  29  45  68 103 139 166 204 261 313
#     4  10  19  33  53  77 102 129 169 217 257 300
#     4  10  20  33  49  73 107 141 168 203 259 316
#     4   9  19  35  52  71  98 132 168 203 248 308
#     4   8  16  32  53  74  97 126 166 216 258 294
#     4  10  20  34  51  74 103 131 163 210 258 297
#     4  10  18  32  56  79  99 130 174 219 259 300
#
# _framework density 25.910564999999998
#
# number of rings (size 3 to 8) (size 9 to 14) (size 15 to 20)
#    0.000    2.750    0.000    3.000    0.000    1.000 
#    0.000    4.375    0.000   12.000    0.000   17.500 
#    0.000    0.000    0.000    0.000    0.000    0.000 
#
# Total GULP energy -178413.186918 kJ/mol
# GULP energy per Si atom -5575.412091 kJ/mol
# Density = 2.585159 g / cm^3
# Si number density = 25.910565 Si / 1000 Ang^3
#
#
#
# Elastic Constant Matrix: (Units=GPa)
#
#
# Indices 1 2 3 4 5 6 
#
# 1 59.7315 4.0571 11.4607 0.0000 8.7314 0.0000
# 2 4.0571 168.3608 36.6215 0.0000 32.1963 0.0000
# 3 11.4607 36.6215 42.3284 0.0000 -5.4265 0.0000
# 4 0.0000 0.0000 0.0000 26.9920 0.0000 -8.3315
# 5 8.7314 32.1963 -5.4265 0.0000 35.4386 0.0000
# 6 0.0000 0.0000 0.0000 -8.3315 0.0000 21.9375
#
#
#
# Elastic Compliance Matrix: (Units=1/GPa)
#
#
# Indices 1 2 3 4 5 6 
#
# 1 0.019694 0.003371 -0.009449 0.000000 -0.009362 0.000000
# 2 0.003371 0.010833 -0.011887 0.000000 -0.012493 0.000000
# 3 -0.009449 -0.011887 0.038914 0.000000 0.019086 0.000000
# 4 0.000000 0.000000 0.000000 0.041968 0.000000 0.015939
# 5 -0.009362 -0.012493 0.019086 0.000000 0.044797 0.000000
# 6 0.000000 0.000000 0.000000 0.015939 0.000000 0.051637
#
#
# Mechanical properties :
#
#
# Convention : Reuss Voigt Hill
#
# Bulk Modulus (GPa) = 29.84025 41.63326 35.73675
# Shear Modulus (GPa) = 19.61225 31.42571 25.51898
#
# Velocity S-wave (km/s) = 2.75420 3.48638 3.14170
# Velocity P-wave (km/s) = 4.65358 5.68414 5.19448
#
# Compressibility (1/GPa) = 0.03351179
#
# Stress axis : x y z
#
# Youngs Moduli (GPa) = 50.77670 92.31087 25.69764
#
# Poissons Ratio (x) = -0.31118 0.24282
# Poissons Ratio (y) = -0.17117 0.30546
# Poissons Ratio (z) = 0.47979 1.09727
#
# Static dielectric constant tensor:
#      x y z
#    x 2.151760 0.000000 -0.044580 
#    y 0.000000 2.110090 0.000000 
#    z -0.044580 0.000000 2.090620 
# 
# From -- ./inp_files/30808.got.cif
#   From: 2010.05.17/outbox.cif.g08.bks.cpg/sg13_16_cif.got.tgz:30808.got - 2010.06.03 16:44:36.
