data_PCOD9227770
_publ_section_title
;
Structure prediction by ZEFSAII (Michael W. Deem and Ramdas Pophale) SiO2 
 PCOD9227770
Probable space group: P 2/C
;
_chemical_formula_sum "Si O2"
_cell_formula_units_Z 26
_cell_length_a 10.997111
_cell_length_b 10.137915
_cell_length_c 18.852534
_cell_angle_alpha 90.000000
_cell_angle_beta 40.269254
_cell_angle_gamma 90.000000
_cell_volume 1358.579891
_symmetry_space_group_name_H-M "P 2/C"
_symmetry_group_IT_number 13
_symmetry_cell_setting 'monoclinic'
loop_
_space_group_symop_operation_xyz
x,y,z
-x,y,1/2-z
-x,-y,-z
x,-y,1/2+z
loop_
_atom_site_type_symbol
_atom_site_label
_atom_site_fract_x
_atom_site_fract_y
_atom_site_fract_z
Si Si1 0.223044 0.019420 0.404049
Si Si2 0.356351 0.176248 0.129880
Si Si3 0.428999 0.318193 0.585682
Si Si4 0.000000 0.664802 0.750000
Si Si5 0.755702 0.473930 0.951021
Si Si6 0.430781 0.081118 0.671312
Si Si7 0.375218 0.304946 0.370527
O O1 0.268892 0.174851 0.390030
O O2 0.347770 0.945981 0.409633
O O3 0.316064 0.965202 0.291073
O O4 0.000000 0.000000 0.500000
O O5 0.153782 0.242093 0.217483
O O6 0.478305 0.249038 0.136164
O O7 0.364698 0.022021 0.141006
O O8 0.448482 0.215964 0.014749
O O9 0.271519 0.370871 0.601938
O O10 0.561643 0.442167 0.543553
O O11 0.379088 0.230855 0.675313
O O12 0.910666 0.573857 0.851822
O O13 0.763839 0.399677 0.022724
O O14 0.500000 0.361873 0.250000
#
# Coordination Sequence:
#
# PCOD9227770 Si02
#       7
#     4   4   4   2   4   4   4
#     4  10  21  36  57  85 117 155 199 253 300 352
#     4   9  18  34  60  82 111 152 188 242 305 347
#     4   9  18  35  57  81 109 149 195 235 289 354
#     4  10  20  36  56  90 126 140 198 260 294 360
#     4   9  20  35  58  85 115 158 189 240 299 354
#     4  10  19  37  59  82 118 155 194 247 303 351
#     4  10  18  40  61  77 117 167 199 234 302 363
#
# _framework density 19.137630999999999
#
# number of rings (size 3 to 8) (size 9 to 14) (size 15 to 20)
#    0.000    2.462    3.077    1.385    0.000    3.692 
#    2.769    1.538    0.000    0.000    0.000    0.000 
#    0.000    0.000    0.000    0.000    0.000    0.000 
#
# Total GULP energy -144818.407844 kJ/mol
# GULP energy per Si atom -5569.938763 kJ/mol
# Density = 1.909407 g / cm^3
# Si number density = 19.137631 Si / 1000 Ang^3
#
#
#
# Elastic Constant Matrix: (Units=GPa)
#
#
# Indices 1 2 3 4 5 6 
#
# 1 55.8543 35.1175 41.2979 0.0000 -9.1472 0.0000
# 2 35.1175 90.1248 24.6293 0.0000 2.8629 0.0000
# 3 41.2979 24.6293 60.6887 0.0000 -11.0318 0.0000
# 4 0.0000 0.0000 0.0000 18.3408 0.0000 7.2508
# 5 -9.1472 2.8629 -11.0318 0.0000 33.2819 0.0000
# 6 0.0000 0.0000 0.0000 7.2508 0.0000 25.9382
#
#
#
# Elastic Compliance Matrix: (Units=1/GPa)
#
#
# Indices 1 2 3 4 5 6 
#
# 1 0.043131 -0.010310 -0.024315 0.000000 0.004681 0.000000
# 2 -0.010310 0.015218 0.000092 0.000000 -0.004112 0.000000
# 3 -0.024315 0.000092 0.033807 0.000000 0.004515 0.000000
# 4 0.000000 0.000000 0.000000 0.061297 0.000000 -0.017135
# 5 0.004681 -0.004112 0.004515 0.000000 0.033183 0.000000
# 6 0.000000 0.000000 0.000000 -0.017135 0.000000 0.043343
#
#
# Mechanical properties :
#
#
# Convention : Reuss Voigt Hill
#
# Bulk Modulus (GPa) = 43.30738 45.41747 44.36243
# Shear Modulus (GPa) = 16.30033 22.55373 19.42703
#
# Velocity S-wave (km/s) = 2.92163 3.43666 3.18955
# Velocity P-wave (km/s) = 5.83608 6.28737 6.06592
#
# Compressibility (1/GPa) = 0.02309075
#
# Stress axis : x y z
#
# Youngs Moduli (GPa) = 23.18528 65.70954 29.57977
#
# Poissons Ratio (x) = 0.67747 0.71923
# Poissons Ratio (y) = 0.23904 -0.00273
# Poissons Ratio (z) = 0.56375 -0.00606
#
# Static dielectric constant tensor:
#      x y z
#    x 1.686550 0.000000 0.018940 
#    y 0.000000 1.694410 0.000000 
#    z 0.018940 0.000000 1.696800 
# 
# From -- ./inp_files/78222.got.cif
#   From: 2010.05.17/outbox.cif.g08.bks.cpg/sg13_40_cif.got.tgz:78222.got - 2010.06.03 16:44:36.
