data_PCOD9227721
_publ_section_title
;
Structure prediction by ZEFSAII (Michael W. Deem and Ramdas Pophale) SiO2 
 PCOD9227721
Probable space group: P 2/C
;
_chemical_formula_sum "Si O2"
_cell_formula_units_Z 26
_cell_length_a 8.439250
_cell_length_b 14.108733
_cell_length_c 10.468739
_cell_angle_alpha 90.000000
_cell_angle_beta 106.955555
_cell_angle_gamma 90.000000
_cell_volume 1192.299630
_symmetry_space_group_name_H-M "P 2/C"
_symmetry_group_IT_number 13
_symmetry_cell_setting 'monoclinic'
loop_
_space_group_symop_operation_xyz
x,y,z
-x,y,1/2-z
-x,-y,-z
x,-y,1/2+z
loop_
_atom_site_type_symbol
_atom_site_label
_atom_site_fract_x
_atom_site_fract_y
_atom_site_fract_z
Si Si1 0.000000 0.444697 0.750000
Si Si2 0.389135 0.475445 0.099168
Si Si3 0.190939 0.392762 0.404005
Si Si4 0.370778 0.796331 0.897213
Si Si5 0.106199 0.675072 0.513593
Si Si6 0.739937 0.142687 0.394151
Si Si7 0.604419 0.047352 0.907379
O O1 0.152850 0.519021 0.801155
O O2 0.974573 0.375721 0.625820
O O3 0.500000 0.480821 0.250000
O O4 0.282980 0.378388 0.071973
O O5 0.500000 0.500000 0.000000
O O6 0.254070 0.558136 0.049281
O O7 0.321094 0.313494 0.392677
O O8 0.983195 0.344244 0.101989
O O9 0.260722 0.839742 0.757687
O O10 0.559562 0.819045 0.900574
O O11 0.343325 0.851125 0.024389
O O12 0.132638 0.786968 0.509473
O O13 0.746259 0.031039 0.419767
O O14 0.500000 0.052851 0.750000
O O15 0.500000 0.000000 0.000000
#
# Coordination Sequence:
#
# PCOD9227721 Si02
#       7
#     2   4   4   4   4   4   4
#     4  10  22  42  60  84 126 176 210 256 326 378
#     4  11  26  40  66  95 127 170 225 280 323 382
#     4  11  24  41  63  91 130 174 217 270 333 393
#     4  10  21  38  65  98 126 163 218 267 326 393
#     4  11  25  41  66  89 132 176 218 270 332 398
#     4  10  20  39  66  95 125 169 213 266 326 394
#     4  10  18  38  65  97 132 165 209 276 338 387
#
# _framework density 21.806598000000001
#
# number of rings (size 3 to 8) (size 9 to 14) (size 15 to 20)
#    0.000    1.538    3.077    3.692   12.923    0.615 
#    5.538    0.769    0.000    0.923    0.000    0.000 
#    0.000    0.000    0.000    0.000    0.000    0.000 
#
# Total GULP energy -145055.911553 kJ/mol
# GULP energy per Si atom -5579.073521 kJ/mol
# Density = 2.175697 g / cm^3
# Si number density = 21.806598 Si / 1000 Ang^3
#
#
#
# Elastic Constant Matrix: (Units=GPa)
#
#
# Indices 1 2 3 4 5 6 
#
# 1 55.6229 9.2320 28.2984 0.0000 5.3712 0.0000
# 2 9.2320 113.3887 62.2329 0.0000 3.1335 0.0000
# 3 28.2984 62.2329 156.7732 0.0000 0.9961 0.0000
# 4 0.0000 0.0000 0.0000 35.8478 0.0000 0.7645
# 5 5.3712 3.1335 0.9961 0.0000 21.7688 0.0000
# 6 0.0000 0.0000 0.0000 0.7645 0.0000 25.6080
#
#
#
# Elastic Compliance Matrix: (Units=1/GPa)
#
#
# Indices 1 2 3 4 5 6 
#
# 1 0.020327 0.000611 -0.003880 0.000000 -0.004926 0.000000
# 2 0.000611 0.011338 -0.004601 0.000000 -0.001572 0.000000
# 3 -0.003880 -0.004601 0.008898 0.000000 0.001213 0.000000
# 4 0.000000 0.000000 0.000000 0.027913 0.000000 -0.000833
# 5 -0.004926 -0.001572 0.001213 0.000000 0.047324 0.000000
# 6 0.000000 0.000000 0.000000 -0.000833 0.000000 0.039075
#
#
# Mechanical properties :
#
#
# Convention : Reuss Voigt Hill
#
# Bulk Modulus (GPa) = 40.28759 58.36792 49.32776
# Shear Modulus (GPa) = 27.95018 31.71302 29.83160
#
# Velocity S-wave (km/s) = 3.58401 3.81765 3.70267
# Velocity P-wave (km/s) = 5.97008 6.80124 6.39917
#
# Compressibility (1/GPa) = 0.02482154
#
# Stress axis : x y z
#
# Youngs Moduli (GPa) = 49.19673 88.19710 112.38737
#
# Poissons Ratio (x) = -0.05387 0.43609
# Poissons Ratio (y) = -0.03005 0.51711
# Poissons Ratio (z) = 0.19089 0.40580
#
# Static dielectric constant tensor:
#      x y z
#    x 1.909980 0.000000 -0.012400 
#    y 0.000000 1.808420 0.000000 
#    z -0.012400 0.000000 1.818460 
# 
# From -- ./inp_files/16599.got.cif
#   From: 2010.05.17/outbox.cif.g08.bks.cpg/sg13_9_cif.got.tgz:16599.got - 2010.06.03 16:44:36.
