data_PCOD9227428
_publ_section_title
;
Structure prediction by ZEFSAII (Michael W. Deem and Ramdas Pophale) SiO2 
 PCOD9227428
Probable space group: P 2/C
;
_chemical_formula_sum "Si O2"
_cell_formula_units_Z 24
_cell_length_a 7.054432
_cell_length_b 8.285638
_cell_length_c 19.578446
_cell_angle_alpha 90.000000
_cell_angle_beta 113.124334
_cell_angle_gamma 90.000000
_cell_volume 1052.424765
_symmetry_space_group_name_H-M "P 2/C"
_symmetry_group_IT_number 13
_symmetry_cell_setting 'monoclinic'
loop_
_space_group_symop_operation_xyz
x,y,z
-x,y,1/2-z
-x,-y,-z
x,-y,1/2+z
loop_
_atom_site_type_symbol
_atom_site_label
_atom_site_fract_x
_atom_site_fract_y
_atom_site_fract_z
Si Si1 0.624061 0.288838 0.695660
Si Si2 0.597873 0.236629 0.972441
Si Si3 0.680390 0.126322 0.453874
Si Si4 0.745896 0.600776 0.767671
Si Si5 0.995848 0.374754 0.437547
Si Si6 0.346104 0.069261 0.292245
O O1 0.500000 0.285505 0.750000
O O2 0.465656 0.304440 0.610178
O O3 0.760556 0.449499 0.718944
O O4 0.731432 0.112633 0.703535
O O5 0.702490 0.062088 0.973859
O O6 0.392127 0.212547 0.987251
O O7 0.764716 0.334836 0.038699
O O8 0.867727 0.218159 0.445362
O O9 0.485770 0.126506 0.375156
O O10 0.500000 0.612028 0.750000
O O11 0.877566 0.567529 0.853789
O O12 0.795196 0.779895 0.747448
O O13 0.000000 0.500000 0.500000
O O14 0.500000 0.047360 0.250000
#
# Coordination Sequence:
#
# PCOD9227428 Si02
#       6
#     4   4   4   4   4   4
#     4   9  18  34  60  87 118 160 212 248 310 380
#     4  10  23  40  66  97 119 169 215 261 320 373
#     4  10  21  42  65  90 131 160 211 266 317 378
#     4  10  18  35  58  84 120 165 205 247 313 375
#     4  12  23  38  62  96 128 163 209 260 319 376
#     4   9  16  33  62  83 111 171 201 247 314 365
#
# _framework density 22.804479000000001
#
# number of rings (size 3 to 8) (size 9 to 14) (size 15 to 20)
#    0.000    2.000    3.333    2.500    0.000    0.667 
#    3.000    0.833    0.000    3.000    0.000    0.000 
#    0.000    0.000    0.000    0.000    0.000    0.000 
#
# Total GULP energy -133978.618623 kJ/mol
# GULP energy per Si atom -5582.442443 kJ/mol
# Density = 2.275257 g / cm^3
# Si number density = 22.804479 Si / 1000 Ang^3
#
#
#
# Elastic Constant Matrix: (Units=GPa)
#
#
# Indices 1 2 3 4 5 6 
#
# 1 56.5287 13.4178 26.0467 0.0000 9.2675 0.0000
# 2 13.4178 120.4820 17.8084 0.0000 16.7962 0.0000
# 3 26.0467 17.8084 130.7415 0.0000 24.5148 0.0000
# 4 0.0000 0.0000 0.0000 37.2524 0.0000 4.6319
# 5 9.2675 16.7962 24.5148 0.0000 24.4643 0.0000
# 6 0.0000 0.0000 0.0000 4.6319 0.0000 -3.0688
#
#
#
# Elastic Compliance Matrix: (Units=1/GPa)
#
#
# Indices 1 2 3 4 5 6 
#
# 1 0.020026 -0.001269 -0.003149 0.000000 -0.003559 0.000000
# 2 -0.001269 0.009260 0.000115 0.000000 -0.005992 0.000000
# 3 -0.003149 0.000115 0.009914 0.000000 -0.008821 0.000000
# 4 0.000000 0.000000 0.000000 0.022602 0.000000 0.034115
# 5 -0.003559 -0.005992 -0.008821 0.000000 0.055177 0.000000
# 6 0.000000 0.000000 0.000000 0.034115 0.000000 -0.274371
#
#
# Mechanical properties :
#
#
# Convention : Reuss Voigt Hill
#
# Bulk Modulus (GPa) = 32.68614 46.92199 39.80407
# Shear Modulus (GPa) = -36.07824 28.42819 -3.82503
#
# Velocity S-wave (km/s) = -3.98184 3.53456 -1.29652
# Velocity P-wave (km/s) = 2.60302 6.10557 3.90527
#
# Compressibility (1/GPa) = 0.03059401
#
# Stress axis : x y z
#
# Youngs Moduli (GPa) = 49.93529 107.99599 100.86335
#
# Poissons Ratio (x) = 0.13699 0.31766
# Poissons Ratio (y) = 0.06334 -0.01160
# Poissons Ratio (z) = 0.15727 -0.01242
#
# Static dielectric constant tensor:
#      x y z
#    x 1.856320 0.000000 -0.032990 
#    y 0.000000 1.957390 0.000000 
#    z -0.032990 0.000000 1.798050 
# 
# From -- ./inp_files/63450.got.cif
#   From: 2010.05.17/outbox.cif.g08.bks.cpg/sg13_32_cif.got.tgz:63450.got - 2010.06.03 16:44:36.
