data_PCOD9227288
_publ_section_title
;
Structure prediction by ZEFSAII (Michael W. Deem and Ramdas Pophale) SiO2 
 PCOD9227288
Probable space group: P 2/C
;
_chemical_formula_sum "Si O2"
_cell_formula_units_Z 20
_cell_length_a 9.270936
_cell_length_b 12.032413
_cell_length_c 11.616161
_cell_angle_alpha 90.000000
_cell_angle_beta 39.512311
_cell_angle_gamma 90.000000
_cell_volume 824.446802
_symmetry_space_group_name_H-M "P 2/C"
_symmetry_group_IT_number 13
_symmetry_cell_setting 'monoclinic'
loop_
_space_group_symop_operation_xyz
x,y,z
-x,y,1/2-z
-x,-y,-z
x,-y,1/2+z
loop_
_atom_site_type_symbol
_atom_site_label
_atom_site_fract_x
_atom_site_fract_y
_atom_site_fract_z
Si Si1 0.000000 0.967943 0.750000
Si Si2 0.500000 0.018381 0.250000
Si Si3 0.317318 0.173093 0.185180
Si Si4 0.886245 0.369993 0.694820
Si Si5 0.313884 0.587607 0.765349
Si Si6 0.114690 0.133623 0.883754
O O1 0.973139 0.053050 0.661751
O O2 0.780542 0.886508 0.868267
O O3 0.698587 0.935772 0.164244
O O4 0.510079 0.102501 0.133159
O O5 0.367096 0.303872 0.155107
O O6 0.098204 0.161180 0.404372
O O7 0.719497 0.474068 0.783694
O O8 0.790013 0.247980 0.726733
O O9 0.000000 0.369435 0.750000
O O10 0.081816 0.389392 0.478621
O O11 0.500000 0.576469 0.750000
#
# Coordination Sequence:
#
# PCOD9227288 Si02
#       6
#     2   2   4   4   4   4
#     4  10  18  34  58  80 112 154 182 230 282 344
#     4  10  18  34  58  80 112 154 182 230 282 344
#     4  10  21  38  56  83 117 148 190 239 286 341
#     4  10  22  41  63  85 116 153 193 242 291 340
#     4  10  22  41  63  85 116 153 193 242 291 340
#     4  10  21  38  56  83 117 148 190 239 286 341
#
# _framework density 24.258690000000001
#
# number of rings (size 3 to 8) (size 9 to 14) (size 15 to 20)
#    0.000    2.000    2.000    2.400    2.800    0.800 
#    0.000   20.000    0.000    0.000    0.000    0.000 
#    0.000    0.000    0.000    0.000    0.000    0.000 
#
# Total GULP energy -111874.985730 kJ/mol
# GULP energy per Si atom -5593.749286 kJ/mol
# Density = 2.420348 g / cm^3
# Si number density = 24.258690 Si / 1000 Ang^3
#
#
#
# Elastic Constant Matrix: (Units=GPa)
#
#
# Indices 1 2 3 4 5 6 
#
# 1 180.3575 114.0232 19.7347 0.0000 -8.8099 0.0000
# 2 114.0232 283.0330 30.6578 0.0000 -5.3104 0.0000
# 3 19.7347 30.6578 53.8807 0.0000 1.7979 0.0000
# 4 0.0000 0.0000 0.0000 28.6191 0.0000 -0.2379
# 5 -8.8099 -5.3104 1.7979 0.0000 35.5853 0.0000
# 6 0.0000 0.0000 0.0000 -0.2379 0.0000 -36.9848
#
#
#
# Elastic Compliance Matrix: (Units=1/GPa)
#
#
# Indices 1 2 3 4 5 6 
#
# 1 0.007579 -0.002897 -0.001177 0.000000 0.001503 0.000000
# 2 -0.002897 0.004889 -0.001724 0.000000 0.000099 0.000000
# 3 -0.001177 -0.001724 0.020024 0.000000 -0.001560 0.000000
# 4 0.000000 0.000000 0.000000 0.034940 0.000000 -0.000225
# 5 0.001503 0.000099 -0.001560 0.000000 0.028567 0.000000
# 6 0.000000 0.000000 0.000000 -0.000225 0.000000 -0.027037
#
#
# Mechanical properties :
#
#
# Convention : Reuss Voigt Hill
#
# Bulk Modulus (GPa) = 47.86066 94.01141 70.93604
# Shear Modulus (GPa) = 57.12740 28.96761 43.04751
#
# Velocity S-wave (km/s) = 4.85802 3.45934 4.21707
# Velocity P-wave (km/s) = 7.15816 7.40229 7.28125
#
# Compressibility (1/GPa) = 0.02089399
#
# Stress axis : x y z
#
# Youngs Moduli (GPa) = 131.95159 204.54112 49.94078
#
# Poissons Ratio (x) = 0.59263 0.05880
# Poissons Ratio (y) = 0.38231 0.08609
# Poissons Ratio (z) = 0.15535 0.35261
#
# Static dielectric constant tensor:
#      x y z
#    x 1.870830 0.000000 0.026520 
#    y 0.000000 1.928000 0.000000 
#    z 0.026520 0.000000 2.128620 
# 
# From -- ./inp_files/28983.got.cif
#   From: 2010.05.17/outbox.cif.g08.bks.cpg/sg13_15_cif.got.tgz:28983.got - 2010.06.03 16:44:36.
