data_PCOD9227650
_publ_section_title
;
Structure prediction by ZEFSAII (Michael W. Deem and Ramdas Pophale) SiO2 
 PCOD9227650
Probable space group: P 2/C
;
_chemical_formula_sum "Si O2"
_cell_formula_units_Z 32
_cell_length_a 16.230357
_cell_length_b 9.253403
_cell_length_c 25.227480
_cell_angle_alpha 90.000000
_cell_angle_beta 24.473747
_cell_angle_gamma 90.000000
_cell_volume 1569.616156
_symmetry_space_group_name_H-M "P 2/C"
_symmetry_group_IT_number 13
_symmetry_cell_setting 'monoclinic'
loop_
_space_group_symop_operation_xyz
x,y,z
-x,y,1/2-z
-x,-y,-z
x,-y,1/2+z
loop_
_atom_site_type_symbol
_atom_site_label
_atom_site_fract_x
_atom_site_fract_y
_atom_site_fract_z
Si Si1 0.646312 0.976882 0.210008
Si Si2 0.107758 0.332129 0.284146
Si Si3 0.995912 0.113996 0.067214
Si Si4 0.108268 0.605352 0.132142
Si Si5 0.492558 0.506034 0.569009
Si Si6 0.923566 0.130073 0.689559
Si Si7 0.281413 0.066529 0.113681
Si Si8 0.516188 0.812448 0.098699
O O1 0.500000 0.035560 0.250000
O O2 0.510002 0.875963 0.327482
O O3 0.778670 0.091825 0.166430
O O4 0.825151 0.883451 0.079100
O O5 0.006631 0.245643 0.390695
O O6 0.277343 0.435311 0.208171
O O7 0.220173 0.214877 0.180436
O O8 0.961044 0.442329 0.340727
O O9 0.024532 0.972849 0.087436
O O10 0.000000 0.642170 0.250000
O O11 0.036413 0.721320 0.131937
O O12 0.339897 0.613783 0.008552
O O13 0.500000 0.500000 0.500000
O O14 0.537054 0.355338 0.571876
O O15 0.701262 0.155518 0.798477
O O16 0.879856 0.045595 0.769933
O O17 0.310030 0.105531 0.035425
O O18 0.500000 0.000000 0.000000
#
# Coordination Sequence:
#
# PCOD9227650 Si02
#       8
#     4   4   4   4   4   4   4   4
#     4  10  22  41  67  89 124 167 220 265 315 368
#     4  11  22  41  64  94 129 167 208 258 317 387
#     4   9  22  44  66  92 123 167 214 271 318 364
#     4  12  23  36  60  95 131 174 202 248 318 388
#     4  12  22  38  63  89 136 167 206 251 317 387
#     4   9  19  38  59  93 127 157 206 256 316 376
#     4   9  18  34  63  90 126 160 203 250 316 379
#     4  10  18  37  63  90 122 169 203 260 313 370
#
# _framework density 20.387150999999999
#
# number of rings (size 3 to 8) (size 9 to 14) (size 15 to 20)
#    0.000    1.750    3.750    0.750    3.500    1.000 
#    2.250    1.875    0.000    0.750    0.000    0.000 
#    0.000    0.000    0.000    0.000    0.000    0.000 
#
# Total GULP energy -178543.941883 kJ/mol
# GULP energy per Si atom -5579.498184 kJ/mol
# Density = 2.034075 g / cm^3
# Si number density = 20.387151 Si / 1000 Ang^3
#
#
#
# Elastic Constant Matrix: (Units=GPa)
#
#
# Indices 1 2 3 4 5 6 
#
# 1 78.5849 24.5443 17.9926 0.0000 -3.7042 0.0000
# 2 24.5443 75.9592 13.1060 0.0000 5.4895 0.0000
# 3 17.9926 13.1060 73.2391 0.0000 9.0286 0.0000
# 4 0.0000 0.0000 0.0000 13.1546 0.0000 1.6681
# 5 -3.7042 5.4895 9.0286 0.0000 40.1471 0.0000
# 6 0.0000 0.0000 0.0000 1.6681 0.0000 4.3571
#
#
#
# Elastic Compliance Matrix: (Units=1/GPa)
#
#
# Indices 1 2 3 4 5 6 
#
# 1 0.014990 -0.004486 -0.003215 0.000000 0.002719 0.000000
# 2 -0.004486 0.014998 -0.001314 0.000000 -0.002169 0.000000
# 3 -0.003215 -0.001314 0.015112 0.000000 -0.003516 0.000000
# 4 0.000000 0.000000 0.000000 0.079898 0.000000 -0.030589
# 5 0.002719 -0.002169 -0.003516 0.000000 0.026246 0.000000
# 6 0.000000 0.000000 0.000000 -0.030589 0.000000 0.241220
#
#
# Mechanical properties :
#
#
# Convention : Reuss Voigt Hill
#
# Bulk Modulus (GPa) = 36.94112 37.67434 37.30773
# Shear Modulus (GPa) = 11.91840 23.00778 17.46309
#
# Velocity S-wave (km/s) = 2.42048 3.36302 2.92990
# Velocity P-wave (km/s) = 5.09615 5.79651 5.45758
#
# Compressibility (1/GPa) = 0.02707011
#
# Stress axis : x y z
#
# Youngs Moduli (GPa) = 66.70931 66.67593 66.17085
#
# Poissons Ratio (x) = 0.29908 0.21276
# Poissons Ratio (y) = 0.29923 0.08698
# Poissons Ratio (z) = 0.21449 0.08765
#
# Static dielectric constant tensor:
#      x y z
#    x 1.745670 0.000000 0.021640 
#    y 0.000000 1.762460 0.000000 
#    z 0.021640 0.000000 1.717030 
# 
# From -- ./inp_files/87413.got.cif
#   From: 2010.05.17/outbox.cif.g08.bks.cpg/sg13_44_cif.got.tgz:87413.got - 2010.06.03 16:44:36.
