data_PCOD9227374
_publ_section_title
;
Structure prediction by ZEFSAII (Michael W. Deem and Ramdas Pophale) SiO2 
 PCOD9227374
Probable space group: P 2/C
;
_chemical_formula_sum "Si O2"
_cell_formula_units_Z 28
_cell_length_a 10.816860
_cell_length_b 14.043142
_cell_length_c 13.335057
_cell_angle_alpha 90.000000
_cell_angle_beta 133.491377
_cell_angle_gamma 90.000000
_cell_volume 1469.550773
_symmetry_space_group_name_H-M "P 2/C"
_symmetry_group_IT_number 13
_symmetry_cell_setting 'monoclinic'
loop_
_space_group_symop_operation_xyz
x,y,z
-x,y,1/2-z
-x,-y,-z
x,-y,1/2+z
loop_
_atom_site_type_symbol
_atom_site_label
_atom_site_fract_x
_atom_site_fract_y
_atom_site_fract_z
Si Si1 0.004460 0.295158 0.369035
Si Si2 0.101380 0.964255 0.209355
Si Si3 0.175858 0.446734 0.117432
Si Si4 0.310495 0.354545 0.677236
Si Si5 0.150153 0.123621 0.095691
Si Si6 0.806674 0.244103 0.688563
Si Si7 0.660776 0.710447 0.905149
O O1 0.180956 0.335006 0.512747
O O2 0.000000 0.275580 0.250000
O O3 0.858442 0.374256 0.310707
O O4 0.963659 0.199752 0.407673
O O5 0.201657 0.869317 0.296817
O O6 0.000000 0.001846 0.250000
O O7 0.205090 0.044486 0.207141
O O8 0.959535 0.926517 0.051867
O O9 0.308422 0.532404 0.201577
O O10 0.208493 0.374831 0.044430
O O11 0.000000 0.500000 0.000000
O O12 0.500000 0.325001 0.750000
O O13 0.233288 0.299308 0.730783
O O14 0.285889 0.189767 0.115925
O O15 0.668666 0.273770 0.527745
O O16 0.000000 0.259794 0.750000
O O17 0.500000 0.678775 0.750000
#
# Coordination Sequence:
#
# PCOD9227374 Si02
#       7
#     4   4   4   4   4   4   4
#     4  10  20  36  57  84 117 157 200 245 301 357
#     4  10  18  34  64  88 107 151 215 249 286 357
#     4   9  20  38  59  85 117 161 209 248 294 370
#     4  11  23  38  57  90 124 155 199 256 309 358
#     4  10  19  35  59  87 116 150 205 257 289 361
#     4  11  20  41  65  86 114 168 218 241 289 385
#     4  11  22  38  60  89 124 157 198 259 317 362
#
# _framework density 19.053442
#
# number of rings (size 3 to 8) (size 9 to 14) (size 15 to 20)
#    0.000    1.714    4.286    2.571    0.000    5.143 
#    0.000    3.571    0.000    0.000    0.000    0.000 
#    0.000    0.000    0.000    0.000    0.000    0.000 
#
# Total GULP energy -155963.593212 kJ/mol
# GULP energy per Si atom -5570.128329 kJ/mol
# Density = 1.901008 g / cm^3
# Si number density = 19.053442 Si / 1000 Ang^3
#
#
#
# Elastic Constant Matrix: (Units=GPa)
#
#
# Indices 1 2 3 4 5 6 
#
# 1 66.1035 24.1197 31.6716 0.0000 -14.4998 0.0000
# 2 24.1197 79.0623 14.2580 0.0000 -7.2469 0.0000
# 3 31.6716 14.2580 96.5063 0.0000 -19.9850 0.0000
# 4 0.0000 0.0000 0.0000 13.7004 0.0000 0.6644
# 5 -14.4998 -7.2469 -19.9850 0.0000 30.7074 0.0000
# 6 0.0000 0.0000 0.0000 0.6644 0.0000 5.9762
#
#
#
# Elastic Compliance Matrix: (Units=1/GPa)
#
#
# Indices 1 2 3 4 5 6 
#
# 1 0.020403 -0.004858 -0.004878 0.000000 0.005313 0.000000
# 2 -0.004858 0.014269 -0.000337 0.000000 0.000854 0.000000
# 3 -0.004878 -0.000337 0.013314 0.000000 0.006282 0.000000
# 4 0.000000 0.000000 0.000000 0.073386 0.000000 -0.008158
# 5 0.005313 0.000854 0.006282 0.000000 0.039364 0.000000
# 6 0.000000 0.000000 0.000000 -0.008158 0.000000 0.168238
#
#
# Mechanical properties :
#
#
# Convention : Reuss Voigt Hill
#
# Bulk Modulus (GPa) = 35.91899 42.41898 39.16898
# Shear Modulus (GPa) = 13.95090 21.51830 17.73460
#
# Velocity S-wave (km/s) = 2.70885 3.36425 3.05418
# Velocity P-wave (km/s) = 5.35504 6.11575 5.74799
#
# Compressibility (1/GPa) = 0.02784042
#
# Stress axis : x y z
#
# Youngs Moduli (GPa) = 49.01297 70.08060 75.11151
#
# Poissons Ratio (x) = 0.34043 0.36639
# Poissons Ratio (y) = 0.23809 0.02531
# Poissons Ratio (z) = 0.23908 0.02362
#
# Static dielectric constant tensor:
#      x y z
#    x 1.716440 0.000000 -0.001970 
#    y 0.000000 1.695240 0.000000 
#    z -0.001970 0.000000 1.715090 
# 
# From -- ./inp_files/30482.got.cif
#   From: 2010.05.17/outbox.cif.g08.bks.cpg/sg13_16_cif.got.tgz:30482.got - 2010.06.03 16:44:36.
