data_PCOD9227869
_publ_section_title
;
Structure prediction by ZEFSAII (Michael W. Deem and Ramdas Pophale) SiO2 
 PCOD9227869
Probable space group: P 2/C
;
_chemical_formula_sum "Si O2"
_cell_formula_units_Z 16
_cell_length_a 6.587204
_cell_length_b 19.253419
_cell_length_c 7.746920
_cell_angle_alpha 90.000000
_cell_angle_beta 138.233677
_cell_angle_gamma 90.000000
_cell_volume 654.445805
_symmetry_space_group_name_H-M "P 2/C"
_symmetry_group_IT_number 13
_symmetry_cell_setting 'monoclinic'
loop_
_space_group_symop_operation_xyz
x,y,z
-x,y,1/2-z
-x,-y,-z
x,-y,1/2+z
loop_
_atom_site_type_symbol
_atom_site_label
_atom_site_fract_x
_atom_site_fract_y
_atom_site_fract_z
Si Si1 0.850102 0.863935 0.349078
Si Si2 0.133754 0.722927 0.528887
Si Si3 0.862829 0.572350 0.974363
Si Si4 0.643497 0.927601 0.653217
O O1 0.000000 0.871006 0.250000
O O2 0.965636 0.790375 0.495700
O O3 0.001201 0.921976 0.570005
O O4 0.498816 0.872599 0.072344
O O5 0.500000 0.732803 0.750000
O O6 0.072470 0.647159 0.573738
O O7 0.000000 0.720310 0.250000
O O8 0.500000 0.565530 0.750000
O O9 0.000000 0.579979 0.250000
O O10 0.000000 0.500000 0.000000
O O11 0.500000 0.912693 0.750000
O O12 0.500000 0.000000 0.500000
#
# Coordination Sequence:
#
# PCOD9227869 Si02
#       4
#     4   4   4   4
#     4   9  16  28  46  68  91 118 159 203 239 281
#     4   9  16  28  48  73  97 124 165 212 249 287
#     4  10  20  34  54  80 109 140 174 216 263 312
#     4  10  19  30  46  67  91 120 153 195 243 292
#
# _framework density 24.448164999999999
#
# number of rings (size 3 to 8) (size 9 to 14) (size 15 to 20)
#    0.000    2.500    0.000    5.250    0.000    0.000 
#    0.000    0.000    0.000    4.500    0.000    0.000 
#    0.000    0.000    0.000    0.000    0.000    0.000 
#
# Total GULP energy -89282.122361 kJ/mol
# GULP energy per Si atom -5580.132648 kJ/mol
# Density = 2.439252 g / cm^3
# Si number density = 24.448165 Si / 1000 Ang^3
#
#
#
# Elastic Constant Matrix: (Units=GPa)
#
#
# Indices 1 2 3 4 5 6 
#
# 1 38.4938 16.0004 44.9041 0.0000 13.1256 0.0000
# 2 16.0004 225.2158 75.8421 0.0000 12.8320 0.0000
# 3 44.9041 75.8421 214.8145 0.0000 28.8035 0.0000
# 4 0.0000 0.0000 0.0000 43.5614 0.0000 8.8682
# 5 13.1256 12.8320 28.8035 0.0000 47.1093 0.0000
# 6 0.0000 0.0000 0.0000 8.8682 0.0000 33.0656
#
#
#
# Elastic Compliance Matrix: (Units=1/GPa)
#
#
# Indices 1 2 3 4 5 6 
#
# 1 0.035791 0.000052 -0.006711 0.000000 -0.005883 0.000000
# 2 0.000052 0.005044 -0.001749 0.000000 -0.000319 0.000000
# 3 -0.006711 -0.001749 0.006929 0.000000 -0.001890 0.000000
# 4 0.000000 0.000000 0.000000 0.024282 0.000000 -0.006512
# 5 -0.005883 -0.000319 -0.001890 0.000000 0.024109 0.000000
# 6 0.000000 0.000000 0.000000 -0.006512 0.000000 0.031990
#
#
# Mechanical properties :
#
#
# Convention : Reuss Voigt Hill
#
# Bulk Modulus (GPa) = 32.31184 83.55747 57.93465
# Shear Modulus (GPa) = 32.20071 47.53245 39.86658
#
# Velocity S-wave (km/s) = 3.63313 4.41411 4.04252
# Velocity P-wave (km/s) = 5.55379 7.76085 6.74816
#
# Compressibility (1/GPa) = 0.03094841
#
# Stress axis : x y z
#
# Youngs Moduli (GPa) = 27.93969 198.27216 144.32078
#
# Poissons Ratio (x) = -0.01041 0.96860
# Poissons Ratio (y) = -0.00147 0.25240
# Poissons Ratio (z) = 0.18751 0.34675
#
# Static dielectric constant tensor:
#      x y z
#    x 2.141290 0.000000 -0.013090 
#    y 0.000000 2.089560 0.000000 
#    z -0.013090 0.000000 1.927170 
# 
# From -- ./inp_files/9318.got.cif
#   From: 2010.05.17/outbox.cif.g08.bks.cpg/sg13_5_cif.got.tgz:9318.got - 2010.06.03 16:44:36.
