data_PCOD9227384
_publ_section_title
;
Structure prediction by ZEFSAII (Michael W. Deem and Ramdas Pophale) SiO2 
 PCOD9227384
Probable space group: P 2/C
;
_chemical_formula_sum "Si O2"
_cell_formula_units_Z 28
_cell_length_a 14.684109
_cell_length_b 8.619770
_cell_length_c 22.000600
_cell_angle_alpha 90.000000
_cell_angle_beta 151.468877
_cell_angle_gamma 90.000000
_cell_volume 1330.071267
_symmetry_space_group_name_H-M "P 2/C"
_symmetry_group_IT_number 13
_symmetry_cell_setting 'monoclinic'
loop_
_space_group_symop_operation_xyz
x,y,z
-x,y,1/2-z
-x,-y,-z
x,-y,1/2+z
loop_
_atom_site_type_symbol
_atom_site_label
_atom_site_fract_x
_atom_site_fract_y
_atom_site_fract_z
Si Si1 0.113945 0.882351 0.988586
Si Si2 0.339140 0.639521 0.063453
Si Si3 0.000000 0.196940 0.750000
Si Si4 0.141341 0.902297 0.780414
Si Si5 0.006295 0.424326 0.650908
Si Si6 0.098839 0.765851 0.520295
Si Si7 0.669192 0.385564 0.085993
Si Si8 0.500000 0.581314 0.750000
O O1 0.971042 0.897245 0.847941
O O2 0.014184 0.780379 0.982680
O O3 0.306822 0.804274 0.076256
O O4 0.142480 0.056590 0.028155
O O5 0.490952 0.531810 0.186035
O O6 0.346066 0.641943 0.995200
O O7 0.140273 0.551280 0.957942
O O8 0.080500 0.304288 0.850456
O O9 0.844822 0.079422 0.688297
O O10 0.319942 0.789042 0.881559
O O11 0.000000 0.831415 0.750000
O O12 0.159625 0.520331 0.780131
O O13 0.038132 0.317326 0.610288
O O14 0.304223 0.679472 0.640660
O O15 0.500000 0.500000 0.000000
#
# Coordination Sequence:
#
# PCOD9227384 Si02
#       8
#     4   4   2   4   4   4   4   2
#     4  11  21  40  70  90 123 180 225 260 329 416
#     4  11  22  40  64  89 128 172 215 263 326 398
#     4  10  18  34  72  84 118 166 222 258 316 394
#     4  10  19  38  65  91 121 166 218 260 321 393
#     4  11  20  40  64  90 122 170 217 265 326 401
#     4  10  24  42  66  94 127 174 221 278 333 400
#     4  12  24  37  62  99 132 160 215 278 333 382
#     4  10  26  40  58  96 134 164 214 274 334 382
#
# _framework density 21.051503
#
# number of rings (size 3 to 8) (size 9 to 14) (size 15 to 20)
#    0.429    0.857    5.714    0.000    2.000    4.000 
#    0.000    2.143    0.000    0.000    0.000    0.000 
#    0.000    0.000    0.000    0.000    0.000    0.000 
#
# Total GULP energy -155966.535947 kJ/mol
# GULP energy per Si atom -5570.233427 kJ/mol
# Density = 2.100359 g / cm^3
# Si number density = 21.051503 Si / 1000 Ang^3
#
#
#
# Elastic Constant Matrix: (Units=GPa)
#
#
# Indices 1 2 3 4 5 6 
#
# 1 69.8080 18.9912 22.1128 0.0000 -32.7691 0.0000
# 2 18.9912 87.1736 23.1677 0.0000 -9.7874 0.0000
# 3 22.1128 23.1677 76.3777 0.0000 -25.6675 0.0000
# 4 0.0000 0.0000 0.0000 20.8565 0.0000 -11.3290
# 5 -32.7691 -9.7874 -25.6675 0.0000 31.3427 0.0000
# 6 0.0000 0.0000 0.0000 -11.3290 0.0000 26.1469
#
#
#
# Elastic Compliance Matrix: (Units=1/GPa)
#
#
# Indices 1 2 3 4 5 6 
#
# 1 0.029515 -0.003710 0.003533 0.000000 0.032593 0.000000
# 2 -0.003710 0.012971 -0.003867 0.000000 -0.002995 0.000000
# 3 0.003533 -0.003867 0.019424 0.000000 0.018394 0.000000
# 4 0.000000 0.000000 0.000000 0.062704 0.000000 0.027169
# 5 0.032593 -0.002995 0.018394 0.000000 0.080110 0.000000
# 6 0.000000 0.000000 0.000000 0.027169 0.000000 0.050017
#
#
# Mechanical properties :
#
#
# Convention : Reuss Voigt Hill
#
# Bulk Modulus (GPa) = 18.57919 40.21142 29.39531
# Shear Modulus (GPa) = 17.80825 26.94172 22.37498
#
# Velocity S-wave (km/s) = 2.91165 3.58131 3.26370
# Velocity P-wave (km/s) = 4.48870 6.02030 5.31001
#
# Compressibility (1/GPa) = 0.05382365
#
# Stress axis : x y z
#
# Youngs Moduli (GPa) = 33.88143 77.09525 51.48222
#
# Poissons Ratio (x) = 0.28599 -0.18191
# Poissons Ratio (y) = 0.12569 0.19908
# Poissons Ratio (z) = -0.11972 0.29812
#
# Static dielectric constant tensor:
#      x y z
#    x 1.802120 0.000000 0.003710 
#    y 0.000000 1.804930 0.000000 
#    z 0.003710 0.000000 1.778240 
# 
# From -- ./inp_files/80050.got.cif
#   From: 2010.05.17/outbox.cif.g08.bks.cpg/sg13_41_cif.got.tgz:80050.got - 2010.06.03 16:44:36.
