data_PCOD9227820
_publ_section_title
;
Structure prediction by ZEFSAII (Michael W. Deem and Ramdas Pophale) SiO2 
 PCOD9227820
Probable space group: P 2/C
;
_chemical_formula_sum "Si O2"
_cell_formula_units_Z 16
_cell_length_a 22.075774
_cell_length_b 4.870402
_cell_length_c 8.904952
_cell_angle_alpha 90.000000
_cell_angle_beta 144.831817
_cell_angle_gamma 90.000000
_cell_volume 551.465784
_symmetry_space_group_name_H-M "P 2/C"
_symmetry_group_IT_number 13
_symmetry_cell_setting 'monoclinic'
loop_
_space_group_symop_operation_xyz
x,y,z
-x,y,1/2-z
-x,-y,-z
x,-y,1/2+z
loop_
_atom_site_type_symbol
_atom_site_label
_atom_site_fract_x
_atom_site_fract_y
_atom_site_fract_z
Si Si1 0.177149 0.552403 0.417968
Si Si2 0.177846 0.121637 0.183173
Si Si3 0.000000 0.745065 0.750000
Si Si4 0.365802 0.800436 0.245237
Si Si5 0.500000 0.838007 0.250000
O O1 0.167105 0.427236 0.230668
O O2 0.183383 0.841506 0.516211
O O3 0.074540 0.420503 0.288753
O O4 0.291963 0.416370 0.681569
O O5 0.283984 0.017841 0.476416
O O6 0.076299 0.940110 0.003342
O O7 0.435417 0.676421 0.248611
O O8 0.430105 0.970402 0.497644
#
# Coordination Sequence:
#
# PCOD9227820 Si02
#       5
#     4   4   2   4   2
#     4  10  24  43  62  99 136 170 215 269 320 390
#     4  10  24  43  62  99 136 170 215 269 320 390
#     4  12  22  40  72  94 126 188 216 266 318 384
#     4   9  22  41  68  97 130 168 207 289 311 391
#     4  10  18  46  74 100 120 164 238 258 338 384
#
# _framework density 29.013586
#
# number of rings (size 3 to 8) (size 9 to 14) (size 15 to 20)
#    1.500    0.500    0.000    3.000    0.000    6.000 
#    9.000    3.750    0.000    0.000    0.000    0.000 
#    0.000    0.000    0.000    0.000    0.000    0.000 
#
# Total GULP energy -89367.364709 kJ/mol
# GULP energy per Si atom -5585.460294 kJ/mol
# Density = 2.894755 g / cm^3
# Si number density = 29.013586 Si / 1000 Ang^3
#
#
#
# Elastic Constant Matrix: (Units=GPa)
#
#
# Indices 1 2 3 4 5 6 
#
# 1 223.3845 16.2502 26.5540 0.0000 -2.9385 0.0000
# 2 16.2502 56.3872 25.7507 0.0000 -2.9173 0.0000
# 3 26.5540 25.7507 195.1491 0.0000 -17.5875 0.0000
# 4 0.0000 0.0000 0.0000 29.1530 0.0000 -4.9042
# 5 -2.9385 -2.9173 -17.5875 0.0000 49.7775 0.0000
# 6 0.0000 0.0000 0.0000 -4.9042 0.0000 14.2518
#
#
#
# Elastic Compliance Matrix: (Units=1/GPa)
#
#
# Indices 1 2 3 4 5 6 
#
# 1 0.004615 -0.001110 -0.000478 0.000000 0.000038 0.000000
# 2 -0.001110 0.019141 -0.002355 0.000000 0.000224 0.000000
# 3 -0.000478 -0.002355 0.005665 0.000000 0.001836 0.000000
# 4 0.000000 0.000000 0.000000 0.036409 0.000000 0.012529
# 5 0.000038 0.000224 0.001836 0.000000 0.020753 0.000000
# 6 0.000000 0.000000 0.000000 0.012529 0.000000 0.074478
#
#
# Mechanical properties :
#
#
# Convention : Reuss Voigt Hill
#
# Bulk Modulus (GPa) = 46.43195 68.00341 57.21768
# Shear Modulus (GPa) = 28.38893 45.72753 37.05823
#
# Velocity S-wave (km/s) = 3.13144 3.97429 3.57777
# Velocity P-wave (km/s) = 5.39563 6.67452 6.06886
#
# Compressibility (1/GPa) = 0.02153690
#
# Stress axis : x y z
#
# Youngs Moduli (GPa) = 216.70184 52.24344 176.50857
#
# Poissons Ratio (x) = 0.05797 0.08438
# Poissons Ratio (y) = 0.24045 0.41560
# Poissons Ratio (z) = 0.10359 0.12301
#
# Static dielectric constant tensor:
#      x y z
#    x 2.230120 0.000000 0.061180 
#    y 0.000000 2.311070 0.000000 
#    z 0.061180 0.000000 2.438230 
# 
# From -- ./inp_files/17450.got.cif
#   From: 2010.05.17/outbox.cif.g08.bks.cpg/sg13_9_cif.got.tgz:17450.got - 2010.06.03 16:44:36.
