data_PCOD9227295
_publ_section_title
;
Structure prediction by ZEFSAII (Michael W. Deem and Ramdas Pophale) SiO2 
 PCOD9227295
Probable space group: P 2/C
;
_chemical_formula_sum "Si O2"
_cell_formula_units_Z 26
_cell_length_a 9.223148
_cell_length_b 14.380505
_cell_length_c 13.629602
_cell_angle_alpha 90.000000
_cell_angle_beta 142.156688
_cell_angle_gamma 90.000000
_cell_volume 1109.057388
_symmetry_space_group_name_H-M "P 2/C"
_symmetry_group_IT_number 13
_symmetry_cell_setting 'monoclinic'
loop_
_space_group_symop_operation_xyz
x,y,z
-x,y,1/2-z
-x,-y,-z
x,-y,1/2+z
loop_
_atom_site_type_symbol
_atom_site_label
_atom_site_fract_x
_atom_site_fract_y
_atom_site_fract_z
Si Si1 0.500000 0.520517 0.250000
Si Si2 0.853999 0.204697 0.370417
Si Si3 0.817246 0.029758 0.233722
Si Si4 0.440064 0.855499 0.399463
Si Si5 0.308595 0.245160 0.012502
Si Si6 0.729047 0.681811 0.498516
Si Si7 0.438403 0.586933 0.900695
O O1 0.659719 0.592080 0.397625
O O2 0.638051 0.454697 0.245617
O O3 0.915009 0.101987 0.365014
O O4 0.580584 0.224752 0.194347
O O5 0.861207 0.216678 0.490894
O O6 0.030431 0.275250 0.412822
O O7 0.000000 0.995527 0.250000
O O8 0.691110 0.942895 0.218039
O O9 0.642778 0.092596 0.072450
O O10 0.277255 0.808682 0.395252
O O11 0.546740 0.769768 0.395956
O O12 0.326228 0.354005 0.998824
O O13 0.713310 0.649403 0.604056
O O14 0.500000 0.500000 0.000000
#
# Coordination Sequence:
#
# PCOD9227295 Si02
#       7
#     2   4   4   4   4   4   4
#     4  10  20  38  60  92 122 152 196 252 296 358
#     4  10  19  35  60  85 114 156 197 243 295 361
#     4  10  18  34  58  83 113 151 205 242 288 357
#     4   9  19  35  57  82 114 158 196 244 298 348
#     4   9  19  36  58  82 118 154 195 244 300 354
#     4  10  20  38  62  86 122 159 200 241 307 356
#     4   9  19  37  61  85 120 158 192 246 302 356
#
# _framework density 23.443332000000002
#
# number of rings (size 3 to 8) (size 9 to 14) (size 15 to 20)
#    0.000    2.462    1.538    0.923    0.000    0.000 
#    2.769   13.846    0.000    0.000    0.000    0.000 
#    0.000    0.000    0.000    0.000    0.000    0.000 
#
# Total GULP energy -145049.860858 kJ/mol
# GULP energy per Si atom -5578.840802 kJ/mol
# Density = 2.338997 g / cm^3
# Si number density = 23.443332 Si / 1000 Ang^3
#
#
#
# Elastic Constant Matrix: (Units=GPa)
#
#
# Indices 1 2 3 4 5 6 
#
# 1 156.1614 49.8427 36.5406 0.0000 -8.1284 0.0000
# 2 49.8427 129.9516 22.5702 0.0000 -3.2531 0.0000
# 3 36.5406 22.5702 34.4751 0.0000 -9.9963 0.0000
# 4 0.0000 0.0000 0.0000 30.1772 0.0000 -6.6773
# 5 -8.1284 -3.2531 -9.9963 0.0000 27.8652 0.0000
# 6 0.0000 0.0000 0.0000 -6.6773 0.0000 -31.5813
#
#
#
# Elastic Compliance Matrix: (Units=1/GPa)
#
#
# Indices 1 2 3 4 5 6 
#
# 1 0.008970 -0.002001 -0.008378 0.000000 -0.000623 0.000000
# 2 -0.002001 0.009162 -0.004170 0.000000 -0.001010 0.000000
# 3 -0.008378 -0.004170 0.044384 0.000000 0.012991 0.000000
# 4 0.000000 0.000000 0.000000 0.031657 0.000000 -0.006693
# 5 -0.000623 -0.001010 0.012991 0.000000 0.040248 0.000000
# 6 0.000000 0.000000 0.000000 -0.006693 0.000000 -0.030249
#
#
# Mechanical properties :
#
#
# Convention : Reuss Voigt Hill
#
# Bulk Modulus (GPa) = 29.92480 59.83279 44.87880
# Shear Modulus (GPa) = 34.62401 19.40118 27.01259
#
# Velocity S-wave (km/s) = 3.84725 2.87989 3.39816
# Velocity P-wave (km/s) = 5.70329 6.05277 5.88063
#
# Compressibility (1/GPa) = 0.03341710
#
# Stress axis : x y z
#
# Youngs Moduli (GPa) = 111.47839 109.15119 22.53087
#
# Poissons Ratio (x) = 0.21841 0.18877
# Poissons Ratio (y) = 0.22307 0.09395
# Poissons Ratio (z) = 0.93400 0.45515
#
# Static dielectric constant tensor:
#      x y z
#    x 1.872570 0.000000 0.011020 
#    y 0.000000 1.932890 0.000000 
#    z 0.011020 0.000000 1.965770 
# 
# From -- ./inp_files/47950.got.cif
#   From: 2010.05.17/outbox.cif.g08.bks.cpg/sg13_24_cif.got.tgz:47950.got - 2010.06.03 16:44:36.
