data_PCOD9227961
_publ_section_title
;
Structure prediction by ZEFSAII (Michael W. Deem and Ramdas Pophale) SiO2 
 PCOD9227961
Probable space group: P 2/C
;
_chemical_formula_sum "Si O2"
_cell_formula_units_Z 16
_cell_length_a 5.237057
_cell_length_b 10.261402
_cell_length_c 19.718771
_cell_angle_alpha 90.000000
_cell_angle_beta 58.913123
_cell_angle_gamma 90.000000
_cell_volume 907.492584
_symmetry_space_group_name_H-M "P 2/C"
_symmetry_group_IT_number 13
_symmetry_cell_setting 'monoclinic'
loop_
_space_group_symop_operation_xyz
x,y,z
-x,y,1/2-z
-x,-y,-z
x,-y,1/2+z
loop_
_atom_site_type_symbol
_atom_site_label
_atom_site_fract_x
_atom_site_fract_y
_atom_site_fract_z
Si Si1 0.817118 0.057490 0.123345
Si Si2 0.860313 0.204148 0.546336
Si Si3 0.449327 0.346893 0.500744
Si Si4 0.768112 0.199824 0.333141
O O1 0.501710 0.130622 0.169173
O O2 0.036465 0.090478 0.154767
O O3 0.780482 0.904964 0.112693
O O4 0.977059 0.123887 0.036306
O O5 0.585929 0.274897 0.547715
O O6 0.105635 0.306068 0.539026
O O7 0.500000 0.500000 0.500000
O O8 0.627387 0.291949 0.410329
O O9 0.000000 0.266828 0.250000
#
# Coordination Sequence:
#
# PCOD9227961 Si02
#       4
#     4   4   4   4
#     4   9  17  30  49  72  94 119 153 199 252 287
#     4   9  17  30  49  72  95 119 155 203 242 278
#     4  10  19  31  49  73  99 130 167 198 233 286
#     4  10  19  31  49  71  96 126 161 204 248 293
#
# _framework density 17.630996
#
# number of rings (size 3 to 8) (size 9 to 14) (size 15 to 20)
#    0.000    2.500    0.000    3.000    0.000    6.000 
#    0.000    0.000    0.000    9.000    0.000    0.000 
#    0.000    0.000    0.000    0.000    0.000    0.000 
#
# Total GULP energy -89168.738986 kJ/mol
# GULP energy per Si atom -5573.046187 kJ/mol
# Density = 1.759087 g / cm^3
# Si number density = 17.630996 Si / 1000 Ang^3
#
#
#
# Elastic Constant Matrix: (Units=GPa)
#
#
# Indices 1 2 3 4 5 6 
#
# 1 88.4932 -0.3788 0.6025 0.0000 12.0085 0.0000
# 2 -0.3788 66.9341 0.6581 0.0000 15.6464 0.0000
# 3 0.6025 0.6581 37.6819 0.0000 -1.6614 0.0000
# 4 0.0000 0.0000 0.0000 7.1647 0.0000 1.6465
# 5 12.0085 15.6464 -1.6614 0.0000 16.6949 0.0000
# 6 0.0000 0.0000 0.0000 1.6465 0.0000 20.2728
#
#
#
# Elastic Compliance Matrix: (Units=1/GPa)
#
#
# Indices 1 2 3 4 5 6 
#
# 1 0.012966 0.002919 -0.000794 0.000000 -0.012141 0.000000
# 2 0.002919 0.019837 -0.001311 0.000000 -0.020821 0.000000
# 3 -0.000794 -0.001311 0.026770 0.000000 0.004464 0.000000
# 4 0.000000 0.000000 0.000000 0.142228 0.000000 -0.011551
# 5 -0.012141 -0.020821 0.004464 0.000000 0.088589 0.000000
# 6 0.000000 0.000000 0.000000 -0.011551 0.000000 0.050265
#
#
# Mechanical properties :
#
#
# Convention : Reuss Voigt Hill
#
# Bulk Modulus (GPa) = 16.33934 21.65250 18.99592
# Shear Modulus (GPa) = 13.91104 21.64164 17.77634
#
# Velocity S-wave (km/s) = 2.81198 3.50734 3.17873
# Velocity P-wave (km/s) = 4.45314 5.35812 4.92646
#
# Compressibility (1/GPa) = 0.06120196
#
# Stress axis : x y z
#
# Youngs Moduli (GPa) = 77.12622 50.41185 37.35476
#
# Poissons Ratio (x) = -0.14717 0.02964
# Poissons Ratio (y) = -0.22515 0.04898
# Poissons Ratio (z) = 0.06121 0.06609
#
# Static dielectric constant tensor:
#      x y z
#    x 1.601690 0.000000 0.005220 
#    y 0.000000 1.568200 0.000000 
#    z 0.005220 0.000000 1.639070 
# 
# From -- ./inp_files/60197.got.cif
#   From: 2010.05.17/outbox.cif.g08.bks.cpg/sg13_31_cif.got.tgz:60197.got - 2010.06.03 16:44:36.
