data_PCOD9227587
_publ_section_title
;
Structure prediction by ZEFSAII (Michael W. Deem and Ramdas Pophale) SiO2 
 PCOD9227587
Probable space group: P 2/C
;
_chemical_formula_sum "Si O2"
_cell_formula_units_Z 24
_cell_length_a 8.386456
_cell_length_b 9.311956
_cell_length_c 20.863378
_cell_angle_alpha 90.000000
_cell_angle_beta 139.982726
_cell_angle_gamma 90.000000
_cell_volume 1047.677231
_symmetry_space_group_name_H-M "P 2/C"
_symmetry_group_IT_number 13
_symmetry_cell_setting 'monoclinic'
loop_
_space_group_symop_operation_xyz
x,y,z
-x,y,1/2-z
-x,-y,-z
x,-y,1/2+z
loop_
_atom_site_type_symbol
_atom_site_label
_atom_site_fract_x
_atom_site_fract_y
_atom_site_fract_z
Si Si1 0.799622 0.954673 0.491198
Si Si2 0.716718 0.274738 0.059718
Si Si3 0.938095 0.543829 0.300233
Si Si4 0.215254 0.257029 0.963433
Si Si5 0.742999 0.951716 0.683751
Si Si6 0.451564 0.310424 0.310155
O O1 0.824134 0.086316 0.549226
O O2 0.508508 0.962025 0.382187
O O3 0.822610 0.797713 0.528411
O O4 0.000000 0.000000 0.500000
O O5 0.871037 0.412625 0.127028
O O6 0.724302 0.148093 0.114866
O O7 0.422640 0.304759 0.974913
O O8 0.973466 0.656205 0.368363
O O9 0.000000 0.606681 0.250000
O O10 0.677613 0.461932 0.215911
O O11 0.328064 0.290581 0.069332
O O12 0.732175 0.825046 0.733315
O O13 0.000000 0.031658 0.750000
O O14 0.500000 0.305399 0.250000
#
# Coordination Sequence:
#
# PCOD9227587 Si02
#       6
#     4   4   4   4   4   4
#     4  10  23  41  63  95 135 173 220 277 347 393
#     4  10  19  39  64  89 126 171 222 267 327 400
#     4  12  21  40  68  95 128 171 229 273 329 398
#     4  10  23  40  66  97 129 179 220 278 334 388
#     4  10  18  36  63  91 120 172 228 265 321 395
#     4  10  21  37  60  97 130 171 217 267 331 410
#
# _framework density 22.907819
#
# number of rings (size 3 to 8) (size 9 to 14) (size 15 to 20)
#    0.000    2.000    5.000    2.500    4.667    0.667 
#    0.000    4.167    0.000    0.000    0.000    0.000 
#    0.000    0.000    0.000    0.000    0.000    0.000 
#
# Total GULP energy -133817.087096 kJ/mol
# GULP energy per Si atom -5575.711962 kJ/mol
# Density = 2.285568 g / cm^3
# Si number density = 22.907819 Si / 1000 Ang^3
#
#
#
# Elastic Constant Matrix: (Units=GPa)
#
#
# Indices 1 2 3 4 5 6 
#
# 1 108.1533 3.3816 31.3910 0.0000 -12.3537 0.0000
# 2 3.3816 63.2134 33.0565 0.0000 -9.5393 0.0000
# 3 31.3910 33.0565 77.4774 0.0000 -9.3496 0.0000
# 4 0.0000 0.0000 0.0000 29.6966 0.0000 -3.9817
# 5 -12.3537 -9.5393 -9.3496 0.0000 30.5816 0.0000
# 6 0.0000 0.0000 0.0000 -3.9817 0.0000 15.6549
#
#
#
# Elastic Compliance Matrix: (Units=1/GPa)
#
#
# Indices 1 2 3 4 5 6 
#
# 1 0.011095 0.002684 -0.005190 0.000000 0.003732 0.000000
# 2 0.002684 0.021455 -0.009659 0.000000 0.004823 0.000000
# 3 -0.005190 -0.009659 0.019224 0.000000 0.000768 0.000000
# 4 0.000000 0.000000 0.000000 0.034863 0.000000 0.008867
# 5 0.003732 0.004823 0.000768 0.000000 0.035946 0.000000
# 6 0.000000 0.000000 0.000000 0.008867 0.000000 0.066133
#
#
# Mechanical properties :
#
#
# Convention : Reuss Voigt Hill
#
# Bulk Modulus (GPa) = 36.43971 42.72247 39.58109
# Shear Modulus (GPa) = 22.50288 27.25429 24.87859
#
# Velocity S-wave (km/s) = 3.13760 3.45300 3.29907
# Velocity P-wave (km/s) = 5.39145 5.88114 5.64161
#
# Compressibility (1/GPa) = 0.02744259
#
# Stress axis : x y z
#
# Youngs Moduli (GPa) = 90.13167 46.60935 52.01942
#
# Poissons Ratio (x) = -0.12508 0.26997
# Poissons Ratio (y) = -0.24188 0.50247
# Poissons Ratio (z) = 0.46777 0.45021
#
# Static dielectric constant tensor:
#      x y z
#    x 1.931140 0.000000 0.063020 
#    y 0.000000 1.856210 0.000000 
#    z 0.063020 0.000000 1.992990 
# 
# From -- ./inp_files/76311.got.cif
#   From: 2010.05.17/outbox.cif.g08.bks.cpg/sg13_39_cif.got.tgz:76311.got - 2010.06.03 16:44:36.
