data_PCOD9227856
_publ_section_title
;
Structure prediction by ZEFSAII (Michael W. Deem and Ramdas Pophale) SiO2 
 PCOD9227856
Probable space group: P 2/C
;
_chemical_formula_sum "Si O2"
_cell_formula_units_Z 28
_cell_length_a 14.778570
_cell_length_b 14.282295
_cell_length_c 9.202202
_cell_angle_alpha 90.000000
_cell_angle_beta 126.942381
_cell_angle_gamma 90.000000
_cell_volume 1552.385428
_symmetry_space_group_name_H-M "P 2/C"
_symmetry_group_IT_number 13
_symmetry_cell_setting 'monoclinic'
loop_
_space_group_symop_operation_xyz
x,y,z
-x,y,1/2-z
-x,-y,-z
x,-y,1/2+z
loop_
_atom_site_type_symbol
_atom_site_label
_atom_site_fract_x
_atom_site_fract_y
_atom_site_fract_z
Si Si1 0.852103 0.563690 0.740760
Si Si2 0.834547 0.249641 0.339357
Si Si3 0.882264 0.389678 0.946879
Si Si4 0.000000 0.808948 0.250000
Si Si5 0.375744 0.093267 0.959373
Si Si6 0.000000 0.165353 0.250000
Si Si7 0.851755 0.832015 0.362457
Si Si8 0.368277 0.106991 0.297848
O O1 0.790816 0.645484 0.770952
O O2 0.835473 0.458218 0.777685
O O3 0.829757 0.580638 0.550250
O O4 0.984544 0.587261 0.902914
O O5 0.913190 0.245829 0.559845
O O6 0.915469 0.220637 0.279975
O O7 0.730782 0.177715 0.251768
O O8 0.867298 0.280135 0.899848
O O9 0.079788 0.862836 0.214757
O O10 0.278587 0.150448 0.786023
O O11 0.363323 0.989396 0.882257
O O12 0.356191 0.089965 0.113466
O O13 0.500393 0.135943 0.053582
O O14 0.087941 0.117209 0.443862
#
# Coordination Sequence:
#
# PCOD9227856 Si02
#       8
#     4   4   4   2   4   2   4   4
#     4  10  19  29  48  77 112 148 182 218 267 325
#     4  11  19  37  55  80 117 148 182 228 273 332
#     4  10  19  29  48  77 112 148 182 218 267 325
#     4  10  20  30  56  80 110 152 180 220 280 338
#     4  10  23  41  61  83 106 142 191 233 272 324
#     4  10  20  34  56  80 118 148 180 224 276 338
#     4  11  19  37  55  80 117 148 182 228 273 332
#     4  10  23  41  61  83 106 142 191 233 272 324
#
# _framework density 18.036757000000001
#
# number of rings (size 3 to 8) (size 9 to 14) (size 15 to 20)
#    0.000    1.714    5.714    0.000    4.000    0.000 
#    0.000    4.286    0.000    0.857    0.000    0.000 
#    0.000    0.000    0.000    0.000    0.000    0.000 
#
# Total GULP energy -155938.941642 kJ/mol
# GULP energy per Si atom -5569.247916 kJ/mol
# Density = 1.799570 g / cm^3
# Si number density = 18.036757 Si / 1000 Ang^3
#
#
#
# Elastic Constant Matrix: (Units=GPa)
#
#
# Indices 1 2 3 4 5 6 
#
# 1 86.4804 44.5801 51.6108 0.0000 4.1868 0.0000
# 2 44.5801 46.4473 25.8298 0.0000 13.3774 0.0000
# 3 51.6108 25.8298 108.0938 0.0000 5.4639 0.0000
# 4 0.0000 0.0000 0.0000 63.9179 0.0000 45.6946
# 5 4.1868 13.3774 5.4639 0.0000 27.4645 0.0000
# 6 0.0000 0.0000 0.0000 45.6946 0.0000 53.7824
#
#
#
# Elastic Compliance Matrix: (Units=1/GPa)
#
#
# Indices 1 2 3 4 5 6 
#
# 1 0.030081 -0.027179 -0.008390 0.000000 0.010322 0.000000
# 2 -0.027179 0.053198 0.001379 0.000000 -0.022043 0.000000
# 3 -0.008390 0.001379 0.013028 0.000000 -0.001985 0.000000
# 4 0.000000 0.000000 0.000000 0.039849 0.000000 -0.033856
# 5 0.010322 -0.022043 -0.001985 0.000000 0.045969 0.000000
# 6 0.000000 0.000000 0.000000 -0.033856 0.000000 0.047358
#
#
# Mechanical properties :
#
#
# Convention : Reuss Voigt Hill
#
# Bulk Modulus (GPa) = 35.80694 53.89588 44.85141
# Shear Modulus (GPa) = 16.27756 36.96634 26.62195
#
# Velocity S-wave (km/s) = 3.00737 4.53205 3.84602
# Velocity P-wave (km/s) = 5.65281 7.57179 6.68155
#
# Compressibility (1/GPa) = 0.02792755
#
# Stress axis : x y z
#
# Youngs Moduli (GPa) = 33.24329 18.79772 76.75906
#
# Poissons Ratio (x) = 0.51091 0.64399
# Poissons Ratio (y) = 0.90353 -0.10587
# Poissons Ratio (z) = 0.27890 -0.02593
#
# Static dielectric constant tensor:
#      x y z
#    x 1.646170 0.000000 -0.017450 
#    y 0.000000 1.634260 0.000000 
#    z -0.017450 0.000000 1.647040 
# 
# From -- ./inp_files/19450.got.cif
#   From: 2010.05.17/outbox.cif.g08.bks.cpg/sg13_10_cif.got.tgz:19450.got - 2010.06.03 16:44:36.
