data_PCOD9227280
_publ_section_title
;
Structure prediction by ZEFSAII (Michael W. Deem and Ramdas Pophale) SiO2 
 PCOD9227280
Probable space group: P 2/C
;
_chemical_formula_sum "Si O2"
_cell_formula_units_Z 32
_cell_length_a 26.018413
_cell_length_b 10.195279
_cell_length_c 20.515962
_cell_angle_alpha 90.000000
_cell_angle_beta 19.319324
_cell_angle_gamma 90.000000
_cell_volume 1800.446482
_symmetry_space_group_name_H-M "P 2/C"
_symmetry_group_IT_number 13
_symmetry_cell_setting 'monoclinic'
loop_
_space_group_symop_operation_xyz
x,y,z
-x,y,1/2-z
-x,-y,-z
x,-y,1/2+z
loop_
_atom_site_type_symbol
_atom_site_label
_atom_site_fract_x
_atom_site_fract_y
_atom_site_fract_z
Si Si1 0.541497 0.402445 0.008703
Si Si2 0.256691 0.653199 0.923357
Si Si3 0.415840 0.904620 0.051315
Si Si4 0.108823 0.623490 0.360577
Si Si5 0.418853 0.082433 0.278489
Si Si6 0.954898 0.697720 0.209777
Si Si7 0.098777 0.992999 0.695603
Si Si8 0.949654 0.895879 0.005095
O O1 0.532003 0.247198 0.001425
O O2 0.716517 0.411923 0.826136
O O3 0.500000 0.500000 0.000000
O O4 0.407985 0.427319 0.222491
O O5 0.325644 0.794690 0.860217
O O6 0.152412 0.618608 0.110582
O O7 0.134107 0.663020 0.010639
O O8 0.234284 0.916251 0.283294
O O9 0.457645 0.946000 0.926594
O O10 0.500000 0.000000 0.000000
O O11 0.103080 0.668228 0.292548
O O12 0.040995 0.746831 0.481467
O O13 0.000000 0.500000 0.500000
O O14 0.500000 0.115989 0.250000
O O15 0.281487 0.980574 0.459881
O O16 0.936578 0.852739 0.246814
O O17 0.000000 0.956732 0.750000
O O18 0.043466 0.918817 0.826393
O O19 0.000000 0.000000 0.000000
#
# Coordination Sequence:
#
# PCOD9227280 Si02
#       8
#     4   4   4   4   4   4   4   4
#     4  10  22  38  58  86 116 157 196 246 305 350
#     4   9  19  31  56  85 113 146 193 243 290 350
#     4  10  22  36  57  88 118 154 196 244 301 363
#     4  11  24  39  59  84 122 160 202 252 297 358
#     4  10  19  31  51  83 118 151 187 244 296 349
#     4  10  18  34  57  89 113 149 196 241 298 356
#     4  11  19  34  58  86 119 151 193 243 309 363
#     4  11  22  35  60  92 116 151 203 252 301 360
#
# _framework density 17.773368999999999
#
# number of rings (size 3 to 8) (size 9 to 14) (size 15 to 20)
#    0.000    1.750    3.750    2.250   10.500    1.000 
#    0.000    0.000   11.000    0.000    3.250    0.000 
#    0.000    0.000    0.000    0.000    0.000    0.000 
#
# Total GULP energy -178333.337961 kJ/mol
# GULP energy per Si atom -5572.916811 kJ/mol
# Density = 1.773292 g / cm^3
# Si number density = 17.773369 Si / 1000 Ang^3
#
#
#
# Elastic Constant Matrix: (Units=GPa)
#
#
# Indices 1 2 3 4 5 6 
#
# 1 121.9148 46.4014 38.3861 0.0000 4.4551 0.0000
# 2 46.4014 65.7757 38.9261 0.0000 -7.6632 0.0000
# 3 38.3861 38.9261 99.2261 0.0000 4.8644 0.0000
# 4 0.0000 0.0000 0.0000 20.9777 0.0000 -2.5778
# 5 4.4551 -7.6632 4.8644 0.0000 32.7252 0.0000
# 6 0.0000 0.0000 0.0000 -2.5778 0.0000 22.0150
#
#
#
# Elastic Compliance Matrix: (Units=1/GPa)
#
#
# Indices 1 2 3 4 5 6 
#
# 1 0.011730 -0.007896 -0.001280 0.000000 -0.003256 0.000000
# 2 -0.007896 0.026287 -0.007668 0.000000 0.008370 0.000000
# 3 -0.001280 -0.007668 0.013761 0.000000 -0.003667 0.000000
# 4 0.000000 0.000000 0.000000 0.048366 0.000000 0.005663
# 5 -0.003256 0.008370 -0.003667 0.000000 0.033506 0.000000
# 6 0.000000 0.000000 0.000000 0.005663 0.000000 0.046087
#
#
# Mechanical properties :
#
#
# Convention : Reuss Voigt Hill
#
# Bulk Modulus (GPa) = 55.28366 59.37152 57.32759
# Shear Modulus (GPa) = 22.78373 26.02377 24.40375
#
# Velocity S-wave (km/s) = 3.58425 3.83064 3.70949
# Velocity P-wave (km/s) = 6.94992 7.28302 7.11842
#
# Compressibility (1/GPa) = 0.01808853
#
# Stress axis : x y z
#
# Youngs Moduli (GPa) = 85.25148 38.04212 72.66848
#
# Poissons Ratio (x) = 0.30040 0.09305
# Poissons Ratio (y) = 0.67318 0.55720
# Poissons Ratio (z) = 0.10916 0.29170
#
# Static dielectric constant tensor:
#      x y z
#    x 1.600330 0.000000 0.011020 
#    y 0.000000 1.598280 0.000000 
#    z 0.011020 0.000000 1.661010 
# 
# From -- ./inp_files/71458.got.cif
#   From: 2010.05.17/outbox.cif.g08.bks.cpg/sg13_36_cif.got.tgz:71458.got - 2010.06.03 16:44:36.
