data_PCOD9227208
_publ_section_title
;
Structure prediction by ZEFSAII (Michael W. Deem and Ramdas Pophale) SiO2 
 PCOD9227208
Probable space group: P 2/C
;
_chemical_formula_sum "Si O2"
_cell_formula_units_Z 26
_cell_length_a 9.518158
_cell_length_b 19.989683
_cell_length_c 8.257993
_cell_angle_alpha 90.000000
_cell_angle_beta 131.247356
_cell_angle_gamma 90.000000
_cell_volume 1181.343561
_symmetry_space_group_name_H-M "P 2/C"
_symmetry_group_IT_number 13
_symmetry_cell_setting 'monoclinic'
loop_
_space_group_symop_operation_xyz
x,y,z
-x,y,1/2-z
-x,-y,-z
x,-y,1/2+z
loop_
_atom_site_type_symbol
_atom_site_label
_atom_site_fract_x
_atom_site_fract_y
_atom_site_fract_z
Si Si1 0.422190 0.430329 0.508991
Si Si2 0.783498 0.204811 0.319150
Si Si3 0.352318 0.801225 0.413515
Si Si4 0.108650 0.360070 0.095774
Si Si5 0.884384 0.101107 0.956360
Si Si6 0.000000 0.006497 0.750000
Si Si7 0.252475 0.348325 0.839320
O O1 0.500000 0.427019 0.750000
O O2 0.500000 0.500000 0.500000
O O3 0.212875 0.410182 0.297688
O O4 0.538590 0.373247 0.507905
O O5 0.737533 0.188530 0.474594
O O6 0.857139 0.280807 0.342979
O O7 0.939772 0.151605 0.383543
O O8 0.576130 0.200590 0.087325
O O9 0.284038 0.853718 0.230670
O O10 0.263336 0.729523 0.307993
O O11 0.186001 0.364506 0.970086
O O12 0.890955 0.377349 0.901684
O O13 0.848356 0.046980 0.069142
O O14 0.935747 0.053902 0.843834
#
# Coordination Sequence:
#
# PCOD9227208 Si02
#       7
#     4   4   4   4   4   2   4
#     4  12  26  44  64  92 134 173 204 257 315 373
#     4  10  18  33  63  93 117 155 206 253 304 362
#     4  10  18  33  63  93 117 155 206 253 304 362
#     4  10  20  38  66  97 125 162 212 262 310 375
#     4  11  20  42  56  88 119 170 200 258 306 366
#     4  10  24  38  62  78 128 164 210 242 314 380
#     4  10  20  38  66  97 125 162 212 262 310 375
#
# _framework density 22.008839999999999
#
# number of rings (size 3 to 8) (size 9 to 14) (size 15 to 20)
#    0.000    1.538    4.615    1.385    0.000    1.231 
#    2.769    5.385    0.000    0.000    0.000    0.000 
#    0.000    0.000    0.000    0.000    0.000    0.000 
#
# Total GULP energy -144998.502630 kJ/mol
# GULP energy per Si atom -5576.865486 kJ/mol
# Density = 2.195875 g / cm^3
# Si number density = 22.008840 Si / 1000 Ang^3
#
#
#
# Elastic Constant Matrix: (Units=GPa)
#
#
# Indices 1 2 3 4 5 6 
#
# 1 18.5503 1.1748 16.9588 0.0000 5.5314 0.0000
# 2 1.1748 58.7281 38.4665 0.0000 -15.4829 0.0000
# 3 16.9588 38.4665 134.7741 0.0000 14.4520 0.0000
# 4 0.0000 0.0000 0.0000 14.3141 0.0000 1.1087
# 5 5.5314 -15.4829 14.4520 0.0000 27.0073 0.0000
# 6 0.0000 0.0000 0.0000 1.1087 0.0000 -5.7050
#
#
#
# Elastic Compliance Matrix: (Units=1/GPa)
#
#
# Indices 1 2 3 4 5 6 
#
# 1 0.063072 0.001557 -0.007523 0.000000 -0.008000 0.000000
# 2 0.001557 0.030669 -0.011458 0.000000 0.023395 0.000000
# 3 -0.007523 -0.011458 0.012917 0.000000 -0.011940 0.000000
# 4 0.000000 0.000000 0.000000 0.068825 0.000000 0.013375
# 5 -0.008000 0.023395 -0.011940 0.000000 0.058467 0.000000
# 6 0.000000 0.000000 0.000000 0.013375 0.000000 -0.172686
#
#
# Mechanical properties :
#
#
# Convention : Reuss Voigt Hill
#
# Bulk Modulus (GPa) = 13.92570 36.13919 25.03244
# Shear Modulus (GPa) = 41.64987 17.48678 29.56833
#
# Velocity S-wave (km/s) = 4.35491 2.82181 3.66932
# Velocity P-wave (km/s) = 5.62388 5.20315 5.41760
#
# Compressibility (1/GPa) = 0.07180969
#
# Stress axis : x y z
#
# Youngs Moduli (GPa) = 15.85498 32.60610 77.41702
#
# Poissons Ratio (x) = -0.05076 0.58240
# Poissons Ratio (y) = -0.02468 0.88704
# Poissons Ratio (z) = 0.11928 0.37360
#
# Static dielectric constant tensor:
#      x y z
#    x 1.814330 0.000000 -0.048780 
#    y 0.000000 1.789870 0.000000 
#    z -0.048780 0.000000 1.841500 
# 
# From -- ./inp_files/13669.got.cif
#   From: 2010.05.17/outbox.cif.g08.bks.cpg/sg13_7_cif.got.tgz:13669.got - 2010.06.03 16:44:36.
