data_PCOD9227136
_publ_section_title
;
Structure prediction by ZEFSAII (Michael W. Deem and Ramdas Pophale) SiO2 
 PCOD9227136
Probable space group: P 2/C
;
_chemical_formula_sum "Si O2"
_cell_formula_units_Z 26
_cell_length_a 6.307858
_cell_length_b 9.135086
_cell_length_c 29.490905
_cell_angle_alpha 90.000000
_cell_angle_beta 58.392259
_cell_angle_gamma 90.000000
_cell_volume 1447.261225
_symmetry_space_group_name_H-M "P 2/C"
_symmetry_group_IT_number 13
_symmetry_cell_setting 'monoclinic'
loop_
_space_group_symop_operation_xyz
x,y,z
-x,y,1/2-z
-x,-y,-z
x,-y,1/2+z
loop_
_atom_site_type_symbol
_atom_site_label
_atom_site_fract_x
_atom_site_fract_y
_atom_site_fract_z
Si Si1 0.863569 0.845182 0.622975
Si Si2 0.736513 0.334070 0.056860
Si Si3 0.296763 0.670225 0.454545
Si Si4 0.992936 0.045731 0.200481
Si Si5 0.510032 0.873040 0.148644
Si Si6 0.411164 0.155706 0.026432
Si Si7 0.500000 0.152261 0.750000
O O1 0.754874 0.707934 0.607822
O O2 0.941213 0.837839 0.666785
O O3 0.123523 0.869137 0.568960
O O4 0.685535 0.984769 0.636101
O O5 0.650829 0.500528 0.060737
O O6 0.554094 0.218740 0.053564
O O7 0.003473 0.319170 0.001040
O O8 0.378867 0.772659 0.403605
O O9 0.439556 0.727393 0.482947
O O10 0.000000 0.111533 0.250000
O O11 0.239026 0.943778 0.166964
O O12 0.750906 0.942703 0.225887
O O13 0.508957 0.785686 0.197260
O O14 0.500000 0.000000 0.000000
#
# Coordination Sequence:
#
# PCOD9227136 Si02
#       7
#     4   4   4   4   4   4   2
#     4  10  19  31  51  76 101 132 168 210 254 299
#     4  10  21  35  48  74 111 140 173 209 251 310
#     4  10  21  34  51  74 105 144 174 207 257 306
#     4   9  17  31  52  79 103 125 164 218 264 302
#     4  10  18  33  55  78 101 130 171 214 257 301
#     4  11  20  32  51  74 102 135 173 212 250 298
#     4   8  18  32  52  80 102 124 164 216 262 304
#
# _framework density 17.964967999999999
#
# number of rings (size 3 to 8) (size 9 to 14) (size 15 to 20)
#    0.000    2.154    0.000    4.154    0.000    3.692 
#    0.000    0.000    0.000    7.385    0.000   10.769 
#    0.000    0.000    0.000    0.000    0.000    0.000 
#
# Total GULP energy -144744.403622 kJ/mol
# GULP energy per Si atom -5567.092447 kJ/mol
# Density = 1.792408 g / cm^3
# Si number density = 17.964968 Si / 1000 Ang^3
#
#
#
# Elastic Constant Matrix: (Units=GPa)
#
#
# Indices 1 2 3 4 5 6 
#
# 1 94.2762 37.1217 32.0071 0.0000 15.4134 0.0000
# 2 37.1217 76.5617 31.3622 0.0000 6.5088 0.0000
# 3 32.0071 31.3622 95.5564 0.0000 29.6293 0.0000
# 4 0.0000 0.0000 0.0000 13.7540 0.0000 6.4712
# 5 15.4134 6.5088 29.6293 0.0000 34.7432 0.0000
# 6 0.0000 0.0000 0.0000 6.4712 0.0000 14.7799
#
#
#
# Elastic Compliance Matrix: (Units=1/GPa)
#
#
# Indices 1 2 3 4 5 6 
#
# 1 0.014074 -0.005835 -0.001634 0.000000 -0.003757 0.000000
# 2 -0.005835 0.017602 -0.004898 0.000000 0.003468 0.000000
# 3 -0.001634 -0.004898 0.016464 0.000000 -0.012398 0.000000
# 4 0.000000 0.000000 0.000000 0.091569 0.000000 -0.040093
# 5 -0.003757 0.003468 -0.012398 0.000000 0.040373 0.000000
# 6 0.000000 0.000000 0.000000 -0.040093 0.000000 0.085214
#
#
# Mechanical properties :
#
#
# Convention : Reuss Voigt Hill
#
# Bulk Modulus (GPa) = 42.72420 51.93070 47.32745
# Shear Modulus (GPa) = 16.78797 23.71564 20.25180
#
# Velocity S-wave (km/s) = 3.06025 3.63727 3.36116
# Velocity P-wave (km/s) = 6.02664 6.82708 6.43931
#
# Compressibility (1/GPa) = 0.02340594
#
# Stress axis : x y z
#
# Youngs Moduli (GPa) = 71.05458 56.81148 60.73746
#
# Poissons Ratio (x) = 0.33150 0.09925
# Poissons Ratio (y) = 0.41460 0.29749
# Poissons Ratio (z) = 0.11611 0.27826
#
# Static dielectric constant tensor:
#      x y z
#    x 1.664680 0.000000 0.026620 
#    y 0.000000 1.583770 0.000000 
#    z 0.026620 0.000000 1.673500 
# 
# From -- ./inp_files/83373.got.cif
#   From: 2010.05.17/outbox.cif.g08.bks.cpg/sg13_42_cif.got.tgz:83373.got - 2010.06.03 16:44:36.
