data_PCOD9227938
_publ_section_title
;
Structure prediction by ZEFSAII (Michael W. Deem and Ramdas Pophale) SiO2 
 PCOD9227938
Probable space group: P 2/C
;
_chemical_formula_sum "Si O2"
_cell_formula_units_Z 20
_cell_length_a 6.578851
_cell_length_b 22.006951
_cell_length_c 7.744998
_cell_angle_alpha 90.000000
_cell_angle_beta 137.852655
_cell_angle_gamma 90.000000
_cell_volume 752.452908
_symmetry_space_group_name_H-M "P 2/C"
_symmetry_group_IT_number 13
_symmetry_cell_setting 'monoclinic'
loop_
_space_group_symop_operation_xyz
x,y,z
-x,y,1/2-z
-x,-y,-z
x,-y,1/2+z
loop_
_atom_site_type_symbol
_atom_site_label
_atom_site_fract_x
_atom_site_fract_y
_atom_site_fract_z
Si Si1 0.347647 0.381726 0.844597
Si Si2 0.867331 0.064144 0.977067
Si Si3 0.851051 0.187454 0.349066
Si Si4 0.144180 0.563300 0.653785
Si Si5 0.652548 0.755040 0.155757
O O1 0.500000 0.390251 0.750000
O O2 0.421722 0.313353 0.946457
O O3 0.997019 0.389558 0.571512
O O4 0.503560 0.430007 0.072724
O O5 0.500000 0.066512 0.750000
O O6 0.000000 0.068309 0.250000
O O7 0.025305 0.123684 0.995387
O O8 0.000000 0.000000 0.000000
O O9 0.000000 0.194331 0.250000
O O10 0.998884 0.236912 0.568914
O O11 0.504324 0.197352 0.073775
O O12 0.000000 0.576385 0.750000
O O13 0.000000 0.500000 0.500000
O O14 0.500000 0.764069 0.250000
#
# Coordination Sequence:
#
# PCOD9227938 Si02
#       5
#     4   4   4   4   4
#     4   9  17  28  44  68  96 123 157 201 251 302
#     4  11  22  37  56  82 114 148 186 228 272 327
#     4   9  16  27  45  71 101 130 165 210 261 312
#     4  10  19  31  46  67  94 124 159 199 242 296
#     4   9  15  25  43  68  97 125 155 204 263 307
#
# _framework density 26.579733999999998
#
# number of rings (size 3 to 8) (size 9 to 14) (size 15 to 20)
#    0.000    2.400    0.000    5.400    0.000    4.800 
#    0.000    0.000    0.000    0.000    0.000   14.000 
#    0.000    0.000    0.000    0.000    0.000    0.000 
#
# Total GULP energy -111737.621643 kJ/mol
# GULP energy per Si atom -5586.881082 kJ/mol
# Density = 2.651924 g / cm^3
# Si number density = 26.579734 Si / 1000 Ang^3
#
#
#
# Elastic Constant Matrix: (Units=GPa)
#
#
# Indices 1 2 3 4 5 6 
#
# 1 70.1133 -7.1225 49.2633 0.0000 25.4118 0.0000
# 2 -7.1225 137.9835 96.2862 0.0000 -3.0982 0.0000
# 3 49.2633 96.2862 237.7592 0.0000 27.4599 0.0000
# 4 0.0000 0.0000 0.0000 48.1014 0.0000 -3.2201
# 5 25.4118 -3.0982 27.4599 0.0000 66.8409 0.0000
# 6 0.0000 0.0000 0.0000 -3.2201 0.0000 33.2017
#
#
#
# Elastic Compliance Matrix: (Units=1/GPa)
#
#
# Indices 1 2 3 4 5 6 
#
# 1 0.020647 0.004885 -0.005644 0.000000 -0.005305 0.000000
# 2 0.004885 0.011592 -0.005831 0.000000 0.001076 0.000000
# 3 -0.005644 -0.005831 0.007895 0.000000 -0.001368 0.000000
# 4 0.000000 0.000000 0.000000 0.020925 0.000000 0.002029
# 5 -0.005305 0.001076 -0.001368 0.000000 0.017590 0.000000
# 6 0.000000 0.000000 0.000000 0.002029 0.000000 0.030316
#
#
# Mechanical properties :
#
#
# Convention : Reuss Voigt Hill
#
# Bulk Modulus (GPa) = 37.09981 80.30112 58.70046
# Shear Modulus (GPa) = 38.13047 50.12405 44.12726
#
# Velocity S-wave (km/s) = 3.79168 4.34729 4.07896
# Velocity P-wave (km/s) = 5.75824 7.44819 6.65706
#
# Compressibility (1/GPa) = 0.02695432
#
# Stress axis : x y z
#
# Youngs Moduli (GPa) = 48.43386 86.26287 126.66778
#
# Poissons Ratio (x) = -0.42137 0.71485
# Poissons Ratio (y) = -0.23659 0.73860
# Poissons Ratio (z) = 0.27334 0.50300
#
# Static dielectric constant tensor:
#      x y z
#    x 2.327270 0.000000 0.071600 
#    y 0.000000 2.287200 0.000000 
#    z 0.071600 0.000000 1.982920 
# 
# From -- ./inp_files/13870.got.cif
#   From: 2010.05.17/outbox.cif.g08.bks.cpg/sg13_7_cif.got.tgz:13870.got - 2010.06.03 16:44:36.
