data_PCOD9227026
_publ_section_title
;
Structure prediction by ZEFSAII (Michael W. Deem and Ramdas Pophale) SiO2 
 PCOD9227026
Probable space group: P 2/C
;
_chemical_formula_sum "Si O2"
_cell_formula_units_Z 26
_cell_length_a 12.318414
_cell_length_b 8.546977
_cell_length_c 13.977329
_cell_angle_alpha 90.000000
_cell_angle_beta 109.710378
_cell_angle_gamma 90.000000
_cell_volume 1385.383728
_symmetry_space_group_name_H-M "P 2/C"
_symmetry_group_IT_number 13
_symmetry_cell_setting 'monoclinic'
loop_
_space_group_symop_operation_xyz
x,y,z
-x,y,1/2-z
-x,-y,-z
x,-y,1/2+z
loop_
_atom_site_type_symbol
_atom_site_label
_atom_site_fract_x
_atom_site_fract_y
_atom_site_fract_z
Si Si1 0.938926 0.731800 0.905924
Si Si2 0.822103 0.084712 0.546338
Si Si3 0.361987 0.393967 0.395480
Si Si4 0.000000 0.959820 0.750000
Si Si5 0.277698 0.526736 0.666129
Si Si6 0.798951 0.729681 0.497734
Si Si7 0.607988 0.703149 0.968597
O O1 0.850707 0.593510 0.858068
O O2 0.945773 0.851549 0.818076
O O3 0.892703 0.815513 0.988588
O O4 0.068781 0.675692 0.961971
O O5 0.699256 0.167341 0.530249
O O6 0.800069 0.916317 0.491038
O O7 0.901632 0.057396 0.663920
O O8 0.338300 0.466150 0.285364
O O9 0.256278 0.308875 0.415778
O O10 0.380687 0.546864 0.465415
O O11 0.470507 0.275088 0.426139
O O12 0.268330 0.364490 0.604975
O O13 0.346556 0.650356 0.621332
#
# Coordination Sequence:
#
# PCOD9227026 Si02
#       7
#     4   4   4   2   4   4   4
#     4  10  20  35  52  79 114 142 176 223 272 321
#     4  10  21  36  54  80 113 144 178 222 272 322
#     4  10  20  36  56  76 103 142 185 223 266 322
#     4  10  18  32  56  80 110 150 182 218 276 330
#     4  10  19  34  57  77 104 143 180 222 270 322
#     4  10  20  34  54  82 109 139 179 224 268 318
#     4   9  21  37  53  77 107 140 178 225 272 315
#
# _framework density 18.767363
#
# number of rings (size 3 to 8) (size 9 to 14) (size 15 to 20)
#    0.000    2.154    0.000    4.615    0.000    3.077 
#    0.000    0.000    0.000   12.000    0.000    0.000 
#    0.000    0.000    0.000    0.000    0.000    0.000 
#
# Total GULP energy -144882.860913 kJ/mol
# GULP energy per Si atom -5572.417727 kJ/mol
# Density = 1.872465 g / cm^3
# Si number density = 18.767363 Si / 1000 Ang^3
#
#
#
# Elastic Constant Matrix: (Units=GPa)
#
#
# Indices 1 2 3 4 5 6 
#
# 1 82.7527 35.7678 39.3597 0.0000 2.6966 0.0000
# 2 35.7678 -3.8796 -16.4044 0.0000 17.2422 0.0000
# 3 39.3597 -16.4044 66.9465 0.0000 -9.9069 0.0000
# 4 0.0000 0.0000 0.0000 26.4979 0.0000 9.0418
# 5 2.6966 17.2422 -9.9069 0.0000 15.9311 0.0000
# 6 0.0000 0.0000 0.0000 9.0418 0.0000 38.1878
#
#
#
# Elastic Compliance Matrix: (Units=1/GPa)
#
#
# Indices 1 2 3 4 5 6 
#
# 1 0.008856 0.014081 -0.004662 0.000000 -0.019638 0.000000
# 2 0.014081 -0.020954 -0.011465 0.000000 0.013165 0.000000
# 3 -0.004662 -0.011465 0.018527 0.000000 0.024719 0.000000
# 4 0.000000 0.000000 0.000000 0.041056 0.000000 -0.009721
# 5 -0.019638 0.013165 0.024719 0.000000 0.067217 0.000000
# 6 0.000000 0.000000 0.000000 -0.009721 0.000000 0.028488
#
#
# Mechanical properties :
#
#
# Convention : Reuss Voigt Hill
#
# Bulk Modulus (GPa) = 427.98416 29.25176 228.61796
# Shear Modulus (GPa) = 33.76998 21.92979 27.84989
#
# Velocity S-wave (km/s) = 4.24653 3.42205 3.85639
# Velocity P-wave (km/s) = 15.89296 5.58876 11.91261
#
# Compressibility (1/GPa) = 0.00233654
#
# Stress axis : x y z
#
# Youngs Moduli (GPa) = 112.92325 -47.72418 53.97529
#
# Poissons Ratio (x) = 0.67199 0.25164
# Poissons Ratio (y) = -1.59004 0.61881
# Poissons Ratio (z) = 0.52647 -0.54714
#
# Static dielectric constant tensor:
#      x y z
#    x 1.697930 0.000000 0.025640 
#    y 0.000000 1.646890 0.000000 
#    z 0.025640 0.000000 1.658730 
# 
# From -- ./inp_files/50174.got.cif
#   From: 2010.05.17/outbox.cif.g08.bks.cpg/sg13_26_cif.got.tgz:50174.got - 2010.06.03 16:44:36.
