data_PCOD9227922
_publ_section_title
;
Structure prediction by ZEFSAII (Michael W. Deem and Ramdas Pophale) SiO2 
 PCOD9227922
Probable space group: P 2/C
;
_chemical_formula_sum "Si O2"
_cell_formula_units_Z 28
_cell_length_a 11.058150
_cell_length_b 9.196575
_cell_length_c 14.293558
_cell_angle_alpha 90.000000
_cell_angle_beta 98.063095
_cell_angle_gamma 90.000000
_cell_volume 1439.243361
_symmetry_space_group_name_H-M "P 2/C"
_symmetry_group_IT_number 13
_symmetry_cell_setting 'monoclinic'
loop_
_space_group_symop_operation_xyz
x,y,z
-x,y,1/2-z
-x,-y,-z
x,-y,1/2+z
loop_
_atom_site_type_symbol
_atom_site_label
_atom_site_fract_x
_atom_site_fract_y
_atom_site_fract_z
Si Si1 0.000000 0.924973 0.750000
Si Si2 0.817849 0.136926 0.654469
Si Si3 0.352357 0.604514 0.571581
Si Si4 0.618917 0.079442 0.477424
Si Si5 0.358500 0.002947 0.221634
Si Si6 0.778249 0.716100 0.775482
Si Si7 0.277132 0.561139 0.355337
Si Si8 0.500000 0.437552 0.750000
O O1 0.896071 0.817399 0.777305
O O2 0.937280 0.036894 0.670208
O O3 0.727381 0.089673 0.562288
O O4 0.824411 0.311340 0.651038
O O5 0.740481 0.093211 0.737507
O O6 0.416793 0.755772 0.552101
O O7 0.234810 0.652101 0.621014
O O8 0.322099 0.534282 0.467460
O O9 0.431376 0.521344 0.657755
O O10 0.665567 0.000940 0.390437
O O11 0.500000 0.000000 0.500000
O O12 0.500000 0.962658 0.250000
O O13 0.334192 0.170122 0.251038
O O14 0.767706 0.585372 0.700260
O O15 0.387447 0.624285 0.300734
#
# Coordination Sequence:
#
# PCOD9227922 Si02
#       8
#     2   4   4   4   4   4   4   2
#     4  10  22  44  64  80 114 164 210 240 294 360
#     4  10  22  38  56  88 119 152 195 254 294 344
#     4   9  20  34  53  86 121 155 194 244 293 351
#     4  10  19  30  55  86 116 152 194 236 296 352
#     4  10  19  34  57  83 119 156 193 233 292 357
#     4   9  21  38  61  82 113 160 204 237 293 353
#     4  10  21  36  56  89 122 149 198 249 305 341
#     4  10  20  34  56  84 126 162 186 232 300 376
#
# _framework density 19.454667000000001
#
# number of rings (size 3 to 8) (size 9 to 14) (size 15 to 20)
#    0.000    2.286    1.429    0.429   10.000    0.571 
#    0.000   17.857    0.000    0.000    0.000    0.000 
#    0.000    0.000    0.000    0.000    0.000    0.000 
#
# Total GULP energy -155885.600989 kJ/mol
# GULP energy per Si atom -5567.342892 kJ/mol
# Density = 1.941039 g / cm^3
# Si number density = 19.454667 Si / 1000 Ang^3
#
#
#
# Elastic Constant Matrix: (Units=GPa)
#
#
# Indices 1 2 3 4 5 6 
#
# 1 57.4380 32.2109 16.2773 0.0000 3.7611 0.0000
# 2 32.2109 80.8448 52.7081 0.0000 4.9044 0.0000
# 3 16.2773 52.7081 118.9304 0.0000 -15.7469 0.0000
# 4 0.0000 0.0000 0.0000 20.4636 0.0000 -1.1859
# 5 3.7611 4.9044 -15.7469 0.0000 19.1228 0.0000
# 6 0.0000 0.0000 0.0000 -1.1859 0.0000 26.4644
#
#
#
# Elastic Compliance Matrix: (Units=1/GPa)
#
#
# Indices 1 2 3 4 5 6 
#
# 1 0.022572 -0.009576 0.001001 0.000000 -0.001159 0.000000
# 2 -0.009576 0.024389 -0.011310 0.000000 -0.013685 0.000000
# 3 0.001001 -0.011310 0.015311 0.000000 0.015312 0.000000
# 4 0.000000 0.000000 0.000000 0.048994 0.000000 0.002196
# 5 -0.001159 -0.013685 0.015312 0.000000 0.068640 0.000000
# 6 0.000000 0.000000 0.000000 0.002196 0.000000 0.037885
#
#
# Mechanical properties :
#
#
# Convention : Reuss Voigt Hill
#
# Bulk Modulus (GPa) = 44.43966 51.06730 47.75348
# Shear Modulus (GPa) = 18.86355 23.61130 21.23742
#
# Velocity S-wave (km/s) = 3.11724 3.48754 3.30758
# Velocity P-wave (km/s) = 5.98736 6.52101 6.25988
#
# Compressibility (1/GPa) = 0.02250242
#
# Stress axis : x y z
#
# Youngs Moduli (GPa) = 44.30201 41.00290 65.31247
#
# Poissons Ratio (x) = 0.39263 -0.06538
# Poissons Ratio (y) = 0.42422 0.73868
# Poissons Ratio (z) = -0.04434 0.46374
#
# Static dielectric constant tensor:
#      x y z
#    x 1.711600 0.000000 -0.013580 
#    y 0.000000 1.736060 0.000000 
#    z -0.013580 0.000000 1.687220 
# 
# From -- ./inp_files/50137.got.cif
#   From: 2010.05.17/outbox.cif.g08.bks.cpg/sg13_26_cif.got.tgz:50137.got - 2010.06.03 16:44:36.
