data_PCOD9227365
_publ_section_title
;
Structure prediction by ZEFSAII (Michael W. Deem and Ramdas Pophale) SiO2 
 PCOD9227365
Probable space group: P 2/C
;
_chemical_formula_sum "Si O2"
_cell_formula_units_Z 20
_cell_length_a 13.138230
_cell_length_b 10.854802
_cell_length_c 16.576048
_cell_angle_alpha 90.000000
_cell_angle_beta 154.903583
_cell_angle_gamma 90.000000
_cell_volume 1002.655760
_symmetry_space_group_name_H-M "P 2/C"
_symmetry_group_IT_number 13
_symmetry_cell_setting 'monoclinic'
loop_
_space_group_symop_operation_xyz
x,y,z
-x,y,1/2-z
-x,-y,-z
x,-y,1/2+z
loop_
_atom_site_type_symbol
_atom_site_label
_atom_site_fract_x
_atom_site_fract_y
_atom_site_fract_z
Si Si1 0.975981 0.554300 0.103564
Si Si2 0.137214 0.703731 0.762802
Si Si3 0.387036 0.866043 0.413676
Si Si4 0.500000 0.397387 0.750000
Si Si5 0.000000 0.236972 0.750000
Si Si6 0.179325 0.736617 0.121327
O O1 0.933157 0.668263 0.131758
O O2 0.152719 0.445577 0.261568
O O3 0.063728 0.621265 0.085897
O O4 0.728371 0.482281 0.921546
O O5 0.000000 0.725482 0.750000
O O6 0.973907 0.754592 0.570316
O O7 0.394638 0.768281 0.936959
O O8 0.219570 0.844973 0.214290
O O9 0.220429 0.839759 0.371862
O O10 0.500000 0.000000 0.500000
O O11 0.557985 0.308618 0.717655
#
# Coordination Sequence:
#
# PCOD9227365 Si02
#       6
#     4   4   4   2   2   4
#     4  10  21  36  62  99 132 159 206 268 330 396
#     4  11  22  40  70  97 127 172 208 267 336 382
#     4  11  26  44  66  88 137 176 222 269 306 386
#     4  10  18  34  62  92 132 160 200 262 336 386
#     4  10  24  40  62 100 124 166 222 262 328 388
#     4  10  23  39  61 100 126 167 218 260 322 395
#
# _framework density 19.947026000000001
#
# number of rings (size 3 to 8) (size 9 to 14) (size 15 to 20)
#    0.000    1.600    1.000    4.800    7.000    2.400 
#    0.000    0.000    8.800    0.000    0.000    0.000 
#    0.000    0.000    0.000    0.000    0.000    0.000 
#
# Total GULP energy -111498.594225 kJ/mol
# GULP energy per Si atom -5574.929711 kJ/mol
# Density = 1.990163 g / cm^3
# Si number density = 19.947026 Si / 1000 Ang^3
#
#
#
# Elastic Constant Matrix: (Units=GPa)
#
#
# Indices 1 2 3 4 5 6 
#
# 1 162.4231 40.2083 53.8301 0.0000 1.5965 0.0000
# 2 40.2083 94.2674 32.4740 0.0000 -1.7747 0.0000
# 3 53.8301 32.4740 75.2904 0.0000 -4.4815 0.0000
# 4 0.0000 0.0000 0.0000 32.5236 0.0000 11.7023
# 5 1.5965 -1.7747 -4.4815 0.0000 36.5731 0.0000
# 6 0.0000 0.0000 0.0000 11.7023 0.0000 16.2289
#
#
#
# Elastic Compliance Matrix: (Units=1/GPa)
#
#
# Indices 1 2 3 4 5 6 
#
# 1 0.008353 -0.001766 -0.005276 0.000000 -0.001097 0.000000
# 2 -0.001766 0.012833 -0.004262 0.000000 0.000178 0.000000
# 3 -0.005276 -0.004262 0.019032 0.000000 0.002356 0.000000
# 4 0.000000 0.000000 0.000000 0.041519 0.000000 -0.029939
# 5 -0.001097 0.000178 0.002356 0.000000 0.027688 0.000000
# 6 0.000000 0.000000 0.000000 -0.029939 0.000000 0.083207
#
#
# Mechanical properties :
#
#
# Convention : Reuss Voigt Hill
#
# Bulk Modulus (GPa) = 56.78246 65.00061 60.89154
# Shear Modulus (GPa) = 22.61319 30.76301 26.68810
#
# Velocity S-wave (km/s) = 3.37064 3.93139 3.66177
# Velocity P-wave (km/s) = 6.60884 7.29830 6.96211
#
# Compressibility (1/GPa) = 0.01761107
#
# Stress axis : x y z
#
# Youngs Moduli (GPa) = 119.71374 77.92470 52.54221
#
# Poissons Ratio (x) = 0.13763 0.27720
# Poissons Ratio (y) = 0.21143 0.22392
# Poissons Ratio (z) = 0.63159 0.33210
#
# Static dielectric constant tensor:
#      x y z
#    x 1.765790 0.000000 -0.064410 
#    y 0.000000 1.687110 0.000000 
#    z -0.064410 0.000000 1.805840 
# 
# From -- ./inp_files/50993.got.cif
#   From: 2010.05.17/outbox.cif.g08.bks.cpg/sg13_26_cif.got.tgz:50993.got - 2010.06.03 16:44:36.
