data_PCOD9227142
_publ_section_title
;
Structure prediction by ZEFSAII (Michael W. Deem and Ramdas Pophale) SiO2 
 PCOD9227142
Probable space group: P 2/C
;
_chemical_formula_sum "Si O2"
_cell_formula_units_Z 30
_cell_length_a 30.765947
_cell_length_b 10.936013
_cell_length_c 9.379511
_cell_angle_alpha 90.000000
_cell_angle_beta 29.156340
_cell_angle_gamma 90.000000
_cell_volume 1537.488011
_symmetry_space_group_name_H-M "P 2/C"
_symmetry_group_IT_number 13
_symmetry_cell_setting 'monoclinic'
loop_
_space_group_symop_operation_xyz
x,y,z
-x,y,1/2-z
-x,-y,-z
x,-y,1/2+z
loop_
_atom_site_type_symbol
_atom_site_label
_atom_site_fract_x
_atom_site_fract_y
_atom_site_fract_z
Si Si1 0.777618 0.709388 0.634150
Si Si2 0.724635 0.844149 0.298945
Si Si3 0.572774 0.349299 0.323286
Si Si4 0.500000 0.812843 0.250000
Si Si5 0.194890 0.332966 0.127039
Si Si6 0.694768 0.072214 0.190207
Si Si7 0.062320 0.549173 0.447171
Si Si8 0.356011 0.514517 0.601159
O O1 0.798296 0.731606 0.740176
O O2 0.744762 0.828505 0.645308
O O3 0.864418 0.646023 0.315462
O O4 0.699201 0.608420 0.839464
O O5 0.643006 0.751985 0.566413
O O6 0.736811 0.915008 0.412533
O O7 0.701583 0.940640 0.242511
O O8 0.803878 0.760082 0.009561
O O9 0.494490 0.271937 0.622997
O O10 0.614553 0.416669 0.340966
O O11 0.567326 0.446250 0.210114
O O12 0.409760 0.890147 0.518494
O O13 0.115601 0.430498 0.352166
O O14 0.284468 0.412949 0.852198
O O15 0.000000 0.500000 0.500000
O O16 0.000000 0.600209 0.750000
#
# Coordination Sequence:
#
# PCOD9227142 Si02
#       8
#     4   4   4   2   4   4   4   4
#     4  11  20  36  60  86 123 164 203 245 309 370
#     4  10  22  39  60  86 114 161 213 256 305 361
#     4  10  20  35  55  83 117 158 198 257 307 368
#     4  10  22  38  58  88 120 162 212 274 306 360
#     4  10  21  35  62  89 121 160 202 245 302 378
#     4  11  23  40  62  85 121 162 218 266 309 361
#     4  11  23  37  61 100 131 163 196 249 307 374
#     4  10  18  33  55  82 117 154 196 242 305 371
#
# _framework density 19.512346999999998
#
# number of rings (size 3 to 8) (size 9 to 14) (size 15 to 20)
#    0.000    1.600    5.333    0.800    1.867    2.667 
#    0.000    0.000    0.000    9.600    0.000    0.000 
#    0.000    0.000    0.000    0.000    0.000    0.000 
#
# Total GULP energy -167438.379921 kJ/mol
# GULP energy per Si atom -5581.279331 kJ/mol
# Density = 1.946794 g / cm^3
# Si number density = 19.512347 Si / 1000 Ang^3
#
#
#
# Elastic Constant Matrix: (Units=GPa)
#
#
# Indices 1 2 3 4 5 6 
#
# 1 75.4426 18.9887 24.5843 0.0000 18.3341 0.0000
# 2 18.9887 65.8741 24.1222 0.0000 16.7191 0.0000
# 3 24.5843 24.1222 82.3740 0.0000 13.4871 0.0000
# 4 0.0000 0.0000 0.0000 25.3940 0.0000 13.1735
# 5 18.3341 16.7191 13.4871 0.0000 34.8454 0.0000
# 6 0.0000 0.0000 0.0000 13.1735 0.0000 36.0607
#
#
#
# Elastic Compliance Matrix: (Units=1/GPa)
#
#
# Indices 1 2 3 4 5 6 
#
# 1 0.016361 -0.001882 -0.003278 0.000000 -0.006437 0.000000
# 2 -0.001882 0.018799 -0.003874 0.000000 -0.006530 0.000000
# 3 -0.003278 -0.003874 0.014590 0.000000 -0.002064 0.000000
# 4 0.000000 0.000000 0.000000 0.048587 0.000000 -0.017750
# 5 -0.006437 -0.006530 -0.002064 0.000000 0.036017 0.000000
# 6 0.000000 0.000000 0.000000 -0.017750 0.000000 0.034215
#
#
# Mechanical properties :
#
#
# Convention : Reuss Voigt Hill
#
# Bulk Modulus (GPa) = 31.56355 39.89792 35.73073
# Shear Modulus (GPa) = 25.35506 29.65974 27.50740
#
# Velocity S-wave (km/s) = 3.60868 3.90301 3.75873
# Velocity P-wave (km/s) = 5.79437 6.38774 6.09828
#
# Compressibility (1/GPa) = 0.03168211
#
# Stress axis : x y z
#
# Youngs Moduli (GPa) = 61.11987 53.19417 68.53809
#
# Poissons Ratio (x) = 0.10013 0.22466
# Poissons Ratio (y) = 0.11505 0.26553
# Poissons Ratio (z) = 0.20035 0.20608
#
# Static dielectric constant tensor:
#      x y z
#    x 1.681460 0.000000 0.023930 
#    y 0.000000 1.703380 0.000000 
#    z 0.023930 0.000000 1.696090 
# 
# From -- ./inp_files/24934.got.cif
#   From: 2010.05.17/outbox.cif.g08.bks.cpg/sg13_13_cif.got.tgz:24934.got - 2010.06.03 16:44:36.
