data_PCOD9227591
_publ_section_title
;
Structure prediction by ZEFSAII (Michael W. Deem and Ramdas Pophale) SiO2 
 PCOD9227591
Probable space group: P 2/C
;
_chemical_formula_sum "Si O2"
_cell_formula_units_Z 32
_cell_length_a 10.333358
_cell_length_b 9.666714
_cell_length_c 27.399402
_cell_angle_alpha 90.000000
_cell_angle_beta 33.089253
_cell_angle_gamma 90.000000
_cell_volume 1494.204980
_symmetry_space_group_name_H-M "P 2/C"
_symmetry_group_IT_number 13
_symmetry_cell_setting 'monoclinic'
loop_
_space_group_symop_operation_xyz
x,y,z
-x,y,1/2-z
-x,-y,-z
x,-y,1/2+z
loop_
_atom_site_type_symbol
_atom_site_label
_atom_site_fract_x
_atom_site_fract_y
_atom_site_fract_z
Si Si1 0.805089 0.144141 0.468245
Si Si2 0.389382 0.368741 0.421843
Si Si3 0.289034 0.424991 0.037790
Si Si4 0.657082 0.296993 0.743448
Si Si5 0.299178 0.751057 0.852094
Si Si6 0.083228 0.145405 0.563313
Si Si7 0.678625 0.057746 0.616308
Si Si8 0.139431 0.514093 0.753480
O O1 0.662731 0.262067 0.485273
O O2 0.693322 0.095227 0.554899
O O3 0.051835 0.220316 0.403661
O O4 0.862194 0.996563 0.425680
O O5 0.292514 0.497012 0.484331
O O6 0.278382 0.356240 0.402922
O O7 0.309724 0.231034 0.475365
O O8 0.672221 0.372807 0.324669
O O9 0.049113 0.442459 0.145516
O O10 0.500000 0.500000 0.000000
O O11 0.500000 0.363256 0.750000
O O12 0.521395 0.156468 0.798893
O O13 0.690773 0.397763 0.777661
O O14 0.915635 0.251805 0.644273
O O15 0.500000 0.711546 0.750000
O O16 0.368848 0.899693 0.854123
O O17 0.923481 0.101225 0.566438
O O18 0.000000 0.463963 0.750000
#
# Coordination Sequence:
#
# PCOD9227591 Si02
#       8
#     4   4   4   4   4   4   4   4
#     4  11  21  39  68 100 131 178 221 275 349 415
#     4  12  23  43  70  96 135 176 225 285 338 419
#     4  12  27  47  68  90 135 190 234 285 344 401
#     4  10  22  39  67 100 132 176 229 285 340 417
#     4  11  21  38  66 107 145 173 213 281 356 418
#     4  10  19  41  66  99 135 168 220 282 345 403
#     4  10  18  36  64 102 140 172 209 279 350 409
#     4  12  26  44  66  93 140 186 233 282 361 412
#
# _framework density 21.416070999999999
#
# number of rings (size 3 to 8) (size 9 to 14) (size 15 to 20)
#    0.000    1.000    5.000    4.125    0.000    2.000 
#    0.000    0.625    2.750    0.000    0.000    0.000 
#    0.000    0.000    0.000    0.000    0.000    0.000 
#
# Total GULP energy -178816.644916 kJ/mol
# GULP energy per Si atom -5588.020154 kJ/mol
# Density = 2.136733 g / cm^3
# Si number density = 21.416071 Si / 1000 Ang^3
#
#
#
# Elastic Constant Matrix: (Units=GPa)
#
#
# Indices 1 2 3 4 5 6 
#
# 1 60.1387 44.5918 24.7338 0.0000 4.3125 0.0000
# 2 44.5918 107.7038 35.5051 0.0000 0.2441 0.0000
# 3 24.7338 35.5051 128.5451 0.0000 3.9188 0.0000
# 4 0.0000 0.0000 0.0000 13.9485 0.0000 2.7799
# 5 4.3125 0.2441 3.9188 0.0000 30.1334 0.0000
# 6 0.0000 0.0000 0.0000 2.7799 0.0000 27.6501
#
#
#
# Elastic Compliance Matrix: (Units=1/GPa)
#
#
# Indices 1 2 3 4 5 6 
#
# 1 0.024806 -0.009595 -0.002025 0.000000 -0.003209 0.000000
# 2 -0.009595 0.013929 -0.002048 0.000000 0.001527 0.000000
# 3 -0.002025 -0.002048 0.008760 0.000000 -0.000833 0.000000
# 4 0.000000 0.000000 0.000000 0.073158 0.000000 -0.007355
# 5 -0.003209 0.001527 -0.000833 0.000000 0.033741 0.000000
# 6 0.000000 0.000000 0.000000 -0.007355 0.000000 0.036906
#
#
# Mechanical properties :
#
#
# Convention : Reuss Voigt Hill
#
# Bulk Modulus (GPa) = 49.60511 56.22766 52.91639
# Shear Modulus (GPa) = 22.18718 27.11686 24.65202
#
# Velocity S-wave (km/s) = 3.22220 3.56222 3.39647
# Velocity P-wave (km/s) = 6.08738 6.57504 6.33590
#
# Compressibility (1/GPa) = 0.02015921
#
# Stress axis : x y z
#
# Youngs Moduli (GPa) = 40.31276 71.79268 114.15644
#
# Poissons Ratio (x) = 0.68889 0.23115
# Poissons Ratio (y) = 0.38682 0.23374
# Poissons Ratio (z) = 0.08163 0.14700
#
# Static dielectric constant tensor:
#      x y z
#    x 1.806730 0.000000 0.006360 
#    y 0.000000 1.790260 0.000000 
#    z 0.006360 0.000000 1.845060 
# 
# From -- ./inp_files/96685.got.cif
#   From: 2010.05.17/outbox.cif.g08.bks.cpg/sg13_49_cif.got.tgz:96685.got - 2010.06.03 16:44:36.
