data_PCOD9227677
_publ_section_title
;
Structure prediction by ZEFSAII (Michael W. Deem and Ramdas Pophale) SiO2 
 PCOD9227677
Probable space group: P 2/C
;
_chemical_formula_sum "Si O2"
_cell_formula_units_Z 28
_cell_length_a 26.490795
_cell_length_b 9.049622
_cell_length_c 9.985081
_cell_angle_alpha 90.000000
_cell_angle_beta 147.602884
_cell_angle_gamma 90.000000
_cell_volume 1282.528435
_symmetry_space_group_name_H-M "P 2/C"
_symmetry_group_IT_number 13
_symmetry_cell_setting 'monoclinic'
loop_
_space_group_symop_operation_xyz
x,y,z
-x,y,1/2-z
-x,-y,-z
x,-y,1/2+z
loop_
_atom_site_type_symbol
_atom_site_label
_atom_site_fract_x
_atom_site_fract_y
_atom_site_fract_z
Si Si1 0.695740 0.411601 0.941457
Si Si2 0.468028 0.224672 0.827502
Si Si3 0.000000 0.006182 0.250000
Si Si4 0.255246 0.669355 0.246368
Si Si5 0.047075 0.736753 0.684826
Si Si6 0.000000 0.490923 0.750000
Si Si7 0.868699 0.752748 0.919957
Si Si8 0.583904 0.893097 0.828560
O O1 0.723824 0.560218 0.082673
O O2 0.761708 0.281592 0.151685
O O3 0.591461 0.356035 0.740177
O O4 0.716667 0.412851 0.830041
O O5 0.500000 0.266500 0.750000
O O6 0.410975 0.069279 0.683520
O O7 0.551501 0.180960 0.116273
O O8 0.091975 0.904639 0.435511
O O9 0.005296 0.116064 0.386752
O O10 0.322408 0.812493 0.410836
O O11 0.146368 0.717298 0.987192
O O12 0.077211 0.742119 0.600650
O O13 0.983818 0.599681 0.589477
O O14 0.912850 0.387439 0.593842
O O15 0.500000 0.871304 0.750000
#
# Coordination Sequence:
#
# PCOD9227677 Si02
#       8
#     4   4   2   4   4   2   4   4
#     4  11  24  42  61  94 125 162 205 254 304 366
#     4  10  23  41  66  90 123 163 207 249 310 364
#     4  10  22  38  60  90 118 158 206 246 310 356
#     4  11  24  41  63  92 127 162 205 253 305 360
#     4  10  21  38  59  88 121 159 199 250 299 361
#     4  10  18  38  60  82 120 160 202 236 302 362
#     4  10  21  38  60  86 121 159 201 250 298 360
#     4  10  21  43  64  89 122 164 202 254 304 364
#
# _framework density 21.831873999999999
#
# number of rings (size 3 to 8) (size 9 to 14) (size 15 to 20)
#    0.000    1.714    2.857    0.857    4.000    1.143 
#    0.000    1.429    0.000    0.000    0.000    0.000 
#    0.000    0.000    0.000    0.000    0.000    0.000 
#
# Total GULP energy -156336.468264 kJ/mol
# GULP energy per Si atom -5583.445295 kJ/mol
# Density = 2.178218 g / cm^3
# Si number density = 21.831874 Si / 1000 Ang^3
#
#
#
# Elastic Constant Matrix: (Units=GPa)
#
#
# Indices 1 2 3 4 5 6 
#
# 1 54.3223 0.3397 6.6532 0.0000 -6.4243 0.0000
# 2 0.3397 76.1172 11.4714 0.0000 -0.2061 0.0000
# 3 6.6532 11.4714 57.0680 0.0000 -5.3374 0.0000
# 4 0.0000 0.0000 0.0000 -54.5128 0.0000 8.7813
# 5 -6.4243 -0.2061 -5.3374 0.0000 30.2002 0.0000
# 6 0.0000 0.0000 0.0000 8.7813 0.0000 22.2891
#
#
#
# Elastic Compliance Matrix: (Units=1/GPa)
#
#
# Indices 1 2 3 4 5 6 
#
# 1 0.019083 0.000214 -0.001920 0.000000 0.003722 0.000000
# 2 0.000214 0.013555 -0.002783 0.000000 -0.000354 0.000000
# 3 -0.001920 -0.002783 0.018573 0.000000 0.002855 0.000000
# 4 0.000000 0.000000 0.000000 -0.017250 0.000000 0.006796
# 5 0.003722 -0.000354 0.002855 0.000000 0.034406 0.000000
# 6 0.000000 0.000000 0.000000 0.006796 0.000000 0.042188
#
#
# Mechanical properties :
#
#
# Convention : Reuss Voigt Hill
#
# Bulk Modulus (GPa) = 23.67745 24.93734 24.30739
# Shear Modulus (GPa) = 37.42243 10.86485 24.14364
#
# Velocity S-wave (km/s) = 4.14468 2.23325 3.32910
# Velocity P-wave (km/s) = 5.81149 4.25407 5.09267
#
# Compressibility (1/GPa) = 0.04223427
#
# Stress axis : x y z
#
# Youngs Moduli (GPa) = 52.40390 73.77290 53.84110
#
# Poissons Ratio (x) = -0.01580 0.10336
# Poissons Ratio (y) = -0.01123 0.14983
# Poissons Ratio (z) = 0.10060 0.20530
#
# Static dielectric constant tensor:
#      x y z
#    x 1.769980 0.000000 -0.007510 
#    y 0.000000 1.805140 0.000000 
#    z -0.007510 0.000000 1.827710 
# 
# From -- ./inp_files/24488.got.cif
#   From: 2010.05.17/outbox.cif.g08.bks.cpg/sg13_13_cif.got.tgz:24488.got - 2010.06.03 16:44:36.
