data_PCOD9227337
_publ_section_title
;
Structure prediction by ZEFSAII (Michael W. Deem and Ramdas Pophale) SiO2 
 PCOD9227337
Probable space group: P 2/C
;
_chemical_formula_sum "Si O2"
_cell_formula_units_Z 32
_cell_length_a 21.821628
_cell_length_b 8.854345
_cell_length_c 14.310897
_cell_angle_alpha 90.000000
_cell_angle_beta 33.484163
_cell_angle_gamma 90.000000
_cell_volume 1525.522165
_symmetry_space_group_name_H-M "P 2/C"
_symmetry_group_IT_number 13
_symmetry_cell_setting 'monoclinic'
loop_
_space_group_symop_operation_xyz
x,y,z
-x,y,1/2-z
-x,-y,-z
x,-y,1/2+z
loop_
_atom_site_type_symbol
_atom_site_label
_atom_site_fract_x
_atom_site_fract_y
_atom_site_fract_z
Si Si1 0.385157 0.694751 0.783720
Si Si2 0.927988 0.615438 0.421051
Si Si3 0.178713 0.999957 0.214025
Si Si4 0.284591 0.573454 0.305997
Si Si5 0.108740 0.203225 0.050657
Si Si6 0.993335 0.765322 0.512522
Si Si7 0.804229 0.091770 0.019977
Si Si8 0.642940 0.242551 0.969955
O O1 0.372992 0.529983 0.749990
O O2 0.312124 0.821827 0.824131
O O3 0.509696 0.757648 0.630757
O O4 0.336898 0.686811 0.951636
O O5 0.810789 0.545442 0.594957
O O6 0.990930 0.640507 0.436485
O O7 0.892904 0.775529 0.419335
O O8 0.000000 0.533100 0.250000
O O9 0.289448 0.916394 0.113142
O O10 0.075207 0.890342 0.365530
O O11 0.128318 0.161181 0.311661
O O12 0.193385 0.991304 0.083325
O O13 0.211893 0.697356 0.456125
O O14 0.321028 0.657952 0.165258
O O15 0.000000 0.172084 0.250000
O O16 0.054607 0.281397 0.029011
O O17 0.161029 0.042018 0.955378
#
# Coordination Sequence:
#
# PCOD9227337 Si02
#       8
#     4   4   4   4   4   4   4   4
#     4   9  22  41  68  83 114 159 205 252 300 352
#     4  11  22  37  56  86 121 164 203 233 289 365
#     4  10  18  34  60  87 113 152 194 244 299 351
#     4  11  24  38  60  86 126 157 202 247 296 353
#     4  12  23  37  56  91 126 157 191 243 304 358
#     4  11  21  33  58  84 121 157 186 242 294 353
#     4  10  19  37  60  83 115 155 199 246 293 358
#     4  10  20  41  65  89 113 156 208 249 302 359
#
# _framework density 20.976423
#
# number of rings (size 3 to 8) (size 9 to 14) (size 15 to 20)
#    0.000    1.500    3.750    2.625    0.000    1.500 
#    0.000    0.625    2.750    1.500    0.000    0.000 
#    0.000    0.000    0.000    0.000    0.000    0.000 
#
# Total GULP energy -178274.047758 kJ/mol
# GULP energy per Si atom -5571.063992 kJ/mol
# Density = 2.092868 g / cm^3
# Si number density = 20.976423 Si / 1000 Ang^3
#
#
#
# Elastic Constant Matrix: (Units=GPa)
#
#
# Indices 1 2 3 4 5 6 
#
# 1 88.6739 27.2573 35.2078 0.0000 -5.9091 0.0000
# 2 27.2573 71.8958 27.9980 0.0000 -11.5648 0.0000
# 3 35.2078 27.9980 88.8041 0.0000 -5.9494 0.0000
# 4 0.0000 0.0000 0.0000 25.8768 0.0000 -4.8857
# 5 -5.9091 -11.5648 -5.9494 0.0000 36.2018 0.0000
# 6 0.0000 0.0000 0.0000 -4.8857 0.0000 31.7343
#
#
#
# Elastic Compliance Matrix: (Units=1/GPa)
#
#
# Indices 1 2 3 4 5 6 
#
# 1 0.014176 -0.003564 -0.004467 0.000000 0.000441 0.000000
# 2 -0.003564 0.017439 -0.003793 0.000000 0.004366 0.000000
# 3 -0.004467 -0.003793 0.014255 0.000000 0.000402 0.000000
# 4 0.000000 0.000000 0.000000 0.039802 0.000000 0.006128
# 5 0.000441 0.004366 0.000402 0.000000 0.029156 0.000000
# 6 0.000000 0.000000 0.000000 0.006128 0.000000 0.032455
#
#
# Mechanical properties :
#
#
# Convention : Reuss Voigt Hill
#
# Bulk Modulus (GPa) = 44.99977 47.81110 46.40544
# Shear Modulus (GPa) = 28.03679 29.35662 28.69671
#
# Velocity S-wave (km/s) = 3.65990 3.74506 3.70272
# Velocity P-wave (km/s) = 6.27367 6.44537 6.36010
#
# Compressibility (1/GPa) = 0.02222234
#
# Stress axis : x y z
#
# Youngs Moduli (GPa) = 70.54280 57.34120 70.15321
#
# Poissons Ratio (x) = 0.20435 0.31338
# Poissons Ratio (y) = 0.25140 0.26608
# Poissons Ratio (z) = 0.31512 0.21749
#
# Static dielectric constant tensor:
#      x y z
#    x 1.809040 0.000000 0.043820 
#    y 0.000000 1.823000 0.000000 
#    z 0.043820 0.000000 1.780450 
# 
# From -- ./inp_files/58804.got.cif
#   From: 2010.05.17/outbox.cif.g08.bks.cpg/sg13_30_cif.got.tgz:58804.got - 2010.06.03 16:44:36.
