data_PCOD9227849
_publ_section_title
;
Structure prediction by ZEFSAII (Michael W. Deem and Ramdas Pophale) SiO2 
 PCOD9227849
Probable space group: P 2/C
;
_chemical_formula_sum "Si O2"
_cell_formula_units_Z 30
_cell_length_a 16.295128
_cell_length_b 5.998561
_cell_length_c 20.771480
_cell_angle_alpha 90.000000
_cell_angle_beta 127.873823
_cell_angle_gamma 90.000000
_cell_volume 1602.691647
_symmetry_space_group_name_H-M "P 2/C"
_symmetry_group_IT_number 13
_symmetry_cell_setting 'monoclinic'
loop_
_space_group_symop_operation_xyz
x,y,z
-x,y,1/2-z
-x,-y,-z
x,-y,1/2+z
loop_
_atom_site_type_symbol
_atom_site_label
_atom_site_fract_x
_atom_site_fract_y
_atom_site_fract_z
Si Si1 0.654953 0.936221 0.541911
Si Si2 0.932944 0.185320 0.930733
Si Si3 0.820181 0.713676 0.101478
Si Si4 0.100433 0.836049 0.687272
Si Si5 0.091348 0.566314 0.960311
Si Si6 0.536362 0.310879 0.567510
Si Si7 0.000000 0.938528 0.250000
Si Si8 0.269826 0.555773 0.823108
O O1 0.568996 0.805116 0.457780
O O2 0.695931 0.761345 0.614585
O O3 0.746881 0.074097 0.551989
O O4 0.593986 0.123987 0.553041
O O5 0.016865 0.361818 0.945163
O O6 0.876313 0.047665 0.847133
O O7 0.869318 0.314538 0.955623
O O8 0.000000 0.000000 0.000000
O O9 0.823044 0.528610 0.047238
O O10 0.787137 0.609210 0.154061
O O11 0.938021 0.793191 0.168824
O O12 0.190260 0.651008 0.732219
O O13 0.989270 0.732778 0.613714
O O14 0.083270 0.916608 0.751873
O O15 0.500000 0.500000 0.500000
O O16 0.626757 0.429924 0.652313
#
# Coordination Sequence:
#
# PCOD9227849 Si02
#       8
#     4   4   4   4   4   4   2   4
#     4   9  17  30  45  67  98 137 170 201 258 326
#     4   9  20  35  49  62  89 141 186 217 261 296
#     4  11  20  29  45  70 101 137 182 218 262 318
#     4  11  20  31  46  68 101 136 183 221 264 320
#     4  10  20  34  48  65  95 142 185 224 251 305
#     4   8  16  30  46  64  96 136 167 199 257 323
#     4  12  20  30  42  72 108 136 182 212 264 310
#     4  10  19  29  46  73  99 136 172 216 262 321
#
# _framework density 18.718510999999999
#
# number of rings (size 3 to 8) (size 9 to 14) (size 15 to 20)
#    0.000    2.133    2.667    1.600    0.000    0.000 
#    0.000    0.000    0.000    0.000    0.000    0.000 
#    0.000    0.000    0.000 1185.600    0.000    0.000 
#
# Total GULP energy -167093.389130 kJ/mol
# GULP energy per Si atom -5569.779638 kJ/mol
# Density = 1.867591 g / cm^3
# Si number density = 18.718511 Si / 1000 Ang^3
#
#
#
# Elastic Constant Matrix: (Units=GPa)
#
#
# Indices 1 2 3 4 5 6 
#
# 1 49.2725 21.4560 33.2830 0.0000 10.1155 0.0000
# 2 21.4560 78.0725 20.8271 0.0000 5.3483 0.0000
# 3 33.2830 20.8271 51.3430 0.0000 3.0713 0.0000
# 4 0.0000 0.0000 0.0000 34.4775 0.0000 4.8363
# 5 10.1155 5.3483 3.0713 0.0000 26.3502 0.0000
# 6 0.0000 0.0000 0.0000 4.8363 0.0000 30.6552
#
#
#
# Elastic Compliance Matrix: (Units=1/GPa)
#
#
# Indices 1 2 3 4 5 6 
#
# 1 0.040771 -0.003949 -0.024108 0.000000 -0.012040 0.000000
# 2 -0.003949 0.014879 -0.003410 0.000000 -0.001107 0.000000
# 3 -0.024108 -0.003410 0.036145 0.000000 0.005734 0.000000
# 4 0.000000 0.000000 0.000000 0.029661 0.000000 -0.004679
# 5 -0.012040 -0.001107 0.005734 0.000000 0.042129 0.000000
# 6 0.000000 0.000000 0.000000 -0.004679 0.000000 0.033359
#
#
# Mechanical properties :
#
#
# Convention : Reuss Voigt Hill
#
# Bulk Modulus (GPa) = 34.64689 36.64668 35.64679
# Shear Modulus (GPa) = 18.55310 25.17139 21.86225
#
# Velocity S-wave (km/s) = 3.15169 3.67104 3.42123
# Velocity P-wave (km/s) = 5.63860 6.13098 5.88994
#
# Compressibility (1/GPa) = 0.02886262
#
# Stress axis : x y z
#
# Youngs Moduli (GPa) = 24.52724 67.20771 27.66662
#
# Poissons Ratio (x) = 0.26539 0.66698
# Poissons Ratio (y) = 0.09686 0.09433
# Poissons Ratio (z) = 0.59129 0.22915
#
# Static dielectric constant tensor:
#      x y z
#    x 1.702880 0.000000 0.021200 
#    y 0.000000 1.736640 0.000000 
#    z 0.021200 0.000000 1.706930 
# 
# From -- ./inp_files/79358.got.cif
#   From: 2010.05.17/outbox.cif.g08.bks.cpg/sg13_40_cif.got.tgz:79358.got - 2010.06.03 16:44:36.
