data_PCOD9227767
_publ_section_title
;
Structure prediction by ZEFSAII (Michael W. Deem and Ramdas Pophale) SiO2 
 PCOD9227767
Probable space group: P 2/C
;
_chemical_formula_sum "Si O2"
_cell_formula_units_Z 22
_cell_length_a 11.404872
_cell_length_b 7.513302
_cell_length_c 15.462417
_cell_angle_alpha 90.000000
_cell_angle_beta 62.334626
_cell_angle_gamma 90.000000
_cell_volume 1173.471989
_symmetry_space_group_name_H-M "P 2/C"
_symmetry_group_IT_number 13
_symmetry_cell_setting 'monoclinic'
loop_
_space_group_symop_operation_xyz
x,y,z
-x,y,1/2-z
-x,-y,-z
x,-y,1/2+z
loop_
_atom_site_type_symbol
_atom_site_label
_atom_site_fract_x
_atom_site_fract_y
_atom_site_fract_z
Si Si1 0.500000 0.697604 0.250000
Si Si2 0.300000 0.880029 0.446010
Si Si3 0.057297 0.315997 0.938857
Si Si4 0.232624 0.272462 0.453400
Si Si5 0.347961 0.433628 0.045432
Si Si6 0.739550 0.520902 0.734708
O O1 0.406181 0.816379 0.339826
O O2 0.401959 0.571365 0.231166
O O3 0.157458 0.800414 0.462833
O O4 0.339907 0.768914 0.516216
O O5 0.307993 0.091195 0.448133
O O6 0.144307 0.381176 0.828163
O O7 0.000000 0.500000 0.000000
O O8 0.918599 0.222029 0.970638
O O9 0.281659 0.437698 0.495220
O O10 0.246390 0.331208 0.347195
O O11 0.265816 0.434915 0.162820
O O12 0.500000 0.500000 0.000000
#
# Coordination Sequence:
#
# PCOD9227767 Si02
#       6
#     2   4   4   4   4   4
#     4  10  18  40  60  86 122 170 202 250 310 370
#     4  11  22  39  66  93 123 163 214 259 308 369
#     4   9  18  41  67  84 121 168 204 252 317 365
#     4  11  23  42  65  91 125 166 209 262 309 367
#     4  12  23  40  63  91 131 162 208 253 314 376
#     4  10  20  39  65  86 126 170 202 253 314 366
#
# _framework density 18.747786000000001
#
# number of rings (size 3 to 8) (size 9 to 14) (size 15 to 20)
#    0.000    1.455    7.273    0.545    0.000    3.636 
#    6.545    0.000    8.000    0.000    0.000    0.000 
#    0.000    0.000    0.000    0.000    0.000    0.000 
#
# Total GULP energy -122509.012652 kJ/mol
# GULP energy per Si atom -5568.591484 kJ/mol
# Density = 1.870511 g / cm^3
# Si number density = 18.747786 Si / 1000 Ang^3
#
#
#
# Elastic Constant Matrix: (Units=GPa)
#
#
# Indices 1 2 3 4 5 6 
#
# 1 53.6846 -4.9052 17.5628 0.0000 -20.6050 0.0000
# 2 -4.9052 89.1650 21.1723 0.0000 8.1131 0.0000
# 3 17.5628 21.1723 94.4146 0.0000 15.5697 0.0000
# 4 0.0000 0.0000 0.0000 5.4975 0.0000 -4.0367
# 5 -20.6050 8.1131 15.5697 0.0000 28.3266 0.0000
# 6 0.0000 0.0000 0.0000 -4.0367 0.0000 21.0798
#
#
#
# Elastic Compliance Matrix: (Units=1/GPa)
#
#
# Indices 1 2 3 4 5 6 
#
# 1 0.034819 0.001927 -0.012091 0.000000 0.031421 0.000000
# 2 0.001927 0.012070 -0.002998 0.000000 -0.000407 0.000000
# 3 -0.012091 -0.002998 0.016299 0.000000 -0.016895 0.000000
# 4 0.000000 0.000000 0.000000 0.211665 0.000000 0.040533
# 5 0.031421 -0.000407 -0.016895 0.000000 0.067561 0.000000
# 6 0.000000 0.000000 0.000000 0.040533 0.000000 0.055201
#
#
# Mechanical properties :
#
#
# Convention : Reuss Voigt Hill
#
# Bulk Modulus (GPa) = 27.12585 33.88044 30.50314
# Shear Modulus (GPa) = 11.46194 24.54304 18.00249
#
# Velocity S-wave (km/s) = 2.47528 3.62210 3.10215
# Velocity P-wave (km/s) = 4.76126 5.96688 5.39784
#
# Compressibility (1/GPa) = 0.03686521
#
# Stress axis : x y z
#
# Youngs Moduli (GPa) = 28.72016 82.84903 61.35308
#
# Poissons Ratio (x) = -0.15968 0.74180
# Poissons Ratio (y) = -0.05536 0.18394
# Poissons Ratio (z) = 0.34725 0.24839
#
# Static dielectric constant tensor:
#      x y z
#    x 1.460310 0.000000 0.254840 
#    y 0.000000 1.672890 0.000000 
#    z 0.254840 0.000000 1.433820 
# 
# From -- ./inp_files/49223.got.cif
#   From: 2010.05.17/outbox.cif.g08.bks.cpg/sg13_25_cif.got.tgz:49223.got - 2010.06.03 16:44:36.
