data_PCOD9227082
_publ_section_title
;
Structure prediction by ZEFSAII (Michael W. Deem and Ramdas Pophale) SiO2 
 PCOD9227082
Probable space group: P 2/C
;
_chemical_formula_sum "Si O2"
_cell_formula_units_Z 22
_cell_length_a 15.011958
_cell_length_b 6.308572
_cell_length_c 19.342279
_cell_angle_alpha 90.000000
_cell_angle_beta 38.169639
_cell_angle_gamma 90.000000
_cell_volume 1132.032302
_symmetry_space_group_name_H-M "P 2/C"
_symmetry_group_IT_number 13
_symmetry_cell_setting 'monoclinic'
loop_
_space_group_symop_operation_xyz
x,y,z
-x,y,1/2-z
-x,-y,-z
x,-y,1/2+z
loop_
_atom_site_type_symbol
_atom_site_label
_atom_site_fract_x
_atom_site_fract_y
_atom_site_fract_z
Si Si1 0.982663 0.195968 0.179447
Si Si2 0.222863 0.899246 0.042740
Si Si3 0.000000 0.603453 0.250000
Si Si4 0.470039 0.606296 0.845062
Si Si5 0.452341 0.773512 0.463370
Si Si6 0.336512 0.143534 0.175705
O O1 0.832735 0.147426 0.234613
O O2 0.000000 0.130514 0.250000
O O3 0.988553 0.449261 0.189633
O O4 0.110834 0.052568 0.070631
O O5 0.138525 0.744535 0.147334
O O6 0.327728 0.752843 0.933639
O O7 0.328059 0.059131 0.018488
O O8 0.500000 0.527330 0.750000
O O9 0.448262 0.416478 0.912367
O O10 0.602783 0.748813 0.792294
O O11 0.412653 0.724515 0.566630
O O12 0.599636 0.906596 0.369020
#
# Coordination Sequence:
#
# PCOD9227082 Si02
#       6
#     4   4   2   4   4   4
#     4  10  19  33  58  95 123 148 184 254 311 346
#     4  11  19  36  61  89 121 157 197 242 306 352
#     4  10  18  32  60  94 122 144 190 246 312 354
#     4  11  25  40  58  85 126 170 202 238 294 361
#     4  10  20  37  60  88 120 153 204 257 297 341
#     4  10  20  36  61  92 114 151 204 256 299 350
#
# _framework density 19.434073999999999
#
# number of rings (size 3 to 8) (size 9 to 14) (size 15 to 20)
#    0.545    1.091    2.727    2.727    0.000    7.273 
#    0.000    0.909    0.000    5.455    0.000    0.000 
#    0.000    0.000    0.000    0.000    0.000    0.000 
#
# Total GULP energy -122536.076817 kJ/mol
# GULP energy per Si atom -5569.821674 kJ/mol
# Density = 1.938984 g / cm^3
# Si number density = 19.434074 Si / 1000 Ang^3
#
#
#
# Elastic Constant Matrix: (Units=GPa)
#
#
# Indices 1 2 3 4 5 6 
#
# 1 74.7351 30.5596 38.8086 0.0000 -19.8771 0.0000
# 2 30.5596 79.5096 38.5480 0.0000 -14.1116 0.0000
# 3 38.8086 38.5480 49.4968 0.0000 -14.5369 0.0000
# 4 0.0000 0.0000 0.0000 13.4544 0.0000 -7.5091
# 5 -19.8771 -14.1116 -14.5369 0.0000 45.6723 0.0000
# 6 0.0000 0.0000 0.0000 -7.5091 0.0000 19.7248
#
#
#
# Elastic Compliance Matrix: (Units=1/GPa)
#
#
# Indices 1 2 3 4 5 6 
#
# 1 0.023491 0.000112 -0.017091 0.000000 0.004819 0.000000
# 2 0.000112 0.020284 -0.015477 0.000000 0.001390 0.000000
# 3 -0.017091 -0.015477 0.046406 0.000000 0.002550 0.000000
# 4 0.000000 0.000000 0.000000 0.094377 0.000000 0.035929
# 5 0.004819 0.001390 0.002550 0.000000 0.025233 0.000000
# 6 0.000000 0.000000 0.000000 0.035929 0.000000 0.064376
#
#
# Mechanical properties :
#
#
# Convention : Reuss Voigt Hill
#
# Bulk Modulus (GPa) = 39.57217 46.61931 43.09574
# Shear Modulus (GPa) = 14.38834 22.15865 18.27349
#
# Velocity S-wave (km/s) = 2.72392 3.38034 3.06973
# Velocity P-wave (km/s) = 5.50449 6.26707 5.89812
#
# Compressibility (1/GPa) = 0.02527029
#
# Stress axis : x y z
#
# Youngs Moduli (GPa) = 42.56904 49.29906 21.54872
#
# Poissons Ratio (x) = -0.00554 0.36829
# Poissons Ratio (y) = -0.00479 0.33352
# Poissons Ratio (z) = 0.72755 0.76302
#
# Static dielectric constant tensor:
#      x y z
#    x 1.685990 0.000000 -0.014650 
#    y 0.000000 1.750440 0.000000 
#    z -0.014650 0.000000 1.717840 
# 
# From -- ./inp_files/79234.got.cif
#   From: 2010.05.17/outbox.cif.g08.bks.cpg/sg13_40_cif.got.tgz:79234.got - 2010.06.03 16:44:36.
