data_PCOD9227143
_publ_section_title
;
Structure prediction by ZEFSAII (Michael W. Deem and Ramdas Pophale) SiO2 
 PCOD9227143
Probable space group: P 2/C
;
_chemical_formula_sum "Si O2"
_cell_formula_units_Z 28
_cell_length_a 30.536460
_cell_length_b 9.274454
_cell_length_c 8.902780
_cell_angle_alpha 90.000000
_cell_angle_beta 143.417569
_cell_angle_gamma 90.000000
_cell_volume 1502.669257
_symmetry_space_group_name_H-M "P 2/C"
_symmetry_group_IT_number 13
_symmetry_cell_setting 'monoclinic'
loop_
_space_group_symop_operation_xyz
x,y,z
-x,y,1/2-z
-x,-y,-z
x,-y,1/2+z
loop_
_atom_site_type_symbol
_atom_site_label
_atom_site_fract_x
_atom_site_fract_y
_atom_site_fract_z
Si Si1 0.204960 0.062990 0.339576
Si Si2 0.552469 0.065915 0.272545
Si Si3 0.158353 0.179525 0.529071
Si Si4 0.646485 0.872763 0.757185
Si Si5 0.053696 0.572393 0.764093
Si Si6 0.804791 0.374113 0.331231
Si Si7 0.743004 0.617529 0.992802
O O1 0.191415 0.106100 0.473437
O O2 0.197515 0.208350 0.223052
O O3 0.283597 0.982203 0.541021
O O4 0.146501 0.946439 0.117422
O O5 0.500000 0.146143 0.250000
O O6 0.612356 0.142035 0.330666
O O7 0.592804 0.945746 0.486544
O O8 0.500000 0.000000 0.000000
O O9 0.091226 0.283053 0.305390
O O10 0.214458 0.288923 0.764247
O O11 0.671273 0.714554 0.770851
O O12 0.000000 0.614164 0.750000
O O13 0.000000 0.500000 0.500000
O O14 0.118044 0.457737 0.985367
O O15 0.743340 0.458816 0.063941
O O16 0.787045 0.387204 0.458344
#
# Coordination Sequence:
#
# PCOD9227143 Si02
#       7
#     4   4   4   4   4   4   4
#     4  11  20  35  58  83 113 140 178 244 293 326
#     4   9  18  31  51  83 117 147 180 219 260 320
#     4  10  21  36  54  81 109 141 182 237 288 326
#     4  10  18  33  55  84 111 142 180 224 281 330
#     4  11  22  39  57  74 105 151 191 224 277 357
#     4  11  21  36  56  83 110 142 185 240 287 332
#     4  10  20  34  54  82 112 141 183 234 282 333
#
# _framework density 18.633506000000001
#
# number of rings (size 3 to 8) (size 9 to 14) (size 15 to 20)
#    0.000    1.714    0.000    8.571    0.000    0.000 
#    0.000    3.571    0.000    0.000    0.000   63.000 
#    0.000    0.000    0.000    0.000    0.000    0.000 
#
# Total GULP energy -155977.198146 kJ/mol
# GULP energy per Si atom -5570.614219 kJ/mol
# Density = 1.859110 g / cm^3
# Si number density = 18.633506 Si / 1000 Ang^3
#
#
#
# Elastic Constant Matrix: (Units=GPa)
#
#
# Indices 1 2 3 4 5 6 
#
# 1 101.1006 -4.4958 11.3880 0.0000 1.1564 0.0000
# 2 -4.4958 81.4676 26.7790 0.0000 12.3413 0.0000
# 3 11.3880 26.7790 70.0880 0.0000 -2.9854 0.0000
# 4 0.0000 0.0000 0.0000 17.6891 0.0000 -15.5236
# 5 1.1564 12.3413 -2.9854 0.0000 28.8946 0.0000
# 6 0.0000 0.0000 0.0000 -15.5236 0.0000 14.1366
#
#
#
# Elastic Compliance Matrix: (Units=1/GPa)
#
#
# Indices 1 2 3 4 5 6 
#
# 1 0.010232 0.001516 -0.002297 0.000000 -0.001294 0.000000
# 2 0.001516 0.015629 -0.006533 0.000000 -0.007411 0.000000
# 3 -0.002297 -0.006533 0.017336 0.000000 0.004674 0.000000
# 4 0.000000 0.000000 0.000000 1.556272 0.000000 1.708955
# 5 -0.001294 -0.007411 0.004674 0.000000 0.038309 0.000000
# 6 0.000000 0.000000 0.000000 1.708955 0.000000 1.947356
#
#
# Mechanical properties :
#
#
# Convention : Reuss Voigt Hill
#
# Bulk Modulus (GPa) = 35.00392 35.55540 35.27966
# Shear Modulus (GPa) = 1.38532 26.74305 14.06419
#
# Velocity S-wave (km/s) = 0.86317 3.79253 2.75031
# Velocity P-wave (km/s) = 4.45193 6.18875 5.39074
#
# Compressibility (1/GPa) = 0.02856823
#
# Stress axis : x y z
#
# Youngs Moduli (GPa) = 97.73211 63.98491 57.68256
#
# Poissons Ratio (x) = -0.09698 0.13248
# Poissons Ratio (y) = -0.14813 0.37686
# Poissons Ratio (z) = 0.22447 0.41803
#
# Static dielectric constant tensor:
#      x y z
#    x 1.675910 0.000000 0.030010 
#    y 0.000000 1.634580 0.000000 
#    z 0.030010 0.000000 1.693940 
# 
# From -- ./inp_files/24579.got.cif
#   From: 2010.05.17/outbox.cif.g08.bks.cpg/sg13_13_cif.got.tgz:24579.got - 2010.06.03 16:44:36.
