data_PCOD9227045
_publ_section_title
;
Structure prediction by ZEFSAII (Michael W. Deem and Ramdas Pophale) SiO2 
 PCOD9227045
Probable space group: P 2/C
;
_chemical_formula_sum "Si O2"
_cell_formula_units_Z 30
_cell_length_a 14.174016
_cell_length_b 9.104185
_cell_length_c 22.854283
_cell_angle_alpha 90.000000
_cell_angle_beta 30.467933
_cell_angle_gamma 90.000000
_cell_volume 1495.400646
_symmetry_space_group_name_H-M "P 2/C"
_symmetry_group_IT_number 13
_symmetry_cell_setting 'monoclinic'
loop_
_space_group_symop_operation_xyz
x,y,z
-x,y,1/2-z
-x,-y,-z
x,-y,1/2+z
loop_
_atom_site_type_symbol
_atom_site_label
_atom_site_fract_x
_atom_site_fract_y
_atom_site_fract_z
Si Si1 0.500000 0.932319 0.750000
Si Si2 0.430237 0.367974 0.452424
Si Si3 0.480277 0.827520 0.359593
Si Si4 0.384042 0.321731 0.608641
Si Si5 0.782588 0.613691 0.145214
Si Si6 0.913055 0.284670 0.447745
Si Si7 0.010005 0.401614 0.637087
Si Si8 0.718996 0.728992 0.702177
O O1 0.669191 0.823756 0.672543
O O2 0.508737 0.032461 0.687975
O O3 0.446505 0.303903 0.508884
O O4 0.506529 0.536901 0.420897
O O5 0.215894 0.357613 0.546505
O O6 0.555280 0.288433 0.337095
O O7 0.574120 0.817721 0.372859
O O8 0.595917 0.700548 0.262974
O O9 0.263033 0.795230 0.484368
O O10 0.164131 0.358831 0.729089
O O11 0.939157 0.650269 0.110526
O O12 0.840788 0.657446 0.049401
O O13 0.244752 0.560812 0.836247
O O14 0.975902 0.422080 0.375362
O O15 0.101742 0.201445 0.362305
#
# Coordination Sequence:
#
# PCOD9227045 Si02
#       8
#     2   4   4   4   4   4   4   4
#     4  12  28  38  60  86 130 168 210 252 304 366
#     4  11  20  36  59  93 123 152 199 267 306 356
#     4  11  21  43  58  86 121 172 202 245 313 374
#     4  10  21  36  62  87 122 162 203 248 310 372
#     4  10  20  36  62  86 126 158 200 250 322 369
#     4  11  19  35  61  87 125 160 197 253 316 368
#     4  10  18  32  56  97 115 154 194 255 305 366
#     4  11  24  37  56  98 120 153 209 263 303 357
#
# _framework density 20.061515
#
# number of rings (size 3 to 8) (size 9 to 14) (size 15 to 20)
#    0.000    1.333    6.667    2.000    5.600    0.533 
#    0.000    1.333    0.000    0.000    0.000    0.000 
#    0.000    0.000    0.000    0.000    0.000    0.000 
#
# Total GULP energy -167328.103889 kJ/mol
# GULP energy per Si atom -5577.603463 kJ/mol
# Density = 2.001585 g / cm^3
# Si number density = 20.061515 Si / 1000 Ang^3
#
#
#
# Elastic Constant Matrix: (Units=GPa)
#
#
# Indices 1 2 3 4 5 6 
#
# 1 89.4508 34.6422 39.4028 0.0000 -15.4050 0.0000
# 2 34.6422 32.4438 4.6808 0.0000 -2.3933 0.0000
# 3 39.4028 4.6808 79.6583 0.0000 -15.7089 0.0000
# 4 0.0000 0.0000 0.0000 1.2664 0.0000 10.6201
# 5 -15.4050 -2.3933 -15.7089 0.0000 49.8070 0.0000
# 6 0.0000 0.0000 0.0000 10.6201 0.0000 18.0681
#
#
#
# Elastic Compliance Matrix: (Units=1/GPa)
#
#
# Indices 1 2 3 4 5 6 
#
# 1 0.027276 -0.027246 -0.011181 0.000000 0.003601 0.000000
# 2 -0.027246 0.058346 0.009533 0.000000 -0.002617 0.000000
# 3 -0.011181 0.009533 0.018056 0.000000 0.002694 0.000000
# 4 0.000000 0.000000 0.000000 -0.200970 0.000000 0.118126
# 5 0.003601 -0.002617 0.002694 0.000000 0.021915 0.000000
# 6 0.000000 0.000000 0.000000 0.118126 0.000000 -0.014087
#
#
# Mechanical properties :
#
#
# Convention : Reuss Voigt Hill
#
# Bulk Modulus (GPa) = 21.79160 39.88938 30.84049
# Shear Modulus (GPa) = -305.28774 22.01680 -141.63547
#
# Velocity S-wave (km/s) = -12.34934 3.31639 -8.41153
# Velocity P-wave (km/s) = 13.87284 5.88144 8.88438
#
# Compressibility (1/GPa) = 0.04588925
#
# Stress axis : x y z
#
# Youngs Moduli (GPa) = 36.66186 17.13912 55.38473
#
# Poissons Ratio (x) = 0.46697 0.61926
# Poissons Ratio (y) = 0.99888 -0.52796
# Poissons Ratio (z) = 0.40992 -0.16338
#
# Static dielectric constant tensor:
#      x y z
#    x 1.774930 0.000000 -0.038900 
#    y 0.000000 1.724340 0.000000 
#    z -0.038900 0.000000 1.740800 
# 
# From -- ./inp_files/87285.got.cif
#   From: 2010.05.17/outbox.cif.g08.bks.cpg/sg13_44_cif.got.tgz:87285.got - 2010.06.03 16:44:36.
