data_PCOD9227134
_publ_section_title
;
Structure prediction by ZEFSAII (Michael W. Deem and Ramdas Pophale) SiO2 
 PCOD9227134
Probable space group: P 2/C
;
_chemical_formula_sum "Si O2"
_cell_formula_units_Z 28
_cell_length_a 9.449190
_cell_length_b 9.062930
_cell_length_c 18.379911
_cell_angle_alpha 90.000000
_cell_angle_beta 84.960447
_cell_angle_gamma 90.000000
_cell_volume 1567.922179
_symmetry_space_group_name_H-M "P 2/C"
_symmetry_group_IT_number 13
_symmetry_cell_setting 'monoclinic'
loop_
_space_group_symop_operation_xyz
x,y,z
-x,y,1/2-z
-x,-y,-z
x,-y,1/2+z
loop_
_atom_site_type_symbol
_atom_site_label
_atom_site_fract_x
_atom_site_fract_y
_atom_site_fract_z
Si Si1 0.639288 0.831361 0.018409
Si Si2 0.285346 0.013363 0.135490
Si Si3 0.460279 0.747798 0.675291
Si Si4 0.230837 0.402858 0.080492
Si Si5 0.988049 0.208427 0.336637
Si Si6 0.265201 0.880598 0.911469
Si Si7 0.314955 0.261300 0.558451
O O1 0.484887 0.760470 0.039081
O O2 0.691616 0.947669 0.076799
O O3 0.742725 0.696378 0.992852
O O4 0.640111 0.929341 0.943560
O O5 0.283246 0.838985 0.130411
O O6 0.375943 0.097520 0.192296
O O7 0.129911 0.081969 0.144929
O O8 0.500000 0.677495 0.750000
O O9 0.352390 0.651791 0.632160
O O10 0.602052 0.790181 0.626442
O O11 0.080933 0.351863 0.121143
O O12 0.260926 0.573148 0.066497
O O13 0.000000 0.234071 0.250000
O O14 0.132446 0.152014 0.366089
O O15 0.238125 0.813897 0.992850
#
# Coordination Sequence:
#
# PCOD9227134 Si02
#       7
#     4   4   4   4   4   4   4
#     4   9  17  32  55  85 107 132 178 232 274 317
#     4   9  18  34  55  80 104 135 183 229 272 305
#     4  10  18  33  55  77 101 148 193 216 260 328
#     4  10  22  34  55  82 115 147 171 224 286 335
#     4  10  22  39  54  77 109 150 192 220 264 337
#     4  11  18  32  60  80 105 143 182 237 270 311
#     4  11  18  34  57  84 116 132 176 239 285 324
#
# _framework density 17.858028000000001
#
# number of rings (size 3 to 8) (size 9 to 14) (size 15 to 20)
#    0.000    2.286    4.286    3.000    0.000    5.714 
#    0.000    1.429    0.000    0.000    0.000    0.000 
#    0.000    0.000    0.000    0.000    0.000    0.000 
#
# Total GULP energy -155908.378725 kJ/mol
# GULP energy per Si atom -5568.156383 kJ/mol
# Density = 1.781738 g / cm^3
# Si number density = 17.858028 Si / 1000 Ang^3
#
#
#
# Elastic Constant Matrix: (Units=GPa)
#
#
# Indices 1 2 3 4 5 6 
#
# 1 88.3040 9.3788 16.7511 0.0000 9.6730 0.0000
# 2 9.3788 110.7061 13.2204 0.0000 -5.2313 0.0000
# 3 16.7511 13.2204 36.1159 0.0000 6.8480 0.0000
# 4 0.0000 0.0000 0.0000 8.6198 0.0000 0.0276
# 5 9.6730 -5.2313 6.8480 0.0000 27.9356 0.0000
# 6 0.0000 0.0000 0.0000 0.0276 0.0000 16.2208
#
#
#
# Elastic Compliance Matrix: (Units=1/GPa)
#
#
# Indices 1 2 3 4 5 6 
#
# 1 0.012707 -0.000630 -0.005041 0.000000 -0.003282 0.000000
# 2 -0.000630 0.009682 -0.003815 0.000000 0.002966 0.000000
# 3 -0.005041 -0.003815 0.032750 0.000000 -0.006997 0.000000
# 4 0.000000 0.000000 0.000000 0.116012 0.000000 -0.000197
# 5 -0.003282 0.002966 -0.006997 0.000000 0.039204 0.000000
# 6 0.000000 0.000000 0.000000 -0.000197 0.000000 0.061650
#
#
# Mechanical properties :
#
#
# Convention : Reuss Voigt Hill
#
# Bulk Modulus (GPa) = 27.64827 34.86962 31.25895
# Shear Modulus (GPa) = 16.49996 23.60695 20.05345
#
# Velocity S-wave (km/s) = 3.04296 3.63977 3.35466
# Velocity P-wave (km/s) = 5.27844 6.10183 5.70501
#
# Compressibility (1/GPa) = 0.03616863
#
# Stress axis : x y z
#
# Youngs Moduli (GPa) = 78.69568 103.28490 30.53465
#
# Poissons Ratio (x) = 0.06503 0.15392
# Poissons Ratio (y) = 0.04955 0.11648
# Poissons Ratio (z) = 0.39670 0.39398
#
# Static dielectric constant tensor:
#      x y z
#    x 1.631210 0.000000 -0.004700 
#    y 0.000000 1.642020 0.000000 
#    z -0.004700 0.000000 1.664660 
# 
# From -- ./inp_files/75298.got.cif
#   From: 2010.05.17/outbox.cif.g08.bks.cpg/sg13_38_cif.got.tgz:75298.got - 2010.06.03 16:44:36.
