data_PCOD9227829
_publ_section_title
;
Structure prediction by ZEFSAII (Michael W. Deem and Ramdas Pophale) SiO2 
 PCOD9227829
Probable space group: P 2/C
;
_chemical_formula_sum "Si O2"
_cell_formula_units_Z 32
_cell_length_a 13.322221
_cell_length_b 26.305070
_cell_length_c 5.306175
_cell_angle_alpha 90.000000
_cell_angle_beta 110.893503
_cell_angle_gamma 90.000000
_cell_volume 1737.234358
_symmetry_space_group_name_H-M "P 2/C"
_symmetry_group_IT_number 13
_symmetry_cell_setting 'monoclinic'
loop_
_space_group_symop_operation_xyz
x,y,z
-x,y,1/2-z
-x,-y,-z
x,-y,1/2+z
loop_
_atom_site_type_symbol
_atom_site_label
_atom_site_fract_x
_atom_site_fract_y
_atom_site_fract_z
Si Si1 0.173170 0.985341 0.499743
Si Si2 0.756484 0.636399 0.513197
Si Si3 0.374227 0.466571 0.642130
Si Si4 0.301870 0.887797 0.608787
Si Si5 0.619240 0.937469 0.318602
Si Si6 0.728559 0.227941 0.526024
Si Si7 0.872374 0.675445 0.115372
Si Si8 0.377856 0.264357 0.566745
O O1 0.203479 0.926942 0.519081
O O2 0.115161 0.998812 0.699619
O O3 0.285631 0.019895 0.599352
O O4 0.704801 0.580912 0.459088
O O5 0.820424 0.648788 0.313980
O O6 0.660592 0.677557 0.443841
O O7 0.829675 0.648126 0.823407
O O8 0.500000 0.450168 0.750000
O O9 0.357810 0.504712 0.392604
O O10 0.373374 0.906526 0.435865
O O11 0.261332 0.831147 0.528902
O O12 0.358568 0.899622 0.926557
O O13 0.500000 0.959846 0.250000
O O14 0.828327 0.266327 0.575406
O O15 0.690319 0.234666 0.780237
O O16 0.644097 0.247331 0.238819
O O17 0.000000 0.674271 0.250000
O O18 0.500000 0.257971 0.750000
#
# Coordination Sequence:
#
# PCOD9227829 Si02
#       8
#     4   4   4   4   4   4   4   4
#     4   8  16  27  38  52  75 109 152 190 227 277
#     4  10  20  36  58  80 106 140 176 215 255 301
#     4  10  20  34  56  87 120 151 181 212 248 293
#     4  10  19  29  40  57  84 113 149 196 244 284
#     4  10  19  28  39  56  82 121 163 194 226 283
#     4  10  21  33  48  72  97 126 166 212 257 303
#     4  10  21  38  59  78  99 133 178 224 267 313
#     4  10  20  33  48  70 102 135 166 199 244 304
#
# _framework density 18.420083999999999
#
# number of rings (size 3 to 8) (size 9 to 14) (size 15 to 20)
#    0.000    2.250    0.000    3.000    0.000    7.500 
#    0.000    3.750    0.000    7.500    0.000    0.000 
#    0.000    9.000    0.000    0.000    0.000   13.750 
#
# Total GULP energy -178458.824059 kJ/mol
# GULP energy per Si atom -5576.838252 kJ/mol
# Density = 1.837816 g / cm^3
# Si number density = 18.420084 Si / 1000 Ang^3
#
#
#
# Elastic Constant Matrix: (Units=GPa)
#
#
# Indices 1 2 3 4 5 6 
#
# 1 45.0294 33.5865 26.4044 0.0000 5.8990 0.0000
# 2 33.5865 102.6526 27.1930 0.0000 12.2460 0.0000
# 3 26.4044 27.1930 103.3414 0.0000 -21.3818 0.0000
# 4 0.0000 0.0000 0.0000 20.3948 0.0000 -2.2121
# 5 5.8990 12.2460 -21.3818 0.0000 29.8844 0.0000
# 6 0.0000 0.0000 0.0000 -2.2121 0.0000 5.5032
#
#
#
# Elastic Compliance Matrix: (Units=1/GPa)
#
#
# Indices 1 2 3 4 5 6 
#
# 1 0.034467 -0.007754 -0.008822 0.000000 -0.009938 0.000000
# 2 -0.007754 0.013800 -0.002938 0.000000 -0.006227 0.000000
# 3 -0.008822 -0.002938 0.015627 0.000000 0.014126 0.000000
# 4 0.000000 0.000000 0.000000 0.051267 0.000000 0.020607
# 5 -0.009938 -0.006227 0.014126 0.000000 0.048083 0.000000
# 6 0.000000 0.000000 0.000000 0.020607 0.000000 0.189995
#
#
# Mechanical properties :
#
#
# Convention : Reuss Voigt Hill
#
# Bulk Modulus (GPa) = 40.21959 47.26570 43.74265
# Shear Modulus (GPa) = 12.48267 22.07911 17.28089
#
# Velocity S-wave (km/s) = 2.60603 3.46590 3.06625
# Velocity P-wave (km/s) = 5.56212 6.46005 6.02783
#
# Compressibility (1/GPa) = 0.02486350
#
# Stress axis : x y z
#
# Youngs Moduli (GPa) = 29.01353 72.46437 63.99284
#
# Poissons Ratio (x) = 0.56192 0.56456
# Poissons Ratio (y) = 0.22498 0.18803
# Poissons Ratio (z) = 0.25596 0.21292
#
# Static dielectric constant tensor:
#      x y z
#    x 1.621790 0.000000 -0.024550 
#    y 0.000000 1.612690 0.000000 
#    z -0.024550 0.000000 1.669790 
# 
# From -- ./inp_files/4439.got.cif
#   From: 2010.05.17/outbox.cif.g08.bks.cpg/sg13_3_cif.got.tgz:4439.got - 2010.06.03 16:44:36.
