data_PCOD9227012
_publ_section_title
;
Structure prediction by ZEFSAII (Michael W. Deem and Ramdas Pophale) SiO2 
 PCOD9227012
Probable space group: P 2/C
;
_chemical_formula_sum "Si O2"
_cell_formula_units_Z 28
_cell_length_a 17.045607
_cell_length_b 8.696609
_cell_length_c 13.886302
_cell_angle_alpha 90.000000
_cell_angle_beta 141.462950
_cell_angle_gamma 90.000000
_cell_volume 1282.482394
_symmetry_space_group_name_H-M "P 2/C"
_symmetry_group_IT_number 13
_symmetry_cell_setting 'monoclinic'
loop_
_space_group_symop_operation_xyz
x,y,z
-x,y,1/2-z
-x,-y,-z
x,-y,1/2+z
loop_
_atom_site_type_symbol
_atom_site_label
_atom_site_fract_x
_atom_site_fract_y
_atom_site_fract_z
Si Si1 0.399631 0.679965 0.580989
Si Si2 0.202907 0.373111 0.046489
Si Si3 0.199268 0.898833 0.292431
Si Si4 0.000000 0.163517 0.750000
Si Si5 0.759569 0.660977 0.319961
Si Si6 0.500000 0.500000 0.000000
Si Si7 0.648829 0.151203 0.166625
Si Si8 0.544824 0.864803 0.182767
O O1 0.500000 0.750616 0.750000
O O2 0.294907 0.593993 0.544246
O O3 0.322006 0.817069 0.456875
O O4 0.480992 0.569286 0.591326
O O5 0.160098 0.534539 0.048726
O O6 0.279401 0.270443 0.197376
O O7 0.089636 0.270530 0.899690
O O8 0.092366 0.926748 0.267692
O O9 0.164268 0.770138 0.179480
O O10 0.248100 0.052321 0.290636
O O11 0.647477 0.562555 0.162288
O O12 0.676797 0.774957 0.306354
O O13 0.573540 0.029386 0.160980
O O14 0.551461 0.215743 0.990260
O O15 0.500000 0.868671 0.250000
#
# Coordination Sequence:
#
# PCOD9227012 Si02
#       8
#     4   4   4   2   4   2   4   4
#     4  10  20  32  59  90 125 168 203 257 325 402
#     4  11  23  39  65  91 125 175 229 261 332 382
#     4   9  22  41  63  87 128 163 224 271 328 382
#     4  10  24  44  66  88 118 184 232 280 316 390
#     4  10  20  37  58  92 126 165 200 267 322 394
#     4  10  18  32  54  90 126 152 200 248 312 388
#     4  10  23  40  62  99 127 176 210 268 328 406
#     4  10  23  36  61  96 144 163 200 260 339 405
#
# _framework density 21.832659
#
# number of rings (size 3 to 8) (size 9 to 14) (size 15 to 20)
#    0.000    2.000    1.429    0.857   12.000    1.143 
#    2.571    0.000    0.000    2.571    0.000    0.000 
#    0.000    0.000    0.000    0.000    0.000    0.000 
#
# Total GULP energy -155914.086200 kJ/mol
# GULP energy per Si atom -5568.360221 kJ/mol
# Density = 2.178297 g / cm^3
# Si number density = 21.832659 Si / 1000 Ang^3
#
#
#
# Elastic Constant Matrix: (Units=GPa)
#
#
# Indices 1 2 3 4 5 6 
#
# 1 148.4779 26.3781 26.7631 0.0000 -4.1411 0.0000
# 2 26.3781 30.8625 22.2239 0.0000 -9.1494 0.0000
# 3 26.7631 22.2239 54.9135 0.0000 -13.4684 0.0000
# 4 0.0000 0.0000 0.0000 0.6602 0.0000 0.8678
# 5 -4.1411 -9.1494 -13.4684 0.0000 28.3564 0.0000
# 6 0.0000 0.0000 0.0000 0.8678 0.0000 21.3354
#
#
#
# Elastic Compliance Matrix: (Units=1/GPa)
#
#
# Indices 1 2 3 4 5 6 
#
# 1 0.008108 -0.006048 -0.001915 0.000000 -0.001677 0.000000
# 2 -0.006048 0.051411 -0.015854 0.000000 0.008175 0.000000
# 3 -0.001915 -0.015854 0.027433 0.000000 0.007635 0.000000
# 4 0.000000 0.000000 0.000000 1.600244 0.000000 -0.065089
# 5 -0.001677 0.008175 0.007635 0.000000 0.041284 0.000000
# 6 0.000000 0.000000 0.000000 -0.065089 0.000000 0.049518
#
#
# Mechanical properties :
#
#
# Convention : Reuss Voigt Hill
#
# Bulk Modulus (GPa) = 25.43405 42.77603 34.10504
# Shear Modulus (GPa) = 2.71926 20.66298 11.69112
#
# Velocity S-wave (km/s) = 1.11723 3.07974 2.31657
# Velocity P-wave (km/s) = 3.65227 5.68169 4.77602
#
# Compressibility (1/GPa) = 0.03931737
#
# Stress axis : x y z
#
# Youngs Moduli (GPa) = 123.33655 19.45126 36.45303
#
# Poissons Ratio (x) = 0.11764 0.06982
# Poissons Ratio (y) = 0.74592 0.57792
# Poissons Ratio (z) = 0.23622 0.30838
#
# Static dielectric constant tensor:
#      x y z
#    x 1.820320 0.000000 -0.057930 
#    y 0.000000 1.891170 0.000000 
#    z -0.057930 0.000000 1.844790 
# 
# From -- ./inp_files/55353.got.cif
#   From: 2010.05.17/outbox.cif.g08.bks.cpg/sg13_28_cif.got.tgz:55353.got - 2010.06.03 16:44:36.
