data_PCOD9227325
_publ_section_title
;
Structure prediction by ZEFSAII (Michael W. Deem and Ramdas Pophale) SiO2 
 PCOD9227325
Probable space group: P 2/C
;
_chemical_formula_sum "Si O2"
_cell_formula_units_Z 30
_cell_length_a 10.402995
_cell_length_b 16.924049
_cell_length_c 9.434815
_cell_angle_alpha 90.000000
_cell_angle_beta 116.818332
_cell_angle_gamma 90.000000
_cell_volume 1482.435534
_symmetry_space_group_name_H-M "P 2/C"
_symmetry_group_IT_number 13
_symmetry_cell_setting 'monoclinic'
loop_
_space_group_symop_operation_xyz
x,y,z
-x,y,1/2-z
-x,-y,-z
x,-y,1/2+z
loop_
_atom_site_type_symbol
_atom_site_label
_atom_site_fract_x
_atom_site_fract_y
_atom_site_fract_z
Si Si1 0.206346 0.211458 0.594670
Si Si2 0.361890 0.055942 0.785825
Si Si3 0.241320 0.323903 0.845288
Si Si4 0.573747 0.728197 0.506516
Si Si5 0.445218 0.892850 0.871922
Si Si6 0.000000 0.253790 0.250000
Si Si7 0.888146 0.509512 0.318144
Si Si8 0.230559 0.348780 0.176867
O O1 0.263449 0.125867 0.675822
O O2 0.156998 0.257531 0.712147
O O3 0.326065 0.272134 0.583697
O O4 0.090726 0.205045 0.411082
O O5 0.500000 0.056229 0.750000
O O6 0.329728 0.962171 0.783814
O O7 0.418285 0.074885 0.971591
O O8 0.189350 0.407574 0.753858
O O9 0.409071 0.298167 0.908752
O O10 0.218383 0.329174 0.004186
O O11 0.599499 0.820036 0.556589
O O12 0.630994 0.683347 0.672624
O O13 0.500000 0.861857 0.750000
O O14 0.897988 0.308248 0.297046
O O15 0.773736 0.441732 0.293916
O O16 0.000000 0.491580 0.250000
O O17 0.000000 0.500000 0.500000
#
# Coordination Sequence:
#
# PCOD9227325 Si02
#       8
#     4   4   4   4   4   2   4   4
#     4  11  22  40  62  90 132 167 219 257 315 380
#     4  10  18  34  59  91 125 168 207 256 313 373
#     4  12  24  39  68  93 126 164 206 271 315 378
#     4  11  23  41  62  98 134 161 201 266 330 373
#     4  10  19  32  58  94 129 161 204 251 319 376
#     4  10  24  40  64  88 120 180 214 268 308 370
#     4  12  25  44  64  88 120 167 220 256 301 378
#     4  11  24  42  66  91 127 161 215 258 320 384
#
# _framework density 20.236967
#
# number of rings (size 3 to 8) (size 9 to 14) (size 15 to 20)
#    0.000    1.067    4.667    2.400    1.867    0.533 
#    0.000    1.333    0.000    3.200    0.000    0.000 
#    0.000    0.000    0.000    0.000    0.000    0.000 
#
# Total GULP energy -167023.095176 kJ/mol
# GULP energy per Si atom -5567.436506 kJ/mol
# Density = 2.019091 g / cm^3
# Si number density = 20.236967 Si / 1000 Ang^3
#
#
#
# Elastic Constant Matrix: (Units=GPa)
#
#
# Indices 1 2 3 4 5 6 
#
# 1 39.7273 10.8571 44.2210 0.0000 -6.9925 0.0000
# 2 10.8571 117.3058 66.1950 0.0000 8.7051 0.0000
# 3 44.2210 66.1950 175.8236 0.0000 -7.7380 0.0000
# 4 0.0000 0.0000 0.0000 44.3614 0.0000 4.7331
# 5 -6.9925 8.7051 -7.7380 0.0000 36.0840 0.0000
# 6 0.0000 0.0000 0.0000 4.7331 0.0000 -41.8316
#
#
#
# Elastic Compliance Matrix: (Units=1/GPa)
#
#
# Indices 1 2 3 4 5 6 
#
# 1 0.036103 0.001691 -0.009517 0.000000 0.004547 0.000000
# 2 0.001691 0.011365 -0.004856 0.000000 -0.003455 0.000000
# 3 -0.009517 -0.004856 0.009974 0.000000 0.001466 0.000000
# 4 0.000000 0.000000 0.000000 0.022273 0.000000 0.002520
# 5 0.004547 -0.003455 0.001466 0.000000 0.029742 0.000000
# 6 0.000000 0.000000 0.000000 0.002520 0.000000 -0.023620
#
#
# Mechanical properties :
#
#
# Convention : Reuss Voigt Hill
#
# Bulk Modulus (GPa) = 31.17345 63.93366 47.55355
# Shear Modulus (GPa) = 41.01944 21.82834 31.42389
#
# Velocity S-wave (km/s) = 4.50706 3.28782 3.94483
# Velocity P-wave (km/s) = 6.52092 6.78779 6.65569
#
# Compressibility (1/GPa) = 0.03207858
#
# Stress axis : x y z
#
# Youngs Moduli (GPa) = 27.69843 87.99008 100.26178
#
# Poissons Ratio (x) = -0.14882 0.95418
# Poissons Ratio (y) = -0.04685 0.48689
# Poissons Ratio (z) = 0.26360 0.42730
#
# Static dielectric constant tensor:
#      x y z
#    x 1.785710 0.000000 0.015560 
#    y 0.000000 1.835420 0.000000 
#    z 0.015560 0.000000 1.782560 
# 
# From -- ./inp_files/17172.got.cif
#   From: 2010.05.17/outbox.cif.g08.bks.cpg/sg13_9_cif.got.tgz:17172.got - 2010.06.03 16:44:36.
