data_PCOD9227684
_publ_section_title
;
Structure prediction by ZEFSAII (Michael W. Deem and Ramdas Pophale) SiO2 
 PCOD9227684
Probable space group: P 2/C
;
_chemical_formula_sum "Si O2"
_cell_formula_units_Z 24
_cell_length_a 13.799283
_cell_length_b 8.287048
_cell_length_c 15.273501
_cell_angle_alpha 90.000000
_cell_angle_beta 135.369084
_cell_angle_gamma 90.000000
_cell_volume 1227.055674
_symmetry_space_group_name_H-M "P 2/C"
_symmetry_group_IT_number 13
_symmetry_cell_setting 'monoclinic'
loop_
_space_group_symop_operation_xyz
x,y,z
-x,y,1/2-z
-x,-y,-z
x,-y,1/2+z
loop_
_atom_site_type_symbol
_atom_site_label
_atom_site_fract_x
_atom_site_fract_y
_atom_site_fract_z
Si Si1 0.548759 0.755177 0.989620
Si Si2 0.500000 0.579984 0.250000
Si Si3 0.000000 0.732578 0.250000
Si Si4 0.772401 0.502815 0.682936
Si Si5 0.351982 0.777538 0.013199
Si Si6 0.694120 0.666901 0.799818
Si Si7 0.769870 0.093330 0.500901
O O1 0.632398 0.605979 0.087603
O O2 0.451943 0.840379 0.999448
O O3 0.665308 0.844173 0.008981
O O4 0.438817 0.707030 0.844746
O O5 0.462560 0.691345 0.145589
O O6 0.364768 0.470097 0.174420
O O7 0.894360 0.615169 0.232565
O O8 0.917791 0.846321 0.129555
O O9 0.746527 0.646760 0.597081
O O10 0.793500 0.585015 0.791669
O O11 0.263399 0.903838 0.013195
O O12 0.739937 0.817414 0.889195
#
# Coordination Sequence:
#
# PCOD9227684 Si02
#       7
#     4   2   2   4   4   4   4
#     4  10  18  38  60  90 123 157 189 251 315 365
#     4  12  18  32  60  92 124 146 192 244 300 376
#     4  10  24  44  62  76 118 180 210 246 290 358
#     4  10  20  41  65  86 119 165 213 241 289 365
#     4  11  22  34  59  95 122 152 194 256 313 360
#     4  11  19  36  63  92 121 152 198 254 301 363
#     4  11  23  37  57  89 127 160 194 251 314 355
#
# _framework density 19.559013
#
# number of rings (size 3 to 8) (size 9 to 14) (size 15 to 20)
#    0.000    1.333    5.000    2.500    2.333    1.333 
#    0.000    0.000    0.000    6.000    0.000    0.000 
#    0.000    0.000    0.000    0.000    0.000    0.000 
#
# Total GULP energy -133683.715388 kJ/mol
# GULP energy per Si atom -5570.154808 kJ/mol
# Density = 1.951450 g / cm^3
# Si number density = 19.559013 Si / 1000 Ang^3
#
#
#
# Elastic Constant Matrix: (Units=GPa)
#
#
# Indices 1 2 3 4 5 6 
#
# 1 59.1703 24.5658 38.1334 0.0000 -1.0005 0.0000
# 2 24.5658 81.7259 33.2387 0.0000 -4.0027 0.0000
# 3 38.1334 33.2387 75.2619 0.0000 -6.4486 0.0000
# 4 0.0000 0.0000 0.0000 -64.2600 0.0000 -317.6070
# 5 -1.0005 -4.0027 -6.4486 0.0000 31.2487 0.0000
# 6 0.0000 0.0000 0.0000 -317.6070 0.0000-1328.3336
#
#
#
# Elastic Compliance Matrix: (Units=1/GPa)
#
#
# Indices 1 2 3 4 5 6 
#
# 1 0.025792 -0.003006 -0.011914 0.000000 -0.002018 0.000000
# 2 -0.003006 0.015275 -0.005155 0.000000 0.000797 0.000000
# 3 -0.011914 -0.005155 0.021898 0.000000 0.003477 0.000000
# 4 0.000000 0.000000 0.000000 0.085613 0.000000 -0.020470
# 5 -0.002018 0.000797 0.003477 0.000000 0.032756 0.000000
# 6 0.000000 0.000000 0.000000 -0.020470 0.000000 0.004142
#
#
# Mechanical properties :
#
#
# Convention : Reuss Voigt Hill
#
# Bulk Modulus (GPa) = 43.82864 45.33712 44.58288
# Shear Modulus (GPa) = 21.43801 -264.25431 -121.40815
#
# Velocity S-wave (km/s) = 3.31428 -11.63613 -7.88717
# Velocity P-wave (km/s) = 6.09123 12.54203 7.75241
#
# Compressibility (1/GPa) = 0.02281613
#
# Stress axis : x y z
#
# Youngs Moduli (GPa) = 38.77127 65.46577 45.66694
#
# Poissons Ratio (x) = 0.19681 0.54405
# Poissons Ratio (y) = 0.11656 0.23540
# Poissons Ratio (z) = 0.46190 0.33745
#
# Static dielectric constant tensor:
#      x y z
#    x 1.740770 0.000000 -0.017260 
#    y 0.000000 1.776770 0.000000 
#    z -0.017260 0.000000 1.676790 
# 
# From -- ./inp_files/49613.got.cif
#   From: 2010.05.17/outbox.cif.g08.bks.cpg/sg13_25_cif.got.tgz:49613.got - 2010.06.03 16:44:36.
