data_PCOD9227375
_publ_section_title
;
Structure prediction by ZEFSAII (Michael W. Deem and Ramdas Pophale) SiO2 
 PCOD9227375
Probable space group: P 2/C
;
_chemical_formula_sum "Si O2"
_cell_formula_units_Z 28
_cell_length_a 11.173819
_cell_length_b 11.670939
_cell_length_c 20.656053
_cell_angle_alpha 90.000000
_cell_angle_beta 32.866032
_cell_angle_gamma 90.000000
_cell_volume 1461.826573
_symmetry_space_group_name_H-M "P 2/C"
_symmetry_group_IT_number 13
_symmetry_cell_setting 'monoclinic'
loop_
_space_group_symop_operation_xyz
x,y,z
-x,y,1/2-z
-x,-y,-z
x,-y,1/2+z
loop_
_atom_site_type_symbol
_atom_site_label
_atom_site_fract_x
_atom_site_fract_y
_atom_site_fract_z
Si Si1 0.599726 0.895822 0.873690
Si Si2 0.492816 0.697243 0.842869
Si Si3 0.226493 0.317621 0.019675
Si Si4 0.114066 0.620934 0.926257
Si Si5 0.000000 0.679598 0.250000
Si Si6 0.612494 0.845268 0.393267
Si Si7 0.000000 0.245554 0.250000
Si Si8 0.351018 0.547520 0.011243
O O1 0.539918 0.830668 0.834172
O O2 0.819668 0.837454 0.800775
O O3 0.633945 0.031071 0.850781
O O4 0.431203 0.873862 0.010433
O O5 0.248792 0.675629 0.924894
O O6 0.681152 0.627398 0.718529
O O7 0.488611 0.647928 0.916477
O O8 0.323199 0.445614 0.972797
O O9 0.073689 0.305981 0.025943
O O10 0.088260 0.318487 0.149620
O O11 0.411218 0.223170 0.950882
O O12 0.000000 0.500000 0.000000
O O13 0.821291 0.761480 0.297142
O O14 0.872150 0.599864 0.359061
O O15 0.500000 0.500000 0.000000
#
# Coordination Sequence:
#
# PCOD9227375 Si02
#       8
#     4   4   4   4   2   4   2   4
#     4  10  19  39  61  92 127 163 209 260 323 381
#     4  11  23  42  61  90 122 170 215 256 320 382
#     4  11  21  38  58  93 126 160 211 261 325 378
#     4  11  24  41  63  87 122 172 219 258 312 389
#     4  12  22  36  58 100 134 168 208 252 342 400
#     4  10  22  36  61  94 129 161 208 263 318 391
#     4  10  18  34  64  90 122 162 200 262 326 382
#     4  12  23  36  60  95 131 162 201 266 328 390
#
# _framework density 19.154118
#
# number of rings (size 3 to 8) (size 9 to 14) (size 15 to 20)
#    0.000    1.143    5.714    1.714    2.000    0.000 
#    0.000    0.714    0.000    1.714    0.000    0.000 
#    0.000    0.000    0.000    0.000    0.000    0.000 
#
# Total GULP energy -155997.608751 kJ/mol
# GULP energy per Si atom -5571.343170 kJ/mol
# Density = 1.911052 g / cm^3
# Si number density = 19.154118 Si / 1000 Ang^3
#
#
#
# Elastic Constant Matrix: (Units=GPa)
#
#
# Indices 1 2 3 4 5 6 
#
# 1 123.1227 38.6611 12.6495 0.0000 -23.3453 0.0000
# 2 38.6611 105.2237 13.9942 0.0000 -9.2907 0.0000
# 3 12.6495 13.9942 40.4260 0.0000 -7.6688 0.0000
# 4 0.0000 0.0000 0.0000 19.3163 0.0000 -0.6725
# 5 -23.3453 -9.2907 -7.6688 0.0000 28.8656 0.0000
# 6 0.0000 0.0000 0.0000 -0.6725 0.0000 20.3895
#
#
#
# Elastic Compliance Matrix: (Units=1/GPa)
#
#
# Indices 1 2 3 4 5 6 
#
# 1 0.010580 -0.003129 -0.000837 0.000000 0.007327 0.000000
# 2 -0.003129 0.011050 -0.002792 0.000000 0.000284 0.000000
# 3 -0.000837 -0.002792 0.027028 0.000000 0.005605 0.000000
# 4 0.000000 0.000000 0.000000 0.051829 0.000000 0.001709
# 5 0.007327 0.000284 0.005605 0.000000 0.042150 0.000000
# 6 0.000000 0.000000 0.000000 0.001709 0.000000 0.049101
#
#
# Mechanical properties :
#
#
# Convention : Reuss Voigt Hill
#
# Bulk Modulus (GPa) = 28.45690 44.37579 36.41634
# Shear Modulus (GPa) = 23.04484 27.27876 25.16180
#
# Velocity S-wave (km/s) = 3.47238 3.77791 3.62836
# Velocity P-wave (km/s) = 5.56467 6.49986 6.05036
#
# Compressibility (1/GPa) = 0.03514087
#
# Stress axis : x y z
#
# Youngs Moduli (GPa) = 94.52014 90.50101 36.99825
#
# Poissons Ratio (x) = 0.28317 0.03098
# Poissons Ratio (y) = 0.29574 0.10330
# Poissons Ratio (z) = 0.07915 0.25269
#
# Static dielectric constant tensor:
#      x y z
#    x 1.695920 0.000000 0.001690 
#    y 0.000000 1.698490 0.000000 
#    z 0.001690 0.000000 1.709950 
# 
# From -- ./inp_files/78574.got.cif
#   From: 2010.05.17/outbox.cif.g08.bks.cpg/sg13_40_cif.got.tgz:78574.got - 2010.06.03 16:44:36.
