data_PCOD9227968
_publ_section_title
;
Structure prediction by ZEFSAII (Michael W. Deem and Ramdas Pophale) SiO2 
 PCOD9227968
Probable space group: P 2/C
;
_chemical_formula_sum "Si O2"
_cell_formula_units_Z 28
_cell_length_a 11.798807
_cell_length_b 25.561662
_cell_length_c 5.317984
_cell_angle_alpha 90.000000
_cell_angle_beta 67.899558
_cell_angle_gamma 90.000000
_cell_volume 1486.044091
_symmetry_space_group_name_H-M "P 2/C"
_symmetry_group_IT_number 13
_symmetry_cell_setting 'monoclinic'
loop_
_space_group_symop_operation_xyz
x,y,z
-x,y,1/2-z
-x,-y,-z
x,-y,1/2+z
loop_
_atom_site_type_symbol
_atom_site_label
_atom_site_fract_x
_atom_site_fract_y
_atom_site_fract_z
Si Si1 0.851696 0.798672 0.876096
Si Si2 0.223965 0.384388 0.551898
Si Si3 0.362196 0.478522 0.572779
Si Si4 0.000000 0.465263 0.750000
Si Si5 0.141915 0.148247 0.627028
Si Si6 0.229176 0.035526 0.492992
Si Si7 0.851910 0.674896 0.885080
Si Si8 0.500000 0.034998 0.250000
O O1 0.802065 0.824673 0.664268
O O2 0.828830 0.736976 0.900009
O O3 0.000000 0.804787 0.750000
O O4 0.804362 0.829878 0.158632
O O5 0.345581 0.419337 0.493004
O O6 0.209709 0.353225 0.303544
O O7 0.117182 0.427692 0.646637
O O8 0.199041 0.347841 0.811991
O O9 0.500000 0.500000 0.500000
O O10 0.305563 0.513974 0.397286
O O11 0.000000 0.500000 0.500000
O O12 0.145733 0.085970 0.593520
O O13 0.000000 0.164567 0.750000
O O14 0.213867 0.997428 0.747799
O O15 0.366690 0.060264 0.370438
O O16 0.000000 0.666485 0.750000
O O17 0.500000 0.000000 0.500000
#
# Coordination Sequence:
#
# PCOD9227968 Si02
#       8
#     4   4   4   2   4   4   4   2
#     4   9  19  33  51  70 102 139 172 218 256 309
#     4  12  21  34  53  79 106 137 173 210 262 316
#     4  10  21  38  56  75 101 136 179 212 242 305
#     4  12  22  32  46  72 114 138 150 190 252 318
#     4  10  19  32  48  74 103 141 181 207 260 316
#     4  10  19  31  49  73 105 137 173 219 257 310
#     4  11  20  35  52  78 107 137 176 218 269 319
#     4   8  16  30  46  68  94 126 166 204 252 298
#
# _framework density 18.84197
#
# number of rings (size 3 to 8) (size 9 to 14) (size 15 to 20)
#    0.000    1.714    1.429    4.286    0.000    2.857 
#    0.000    0.000    0.000    0.000    0.000   20.000 
#    0.000    0.000    0.000    0.000    0.000    0.000 
#
# Total GULP energy -156075.018278 kJ/mol
# GULP energy per Si atom -5574.107796 kJ/mol
# Density = 1.879909 g / cm^3
# Si number density = 18.841970 Si / 1000 Ang^3
#
#
#
# Elastic Constant Matrix: (Units=GPa)
#
#
# Indices 1 2 3 4 5 6 
#
# 1 36.7477 16.5442 33.6218 0.0000 9.3503 0.0000
# 2 16.5442 98.6622 60.3597 0.0000 23.4474 0.0000
# 3 33.6218 60.3597 144.0307 0.0000 50.6119 0.0000
# 4 0.0000 0.0000 0.0000 35.7961 0.0000 6.0875
# 5 9.3503 23.4474 50.6119 0.0000 31.6011 0.0000
# 6 0.0000 0.0000 0.0000 6.0875 0.0000 12.0325
#
#
#
# Elastic Compliance Matrix: (Units=1/GPa)
#
#
# Indices 1 2 3 4 5 6 
#
# 1 0.035276 -0.001379 -0.009946 0.000000 0.006515 0.000000
# 2 -0.001379 0.013752 -0.004572 0.000000 -0.002473 0.000000
# 3 -0.009946 -0.004572 0.020481 0.000000 -0.026467 0.000000
# 4 0.000000 0.000000 0.000000 0.030566 0.000000 -0.015464
# 5 0.006515 -0.002473 -0.026467 0.000000 0.073941 0.000000
# 6 0.000000 0.000000 0.000000 -0.015464 0.000000 0.090932
#
#
# Mechanical properties :
#
#
# Convention : Reuss Voigt Hill
#
# Bulk Modulus (GPa) = 26.51498 55.61022 41.06260
# Shear Modulus (GPa) = 16.16484 27.14691 21.65587
#
# Velocity S-wave (km/s) = 2.93220 3.79986 3.39387
# Velocity P-wave (km/s) = 5.05634 6.98785 6.09904
#
# Compressibility (1/GPa) = 0.03771454
#
# Stress axis : x y z
#
# Youngs Moduli (GPa) = 28.34813 72.71857 48.82489
#
# Poissons Ratio (x) = 0.10025 0.48562
# Poissons Ratio (y) = 0.03908 0.22324
# Poissons Ratio (z) = 0.28195 0.33249
#
# Static dielectric constant tensor:
#      x y z
#    x 1.738870 0.000000 -0.014040 
#    y 0.000000 1.625730 0.000000 
#    z -0.014040 0.000000 1.831540 
# 
# From -- ./inp_files/4112.got.cif
#   From: 2010.05.17/outbox.cif.g08.bks.cpg/sg13_3_cif.got.tgz:4112.got - 2010.06.03 16:44:36.
