data_PCOD9227801
_publ_section_title
;
Structure prediction by ZEFSAII (Michael W. Deem and Ramdas Pophale) SiO2 
 PCOD9227801
Probable space group: P 2/C
;
_chemical_formula_sum "Si O2"
_cell_formula_units_Z 14
_cell_length_a 16.657891
_cell_length_b 4.872960
_cell_length_c 25.111142
_cell_angle_alpha 90.000000
_cell_angle_beta 18.054191
_cell_angle_gamma 90.000000
_cell_volume 631.718872
_symmetry_space_group_name_H-M "P 2/C"
_symmetry_group_IT_number 13
_symmetry_cell_setting 'monoclinic'
loop_
_space_group_symop_operation_xyz
x,y,z
-x,y,1/2-z
-x,-y,-z
x,-y,1/2+z
loop_
_atom_site_type_symbol
_atom_site_label
_atom_site_fract_x
_atom_site_fract_y
_atom_site_fract_z
Si Si1 0.522452 0.524901 0.906548
Si Si2 0.178862 0.010306 0.245686
Si Si3 0.903332 0.250027 0.095796
Si Si4 0.000000 0.804135 0.750000
O O1 0.577937 0.775389 0.912055
O O2 0.604918 0.669372 0.798768
O O3 0.724995 0.278152 0.791623
O O4 0.245209 0.390582 0.084792
O O5 0.012648 0.166828 0.396692
O O6 0.039267 0.012802 0.277651
O O7 0.000000 0.500000 0.000000
O O8 0.000000 0.000000 0.000000
#
# Coordination Sequence:
#
# PCOD9227801 Si02
#       4
#     4   4   4   2
#     4  10  23  40  65  98 131 176 214 281 327 391
#     4  10  23  40  65  96 129 178 214 282 328 391
#     4  10  18  41  70  85 128 173 220 269 337 384
#     4  12  24  42  66 100 140 172 230 264 352 400
#
# _framework density 22.161754999999999
#
# number of rings (size 3 to 8) (size 9 to 14) (size 15 to 20)
#    1.714    0.000    2.857    1.714    0.000    4.571 
#    0.000    1.429    6.286    0.000    0.000    0.000 
#    0.000    0.000    0.000    0.000    0.000    0.000 
#
# Total GULP energy -77943.083073 kJ/mol
# GULP energy per Si atom -5567.363077 kJ/mol
# Density = 2.211131 g / cm^3
# Si number density = 22.161755 Si / 1000 Ang^3
#
#
#
# Elastic Constant Matrix: (Units=GPa)
#
#
# Indices 1 2 3 4 5 6 
#
# 1 141.8370 46.2355 60.3063 0.0000 27.7891 0.0000
# 2 46.2355 185.7201 38.6290 0.0000 5.8906 0.0000
# 3 60.3063 38.6290 90.9685 0.0000 26.9450 0.0000
# 4 0.0000 0.0000 0.0000 41.0008 0.0000 14.7371
# 5 27.7891 5.8906 26.9450 0.0000 30.1047 0.0000
# 6 0.0000 0.0000 0.0000 14.7371 0.0000 27.4787
#
#
#
# Elastic Compliance Matrix: (Units=1/GPa)
#
#
# Indices 1 2 3 4 5 6 
#
# 1 0.010613 -0.001461 -0.004896 0.000000 -0.005129 0.000000
# 2 -0.001461 0.006156 -0.002297 0.000000 0.002200 0.000000
# 3 -0.004896 -0.002297 0.018700 0.000000 -0.011768 0.000000
# 4 0.000000 0.000000 0.000000 0.030214 0.000000 -0.016204
# 5 -0.005129 0.002200 -0.011768 0.000000 0.048054 0.000000
# 6 0.000000 0.000000 0.000000 -0.016204 0.000000 0.045082
#
#
# Mechanical properties :
#
#
# Convention : Reuss Voigt Hill
#
# Bulk Modulus (GPa) = 55.06622 78.76300 66.91461
# Shear Modulus (GPa) = 27.44499 37.94049 32.69274
#
# Velocity S-wave (km/s) = 3.52290 4.14210 3.84498
# Velocity P-wave (km/s) = 6.43810 7.64808 7.06903
#
# Compressibility (1/GPa) = 0.01815995
#
# Stress axis : x y z
#
# Youngs Moduli (GPa) = 94.22157 162.43697 53.47577
#
# Poissons Ratio (x) = 0.23734 0.26184
# Poissons Ratio (y) = 0.13767 0.12285
# Poissons Ratio (z) = 0.46135 0.37317
#
# Static dielectric constant tensor:
#      x y z
#    x 1.940360 0.000000 0.044220 
#    y 0.000000 1.856810 0.000000 
#    z 0.044220 0.000000 1.923010 
# 
# From -- ./inp_files/86918.got.cif
#   From: 2010.05.17/outbox.cif.g08.bks.cpg/sg13_44_cif.got.tgz:86918.got - 2010.06.03 16:44:36.
