data_PCOD9227812
_publ_section_title
;
Structure prediction by ZEFSAII (Michael W. Deem and Ramdas Pophale) SiO2 
 PCOD9227812
Probable space group: P 2/C
;
_chemical_formula_sum "Si O2"
_cell_formula_units_Z 28
_cell_length_a 16.722866
_cell_length_b 5.242269
_cell_length_c 20.336529
_cell_angle_alpha 90.000000
_cell_angle_beta 139.717907
_cell_angle_gamma 90.000000
_cell_volume 1152.683005
_symmetry_space_group_name_H-M "P 2/C"
_symmetry_group_IT_number 13
_symmetry_cell_setting 'monoclinic'
loop_
_space_group_symop_operation_xyz
x,y,z
-x,y,1/2-z
-x,-y,-z
x,-y,1/2+z
loop_
_atom_site_type_symbol
_atom_site_label
_atom_site_fract_x
_atom_site_fract_y
_atom_site_fract_z
Si Si1 0.313252 0.143684 0.541250
Si Si2 0.921250 0.891786 0.070979
Si Si3 0.500000 0.826808 0.750000
Si Si4 0.357250 0.944702 0.422886
Si Si5 0.780825 0.425884 0.197820
Si Si6 0.716950 0.476028 0.382757
Si Si7 0.000000 0.418996 0.750000
Si Si8 0.104266 0.331254 0.601414
O O1 0.330264 0.035852 0.480060
O O2 0.336349 0.428859 0.580429
O O3 0.165563 0.124619 0.464137
O O4 0.411476 0.992730 0.648103
O O5 0.960795 0.755897 0.163429
O O6 0.037143 0.910246 0.094202
O O7 0.823451 0.718119 0.970061
O O8 0.399011 0.655287 0.724848
O O9 0.279984 0.150688 0.332607
O O10 0.500000 0.000000 0.500000
O O11 0.313068 0.656046 0.381242
O O12 0.885515 0.421073 0.206608
O O13 0.844785 0.510418 0.305040
O O14 0.780553 0.689162 0.376289
O O15 0.000000 0.500000 0.500000
#
# Coordination Sequence:
#
# PCOD9227812 Si02
#       8
#     4   4   2   4   4   4   2   4
#     4  11  23  41  65  96 130 181 233 285 352 409
#     4   9  19  39  61  94 133 165 219 279 348 418
#     4  10  24  38  64  90 130 176 232 286 336 414
#     4  12  28  47  73 103 147 193 244 297 352 430
#     4  11  25  47  72 109 141 194 234 298 362 425
#     4  10  21  40  64  93 129 176 222 282 345 415
#     4  10  18  42  68  98 140 176 236 282 356 426
#     4   9  21  44  68 102 140 175 229 290 358 420
#
# _framework density 24.291150999999999
#
# number of rings (size 3 to 8) (size 9 to 14) (size 15 to 20)
#    0.000    1.714    1.429    1.714    4.000    3.429 
#   20.571    0.000    0.000    0.000    0.000    0.000 
#    0.000    0.000    0.000    0.000    0.000    0.000 
#
# Total GULP energy -156389.487889 kJ/mol
# GULP energy per Si atom -5585.338853 kJ/mol
# Density = 2.423586 g / cm^3
# Si number density = 24.291151 Si / 1000 Ang^3
#
#
#
# Elastic Constant Matrix: (Units=GPa)
#
#
# Indices 1 2 3 4 5 6 
#
# 1 81.4880 6.6864 31.7220 0.0000 3.5660 0.0000
# 2 6.6864 43.5153 0.7046 0.0000 16.4500 0.0000
# 3 31.7220 0.7046 101.2068 0.0000 8.6123 0.0000
# 4 0.0000 0.0000 0.0000 30.7263 0.0000 -1.7135
# 5 3.5660 16.4500 8.6123 0.0000 42.5805 0.0000
# 6 0.0000 0.0000 0.0000 -1.7135 0.0000 10.0033
#
#
#
# Elastic Compliance Matrix: (Units=1/GPa)
#
#
# Indices 1 2 3 4 5 6 
#
# 1 0.014181 -0.002342 -0.004482 0.000000 0.000624 0.000000
# 2 -0.002342 0.027347 0.001451 0.000000 -0.010662 0.000000
# 3 -0.004482 0.001451 0.011489 0.000000 -0.002509 0.000000
# 4 0.000000 0.000000 0.000000 0.032859 0.000000 0.005629
# 5 0.000624 -0.010662 -0.002509 0.000000 0.028059 0.000000
# 6 0.000000 0.000000 0.000000 0.005629 0.000000 0.100931
#
#
# Mechanical properties :
#
#
# Convention : Reuss Voigt Hill
#
# Bulk Modulus (GPa) = 23.65636 33.82624 28.74130
# Shear Modulus (GPa) = 20.85910 29.13518 24.99714
#
# Velocity S-wave (km/s) = 2.93356 3.46701 3.21138
# Velocity P-wave (km/s) = 4.60805 5.47563 5.06047
#
# Compressibility (1/GPa) = 0.04227193
#
# Stress axis : x y z
#
# Youngs Moduli (GPa) = 70.51542 36.56643 87.04055
#
# Poissons Ratio (x) = 0.08565 0.39009
# Poissons Ratio (y) = 0.16516 -0.12630
# Poissons Ratio (z) = 0.31603 -0.05306
#
# Static dielectric constant tensor:
#      x y z
#    x 2.016860 0.000000 -0.005110 
#    y 0.000000 2.004130 0.000000 
#    z -0.005110 0.000000 1.917140 
# 
# From -- ./inp_files/80714.got.cif
#   From: 2010.05.17/outbox.cif.g08.bks.cpg/sg13_41_cif.got.tgz:80714.got - 2010.06.03 16:44:36.
