data_PCOD9227998
_publ_section_title
;
Structure prediction by ZEFSAII (Michael W. Deem and Ramdas Pophale) SiO2 
 PCOD9227998
Probable space group: P 2/C
;
_chemical_formula_sum "Si O2"
_cell_formula_units_Z 24
_cell_length_a 15.961041
_cell_length_b 9.023713
_cell_length_c 10.912172
_cell_angle_alpha 90.000000
_cell_angle_beta 135.569131
_cell_angle_gamma 90.000000
_cell_volume 1100.235405
_symmetry_space_group_name_H-M "P 2/C"
_symmetry_group_IT_number 13
_symmetry_cell_setting 'monoclinic'
loop_
_space_group_symop_operation_xyz
x,y,z
-x,y,1/2-z
-x,-y,-z
x,-y,1/2+z
loop_
_atom_site_type_symbol
_atom_site_label
_atom_site_fract_x
_atom_site_fract_y
_atom_site_fract_z
Si Si1 0.622579 0.455741 0.999895
Si Si2 0.637639 0.406020 0.274683
Si Si3 0.038092 0.140633 0.913891
Si Si4 0.649709 0.132372 0.991727
Si Si5 0.316983 0.063149 0.204861
Si Si6 0.927026 0.180174 0.290793
O O1 0.502832 0.554064 0.881197
O O2 0.687818 0.513606 0.946831
O O3 0.690003 0.460947 0.199707
O O4 0.580228 0.285480 0.939764
O O5 0.648341 0.230533 0.293083
O O6 0.000000 0.222544 0.750000
O O7 0.171985 0.070793 0.048804
O O8 0.031735 0.232811 0.032149
O O9 0.951214 0.997899 0.825416
O O10 0.643721 0.037890 0.112241
O O11 0.786075 0.194222 0.128925
O O12 0.632409 0.045496 0.846639
O O13 0.000000 0.234960 0.250000
#
# Coordination Sequence:
#
# PCOD9227998 Si02
#       6
#     4   4   4   4   4   4
#     4   9  19  37  57  75 102 142 182 222 267 317
#     4   9  19  37  57  75 102 142 182 222 267 317
#     4   9  15  25  43  72 109 138 161 203 262 315
#     4  10  19  31  52  83 110 137 177 220 266 321
#     4  10  19  31  52  83 110 137 177 220 266 321
#     4   9  15  25  43  72 109 138 161 203 262 315
#
# _framework density 21.813513
#
# number of rings (size 3 to 8) (size 9 to 14) (size 15 to 20)
#    0.000    2.667    3.333    0.000    0.000    1.333 
#    0.000    3.333    0.000   19.000    0.000    7.000 
#    0.000    0.000    0.000    0.000    0.000    0.000 
#
# Total GULP energy -133749.145869 kJ/mol
# GULP energy per Si atom -5572.881078 kJ/mol
# Density = 2.176386 g / cm^3
# Si number density = 21.813513 Si / 1000 Ang^3
#
#
#
# Elastic Constant Matrix: (Units=GPa)
#
#
# Indices 1 2 3 4 5 6 
#
# 1 85.2935 19.7694 50.0425 0.0000 -44.0928 0.0000
# 2 19.7694 53.0347 11.8786 0.0000 -11.0620 0.0000
# 3 50.0425 11.8786 69.3166 0.0000 -48.1939 0.0000
# 4 0.0000 0.0000 0.0000 11.7695 0.0000 -17.8376
# 5 -44.0928 -11.0620 -48.1939 0.0000 70.4522 0.0000
# 6 0.0000 0.0000 0.0000 -17.8376 0.0000 7.8299
#
#
#
# Elastic Compliance Matrix: (Units=1/GPa)
#
#
# Indices 1 2 3 4 5 6 
#
# 1 0.022392 -0.004624 -0.011698 0.000000 0.005286 0.000000
# 2 -0.004624 0.020645 0.000080 0.000000 0.000402 0.000000
# 3 -0.011698 0.000080 0.033900 0.000000 0.015881 0.000000
# 4 0.000000 0.000000 0.000000 -0.034641 0.000000 -0.078918
# 5 0.005286 0.000402 0.015881 0.000000 0.028429 0.000000
# 6 0.000000 0.000000 0.000000 -0.078918 0.000000 -0.052071
#
#
# Mechanical properties :
#
#
# Convention : Reuss Voigt Hill
#
# Bulk Modulus (GPa) = 22.49586 41.22507 31.86046
# Shear Modulus (GPa) = 75.80888 26.40727 51.10807
#
# Velocity S-wave (km/s) = 5.90158 3.48313 4.84566
# Velocity P-wave (km/s) = 7.53481 5.92589 6.77826
#
# Compressibility (1/GPa) = 0.04445263
#
# Stress axis : x y z
#
# Youngs Moduli (GPa) = 44.65890 48.43723 29.49870
#
# Poissons Ratio (x) = 0.22399 0.34508
# Poissons Ratio (y) = 0.20651 -0.00237
# Poissons Ratio (z) = 0.52243 -0.00389
#
# Static dielectric constant tensor:
#      x y z
#    x 1.966380 0.000000 -0.091030 
#    y 0.000000 1.739340 0.000000 
#    z -0.091030 0.000000 1.897330 
# 
# From -- ./inp_files/38635.got.cif
#   From: 2010.05.17/outbox.cif.g08.bks.cpg/sg13_20_cif.got.tgz:38635.got - 2010.06.03 16:44:36.
