data_PCOD9227118
_publ_section_title
;
Structure prediction by ZEFSAII (Michael W. Deem and Ramdas Pophale) SiO2 
 PCOD9227118
Probable space group: P 2/C
;
_chemical_formula_sum "Si O2"
_cell_formula_units_Z 24
_cell_length_a 5.611933
_cell_length_b 7.677774
_cell_length_c 26.244771
_cell_angle_alpha 90.000000
_cell_angle_beta 71.703100
_cell_angle_gamma 90.000000
_cell_volume 1073.641380
_symmetry_space_group_name_H-M "P 2/C"
_symmetry_group_IT_number 13
_symmetry_cell_setting 'monoclinic'
loop_
_space_group_symop_operation_xyz
x,y,z
-x,y,1/2-z
-x,-y,-z
x,-y,1/2+z
loop_
_atom_site_type_symbol
_atom_site_label
_atom_site_fract_x
_atom_site_fract_y
_atom_site_fract_z
Si Si1 0.454355 0.410512 0.937104
Si Si2 0.802521 0.894014 0.456432
Si Si3 0.907626 0.260730 0.467158
Si Si4 0.000000 0.442923 0.250000
Si Si5 0.177509 0.244690 0.860362
Si Si6 0.105092 0.593444 0.634135
Si Si7 0.500000 0.333666 0.750000
O O1 0.628225 0.253264 0.944864
O O2 0.319977 0.337507 0.896679
O O3 0.613321 0.574424 0.906966
O O4 0.247247 0.418252 0.995773
O O5 0.907553 0.817779 0.502626
O O6 0.025944 0.905474 0.398787
O O7 0.727123 0.094318 0.468039
O O8 0.026926 0.321153 0.406029
O O9 0.942790 0.336296 0.306132
O O10 0.735006 0.550650 0.257256
O O11 0.373689 0.216992 0.802290
O O12 0.986946 0.393731 0.853379
#
# Coordination Sequence:
#
# PCOD9227118 Si02
#       7
#     4   4   4   2   4   4   2
#     4  10  18  33  53  81 105 139 185 231 282 334
#     4   9  20  35  51  78 111 149 180 227 284 346
#     4  10  20  34  53  77 114 145 183 227 289 343
#     4  10  20  36  58  84 116 146 192 240 296 330
#     4   9  19  33  55  78 108 139 188 230 281 334
#     4  10  20  33  54  80 107 144 185 239 281 338
#     4  10  18  36  60  84 110 150 192 244 282 338
#
# _framework density 22.353833999999999
#
# number of rings (size 3 to 8) (size 9 to 14) (size 15 to 20)
#    0.000    2.333    1.667    1.000    0.000    7.333 
#    0.000    0.000    3.667    1.000    0.000    0.000 
#    0.000    0.000    0.000    0.000    0.000    0.000 
#
# Total GULP energy -133609.181507 kJ/mol
# GULP energy per Si atom -5567.049229 kJ/mol
# Density = 2.230296 g / cm^3
# Si number density = 22.353834 Si / 1000 Ang^3
#
#
#
# Elastic Constant Matrix: (Units=GPa)
#
#
# Indices 1 2 3 4 5 6 
#
# 1 69.9522 8.5080 14.4851 0.0000 -0.1459 0.0000
# 2 8.5080 56.0348 20.3387 0.0000 -14.0494 0.0000
# 3 14.4851 20.3387 223.4838 0.0000 -6.3858 0.0000
# 4 0.0000 0.0000 0.0000 16.1544 0.0000 -6.5134
# 5 -0.1459 -14.0494 -6.3858 0.0000 24.1121 0.0000
# 6 0.0000 0.0000 0.0000 -6.5134 0.0000 20.4083
#
#
#
# Elastic Compliance Matrix: (Units=1/GPa)
#
#
# Indices 1 2 3 4 5 6 
#
# 1 0.014737 -0.002321 -0.000786 0.000000 -0.001472 0.000000
# 2 -0.002321 0.021823 -0.001484 0.000000 0.012309 0.000000
# 3 -0.000786 -0.001484 0.004671 0.000000 0.000368 0.000000
# 4 0.000000 0.000000 0.000000 0.071045 0.000000 0.022674
# 5 -0.001472 0.012309 0.000368 0.000000 0.048733 0.000000
# 6 0.000000 0.000000 0.000000 0.022674 0.000000 0.056236
#
#
# Mechanical properties :
#
#
# Convention : Reuss Voigt Hill
#
# Bulk Modulus (GPa) = 31.20189 48.45938 39.83063
# Shear Modulus (GPa) = 21.08709 32.54423 26.81566
#
# Velocity S-wave (km/s) = 3.07470 3.81972 3.46728
# Velocity P-wave (km/s) = 5.15689 6.41709 5.82120
#
# Compressibility (1/GPa) = 0.03204934
#
# Stress axis : x y z
#
# Youngs Moduli (GPa) = 67.85417 45.82274 214.08254
#
# Poissons Ratio (x) = 0.10637 0.16827
# Poissons Ratio (y) = 0.15751 0.31768
# Poissons Ratio (z) = 0.05333 0.06800
#
# Static dielectric constant tensor:
#      x y z
#    x 1.972810 0.000000 -0.062980 
#    y 0.000000 1.818260 0.000000 
#    z -0.062980 0.000000 1.898450 
# 
# From -- ./inp_files/81746.got.cif
#   From: 2010.05.17/outbox.cif.g08.bks.cpg/sg13_41_cif.got.tgz:81746.got - 2010.06.03 16:44:36.
