data_PCOD9227688
_publ_section_title
;
Structure prediction by ZEFSAII (Michael W. Deem and Ramdas Pophale) SiO2 
 PCOD9227688
Probable space group: P 2/C
;
_chemical_formula_sum "Si O2"
_cell_formula_units_Z 18
_cell_length_a 8.973888
_cell_length_b 5.553844
_cell_length_c 27.806834
_cell_angle_alpha 90.000000
_cell_angle_beta 148.125944
_cell_angle_gamma 90.000000
_cell_volume 731.819685
_symmetry_space_group_name_H-M "P 2/C"
_symmetry_group_IT_number 13
_symmetry_cell_setting 'monoclinic'
loop_
_space_group_symop_operation_xyz
x,y,z
-x,y,1/2-z
-x,-y,-z
x,-y,1/2+z
loop_
_atom_site_type_symbol
_atom_site_label
_atom_site_fract_x
_atom_site_fract_y
_atom_site_fract_z
Si Si1 0.593689 0.183881 0.984179
Si Si2 0.460131 0.550466 0.682032
Si Si3 0.593829 0.058876 0.878562
Si Si4 0.113831 0.432984 0.353915
Si Si5 0.000000 0.946728 0.750000
O O1 0.318446 0.347284 0.898362
O O2 0.696686 0.078958 0.961927
O O3 0.500000 0.000000 0.000000
O O4 0.820420 0.353681 0.073381
O O5 0.500000 0.563204 0.750000
O O6 0.317588 0.300990 0.625686
O O7 0.786001 0.535052 0.754792
O O8 0.341790 0.801263 0.628188
O O9 0.248772 0.066045 0.787519
O O10 0.180888 0.216045 0.336248
#
# Coordination Sequence:
#
# PCOD9227688 Si02
#       5
#     4   4   4   4   2
#     4  11  21  37  61  98 128 152 194 261 328 367
#     4  11  25  44  63  87 123 171 217 247 287 364
#     4  11  22  39  64  90 124 160 206 255 308 359
#     4  10  22  36  62  91 130 157 202 252 316 361
#     4  10  18  38  60  96 116 160 200 260 310 360
#
# _framework density 24.596223999999999
#
# number of rings (size 3 to 8) (size 9 to 14) (size 15 to 20)
#    0.000    1.333    2.222    4.667    6.222    0.889 
#    0.000    2.222    0.000    0.000    0.000    0.000 
#    0.000    0.000    0.000    0.000    0.000    0.000 
#
# Total GULP energy -100589.320632 kJ/mol
# GULP energy per Si atom -5588.295591 kJ/mol
# Density = 2.454024 g / cm^3
# Si number density = 24.596224 Si / 1000 Ang^3
#
#
#
# Elastic Constant Matrix: (Units=GPa)
#
#
# Indices 1 2 3 4 5 6 
#
# 1 48.4876 52.0181 29.0246 0.0000 -26.5171 0.0000
# 2 52.0181 202.0971 60.5530 0.0000 -42.0050 0.0000
# 3 29.0246 60.5530 104.1218 0.0000 -30.8262 0.0000
# 4 0.0000 0.0000 0.0000 47.4919 0.0000 -15.7257
# 5 -26.5171 -42.0050 -30.8262 0.0000 66.5869 0.0000
# 6 0.0000 0.0000 0.0000 -15.7257 0.0000 20.5664
#
#
#
# Elastic Compliance Matrix: (Units=1/GPa)
#
#
# Indices 1 2 3 4 5 6 
#
# 1 0.033403 -0.005886 -0.003534 0.000000 0.007953 0.000000
# 2 -0.005886 0.007415 -0.002295 0.000000 0.001271 0.000000
# 3 -0.003534 -0.002295 0.012838 0.000000 0.003088 0.000000
# 4 0.000000 0.000000 0.000000 0.028195 0.000000 0.021559
# 5 0.007953 0.001271 0.003088 0.000000 0.020417 0.000000
# 6 0.000000 0.000000 0.000000 0.021559 0.000000 0.065107
#
#
# Mechanical properties :
#
#
# Convention : Reuss Voigt Hill
#
# Bulk Modulus (GPa) = 33.08322 70.87755 51.98038
# Shear Modulus (GPa) = 24.89047 41.13644 33.01346
#
# Velocity S-wave (km/s) = 3.18459 4.09402 3.66760
# Velocity P-wave (km/s) = 5.19633 7.15730 6.25415
#
# Compressibility (1/GPa) = 0.03022680
#
# Stress axis : x y z
#
# Youngs Moduli (GPa) = 29.93742 134.86232 77.89193
#
# Poissons Ratio (x) = 0.79378 0.27525
# Poissons Ratio (y) = 0.17621 0.17878
# Poissons Ratio (z) = 0.10579 0.30954
#
# Static dielectric constant tensor:
#      x y z
#    x 2.017550 0.000000 0.019700 
#    y 0.000000 2.011540 0.000000 
#    z 0.019700 0.000000 1.953970 
# 
# From -- ./inp_files/84225.got.cif
#   From: 2010.05.17/outbox.cif.g08.bks.cpg/sg13_43_cif.got.tgz:84225.got - 2010.06.03 16:44:36.
