data_PCOD9227479
_publ_section_title
;
Structure prediction by ZEFSAII (Michael W. Deem and Ramdas Pophale) SiO2 
 PCOD9227479
Probable space group: P 2/C
;
_chemical_formula_sum "Si O2"
_cell_formula_units_Z 16
_cell_length_a 12.057266
_cell_length_b 11.967564
_cell_length_c 9.131394
_cell_angle_alpha 90.000000
_cell_angle_beta 34.977435
_cell_angle_gamma 90.000000
_cell_volume 755.333265
_symmetry_space_group_name_H-M "P 2/C"
_symmetry_group_IT_number 13
_symmetry_cell_setting 'monoclinic'
loop_
_space_group_symop_operation_xyz
x,y,z
-x,y,1/2-z
-x,-y,-z
x,-y,1/2+z
loop_
_atom_site_type_symbol
_atom_site_label
_atom_site_fract_x
_atom_site_fract_y
_atom_site_fract_z
Si Si1 0.175217 0.249894 0.279074
Si Si2 0.735462 0.284164 0.648888
Si Si3 0.151611 0.468468 0.458315
Si Si4 0.457658 0.117024 0.123113
O O1 0.249516 0.359050 0.287643
O O2 0.238917 0.149079 0.313546
O O3 0.947490 0.261329 0.490650
O O4 0.265516 0.243801 0.018733
O O5 0.721766 0.420274 0.652699
O O6 0.587375 0.213736 0.906050
O O7 0.000000 0.500000 0.500000
O O8 0.000000 0.439915 0.750000
O O9 0.500000 0.113760 0.250000
O O10 0.500000 0.000000 0.000000
#
# Coordination Sequence:
#
# PCOD9227479 Si02
#       4
#     4   4   4   4
#     4  10  22  40  69  94 131 168 207 259 314 375
#     4  10  21  42  67  95 130 169 207 257 318 369
#     4  10  18  35  64  99 133 164 202 253 312 382
#     4  12  28  45  65  91 125 166 218 268 310 374
#
# _framework density 21.182701999999999
#
# number of rings (size 3 to 8) (size 9 to 14) (size 15 to 20)
#    0.000    1.500    5.000    2.250    7.000    2.000 
#    0.000    0.000    0.000    0.000    0.000    0.000 
#    0.000    0.000    0.000    0.000    0.000    0.000 
#
# Total GULP energy -89193.016079 kJ/mol
# GULP energy per Si atom -5574.563505 kJ/mol
# Density = 2.113449 g / cm^3
# Si number density = 21.182702 Si / 1000 Ang^3
#
#
#
# Elastic Constant Matrix: (Units=GPa)
#
#
# Indices 1 2 3 4 5 6 
#
# 1 133.3177 52.8456 45.8300 0.0000 33.3942 0.0000
# 2 52.8456 116.5383 41.8260 0.0000 5.8318 0.0000
# 3 45.8300 41.8260 101.9809 0.0000 21.8091 0.0000
# 4 0.0000 0.0000 0.0000 32.0561 0.0000 11.5430
# 5 33.3942 5.8318 21.8091 0.0000 42.4681 0.0000
# 6 0.0000 0.0000 0.0000 11.5430 0.0000 20.7334
#
#
#
# Elastic Compliance Matrix: (Units=1/GPa)
#
#
# Indices 1 2 3 4 5 6 
#
# 1 0.011774 -0.004275 -0.001891 0.000000 -0.007700 0.000000
# 2 -0.004275 0.011640 -0.003628 0.000000 0.003627 0.000000
# 3 -0.001891 -0.003628 0.013165 0.000000 -0.004775 0.000000
# 4 0.000000 0.000000 0.000000 0.039017 0.000000 -0.021722
# 5 -0.007700 0.003627 -0.004775 0.000000 0.031557 0.000000
# 6 0.000000 0.000000 0.000000 -0.021722 0.000000 0.060325
#
#
# Mechanical properties :
#
#
# Convention : Reuss Voigt Hill
#
# Bulk Modulus (GPa) = 58.85759 70.31555 64.58657
# Shear Modulus (GPa) = 25.94283 33.14054 29.54168
#
# Velocity S-wave (km/s) = 3.50339 3.95968 3.73850
# Velocity P-wave (km/s) = 6.64914 7.36018 7.01368
#
# Compressibility (1/GPa) = 0.01699016
#
# Stress axis : x y z
#
# Youngs Moduli (GPa) = 84.92932 85.90881 75.95863
#
# Poissons Ratio (x) = 0.36727 0.14366
# Poissons Ratio (y) = 0.36309 0.27561
# Poissons Ratio (z) = 0.16063 0.31171
#
# Static dielectric constant tensor:
#      x y z
#    x 1.741140 0.000000 -0.036770 
#    y 0.000000 1.630580 0.000000 
#    z -0.036770 0.000000 1.740010 
# 
# From -- ./inp_files/15423.got.cif
#   From: 2010.05.17/outbox.cif.g08.bks.cpg/sg13_8_cif.got.tgz:15423.got - 2010.06.03 16:44:36.
