data_PCOD9227407
_publ_section_title
;
Structure prediction by ZEFSAII (Michael W. Deem and Ramdas Pophale) SiO2 
 PCOD9227407
Probable space group: P 2/C
;
_chemical_formula_sum "Si O2"
_cell_formula_units_Z 22
_cell_length_a 10.374201
_cell_length_b 8.922277
_cell_length_c 14.671316
_cell_angle_alpha 90.000000
_cell_angle_beta 134.999930
_cell_angle_gamma 90.000000
_cell_volume 960.251434
_symmetry_space_group_name_H-M "P 2/C"
_symmetry_group_IT_number 13
_symmetry_cell_setting 'monoclinic'
loop_
_space_group_symop_operation_xyz
x,y,z
-x,y,1/2-z
-x,-y,-z
x,-y,1/2+z
loop_
_atom_site_type_symbol
_atom_site_label
_atom_site_fract_x
_atom_site_fract_y
_atom_site_fract_z
Si Si1 0.500000 0.086270 0.750000
Si Si2 0.500000 0.413730 0.250000
Si Si3 0.621427 0.142029 0.089695
Si Si4 0.525032 0.660226 0.391791
Si Si5 0.000000 0.249999 0.250000
Si Si6 0.942037 0.642030 0.531731
Si Si7 0.241450 0.160226 0.133240
O O1 0.561271 0.195169 0.699852
O O2 0.671053 0.985885 0.867602
O O3 0.435851 0.514115 0.303453
O O4 0.338432 0.304831 0.138580
O O5 0.823888 0.146255 0.146960
O O6 0.669254 0.147159 0.220413
O O7 0.535036 0.293902 0.002084
O O8 0.500000 0.000000 0.000000
O O9 0.728429 0.647159 0.448841
O O10 0.029969 0.353742 0.176928
O O11 0.000000 0.500000 0.500000
O O12 0.030867 0.793902 0.532950
#
# Coordination Sequence:
#
# PCOD9227407 Si02
#       7
#     2   2   4   4   2   4   4
#     4  10  20  34  52  82 108 146 196 242 280 370
#     4  10  20  34  52  82 108 146 196 242 280 370
#     4  10  18  35  57  81 116 157 191 247 308 345
#     4  10  20  34  56  80 112 148 200 236 294 362
#     4   8  20  32  56  92 118 156 208 242 292 384
#     4  10  18  35  57  81 116 157 191 247 308 345
#     4  10  20  34  56  80 112 148 200 236 294 362
#
# _framework density 22.910667
#
# number of rings (size 3 to 8) (size 9 to 14) (size 15 to 20)
#    0.000    2.182    3.636    0.000    0.000    1.455 
#    0.000    0.000    0.000    4.364    0.000    0.000 
#    0.000    0.000    0.000    0.000    0.000    0.000 
#
# Total GULP energy -122506.171030 kJ/mol
# GULP energy per Si atom -5568.462320 kJ/mol
# Density = 2.285852 g / cm^3
# Si number density = 22.910667 Si / 1000 Ang^3
#
#
#
# Elastic Constant Matrix: (Units=GPa)
#
#
# Indices 1 2 3 4 5 6 
#
# 1 67.2069 24.6836 12.5801 0.0000 5.5519 0.0000
# 2 24.6836 109.7329 24.6833 0.0000 -0.0002 0.0000
# 3 12.5801 24.6833 67.2073 0.0000 -5.5524 0.0000
# 4 0.0000 0.0000 0.0000 33.9915 0.0000 -0.0001
# 5 5.5519 -0.0002 -5.5524 0.0000 35.8493 0.0000
# 6 0.0000 0.0000 0.0000 -0.0001 0.0000 33.9915
#
#
#
# Elastic Compliance Matrix: (Units=1/GPa)
#
#
# Indices 1 2 3 4 5 6 
#
# 1 0.016730 -0.003275 -0.002171 0.000000 -0.002927 0.000000
# 2 -0.003275 0.010586 -0.003275 0.000000 0.000000 0.000000
# 3 -0.002171 -0.003275 0.016730 0.000000 0.002927 0.000000
# 4 0.000000 0.000000 0.000000 0.029419 0.000000 0.000000
# 5 -0.002927 0.000000 0.002927 0.000000 0.028801 0.000000
# 6 0.000000 0.000000 0.000000 0.000000 0.000000 0.029419
#
#
# Mechanical properties :
#
#
# Convention : Reuss Voigt Hill
#
# Bulk Modulus (GPa) = 37.58612 40.89347 39.23979
# Shear Modulus (GPa) = 31.64621 32.91314 32.27967
#
# Velocity S-wave (km/s) = 3.72060 3.79434 3.75765
# Velocity P-wave (km/s) = 5.90748 6.08966 5.99926
#
# Compressibility (1/GPa) = 0.02660557
#
# Stress axis : x y z
#
# Youngs Moduli (GPa) = 59.77136 94.46042 59.77168
#
# Poissons Ratio (x) = 0.30937 0.12974
# Poissons Ratio (y) = 0.19576 0.19576
# Poissons Ratio (z) = 0.12974 0.30936
#
# Static dielectric constant tensor:
#      x y z
#    x 1.946940 0.000000 0.000000 
#    y 0.000000 1.962180 0.000000 
#    z 0.000000 0.000000 1.946940 
# 
# From -- ./inp_files/49874.got.cif
#   From: 2010.05.17/outbox.cif.g08.bks.cpg/sg13_25_cif.got.tgz:49874.got - 2010.06.03 16:44:36.
