data_PCOD9227077
_publ_section_title
;
Structure prediction by ZEFSAII (Michael W. Deem and Ramdas Pophale) SiO2 
 PCOD9227077
Probable space group: P 2/C
;
_chemical_formula_sum "Si O2"
_cell_formula_units_Z 26
_cell_length_a 7.960655
_cell_length_b 8.946775
_cell_length_c 20.516043
_cell_angle_alpha 90.000000
_cell_angle_beta 58.729678
_cell_angle_gamma 90.000000
_cell_volume 1248.926143
_symmetry_space_group_name_H-M "P 2/C"
_symmetry_group_IT_number 13
_symmetry_cell_setting 'monoclinic'
loop_
_space_group_symop_operation_xyz
x,y,z
-x,y,1/2-z
-x,-y,-z
x,-y,1/2+z
loop_
_atom_site_type_symbol
_atom_site_label
_atom_site_fract_x
_atom_site_fract_y
_atom_site_fract_z
Si Si1 0.714706 0.858403 0.904326
Si Si2 0.000000 0.245145 0.250000
Si Si3 0.670923 0.035855 0.559634
Si Si4 0.266583 0.410093 0.298803
Si Si5 0.520793 0.432871 0.065480
Si Si6 0.889580 0.266803 0.037486
Si Si7 0.705513 0.329900 0.617558
O O1 0.909204 0.865937 0.822717
O O2 0.646460 0.691043 0.900054
O O3 0.539939 0.963109 0.913576
O O4 0.734303 0.887419 0.977668
O O5 0.152135 0.351760 0.258850
O O6 0.645218 0.157798 0.621944
O O7 0.826860 0.906969 0.546384
O O8 0.500000 0.368869 0.250000
O O9 0.156987 0.328776 0.381387
O O10 0.257747 0.585946 0.321440
O O11 0.723693 0.343958 0.027142
O O12 0.545864 0.562348 0.114137
O O13 0.500000 0.500000 0.000000
O O14 0.093937 0.322064 0.965854
#
# Coordination Sequence:
#
# PCOD9227077 Si02
#       7
#     4   2   4   4   4   4   4
#     4  10  22  38  64  97 122 170 212 255 316 394
#     4  12  24  42  68  90 130 172 220 258 322 392
#     4  10  20  40  63  94 129 160 210 265 320 371
#     4  11  24  43  62  94 128 167 215 261 326 383
#     4  10  18  32  59  91 121 155 197 260 314 353
#     4  10  22  38  63  94 123 161 212 259 317 380
#     4  11  21  37  62  92 122 159 208 265 314 368
#
# _framework density 20.817883999999999
#
# number of rings (size 3 to 8) (size 9 to 14) (size 15 to 20)
#    0.000    1.538    1.538    6.000    2.154    0.000 
#    0.000    3.846    0.000    1.846    0.000    0.000 
#    0.000    0.000    0.000    0.000    0.000    0.000 
#
# Total GULP energy -144915.669079 kJ/mol
# GULP energy per Si atom -5573.679580 kJ/mol
# Density = 2.077050 g / cm^3
# Si number density = 20.817884 Si / 1000 Ang^3
#
#
#
# Elastic Constant Matrix: (Units=GPa)
#
#
# Indices 1 2 3 4 5 6 
#
# 1 65.7517 17.6754 28.8129 0.0000 22.2655 0.0000
# 2 17.6754 103.5067 22.6883 0.0000 14.7720 0.0000
# 3 28.8129 22.6883 84.1300 0.0000 3.4134 0.0000
# 4 0.0000 0.0000 0.0000 14.0251 0.0000 -0.4290
# 5 22.2655 14.7720 3.4134 0.0000 23.8643 0.0000
# 6 0.0000 0.0000 0.0000 -0.4290 0.0000 29.9986
#
#
#
# Elastic Compliance Matrix: (Units=1/GPa)
#
#
# Indices 1 2 3 4 5 6 
#
# 1 0.026983 0.000729 -0.008447 0.000000 -0.024418 0.000000
# 2 0.000729 0.011218 -0.002983 0.000000 -0.007197 0.000000
# 3 -0.008447 -0.002983 0.015278 0.000000 0.007542 0.000000
# 4 0.000000 0.000000 0.000000 0.071332 0.000000 0.001020
# 5 -0.024418 -0.007197 0.007542 0.000000 0.068062 0.000000
# 6 0.000000 0.000000 0.000000 0.001020 0.000000 0.033349
#
#
# Mechanical properties :
#
#
# Convention : Reuss Voigt Hill
#
# Bulk Modulus (GPa) = 31.17567 43.52686 37.35126
# Shear Modulus (GPa) = 19.35610 25.85837 22.60723
#
# Velocity S-wave (km/s) = 3.05254 3.52820 3.29895
# Velocity P-wave (km/s) = 5.23755 6.12792 5.70015
#
# Compressibility (1/GPa) = 0.03207629
#
# Stress axis : x y z
#
# Youngs Moduli (GPa) = 37.06023 89.14476 65.45500
#
# Poissons Ratio (x) = -0.06495 0.55290
# Poissons Ratio (y) = -0.02700 0.19524
# Poissons Ratio (z) = 0.31305 0.26590
#
# Static dielectric constant tensor:
#      x y z
#    x 1.805590 0.000000 -0.039530 
#    y 0.000000 1.807480 0.000000 
#    z -0.039530 0.000000 1.812400 
# 
# From -- ./inp_files/75918.got.cif
#   From: 2010.05.17/outbox.cif.g08.bks.cpg/sg13_38_cif.got.tgz:75918.got - 2010.06.03 16:44:36.
