data_PCOD9227669
_publ_section_title
;
Structure prediction by ZEFSAII (Michael W. Deem and Ramdas Pophale) SiO2 
 PCOD9227669
Probable space group: P 2/C
;
_chemical_formula_sum "Si O2"
_cell_formula_units_Z 24
_cell_length_a 6.334124
_cell_length_b 14.567905
_cell_length_c 12.035638
_cell_angle_alpha 90.000000
_cell_angle_beta 82.941757
_cell_angle_gamma 90.000000
_cell_volume 1102.171189
_symmetry_space_group_name_H-M "P 2/C"
_symmetry_group_IT_number 13
_symmetry_cell_setting 'monoclinic'
loop_
_space_group_symop_operation_xyz
x,y,z
-x,y,1/2-z
-x,-y,-z
x,-y,1/2+z
loop_
_atom_site_type_symbol
_atom_site_label
_atom_site_fract_x
_atom_site_fract_y
_atom_site_fract_z
Si Si1 0.274495 0.953691 0.370514
Si Si2 0.301089 0.435551 0.036621
Si Si3 0.000000 0.084029 0.250000
Si Si4 0.409904 0.721799 0.013811
Si Si5 0.957769 0.597782 0.376023
Si Si6 0.500000 0.202784 0.750000
Si Si7 0.394932 0.890100 0.597951
O O1 0.307672 0.868385 0.285047
O O2 0.268053 0.910118 0.492581
O O3 0.083777 0.016417 0.341554
O O4 0.484563 0.018810 0.368250
O O5 0.156576 0.497901 0.125738
O O6 0.500000 0.500000 0.000000
O O7 0.409424 0.339432 0.058068
O O8 0.168037 0.418896 0.933323
O O9 0.210859 0.136979 0.196482
O O10 0.470735 0.740774 0.139152
O O11 0.191778 0.665365 0.041269
O O12 0.423496 0.817305 0.947697
O O13 0.000000 0.634348 0.250000
#
# Coordination Sequence:
#
# PCOD9227669 Si02
#       7
#     4   4   2   4   4   2   4
#     4  10  21  39  57  84 119 163 206 260 315 363
#     4   9  20  39  61  89 126 156 192 246 307 368
#     4  12  20  38  60  82 112 170 218 246 314 378
#     4  10  21  37  59  90 125 157 198 264 310 358
#     4  10  20  38  65  93 120 160 202 243 304 380
#     4  10  18  38  58  86 122 156 206 264 314 350
#     4  10  22  38  59  84 123 162 204 263 309 368
#
# _framework density 21.775200000000002
#
# number of rings (size 3 to 8) (size 9 to 14) (size 15 to 20)
#    0.000    2.000    1.667    1.500    0.000    3.333 
#    9.000    0.000    7.333    0.000    0.000    0.000 
#    0.000    0.000    0.000    0.000    0.000    0.000 
#
# Total GULP energy -133781.218169 kJ/mol
# GULP energy per Si atom -5574.217424 kJ/mol
# Density = 2.172564 g / cm^3
# Si number density = 21.775200 Si / 1000 Ang^3
#
#
#
# Elastic Constant Matrix: (Units=GPa)
#
#
# Indices 1 2 3 4 5 6 
#
# 1 86.9508 19.6025 17.2034 0.0000 -6.6660 0.0000
# 2 19.6025 66.3954 22.1605 0.0000 -3.4367 0.0000
# 3 17.2034 22.1605 57.0660 0.0000 -14.7313 0.0000
# 4 0.0000 0.0000 0.0000 28.6295 0.0000 -6.4911
# 5 -6.6660 -3.4367 -14.7313 0.0000 28.2610 0.0000
# 6 0.0000 0.0000 0.0000 -6.4911 0.0000 22.1600
#
#
#
# Elastic Compliance Matrix: (Units=1/GPa)
#
#
# Indices 1 2 3 4 5 6 
#
# 1 0.012728 -0.002902 -0.002341 0.000000 0.001429 0.000000
# 2 -0.002902 0.018030 -0.006629 0.000000 -0.001948 0.000000
# 3 -0.002341 -0.006629 0.023633 0.000000 0.010961 0.000000
# 4 0.000000 0.000000 0.000000 0.037414 0.000000 0.010959
# 5 0.001429 -0.001948 0.010961 0.000000 0.041198 0.000000
# 6 0.000000 0.000000 0.000000 0.010959 0.000000 0.048336
#
#
# Mechanical properties :
#
#
# Convention : Reuss Voigt Hill
#
# Bulk Modulus (GPa) = 32.63149 36.48276 34.55712
# Shear Modulus (GPa) = 23.22341 25.90650 24.56496
#
# Velocity S-wave (km/s) = 3.26929 3.45298 3.36239
# Velocity P-wave (km/s) = 5.41009 5.71735 5.56584
#
# Compressibility (1/GPa) = 0.03064525
#
# Stress axis : x y z
#
# Youngs Moduli (GPa) = 78.56808 55.46291 42.31345
#
# Poissons Ratio (x) = 0.16098 0.09906
# Poissons Ratio (y) = 0.22804 0.28052
# Poissons Ratio (z) = 0.18393 0.36769
#
# Static dielectric constant tensor:
#      x y z
#    x 1.796190 0.000000 -0.050250 
#    y 0.000000 1.838350 0.000000 
#    z -0.050250 0.000000 1.814120 
# 
# From -- ./inp_files/43985.got.cif
#   From: 2010.05.17/outbox.cif.g08.bks.cpg/sg13_22_cif.got.tgz:43985.got - 2010.06.03 16:44:36.
