data_PCOD9227731
_publ_section_title
;
Structure prediction by ZEFSAII (Michael W. Deem and Ramdas Pophale) SiO2 
 PCOD9227731
Probable space group: P 2/C
;
_chemical_formula_sum "Si O2"
_cell_formula_units_Z 24
_cell_length_a 23.797617
_cell_length_b 8.220306
_cell_length_c 17.770839
_cell_angle_alpha 90.000000
_cell_angle_beta 163.842275
_cell_angle_gamma 90.000000
_cell_volume 967.420457
_symmetry_space_group_name_H-M "P 2/C"
_symmetry_group_IT_number 13
_symmetry_cell_setting 'monoclinic'
loop_
_space_group_symop_operation_xyz
x,y,z
-x,y,1/2-z
-x,-y,-z
x,-y,1/2+z
loop_
_atom_site_type_symbol
_atom_site_label
_atom_site_fract_x
_atom_site_fract_y
_atom_site_fract_z
Si Si1 0.740438 0.197044 0.834398
Si Si2 0.904921 0.076656 0.452350
Si Si3 0.578428 0.374048 0.264164
Si Si4 0.000000 0.550257 0.750000
Si Si5 0.500000 0.800633 0.250000
Si Si6 0.621928 0.359278 0.060711
Si Si7 0.239534 0.034902 0.995276
O O1 0.755055 0.068208 0.786208
O O2 0.528428 0.287908 0.570572
O O3 0.766828 0.081853 0.941932
O O4 0.913234 0.334494 0.070748
O O5 0.039005 0.104021 0.699727
O O6 0.822164 0.256362 0.327909
O O7 0.000000 0.000000 0.500000
O O8 0.500000 0.392463 0.250000
O O9 0.405121 0.449859 0.986919
O O10 0.613388 0.183154 0.299418
O O11 0.798371 0.455544 0.522324
O O12 0.685319 0.919349 0.475292
O O13 0.469694 0.699060 0.136834
#
# Coordination Sequence:
#
# PCOD9227731 Si02
#       7
#     4   4   4   2   2   4   4
#     4  10  22  42  68  96 130 182 231 279 339 419
#     4  12  23  37  69 106 132 165 231 306 334 391
#     4  11  24  41  69  97 140 186 227 275 347 422
#     4  10  22  40  72  98 126 186 238 278 324 422
#     4  10  18  38  66  94 122 180 220 274 322 414
#     4  10  22  40  65  94 134 172 227 277 348 404
#     4  11  22  41  68  99 136 177 231 275 342 412
#
# _framework density 24.808240999999999
#
# number of rings (size 3 to 8) (size 9 to 14) (size 15 to 20)
#    0.000    1.333    5.000    0.500    4.667    0.000 
#    0.000    1.667    7.333    0.000    0.000    0.000 
#    0.000    0.000    0.000    0.000    0.000    0.000 
#
# Total GULP energy -133983.750876 kJ/mol
# GULP energy per Si atom -5582.656286 kJ/mol
# Density = 2.475178 g / cm^3
# Si number density = 24.808241 Si / 1000 Ang^3
#
#
#
# Elastic Constant Matrix: (Units=GPa)
#
#
# Indices 1 2 3 4 5 6 
#
# 1 122.9049 30.4120 5.0334 0.0000 10.0086 0.0000
# 2 30.4120 65.5994 -8.1842 0.0000 -7.8628 0.0000
# 3 5.0334 -8.1842 32.9584 0.0000 -7.1359 0.0000
# 4 0.0000 0.0000 0.0000 31.7936 0.0000 2.7199
# 5 10.0086 -7.8628 -7.1359 0.0000 26.9035 0.0000
# 6 0.0000 0.0000 0.0000 2.7199 0.0000 32.8185
#
#
#
# Elastic Compliance Matrix: (Units=1/GPa)
#
#
# Indices 1 2 3 4 5 6 
#
# 1 0.010439 -0.006252 -0.004650 0.000000 -0.006944 0.000000
# 2 -0.006252 0.020437 0.008303 0.000000 0.010501 0.000000
# 3 -0.004650 0.008303 0.036086 0.000000 0.013728 0.000000
# 4 0.000000 0.000000 0.000000 0.031677 0.000000 -0.002625
# 5 -0.006944 0.010501 0.013728 0.000000 0.046464 0.000000
# 6 0.000000 0.000000 0.000000 -0.002625 0.000000 0.030688
#
#
# Mechanical properties :
#
#
# Convention : Reuss Voigt Hill
#
# Bulk Modulus (GPa) = 16.19066 30.66500 23.42783
# Shear Modulus (GPa) = 24.80426 31.24989 28.02707
#
# Velocity S-wave (km/s) = 3.16545 3.55302 3.36482
# Velocity P-wave (km/s) = 4.46101 5.40551 4.95581
#
# Compressibility (1/GPa) = 0.06176401
#
# Stress axis : x y z
#
# Youngs Moduli (GPa) = 95.79074 48.93026 27.71174
#
# Poissons Ratio (x) = 0.30593 0.12887
# Poissons Ratio (y) = 0.59891 -0.23010
# Poissons Ratio (z) = 0.44547 -0.40629
#
# Static dielectric constant tensor:
#      x y z
#    x 1.948370 0.000000 0.044330 
#    y 0.000000 2.009460 0.000000 
#    z 0.044330 0.000000 2.085130 
# 
# From -- ./inp_files/71345.got.cif
#   From: 2010.05.17/outbox.cif.g08.bks.cpg/sg13_36_cif.got.tgz:71345.got - 2010.06.03 16:44:36.
