data_PCOD9227210
_publ_section_title
;
Structure prediction by ZEFSAII (Michael W. Deem and Ramdas Pophale) SiO2 
 PCOD9227210
Probable space group: P 2/C
;
_chemical_formula_sum "Si O2"
_cell_formula_units_Z 32
_cell_length_a 14.500655
_cell_length_b 8.115485
_cell_length_c 27.542224
_cell_angle_alpha 90.000000
_cell_angle_beta 29.167404
_cell_angle_gamma 90.000000
_cell_volume 1579.623667
_symmetry_space_group_name_H-M "P 2/C"
_symmetry_group_IT_number 13
_symmetry_cell_setting 'monoclinic'
loop_
_space_group_symop_operation_xyz
x,y,z
-x,y,1/2-z
-x,-y,-z
x,-y,1/2+z
loop_
_atom_site_type_symbol
_atom_site_label
_atom_site_fract_x
_atom_site_fract_y
_atom_site_fract_z
Si Si1 0.556317 0.141932 0.915248
Si Si2 0.641215 0.633239 0.727667
Si Si3 0.374228 0.220479 0.854881
Si Si4 0.979153 0.156914 0.044308
Si Si5 0.826140 0.065840 0.360943
Si Si6 0.581542 0.105900 0.106399
Si Si7 0.019714 0.917224 0.112256
Si Si8 0.691581 0.656273 0.271037
O O1 0.705825 0.063988 0.883957
O O2 0.649781 0.302465 0.846764
O O3 0.517327 0.998051 0.892126
O O4 0.348181 0.170384 0.035055
O O5 0.500000 0.568553 0.750000
O O6 0.788465 0.743255 0.629947
O O7 0.535722 0.751858 0.814458
O O8 0.748552 0.504167 0.713903
O O9 0.500000 0.223744 0.750000
O O10 0.481294 0.321669 0.846306
O O11 0.379076 0.033436 0.871621
O O12 0.158306 0.269467 0.949010
O O13 0.992415 0.080202 0.092216
O O14 0.000000 0.000000 0.000000
O O15 0.935942 0.973327 0.353748
O O16 0.000000 0.143978 0.250000
O O17 0.786074 0.167017 0.994721
O O18 0.839606 0.800120 0.189181
#
# Coordination Sequence:
#
# PCOD9227210 Si02
#       8
#     4   4   4   4   4   4   4   4
#     4   9  19  36  61  92 120 156 195 263 309 362
#     4  12  25  38  57  86 123 166 205 248 302 374
#     4  10  19  35  57  80 109 148 195 252 294 347
#     4  11  22  38  62  88 116 154 210 258 301 354
#     4  10  18  33  65  99 117 145 211 261 313 359
#     4   9  19  36  58  84 115 153 203 249 309 351
#     4  10  20  36  62  89 116 157 199 263 305 358
#     4  11  22  37  53  81 123 159 196 239 307 366
#
# _framework density 20.257989999999999
#
# number of rings (size 3 to 8) (size 9 to 14) (size 15 to 20)
#    0.000    1.750    1.250    6.000    0.000    1.000 
#    0.000    3.750    0.000    9.750    0.000    0.000 
#    0.000    0.000    0.000    0.000    0.000    0.000 
#
# Total GULP energy -178251.371125 kJ/mol
# GULP energy per Si atom -5570.355348 kJ/mol
# Density = 2.021188 g / cm^3
# Si number density = 20.257990 Si / 1000 Ang^3
#
#
#
# Elastic Constant Matrix: (Units=GPa)
#
#
# Indices 1 2 3 4 5 6 
#
# 1 94.5839 11.1777 16.3454 0.0000 4.9657 0.0000
# 2 11.1777 32.8233 21.8853 0.0000 6.6825 0.0000
# 3 16.3454 21.8853 126.3658 0.0000 3.4264 0.0000
# 4 0.0000 0.0000 0.0000 -583.0408 0.0000 484.7789
# 5 4.9657 6.6825 3.4264 0.0000 31.0002 0.0000
# 6 0.0000 0.0000 0.0000 484.7789 0.0000 -375.4487
#
#
#
# Elastic Compliance Matrix: (Units=1/GPa)
#
#
# Indices 1 2 3 4 5 6 
#
# 1 0.011135 -0.002983 -0.000895 0.000000 -0.001042 0.000000
# 2 -0.002983 0.036727 -0.005791 0.000000 -0.006799 0.000000
# 3 -0.000895 -0.005791 0.009022 0.000000 0.000395 0.000000
# 4 0.000000 0.000000 0.000000 0.023307 0.000000 0.030094
# 5 -0.001042 -0.006799 0.000395 0.000000 0.033847 0.000000
# 6 0.000000 0.000000 0.000000 0.030094 0.000000 0.036194
#
#
# Mechanical properties :
#
#
# Convention : Reuss Voigt Hill
#
# Bulk Modulus (GPa) = 26.63417 39.17666 32.90542
# Shear Modulus (GPa) = 27.45985 -171.87356 -72.20686
#
# Velocity S-wave (km/s) = 3.68572 -9.22098 -5.97671
# Velocity P-wave (km/s) = 5.59363 9.69473 5.59907
#
# Compressibility (1/GPa) = 0.03754575
#
# Stress axis : x y z
#
# Youngs Moduli (GPa) = 89.81062 27.22784 110.84579
#
# Poissons Ratio (x) = 0.08121 0.09926
# Poissons Ratio (y) = 0.26788 0.64186
# Poissons Ratio (z) = 0.08042 0.15767
#
# Static dielectric constant tensor:
#      x y z
#    x 1.833710 0.000000 0.018640 
#    y 0.000000 1.762290 0.000000 
#    z 0.018640 0.000000 1.801600 
# 
# From -- ./inp_files/92827.got.cif
#   From: 2010.05.17/outbox.cif.g08.bks.cpg/sg13_47_cif.got.tgz:92827.got - 2010.06.03 16:44:36.
