data_PCOD9227807
_publ_section_title
;
Structure prediction by ZEFSAII (Michael W. Deem and Ramdas Pophale) SiO2 
 PCOD9227807
Probable space group: P 2/C
;
_chemical_formula_sum "Si O2"
_cell_formula_units_Z 26
_cell_length_a 13.357265
_cell_length_b 9.142365
_cell_length_c 18.267634
_cell_angle_alpha 90.000000
_cell_angle_beta 33.548753
_cell_angle_gamma 90.000000
_cell_volume 1232.837107
_symmetry_space_group_name_H-M "P 2/C"
_symmetry_group_IT_number 13
_symmetry_cell_setting 'monoclinic'
loop_
_space_group_symop_operation_xyz
x,y,z
-x,y,1/2-z
-x,-y,-z
x,-y,1/2+z
loop_
_atom_site_type_symbol
_atom_site_label
_atom_site_fract_x
_atom_site_fract_y
_atom_site_fract_z
Si Si1 0.404594 0.428974 0.127594
Si Si2 0.502569 0.834849 0.634763
Si Si3 0.721285 0.548641 0.023921
Si Si4 0.779678 0.292209 0.076028
Si Si5 0.518414 0.830588 0.150674
Si Si6 0.000000 0.381598 0.750000
Si Si7 0.167763 0.318626 0.792279
O O1 0.438385 0.256187 0.103176
O O2 0.527732 0.481435 0.119739
O O3 0.213167 0.506219 0.258390
O O4 0.500000 0.500000 0.000000
O O5 0.338547 0.785357 0.789776
O O6 0.688985 0.776254 0.557741
O O7 0.526714 0.006486 0.614271
O O8 0.759892 0.468411 0.077395
O O9 0.689151 0.720868 0.038226
O O10 0.865059 0.484768 0.878766
O O11 0.994281 0.272586 0.945541
O O12 0.500000 0.843632 0.250000
O O13 0.344386 0.757664 0.217341
O O14 0.888245 0.288428 0.758229
#
# Coordination Sequence:
#
# PCOD9227807 Si02
#       7
#     4   4   4   4   4   2   4
#     4  10  19  37  62  86 116 161 215 260 304 380
#     4  10  21  40  62  84 138 169 201 263 336 383
#     4   9  20  34  65  84 121 159 216 260 313 374
#     4   9  19  39  62  92 116 170 214 262 315 378
#     4  11  23  41  60  97 135 169 207 265 334 395
#     4  10  18  42  62  94 122 166 224 276 312 374
#     4  10  22  37  68  93 124 166 220 273 310 383
#
# _framework density 21.089566999999999
#
# number of rings (size 3 to 8) (size 9 to 14) (size 15 to 20)
#    0.000    2.154    3.077    0.000    6.462    1.231 
#    2.769    3.077    3.385    0.923    0.000    0.000 
#    0.000    0.000    0.000    0.000    0.000    0.000 
#
# Total GULP energy -144754.707365 kJ/mol
# GULP energy per Si atom -5567.488745 kJ/mol
# Density = 2.104157 g / cm^3
# Si number density = 21.089567 Si / 1000 Ang^3
#
#
#
# Elastic Constant Matrix: (Units=GPa)
#
#
# Indices 1 2 3 4 5 6 
#
# 1 71.7318 19.8772 2.0486 0.0000 -8.2236 0.0000
# 2 19.8772 151.8919 24.9929 0.0000 -6.3125 0.0000
# 3 2.0486 24.9929 92.3590 0.0000 -9.0954 0.0000
# 4 0.0000 0.0000 0.0000 11.2280 0.0000 2.8957
# 5 -8.2236 -6.3125 -9.0954 0.0000 31.5299 0.0000
# 6 0.0000 0.0000 0.0000 2.8957 0.0000 27.1508
#
#
#
# Elastic Compliance Matrix: (Units=1/GPa)
#
#
# Indices 1 2 3 4 5 6 
#
# 1 0.014866 -0.001882 0.000540 0.000000 0.003656 0.000000
# 2 -0.001882 0.007152 -0.001854 0.000000 0.000406 0.000000
# 3 0.000540 -0.001854 0.011624 0.000000 0.003123 0.000000
# 4 0.000000 0.000000 0.000000 0.091582 0.000000 -0.009768
# 5 0.003656 0.000406 0.003123 0.000000 0.033652 0.000000
# 6 0.000000 0.000000 0.000000 -0.009768 0.000000 0.037873
#
#
# Mechanical properties :
#
#
# Convention : Reuss Voigt Hill
#
# Bulk Modulus (GPa) = 36.69712 45.53556 41.11634
# Shear Modulus (GPa) = 23.55988 31.91934 27.73961
#
# Velocity S-wave (km/s) = 3.34598 3.89461 3.63067
# Velocity P-wave (km/s) = 5.68910 6.47011 6.09213
#
# Compressibility (1/GPa) = 0.02725009
#
# Stress axis : x y z
#
# Youngs Moduli (GPa) = 67.26682 139.82429 86.02537
#
# Poissons Ratio (x) = 0.26319 -0.04643
# Poissons Ratio (y) = 0.12662 0.15945
# Poissons Ratio (z) = -0.03630 0.25918
#
# Static dielectric constant tensor:
#      x y z
#    x 1.854290 0.000000 0.052560 
#    y 0.000000 1.846600 0.000000 
#    z 0.052560 0.000000 1.794750 
# 
# From -- ./inp_files/79752.got.cif
#   From: 2010.05.17/outbox.cif.g08.bks.cpg/sg13_40_cif.got.tgz:79752.got - 2010.06.03 16:44:36.
