data_PCOD9227848
_publ_section_title
;
Structure prediction by ZEFSAII (Michael W. Deem and Ramdas Pophale) SiO2 
 PCOD9227848
Probable space group: P 2/C
;
_chemical_formula_sum "Si O2"
_cell_formula_units_Z 26
_cell_length_a 23.211921
_cell_length_b 11.504613
_cell_length_c 7.711568
_cell_angle_alpha 90.000000
_cell_angle_beta 42.418844
_cell_angle_gamma 90.000000
_cell_volume 1389.110713
_symmetry_space_group_name_H-M "P 2/C"
_symmetry_group_IT_number 13
_symmetry_cell_setting 'monoclinic'
loop_
_space_group_symop_operation_xyz
x,y,z
-x,y,1/2-z
-x,-y,-z
x,-y,1/2+z
loop_
_atom_site_type_symbol
_atom_site_label
_atom_site_fract_x
_atom_site_fract_y
_atom_site_fract_z
Si Si1 0.028530 0.128094 0.989491
Si Si2 0.400343 0.877170 0.628739
Si Si3 0.574762 0.147899 0.838900
Si Si4 0.217443 0.092948 0.460598
Si Si5 0.915442 0.669637 0.648943
Si Si6 0.240711 0.170956 0.008278
Si Si7 0.000000 0.492168 0.250000
O O1 0.000000 0.147465 0.250000
O O2 0.976922 0.219895 0.990972
O O3 0.129406 0.134866 0.738118
O O4 0.000000 0.000000 0.000000
O O5 0.412415 0.850217 0.398254
O O6 0.474805 0.818004 0.578468
O O7 0.416512 0.014859 0.616657
O O8 0.299981 0.861262 0.883523
O O9 0.659358 0.205240 0.730992
O O10 0.224211 0.136835 0.247635
O O11 0.221802 0.951465 0.452911
O O12 0.823970 0.725648 0.891882
O O13 0.923610 0.579911 0.473192
O O14 0.959290 0.592643 0.699979
#
# Coordination Sequence:
#
# PCOD9227848 Si02
#       7
#     4   4   4   4   4   4   2
#     4  12  23  33  50  77 107 138 170 209 260 314
#     4   8  14  25  40  61 100 136 169 192 230 301
#     4   8  14  25  41  65  94 136 168 195 237 288
#     4  10  19  29  45  75 107 142 169 198 254 314
#     4  11  22  39  54  73  99 135 176 224 256 311
#     4  10  19  30  50  74 105 135 173 207 250 313
#     4  10  24  40  56  68  96 138 186 226 266 286
#
# _framework density 18.717012
#
# number of rings (size 3 to 8) (size 9 to 14) (size 15 to 20)
#    0.000    2.154    2.308    1.846    1.077    0.000 
#    0.000    0.000    0.000    0.000    0.000    0.000 
#    0.000   46.769    0.000    0.154    0.308    0.000 
#
# Total GULP energy -144875.483431 kJ/mol
# GULP energy per Si atom -5572.133978 kJ/mol
# Density = 1.867441 g / cm^3
# Si number density = 18.717012 Si / 1000 Ang^3
#
#
#
# Elastic Constant Matrix: (Units=GPa)
#
#
# Indices 1 2 3 4 5 6 
#
# 1 49.7194 19.6134 23.2273 0.0000 -29.8932 0.0000
# 2 19.6134 75.1938 12.1273 0.0000 -11.6850 0.0000
# 3 23.2273 12.1273 75.2436 0.0000 -36.3649 0.0000
# 4 0.0000 0.0000 0.0000 15.1234 0.0000 -2.8676
# 5 -29.8932 -11.6850 -36.3649 0.0000 50.0681 0.0000
# 6 0.0000 0.0000 0.0000 -2.8676 0.0000 10.6542
#
#
#
# Elastic Compliance Matrix: (Units=1/GPa)
#
#
# Indices 1 2 3 4 5 6 
#
# 1 0.033724 -0.005850 -0.000611 0.000000 0.018326 0.000000
# 2 -0.005850 0.014866 -0.000927 0.000000 -0.000696 0.000000
# 3 -0.000611 -0.000927 0.020567 0.000000 0.014357 0.000000
# 4 0.000000 0.000000 0.000000 0.069679 0.000000 0.018754
# 5 0.018326 -0.000696 0.014357 0.000000 0.041180 0.000000
# 6 0.000000 0.000000 0.000000 0.018754 0.000000 0.098907
#
#
# Mechanical properties :
#
#
# Convention : Reuss Voigt Hill
#
# Bulk Modulus (GPa) = 18.38836 34.45474 26.42155
# Shear Modulus (GPa) = 16.03464 24.84842 20.44153
#
# Velocity S-wave (km/s) = 2.93010 3.64756 3.30833
# Velocity P-wave (km/s) = 4.61444 6.01563 5.36101
#
# Compressibility (1/GPa) = 0.05438223
#
# Stress axis : x y z
#
# Youngs Moduli (GPa) = 29.65209 67.26687 48.62239
#
# Poissons Ratio (x) = 0.39353 0.02969
# Poissons Ratio (y) = 0.17347 0.04506
# Poissons Ratio (z) = 0.01810 0.06234
#
# Static dielectric constant tensor:
#      x y z
#    x 1.643920 0.000000 -0.089840 
#    y 0.000000 1.593020 0.000000 
#    z -0.089840 0.000000 1.637990 
# 
# From -- ./inp_files/24062.got.cif
#   From: 2010.05.17/outbox.cif.g08.bks.cpg/sg13_13_cif.got.tgz:24062.got - 2010.06.03 16:44:36.
