data_PCOD9227298
_publ_section_title
;
Structure prediction by ZEFSAII (Michael W. Deem and Ramdas Pophale) SiO2 
 PCOD9227298
Probable space group: P 2/C
;
_chemical_formula_sum "Si O2"
_cell_formula_units_Z 26
_cell_length_a 17.454304
_cell_length_b 8.696827
_cell_length_c 24.899390
_cell_angle_alpha 90.000000
_cell_angle_beta 160.042169
_cell_angle_gamma 90.000000
_cell_volume 1290.103522
_symmetry_space_group_name_H-M "P 2/C"
_symmetry_group_IT_number 13
_symmetry_cell_setting 'monoclinic'
loop_
_space_group_symop_operation_xyz
x,y,z
-x,y,1/2-z
-x,-y,-z
x,-y,1/2+z
loop_
_atom_site_type_symbol
_atom_site_label
_atom_site_fract_x
_atom_site_fract_y
_atom_site_fract_z
Si Si1 0.300089 0.457519 0.255911
Si Si2 0.309202 0.830358 0.831213
Si Si3 0.168030 0.363395 0.053825
Si Si4 0.500000 0.612112 0.250000
Si Si5 0.049553 0.939073 0.092207
Si Si6 0.504080 0.246515 0.639238
Si Si7 0.252596 0.022567 0.409232
O O1 0.296747 0.344394 0.303638
O O2 0.286536 0.363092 0.190769
O O3 0.498182 0.582743 0.387576
O O4 0.077602 0.561773 0.104464
O O5 0.284726 0.870893 0.877456
O O6 0.104777 0.920680 0.667422
O O7 0.550349 0.896168 0.968712
O O8 0.300740 0.491109 0.107706
O O9 0.135677 0.188337 0.013509
O O10 0.457328 0.717714 0.272934
O O11 0.283835 0.846790 0.243748
O O12 0.000000 0.000000 0.000000
O O13 0.300451 0.135994 0.490711
O O14 0.000000 0.960979 0.250000
#
# Coordination Sequence:
#
# PCOD9227298 Si02
#       7
#     4   4   4   2   4   4   4
#     4   9  17  34  59  80 110 151 184 230 291 343
#     4  10  21  38  62  81 118 157 190 242 291 335
#     4   9  18  32  53  86 118 143 182 229 287 357
#     4  10  20  34  56  86 118 142 182 248 294 332
#     4  10  18  34  58  85 111 151 189 224 292 359
#     4   9  21  36  55  84 114 145 196 236 282 353
#     4  10  23  41  56  82 114 155 204 240 281 346
#
# _framework density 20.153421999999999
#
# number of rings (size 3 to 8) (size 9 to 14) (size 15 to 20)
#    0.000    2.462    1.538    0.923    2.154    0.615 
#    5.538    1.538    0.000    0.000    0.000    0.000 
#    0.000    0.000    0.000    0.000    0.000    0.000 
#
# Total GULP energy -144791.502371 kJ/mol
# GULP energy per Si atom -5568.903937 kJ/mol
# Density = 2.010755 g / cm^3
# Si number density = 20.153422 Si / 1000 Ang^3
#
#
#
# Elastic Constant Matrix: (Units=GPa)
#
#
# Indices 1 2 3 4 5 6 
#
# 1 28.2481 -5.1393 -11.0747 0.0000 0.9390 0.0000
# 2 -5.1393 45.0991 0.9180 0.0000 -13.0768 0.0000
# 3 -11.0747 0.9180 44.2552 0.0000 3.6049 0.0000
# 4 0.0000 0.0000 0.0000 0.9715 0.0000 -12.8728
# 5 0.9390 -13.0768 3.6049 0.0000 22.5233 0.0000
# 6 0.0000 0.0000 0.0000 -12.8728 0.0000 13.4923
#
#
#
# Elastic Compliance Matrix: (Units=1/GPa)
#
#
# Indices 1 2 3 4 5 6 
#
# 1 0.040108 0.004108 0.010024 0.000000 -0.000892 0.000000
# 2 0.004108 0.027231 -0.000821 0.000000 0.015770 0.000000
# 3 0.010024 -0.000821 0.025527 0.000000 -0.004981 0.000000
# 4 0.000000 0.000000 0.000000 -0.088416 0.000000 -0.084356
# 5 -0.000892 0.015770 -0.004981 0.000000 0.054389 0.000000
# 6 0.000000 0.000000 0.000000 -0.084356 0.000000 -0.006366
#
#
# Mechanical properties :
#
#
# Convention : Reuss Voigt Hill
#
# Bulk Modulus (GPa) = 8.36907 9.66781 9.01844
# Shear Modulus (GPa) = 76.12691 16.25733 46.19212
#
# Velocity S-wave (km/s) = 6.15270 2.84329 4.79270
# Velocity P-wave (km/s) = 7.39161 3.94798 5.92548
#
# Compressibility (1/GPa) = 0.11948758
#
# Stress axis : x y z
#
# Youngs Moduli (GPa) = 24.93290 36.72290 39.17346
#
# Poissons Ratio (x) = -0.15086 -0.39268
# Poissons Ratio (y) = -0.10242 0.03218
# Poissons Ratio (z) = -0.24993 0.03017
#
# Static dielectric constant tensor:
#      x y z
#    x 1.697960 0.000000 0.273060 
#    y 0.000000 1.724320 0.000000 
#    z 0.273060 0.000000 0.850230 
# 
# From -- ./inp_files/49728.got.cif
#   From: 2010.05.17/outbox.cif.g08.bks.cpg/sg13_25_cif.got.tgz:49728.got - 2010.06.03 16:44:36.
