data_PCOD9227307
_publ_section_title
;
Structure prediction by ZEFSAII (Michael W. Deem and Ramdas Pophale) SiO2 
 PCOD9227307
Probable space group: P 2/C
;
_chemical_formula_sum "Si O2"
_cell_formula_units_Z 24
_cell_length_a 22.348696
_cell_length_b 9.398838
_cell_length_c 9.139637
_cell_angle_alpha 90.000000
_cell_angle_beta 134.336879
_cell_angle_gamma 90.000000
_cell_volume 1373.121419
_symmetry_space_group_name_H-M "P 2/C"
_symmetry_group_IT_number 13
_symmetry_cell_setting 'monoclinic'
loop_
_space_group_symop_operation_xyz
x,y,z
-x,y,1/2-z
-x,-y,-z
x,-y,1/2+z
loop_
_atom_site_type_symbol
_atom_site_label
_atom_site_fract_x
_atom_site_fract_y
_atom_site_fract_z
Si Si1 0.167726 0.158667 0.880315
Si Si2 0.283788 0.366686 0.939052
Si Si3 0.731232 0.650767 0.429350
Si Si4 0.008444 0.651565 0.091063
Si Si5 0.852168 0.143158 0.303852
Si Si6 0.561238 0.548404 0.231048
O O1 0.255218 0.225879 0.974988
O O2 0.097104 0.273406 0.716308
O O3 0.144798 0.013477 0.758898
O O4 0.165170 0.138860 0.051361
O O5 0.241581 0.501093 0.950117
O O6 0.257536 0.355626 0.725344
O O7 0.381357 0.415219 0.114648
O O8 0.779954 0.774259 0.593271
O O9 0.632182 0.655563 0.295535
O O10 0.000000 0.628668 0.250000
O O11 0.936170 0.764113 0.924358
O O12 0.000000 0.500000 0.000000
O O13 0.500000 0.605920 0.250000
O O14 0.500000 0.500000 0.000000
#
# Coordination Sequence:
#
# PCOD9227307 Si02
#       6
#     4   4   4   4   4   4
#     4  11  23  39  58  83 118 158 196 236 290 344
#     4  10  20  34  57  87 117 147 192 238 287 337
#     4  10  20  34  57  87 117 147 192 237 289 335
#     4  10  23  40  60  86 116 150 197 242 282 333
#     4  11  23  39  58  83 118 158 196 237 289 344
#     4  10  18  34  58  89 114 147 188 241 289 342
#
# _framework density 17.478425000000001
#
# number of rings (size 3 to 8) (size 9 to 14) (size 15 to 20)
#    1.000    0.667    1.667    3.500    2.333    5.333 
#    0.000    0.000    0.000    2.000    0.000    0.000 
#    0.000    0.000    0.000    0.000    0.000    0.000 
#
# Total GULP energy -133738.301780 kJ/mol
# GULP energy per Si atom -5572.429241 kJ/mol
# Density = 1.743864 g / cm^3
# Si number density = 17.478425 Si / 1000 Ang^3
#
#
#
# Elastic Constant Matrix: (Units=GPa)
#
#
# Indices 1 2 3 4 5 6 
#
# 1 64.8611 27.2601 36.7096 0.0000 -6.9272 0.0000
# 2 27.2601 111.1572 47.7191 0.0000 -5.1519 0.0000
# 3 36.7096 47.7191 103.4772 0.0000 -8.7553 0.0000
# 4 0.0000 0.0000 0.0000 27.1200 0.0000 -8.0322
# 5 -6.9272 -5.1519 -8.7553 0.0000 31.6063 0.0000
# 6 0.0000 0.0000 0.0000 -8.0322 0.0000 19.8588
#
#
#
# Elastic Compliance Matrix: (Units=1/GPa)
#
#
# Indices 1 2 3 4 5 6 
#
# 1 0.019921 -0.002279 -0.005815 0.000000 0.002384 0.000000
# 2 -0.002279 0.011483 -0.004476 0.000000 0.000132 0.000000
# 3 -0.005815 -0.004476 0.013948 0.000000 0.001860 0.000000
# 4 0.000000 0.000000 0.000000 0.041891 0.000000 0.016944
# 5 0.002384 0.000132 0.001860 0.000000 0.032699 0.000000
# 6 0.000000 0.000000 0.000000 0.016944 0.000000 0.057209
#
#
# Mechanical properties :
#
#
# Convention : Reuss Voigt Hill
#
# Bulk Modulus (GPa) = 49.47166 55.87478 52.67322
# Shear Modulus (GPa) = 23.92050 26.90412 25.41231
#
# Velocity S-wave (km/s) = 3.70344 3.92762 3.81717
# Velocity P-wave (km/s) = 6.83031 7.25296 7.04481
#
# Compressibility (1/GPa) = 0.02021359
#
# Stress axis : x y z
#
# Youngs Moduli (GPa) = 50.19893 87.08820 71.69443
#
# Poissons Ratio (x) = 0.19845 0.41687
# Poissons Ratio (y) = 0.11439 0.32088
# Poissons Ratio (z) = 0.29188 0.38978
#
# Static dielectric constant tensor:
#      x y z
#    x 1.918080 0.000000 -0.173250 
#    y 0.000000 1.582610 0.000000 
#    z -0.173250 0.000000 1.708830 
# 
# From -- ./inp_files/22816.got.cif
#   From: 2010.05.17/outbox.cif.g08.bks.cpg/sg13_12_cif.got.tgz:22816.got - 2010.06.03 16:44:36.
