data_PCOD9227980
_publ_section_title
;
Structure prediction by ZEFSAII (Michael W. Deem and Ramdas Pophale) SiO2 
 PCOD9227980
Probable space group: P 2/C
;
_chemical_formula_sum "Si O2"
_cell_formula_units_Z 24
_cell_length_a 13.483882
_cell_length_b 8.192012
_cell_length_c 26.098737
_cell_angle_alpha 90.000000
_cell_angle_beta 159.671604
_cell_angle_gamma 90.000000
_cell_volume 1001.510175
_symmetry_space_group_name_H-M "P 2/C"
_symmetry_group_IT_number 13
_symmetry_cell_setting 'monoclinic'
loop_
_space_group_symop_operation_xyz
x,y,z
-x,y,1/2-z
-x,-y,-z
x,-y,1/2+z
loop_
_atom_site_type_symbol
_atom_site_label
_atom_site_fract_x
_atom_site_fract_y
_atom_site_fract_z
Si Si1 0.223309 0.889563 0.579794
Si Si2 0.490584 0.650204 0.100971
Si Si3 0.018450 0.480321 0.815537
Si Si4 0.398885 0.569815 0.643786
Si Si5 0.674043 0.218852 0.184946
Si Si6 0.780557 0.011904 0.035488
O O1 0.500000 0.880417 0.750000
O O2 0.144014 0.700419 0.529214
O O3 0.274015 0.975994 0.550633
O O4 0.000000 0.000000 0.500000
O O5 0.828760 0.629265 0.261614
O O6 0.364122 0.594878 0.094617
O O7 0.393877 0.825636 0.036423
O O8 0.332534 0.520762 0.987130
O O9 0.852688 0.654706 0.737406
O O10 0.000000 0.412279 0.750000
O O11 0.500000 0.531533 0.750000
O O12 0.603260 0.680094 0.703944
O O13 0.891607 0.066517 0.299106
O O14 0.382835 0.144538 0.020030
#
# Coordination Sequence:
#
# PCOD9227980 Si02
#       6
#     4   4   4   4   4   4
#     4  10  19  31  50  74 105 150 189 217 261 315
#     4  10  22  36  58  86 110 144 186 227 278 329
#     4  10  21  41  60  80 109 143 181 230 282 333
#     4   9  18  35  54  78 116 151 180 222 271 322
#     4   9  20  36  56  78 108 144 181 223 272 322
#     4  10  19  35  52  78 110 138 182 231 267 321
#
# _framework density 23.963812000000001
#
# number of rings (size 3 to 8) (size 9 to 14) (size 15 to 20)
#    0.000    2.333    0.000    3.500    0.000    6.000 
#    0.000   15.833    0.000    0.000    0.000    0.000 
#    0.000    0.000    0.000    0.000    0.000    0.000 
#
# Total GULP energy -133825.208368 kJ/mol
# GULP energy per Si atom -5576.050349 kJ/mol
# Density = 2.390927 g / cm^3
# Si number density = 23.963812 Si / 1000 Ang^3
#
#
#
# Elastic Constant Matrix: (Units=GPa)
#
#
# Indices 1 2 3 4 5 6 
#
# 1 45.7777 -6.7522 -3.9552 0.0000 -8.8154 0.0000
# 2 -6.7522 47.1607 8.4157 0.0000 14.1710 0.0000
# 3 -3.9552 8.4157 77.3223 0.0000 5.7063 0.0000
# 4 0.0000 0.0000 0.0000 31.7272 0.0000 0.6310
# 5 -8.8154 14.1710 5.7063 0.0000 27.6678 0.0000
# 6 0.0000 0.0000 0.0000 0.6310 0.0000 11.0519
#
#
#
# Elastic Compliance Matrix: (Units=1/GPa)
#
#
# Indices 1 2 3 4 5 6 
#
# 1 0.023365 0.001232 0.000567 0.000000 0.006697 0.000000
# 2 0.001232 0.025377 -0.001796 0.000000 -0.012235 0.000000
# 3 0.000567 -0.001796 0.013278 0.000000 -0.001638 0.000000
# 4 0.000000 0.000000 0.000000 0.031555 0.000000 -0.001802
# 5 0.006697 -0.012235 -0.001638 0.000000 0.044881 0.000000
# 6 0.000000 0.000000 0.000000 -0.001802 0.000000 0.090585
#
#
# Mechanical properties :
#
#
# Convention : Reuss Voigt Hill
#
# Bulk Modulus (GPa) = 16.12228 18.40858 17.26543
# Shear Modulus (GPa) = 20.02311 25.59286 22.80799
#
# Velocity S-wave (km/s) = 2.89373 3.27154 3.08842
# Velocity P-wave (km/s) = 4.23170 4.68712 4.46522
#
# Compressibility (1/GPa) = 0.06202596
#
# Stress axis : x y z
#
# Youngs Moduli (GPa) = 42.79919 39.40516 75.31116
#
# Poissons Ratio (x) = -0.04854 -0.04269
# Poissons Ratio (y) = -0.05272 0.13527
# Poissons Ratio (z) = -0.02426 0.07078
#
# Static dielectric constant tensor:
#      x y z
#    x 1.972500 0.000000 0.076340 
#    y 0.000000 2.014870 0.000000 
#    z 0.076340 0.000000 1.969470 
# 
# From -- ./inp_files/96973.got.cif
#   From: 2010.05.17/outbox.cif.g08.bks.cpg/sg13_49_cif.got.tgz:96973.got - 2010.06.03 16:44:36.
