data_PCOD9227764
_publ_section_title
;
Structure prediction by ZEFSAII (Michael W. Deem and Ramdas Pophale) SiO2 
 PCOD9227764
Probable space group: P 2/C
;
_chemical_formula_sum "Si O2"
_cell_formula_units_Z 28
_cell_length_a 17.057478
_cell_length_b 8.544182
_cell_length_c 15.132689
_cell_angle_alpha 90.000000
_cell_angle_beta 41.006527
_cell_angle_gamma 90.000000
_cell_volume 1447.108987
_symmetry_space_group_name_H-M "P 2/C"
_symmetry_group_IT_number 13
_symmetry_cell_setting 'monoclinic'
loop_
_space_group_symop_operation_xyz
x,y,z
-x,y,1/2-z
-x,-y,-z
x,-y,1/2+z
loop_
_atom_site_type_symbol
_atom_site_label
_atom_site_fract_x
_atom_site_fract_y
_atom_site_fract_z
Si Si1 0.871265 0.852934 0.951603
Si Si2 0.438742 0.788436 0.893461
Si Si3 0.000000 0.902644 0.250000
Si Si4 0.000000 0.588682 0.750000
Si Si5 0.813132 0.659760 0.343485
Si Si6 0.482361 0.315142 0.997021
Si Si7 0.263474 0.160751 0.750459
Si Si8 0.305249 0.092267 0.062228
O O1 0.793328 0.871220 0.927861
O O2 0.943650 0.693788 0.875458
O O3 0.794073 0.864312 0.105367
O O4 0.968268 0.990705 0.860708
O O5 0.500000 0.756148 0.750000
O O6 0.323604 0.676515 0.007944
O O7 0.529661 0.758905 0.895533
O O8 0.393586 0.966375 0.940784
O O9 0.886028 0.796915 0.329637
O O10 0.109203 0.489424 0.697724
O O11 0.807974 0.707630 0.245113
O O12 0.602743 0.232741 0.856878
O O13 0.500000 0.500000 0.000000
O O14 0.372545 0.251196 0.033166
O O15 0.266816 0.007579 0.682915
#
# Coordination Sequence:
#
# PCOD9227764 Si02
#       8
#     4   4   2   2   4   4   4   4
#     4  11  23  37  64  93 115 162 216 254 310 361
#     4  10  21  38  66  94 118 162 208 251 312 371
#     4  10  18  40  58  90 116 162 206 256 302 352
#     4  10  24  40  62  84 132 166 206 260 310 364
#     4   9  20  41  61  84 130 163 196 260 306 369
#     4  10  23  39  58  87 129 161 198 252 315 375
#     4  10  22  41  62  90 121 162 211 253 312 373
#     4  10  22  39  62  90 129 157 204 269 297 367
#
# _framework density 19.348922000000002
#
# number of rings (size 3 to 8) (size 9 to 14) (size 15 to 20)
#    0.000    2.286    2.857    1.714    8.000    2.286 
#    0.000    1.429    0.000    0.000    0.000    0.000 
#    0.000    0.000    0.000    0.000    0.000    0.000 
#
# Total GULP energy -156030.516978 kJ/mol
# GULP energy per Si atom -5572.518464 kJ/mol
# Density = 1.930488 g / cm^3
# Si number density = 19.348922 Si / 1000 Ang^3
#
#
#
# Elastic Constant Matrix: (Units=GPa)
#
#
# Indices 1 2 3 4 5 6 
#
# 1 65.6402 14.9102 32.8266 0.0000 -1.2970 0.0000
# 2 14.9102 83.5689 30.5068 0.0000 -0.5205 0.0000
# 3 32.8266 30.5068 136.0409 0.0000 33.0089 0.0000
# 4 0.0000 0.0000 0.0000 8.5594 0.0000 -8.3120
# 5 -1.2970 -0.5205 33.0089 0.0000 16.7836 0.0000
# 6 0.0000 0.0000 0.0000 -8.3120 0.0000 25.1384
#
#
#
# Elastic Compliance Matrix: (Units=1/GPa)
#
#
# Indices 1 2 3 4 5 6 
#
# 1 0.020863 0.000244 -0.010486 0.000000 0.022243 0.000000
# 2 0.000244 0.014376 -0.006495 0.000000 0.013238 0.000000
# 3 -0.010486 -0.006495 0.022156 0.000000 -0.044587 0.000000
# 4 0.000000 0.000000 0.000000 0.172085 0.000000 0.056900
# 5 0.022243 0.013238 -0.044587 0.000000 0.149402 0.000000
# 6 0.000000 0.000000 0.000000 0.056900 0.000000 0.058594
#
#
# Mechanical properties :
#
#
# Convention : Reuss Voigt Hill
#
# Bulk Modulus (GPa) = 41.80362 49.08191 45.44276
# Shear Modulus (GPa) = 10.44011 23.89671 17.16841
#
# Velocity S-wave (km/s) = 2.32539 3.51813 2.98200
# Velocity P-wave (km/s) = 5.37233 6.47493 5.94923
#
# Compressibility (1/GPa) = 0.02392138
#
# Stress axis : x y z
#
# Youngs Moduli (GPa) = 47.93264 69.56034 45.13466
#
# Poissons Ratio (x) = -0.01698 0.47328
# Poissons Ratio (y) = -0.01170 0.29314
# Poissons Ratio (z) = 0.50262 0.45178
#
# Static dielectric constant tensor:
#      x y z
#    x 1.703340 0.000000 -0.032230 
#    y 0.000000 1.732750 0.000000 
#    z -0.032230 0.000000 1.651670 
# 
# From -- ./inp_files/55296.got.cif
#   From: 2010.05.17/outbox.cif.g08.bks.cpg/sg13_28_cif.got.tgz:55296.got - 2010.06.03 16:44:36.
