data_PCOD9227612
_publ_section_title
;
Structure prediction by ZEFSAII (Michael W. Deem and Ramdas Pophale) SiO2 
 PCOD9227612
Probable space group: P 2/C
;
_chemical_formula_sum "Si O2"
_cell_formula_units_Z 30
_cell_length_a 12.997015
_cell_length_b 12.027945
_cell_length_c 16.889098
_cell_angle_alpha 90.000000
_cell_angle_beta 155.951790
_cell_angle_gamma 90.000000
_cell_volume 1075.906770
_symmetry_space_group_name_H-M "P 2/C"
_symmetry_group_IT_number 13
_symmetry_cell_setting 'monoclinic'
loop_
_space_group_symop_operation_xyz
x,y,z
-x,y,1/2-z
-x,-y,-z
x,-y,1/2+z
loop_
_atom_site_type_symbol
_atom_site_label
_atom_site_fract_x
_atom_site_fract_y
_atom_site_fract_z
Si Si1 0.613657 0.589430 0.991182
Si Si2 0.169579 0.569642 0.193047
Si Si3 0.256690 0.107678 0.765185
Si Si4 0.621982 0.818494 0.977005
Si Si5 0.918935 0.134820 0.382180
Si Si6 0.798220 0.612689 0.452612
Si Si7 0.000000 0.610523 0.750000
Si Si8 0.252388 0.062630 0.480377
O O1 0.681629 0.621690 0.129689
O O2 0.767305 0.473949 0.091609
O O3 0.335044 0.540285 0.787159
O O4 0.705181 0.696019 0.005670
O O5 0.151725 0.645221 0.103107
O O6 0.907265 0.513286 0.033163
O O7 0.020778 0.132250 0.543040
O O8 0.248748 0.151897 0.848336
O O9 0.234345 0.974707 0.754235
O O10 0.522282 0.126881 0.906664
O O11 0.327844 0.787803 0.789419
O O12 0.666274 0.930897 0.956820
O O13 0.172640 0.117968 0.507586
O O14 0.500000 0.618331 0.250000
O O15 0.944973 0.671424 0.628660
O O16 0.000000 0.068837 0.250000
#
# Coordination Sequence:
#
# PCOD9227612 Si02
#       8
#     4   4   4   4   4   4   2   4
#     4  10  21  38  61  90 131 160 205 252 313 357
#     4   9  20  39  62  87 122 178 198 246 310 371
#     4  10  20  35  58  82 113 158 199 236 298 374
#     4  11  22  37  59  92 123 157 199 259 300 356
#     4  10  20  37  58  83 118 158 197 240 299 371
#     4  10  18  36  66  89 114 153 222 245 296 370
#     4  10  20  34  60  94 118 158 198 264 300 362
#     4  11  18  35  63  84 113 154 198 242 309 360
#
# _framework density 27.883455000000001
#
# number of rings (size 3 to 8) (size 9 to 14) (size 15 to 20)
#    0.000    1.867    4.000    1.200    0.933    0.000 
#    7.200    0.000   17.600    0.000    0.000    0.000 
#    0.000    0.000    0.000    0.000    0.000    0.000 
#
# Total GULP energy -167542.200820 kJ/mol
# GULP energy per Si atom -5584.740027 kJ/mol
# Density = 2.781999 g / cm^3
# Si number density = 27.883455 Si / 1000 Ang^3
#
#
#
# Elastic Constant Matrix: (Units=GPa)
#
#
# Indices 1 2 3 4 5 6 
#
# 1 106.1975 -5.9344 21.4043 0.0000 -20.9137 0.0000
# 2 -5.9344 121.8525 -2.1462 0.0000 2.6861 0.0000
# 3 21.4043 -2.1462 108.0420 0.0000 -8.1074 0.0000
# 4 0.0000 0.0000 0.0000 10.1975 0.0000 17.0771
# 5 -20.9137 2.6861 -8.1074 0.0000 56.4937 0.0000
# 6 0.0000 0.0000 0.0000 17.0771 0.0000 1.2193
#
#
#
# Elastic Compliance Matrix: (Units=1/GPa)
#
#
# Indices 1 2 3 4 5 6 
#
# 1 0.010514 0.000401 -0.001804 0.000000 0.003614 0.000000
# 2 0.000401 0.008232 0.000067 0.000000 -0.000234 0.000000
# 3 -0.001804 0.000067 0.009668 0.000000 0.000717 0.000000
# 4 0.000000 0.000000 0.000000 -0.004367 0.000000 0.061166
# 5 0.003614 -0.000234 0.000717 0.000000 0.019153 0.000000
# 6 0.000000 0.000000 0.000000 0.061166 0.000000 -0.036525
#
#
# Mechanical properties :
#
#
# Convention : Reuss Voigt Hill
#
# Bulk Modulus (GPa) = 38.84754 40.30438 39.57596
# Shear Modulus (GPa) = 278.87205 35.09998 156.98602
#
# Velocity S-wave (km/s) = 10.01152 3.55182 7.51152
# Velocity P-wave (km/s) = 12.14920 5.59522 9.45806
#
# Compressibility (1/GPa) = 0.02574166
#
# Stress axis : x y z
#
# Youngs Moduli (GPa) = 95.10991 121.47015 103.43292
#
# Poissons Ratio (x) = -0.04866 0.18657
# Poissons Ratio (y) = -0.03810 -0.00689
# Poissons Ratio (z) = 0.17156 -0.00810
#
# Static dielectric constant tensor:
#      x y z
#    x 1.835320 0.000000 0.017700 
#    y 0.000000 2.238770 0.000000 
#    z 0.017700 0.000000 2.222760 
# 
# From -- ./inp_files/80325.got.cif
#   From: 2010.05.17/outbox.cif.g08.bks.cpg/sg13_41_cif.got.tgz:80325.got - 2010.06.03 16:44:36.
