data_PCOD9227471
_publ_section_title
;
Structure prediction by ZEFSAII (Michael W. Deem and Ramdas Pophale) SiO2 
 PCOD9227471
Probable space group: P 2/C
;
_chemical_formula_sum "Si O2"
_cell_formula_units_Z 22
_cell_length_a 14.286019
_cell_length_b 8.513287
_cell_length_c 16.105210
_cell_angle_alpha 90.000000
_cell_angle_beta 152.685206
_cell_angle_gamma 90.000000
_cell_volume 898.820684
_symmetry_space_group_name_H-M "P 2/C"
_symmetry_group_IT_number 13
_symmetry_cell_setting 'monoclinic'
loop_
_space_group_symop_operation_xyz
x,y,z
-x,y,1/2-z
-x,-y,-z
x,-y,1/2+z
loop_
_atom_site_type_symbol
_atom_site_label
_atom_site_fract_x
_atom_site_fract_y
_atom_site_fract_z
Si Si1 0.057526 0.369257 0.171143
Si Si2 0.321073 0.276022 0.528386
Si Si3 0.659631 0.636883 0.098186
Si Si4 0.387005 0.927171 0.329215
Si Si5 0.289906 0.248019 0.202460
Si Si6 0.500000 0.438722 0.250000
O O1 0.197564 0.270741 0.345257
O O2 0.129699 0.545162 0.253113
O O3 0.133097 0.338540 0.138160
O O4 0.835864 0.305130 0.019981
O O5 0.466197 0.128675 0.630215
O O6 0.447070 0.437738 0.635399
O O7 0.700927 0.765562 0.202333
O O8 0.500000 0.500000 0.000000
O O9 0.523765 0.726152 0.921798
O O10 0.500000 0.000000 0.500000
O O11 0.248929 0.064328 0.182152
O O12 0.314087 0.329637 0.132957
#
# Coordination Sequence:
#
# PCOD9227471 Si02
#       6
#     4   4   4   4   4   2
#     4  10  19  37  63  89 117 151 218 247 284 352
#     4  11  21  36  63  92 116 161 200 254 295 359
#     4   9  14  32  58  82 105 150 198 239 275 344
#     4  10  18  35  63  89 114 163 201 246 297 361
#     4  10  20  36  58  87 121 161 193 248 300 361
#     4  12  24  38  60  88 126 162 204 240 308 368
#
# _framework density 24.476516
#
# number of rings (size 3 to 8) (size 9 to 14) (size 15 to 20)
#    0.000    1.818    7.273    1.091    0.000    1.455 
#    0.000    1.818    0.000    3.273    0.000    0.000 
#    0.000    0.000    0.000    0.000    0.000    0.000 
#
# Total GULP energy -122595.475068 kJ/mol
# GULP energy per Si atom -5572.521594 kJ/mol
# Density = 2.442081 g / cm^3
# Si number density = 24.476516 Si / 1000 Ang^3
#
#
#
# Elastic Constant Matrix: (Units=GPa)
#
#
# Indices 1 2 3 4 5 6 
#
# 1 136.3372 24.2679 13.6191 0.0000 12.4012 0.0000
# 2 24.2679 120.1234 12.0438 0.0000 8.9861 0.0000
# 3 13.6191 12.0438 61.5855 0.0000 3.2146 0.0000
# 4 0.0000 0.0000 0.0000 8.6067 0.0000 -1.0061
# 5 12.4012 8.9861 3.2146 0.0000 23.9562 0.0000
# 6 0.0000 0.0000 0.0000 -1.0061 0.0000 46.7151
#
#
#
# Elastic Compliance Matrix: (Units=1/GPa)
#
#
# Indices 1 2 3 4 5 6 
#
# 1 0.008005 -0.001220 -0.001349 0.000000 -0.003506 0.000000
# 2 -0.001220 0.008894 -0.001338 0.000000 -0.002525 0.000000
# 3 -0.001349 -0.001338 0.016853 0.000000 -0.001061 0.000000
# 4 0.000000 0.000000 0.000000 0.116482 0.000000 0.002509
# 5 -0.003506 -0.002525 -0.001061 0.000000 0.044647 0.000000
# 6 0.000000 0.000000 0.000000 0.002509 0.000000 0.021460
#
#
# Mechanical properties :
#
#
# Convention : Reuss Voigt Hill
#
# Bulk Modulus (GPa) = 38.55089 46.43418 42.49254
# Shear Modulus (GPa) = 21.47751 33.72995 27.60373
#
# Velocity S-wave (km/s) = 2.96543 3.71624 3.36186
# Velocity P-wave (km/s) = 5.24494 6.11768 5.69805
#
# Compressibility (1/GPa) = 0.02593974
#
# Stress axis : x y z
#
# Youngs Moduli (GPa) = 124.91433 112.43213 59.33697
#
# Poissons Ratio (x) = 0.13715 0.08003
# Poissons Ratio (y) = 0.15237 0.07938
# Poissons Ratio (z) = 0.16849 0.15041
#
# Static dielectric constant tensor:
#      x y z
#    x 2.047830 0.000000 -0.026840 
#    y 0.000000 1.990320 0.000000 
#    z -0.026840 0.000000 2.110920 
# 
# From -- ./inp_files/63233.got.cif
#   From: 2010.05.17/outbox.cif.g08.bks.cpg/sg13_32_cif.got.tgz:63233.got - 2010.06.03 16:44:36.
