data_PCOD9227999
_publ_section_title
;
Structure prediction by ZEFSAII (Michael W. Deem and Ramdas Pophale) SiO2 
 PCOD9227999
Probable space group: P 2/C
;
_chemical_formula_sum "Si O2"
_cell_formula_units_Z 30
_cell_length_a 14.060266
_cell_length_b 11.179232
_cell_length_c 28.738987
_cell_angle_alpha 90.000000
_cell_angle_beta 21.272145
_cell_angle_gamma 90.000000
_cell_volume 1638.861028
_symmetry_space_group_name_H-M "P 2/C"
_symmetry_group_IT_number 13
_symmetry_cell_setting 'monoclinic'
loop_
_space_group_symop_operation_xyz
x,y,z
-x,y,1/2-z
-x,-y,-z
x,-y,1/2+z
loop_
_atom_site_type_symbol
_atom_site_label
_atom_site_fract_x
_atom_site_fract_y
_atom_site_fract_z
Si Si1 0.609983 0.705164 0.441061
Si Si2 0.293180 0.872542 0.181559
Si Si3 0.806184 0.889211 0.101505
Si Si4 0.000000 0.500684 0.750000
Si Si5 0.917163 0.080409 0.934840
Si Si6 0.185945 0.805664 0.501717
Si Si7 0.973668 0.308267 0.335803
Si Si8 0.430984 0.867497 0.605912
O O1 0.762412 0.774954 0.331248
O O2 0.761728 0.581218 0.376876
O O3 0.574698 0.785313 0.502700
O O4 0.315971 0.696339 0.554165
O O5 0.051100 0.899961 0.324468
O O6 0.388452 0.993837 0.112733
O O7 0.522331 0.824858 0.111050
O O8 0.500000 0.923259 0.250000
O O9 0.929463 0.850924 0.094475
O O10 0.814446 0.797635 0.054134
O O11 0.000000 0.000000 0.000000
O O12 0.091774 0.580674 0.752585
O O13 0.937497 0.937602 0.933336
O O14 0.616299 0.121782 0.067073
O O15 0.057589 0.705271 0.593860
O O16 0.152573 0.194794 0.241309
#
# Coordination Sequence:
#
# PCOD9227999 Si02
#       8
#     4   4   4   2   4   4   4   4
#     4  11  23  39  57  84 111 152 196 247 289 351
#     4  10  19  34  54  82 121 151 191 231 289 356
#     4  10  19  32  55  83 123 165 197 242 299 364
#     4  12  24  42  60  80 112 150 214 250 294 346
#     4  10  19  31  52  83 117 156 191 236 285 363
#     4   9  19  33  52  80 116 154 195 228 295 345
#     4  11  22  38  59  78 117 155 193 246 295 349
#     4  11  21  36  55  84 122 157 190 236 300 354
#
# _framework density 18.305395999999998
#
# number of rings (size 3 to 8) (size 9 to 14) (size 15 to 20)
#    0.000    1.600    4.000    1.600    0.000    0.000 
#    4.800    0.000    0.000    0.000    0.000    3.733 
#   16.000    0.133    0.000    0.000    0.000    0.000 
#
# Total GULP energy -167027.625983 kJ/mol
# GULP energy per Si atom -5567.587533 kJ/mol
# Density = 1.826373 g / cm^3
# Si number density = 18.305396 Si / 1000 Ang^3
#
#
#
# Elastic Constant Matrix: (Units=GPa)
#
#
# Indices 1 2 3 4 5 6 
#
# 1 86.8914 37.3296 22.5189 0.0000 6.5450 0.0000
# 2 37.3296 53.8176 6.5724 0.0000 4.6165 0.0000
# 3 22.5189 6.5724 46.5360 0.0000 8.6680 0.0000
# 4 0.0000 0.0000 0.0000 25.8352 0.0000 -12.2429
# 5 6.5450 4.6165 8.6680 0.0000 29.3005 0.0000
# 6 0.0000 0.0000 0.0000 -12.2429 0.0000 -2.0054
#
#
#
# Elastic Compliance Matrix: (Units=1/GPa)
#
#
# Indices 1 2 3 4 5 6 
#
# 1 0.018538 -0.011962 -0.007261 0.000000 -0.000108 0.000000
# 2 -0.011962 0.026776 0.002429 0.000000 -0.002265 0.000000
# 3 -0.007261 0.002429 0.025853 0.000000 -0.006409 0.000000
# 4 0.000000 0.000000 0.000000 0.009943 0.000000 -0.060699
# 5 -0.000108 -0.002265 -0.006409 0.000000 0.036406 0.000000
# 6 0.000000 0.000000 0.000000 -0.060699 0.000000 -0.128088
#
#
# Mechanical properties :
#
#
# Convention : Reuss Voigt Hill
#
# Bulk Modulus (GPa) = 26.61101 35.56520 31.08811
# Shear Modulus (GPa) = 140.67617 18.68100 79.67858
#
# Velocity S-wave (km/s) = 8.77590 3.19802 6.60469
# Velocity P-wave (km/s) = 10.82854 5.75391 8.67078
#
# Compressibility (1/GPa) = 0.03757843
#
# Stress axis : x y z
#
# Youngs Moduli (GPa) = 53.94434 37.34633 38.68029
#
# Poissons Ratio (x) = 0.44675 0.28085
# Poissons Ratio (y) = 0.64530 -0.09395
# Poissons Ratio (z) = 0.39168 -0.09071
#
# Static dielectric constant tensor:
#      x y z
#    x 1.681540 0.000000 0.029080 
#    y 0.000000 1.623370 0.000000 
#    z 0.029080 0.000000 1.722690 
# 
# From -- ./inp_files/97006.got.cif
#   From: 2010.05.17/outbox.cif.g08.bks.cpg/sg13_49_cif.got.tgz:97006.got - 2010.06.03 16:44:36.
