data_PCOD9227687
_publ_section_title
;
Structure prediction by ZEFSAII (Michael W. Deem and Ramdas Pophale) SiO2 
 PCOD9227687
Probable space group: P 2/C
;
_chemical_formula_sum "Si O2"
_cell_formula_units_Z 26
_cell_length_a 8.743098
_cell_length_b 7.048426
_cell_length_c 19.526519
_cell_angle_alpha 90.000000
_cell_angle_beta 124.591364
_cell_angle_gamma 90.000000
_cell_volume 990.602136
_symmetry_space_group_name_H-M "P 2/C"
_symmetry_group_IT_number 13
_symmetry_cell_setting 'monoclinic'
loop_
_space_group_symop_operation_xyz
x,y,z
-x,y,1/2-z
-x,-y,-z
x,-y,1/2+z
loop_
_atom_site_type_symbol
_atom_site_label
_atom_site_fract_x
_atom_site_fract_y
_atom_site_fract_z
Si Si1 0.547501 0.754758 0.552636
Si Si2 0.145163 0.675373 0.226934
Si Si3 0.134286 0.225552 0.571499
Si Si4 0.500000 0.186982 0.250000
Si Si5 0.492463 0.840395 0.392871
Si Si6 0.234479 0.338788 0.067909
Si Si7 0.188426 0.744726 0.766930
O O1 0.562237 0.721725 0.476398
O O2 0.342237 0.701485 0.524783
O O3 0.700696 0.659476 0.639322
O O4 0.582118 0.973609 0.586223
O O5 0.098459 0.775929 0.143445
O O6 0.346786 0.735389 0.307603
O O7 0.138991 0.447189 0.213107
O O8 0.000000 0.717538 0.250000
O O9 0.321970 0.110919 0.602567
O O10 0.185432 0.443259 0.566113
O O11 0.947578 0.204936 0.479440
O O12 0.385840 0.297728 0.163923
O O13 0.675740 0.124704 0.245421
O O14 0.000000 0.831943 0.750000
#
# Coordination Sequence:
#
# PCOD9227687 Si02
#       7
#     4   4   4   2   4   4   4
#     4  10  24  43  59  91 127 176 215 266 320 388
#     4  11  23  41  64  95 131 165 215 268 329 393
#     4  11  23  39  66  99 125 167 212 268 330 383
#     4  10  18  38  60  94 134 154 206 270 308 388
#     4  11  24  41  63  88 133 172 217 266 323 387
#     4  10  22  40  66  93 128 164 211 269 324 384
#     4  10  22  38  68  93 127 168 217 272 327 386
#
# _framework density 26.246661
#
# number of rings (size 3 to 8) (size 9 to 14) (size 15 to 20)
#    0.000    1.538    1.538    3.231    2.154    4.923 
#   11.077    0.000    0.000    0.000    0.000    0.000 
#    0.000    0.000    0.000    0.000    0.000    0.000 
#
# Total GULP energy -145313.051978 kJ/mol
# GULP energy per Si atom -5588.963538 kJ/mol
# Density = 2.618692 g / cm^3
# Si number density = 26.246661 Si / 1000 Ang^3
#
#
#
# Elastic Constant Matrix: (Units=GPa)
#
#
# Indices 1 2 3 4 5 6 
#
# 1 185.1008 1.9110 45.2640 0.0000 0.8106 0.0000
# 2 1.9110 74.5368 -5.3738 0.0000 14.2749 0.0000
# 3 45.2640 -5.3738 112.1610 0.0000 2.5537 0.0000
# 4 0.0000 0.0000 0.0000 16.7399 0.0000 -6.5145
# 5 0.8106 14.2749 2.5537 0.0000 58.4380 0.0000
# 6 0.0000 0.0000 0.0000 -6.5145 0.0000 26.4760
#
#
#
# Elastic Compliance Matrix: (Units=1/GPa)
#
#
# Indices 1 2 3 4 5 6 
#
# 1 0.006003 -0.000351 -0.002442 0.000000 0.000109 0.000000
# 2 -0.000351 0.014159 0.000900 0.000000 -0.003493 0.000000
# 3 -0.002442 0.000900 0.009958 0.000000 -0.000621 0.000000
# 4 0.000000 0.000000 0.000000 0.066063 0.000000 0.016255
# 5 0.000109 -0.003493 -0.000621 0.000000 0.017991 0.000000
# 6 0.000000 0.000000 0.000000 0.016255 0.000000 0.041770
#
#
# Mechanical properties :
#
#
# Convention : Reuss Voigt Hill
#
# Bulk Modulus (GPa) = 37.97385 50.60010 44.28697
# Shear Modulus (GPa) = 29.67213 42.33062 36.00138
#
# Velocity S-wave (km/s) = 3.36595 4.02033 3.70760
# Velocity P-wave (km/s) = 5.44111 6.39306 5.93620
#
# Compressibility (1/GPa) = 0.02633391
#
# Stress axis : x y z
#
# Youngs Moduli (GPa) = 166.59154 70.62639 100.41777
#
# Poissons Ratio (x) = 0.02478 0.24520
# Poissons Ratio (y) = 0.05845 -0.09033
# Poissons Ratio (z) = 0.40678 -0.06353
#
# Static dielectric constant tensor:
#      x y z
#    x 2.091010 0.000000 -0.004950 
#    y 0.000000 2.130710 0.000000 
#    z -0.004950 0.000000 2.072990 
# 
# From -- ./inp_files/75980.got.cif
#   From: 2010.05.17/outbox.cif.g08.bks.cpg/sg13_38_cif.got.tgz:75980.got - 2010.06.03 16:44:36.
