data_PCOD9227135
_publ_section_title
;
Structure prediction by ZEFSAII (Michael W. Deem and Ramdas Pophale) SiO2 
 PCOD9227135
Probable space group: P 2/C
;
_chemical_formula_sum "Si O2"
_cell_formula_units_Z 28
_cell_length_a 18.307084
_cell_length_b 10.829966
_cell_length_c 20.380720
_cell_angle_alpha 90.000000
_cell_angle_beta 159.928206
_cell_angle_gamma 90.000000
_cell_volume 1386.786847
_symmetry_space_group_name_H-M "P 2/C"
_symmetry_group_IT_number 13
_symmetry_cell_setting 'monoclinic'
loop_
_space_group_symop_operation_xyz
x,y,z
-x,y,1/2-z
-x,-y,-z
x,-y,1/2+z
loop_
_atom_site_type_symbol
_atom_site_label
_atom_site_fract_x
_atom_site_fract_y
_atom_site_fract_z
Si Si1 0.375622 0.877810 0.334186
Si Si2 0.698937 0.936273 0.368714
Si Si3 0.364286 0.219920 0.200606
Si Si4 0.159996 0.078281 0.238614
Si Si5 0.009943 0.592895 0.106800
Si Si6 0.912512 0.352685 0.377252
Si Si7 0.547743 0.673917 0.988905
O O1 0.317163 0.850646 0.209773
O O2 0.617537 0.930627 0.534657
O O3 0.404795 0.769284 0.411730
O O4 0.204347 0.972923 0.221081
O O5 0.500000 0.915500 0.250000
O O6 0.944765 0.931290 0.599727
O O7 0.689335 0.076810 0.334776
O O8 0.500000 0.225105 0.250000
O O9 0.485437 0.261422 0.368250
O O10 0.168611 0.311834 0.021613
O O11 0.131263 0.212476 0.180555
O O12 0.963879 0.446236 0.065993
O O13 0.228452 0.607232 0.329818
O O14 0.023328 0.633441 0.041128
O O15 0.667257 0.402339 0.176775
#
# Coordination Sequence:
#
# PCOD9227135 Si02
#       7
#     4   4   4   4   4   4   4
#     4  10  19  33  57  82 106 141 181 222 270 322
#     4  11  22  35  53  79 112 145 176 222 279 327
#     4  10  22  36  51  78 109 138 180 223 265 322
#     4  10  19  34  54  78 108 139 178 221 262 321
#     4  10  18  33  55  77 105 138 169 219 272 305
#     4   9  19  32  53  83 105 129 177 222 257 313
#     4  10  19  34  57  82 105 136 180 225 266 315
#
# _framework density 20.190559
#
# number of rings (size 3 to 8) (size 9 to 14) (size 15 to 20)
#    0.000    2.000    0.000    6.000    0.000    1.143 
#    0.000    3.571    0.000    3.429    0.000    0.000 
#    0.000    0.000    0.000    0.000    0.000    0.000 
#
# Total GULP energy -155881.203384 kJ/mol
# GULP energy per Si atom -5567.185835 kJ/mol
# Density = 2.014460 g / cm^3
# Si number density = 20.190559 Si / 1000 Ang^3
#
#
#
# Elastic Constant Matrix: (Units=GPa)
#
#
# Indices 1 2 3 4 5 6 
#
# 1 43.4911 6.5725 18.0405 0.0000 8.6435 0.0000
# 2 6.5725 40.5881 2.5697 0.0000 -2.2538 0.0000
# 3 18.0405 2.5697 122.0256 0.0000 6.2394 0.0000
# 4 0.0000 0.0000 0.0000 26.7621 0.0000 3.2504
# 5 8.6435 -2.2538 6.2394 0.0000 23.4249 0.0000
# 6 0.0000 0.0000 0.0000 3.2504 0.0000 10.5678
#
#
#
# Elastic Compliance Matrix: (Units=1/GPa)
#
#
# Indices 1 2 3 4 5 6 
#
# 1 0.027004 -0.004685 -0.003408 0.000000 -0.009507 0.000000
# 2 -0.004685 0.025634 -0.000063 0.000000 0.004212 0.000000
# 3 -0.003408 -0.000063 0.008755 0.000000 -0.001081 0.000000
# 4 0.000000 0.000000 0.000000 0.038816 0.000000 -0.011939
# 5 -0.009507 0.004212 -0.001081 0.000000 0.046891 0.000000
# 6 0.000000 0.000000 0.000000 -0.011939 0.000000 0.098299
#
#
# Mechanical properties :
#
#
# Convention : Reuss Voigt Hill
#
# Bulk Modulus (GPa) = 22.18102 28.94114 25.56108
# Shear Modulus (GPa) = 18.06759 24.07909 21.07334
#
# Velocity S-wave (km/s) = 2.99466 3.45714 3.23417
# Velocity P-wave (km/s) = 4.79239 5.50462 5.16081
#
# Compressibility (1/GPa) = 0.04508358
#
# Stress axis : x y z
#
# Youngs Moduli (GPa) = 37.03117 39.01029 114.21571
#
# Poissons Ratio (x) = 0.18277 0.38920
# Poissons Ratio (y) = 0.17349 0.00714
# Poissons Ratio (z) = 0.12619 0.00244
#
# Static dielectric constant tensor:
#      x y z
#    x 1.708280 0.000000 0.021020 
#    y 0.000000 1.917430 0.000000 
#    z 0.021020 0.000000 1.783700 
# 
# From -- ./inp_files/81096.got.cif
#   From: 2010.05.17/outbox.cif.g08.bks.cpg/sg13_41_cif.got.tgz:81096.got - 2010.06.03 16:44:36.
