data_PCOD9227567
_publ_section_title
;
Structure prediction by ZEFSAII (Michael W. Deem and Ramdas Pophale) SiO2 
 PCOD9227567
Probable space group: P 2/C
;
_chemical_formula_sum "Si O2"
_cell_formula_units_Z 28
_cell_length_a 14.772464
_cell_length_b 10.327005
_cell_length_c 20.582211
_cell_angle_alpha 90.000000
_cell_angle_beta 151.349800
_cell_angle_gamma 90.000000
_cell_volume 1505.471614
_symmetry_space_group_name_H-M "P 2/C"
_symmetry_group_IT_number 13
_symmetry_cell_setting 'monoclinic'
loop_
_space_group_symop_operation_xyz
x,y,z
-x,y,1/2-z
-x,-y,-z
x,-y,1/2+z
loop_
_atom_site_type_symbol
_atom_site_label
_atom_site_fract_x
_atom_site_fract_y
_atom_site_fract_z
Si Si1 0.178154 0.501723 0.564607
Si Si2 0.500000 0.135733 0.750000
Si Si3 0.090374 0.979456 0.986045
Si Si4 0.019562 0.718317 0.868809
Si Si5 0.386324 0.665208 0.288979
Si Si6 0.000000 0.609054 0.250000
Si Si7 0.263203 0.631088 0.907779
Si Si8 0.010658 0.736910 0.394820
O O1 0.351168 0.457147 0.718811
O O2 0.170074 0.641930 0.526226
O O3 0.000000 0.500000 0.500000
O O4 0.123840 0.389621 0.478732
O O5 0.524678 0.226583 0.702196
O O6 0.688345 0.051936 0.871340
O O7 0.058408 0.113022 0.928713
O O8 0.000000 0.000000 0.000000
O O9 0.004360 0.852286 0.897238
O O10 0.817093 0.669906 0.713594
O O11 0.154402 0.724275 0.890616
O O12 0.521013 0.636617 0.434859
O O13 0.183272 0.711641 0.187446
O O14 0.822615 0.511072 0.133845
O O15 0.016388 0.691086 0.195589
#
# Coordination Sequence:
#
# PCOD9227567 Si02
#       8
#     4   2   4   4   4   2   4   4
#     4  10  18  36  61  90 121 161 211 263 319 370
#     4  12  22  42  66  98 124 168 230 262 306 400
#     4  12  23  42  66  94 129 169 213 274 324 381
#     4  10  19  38  63  87 123 170 212 252 314 385
#     4  11  21  38  71  95 120 169 228 261 307 393
#     4  10  22  42  58  90 142 166 208 266 334 372
#     4  10  20  38  67  92 120 169 225 256 296 396
#     4  11  23  41  62  94 135 167 204 273 340 369
#
# _framework density 18.598822999999999
#
# number of rings (size 3 to 8) (size 9 to 14) (size 15 to 20)
#    0.000    1.429    7.143    0.857    0.000    1.714 
#    2.571    2.143    0.000    0.000    0.000    0.000 
#    0.000    0.000    0.000    0.000    0.000    0.000 
#
# Total GULP energy -156162.856036 kJ/mol
# GULP energy per Si atom -5577.244858 kJ/mol
# Density = 1.855649 g / cm^3
# Si number density = 18.598823 Si / 1000 Ang^3
#
#
#
# Elastic Constant Matrix: (Units=GPa)
#
#
# Indices 1 2 3 4 5 6 
#
# 1 76.1003 33.2397 12.9172 0.0000 -5.8897 0.0000
# 2 33.2397 116.4179 38.9612 0.0000 -6.1375 0.0000
# 3 12.9172 38.9612 129.1472 0.0000 -1.8294 0.0000
# 4 0.0000 0.0000 0.0000 21.2295 0.0000 -12.0868
# 5 -5.8897 -6.1375 -1.8294 0.0000 26.8186 0.0000
# 6 0.0000 0.0000 0.0000 -12.0868 0.0000 25.9611
#
#
#
# Elastic Compliance Matrix: (Units=1/GPa)
#
#
# Indices 1 2 3 4 5 6 
#
# 1 0.015166 -0.004125 -0.000239 0.000000 0.002370 0.000000
# 2 -0.004125 0.010784 -0.002821 0.000000 0.001369 0.000000
# 3 -0.000239 -0.002821 0.008617 0.000000 -0.000110 0.000000
# 4 0.000000 0.000000 0.000000 0.064093 0.000000 0.029840
# 5 0.002370 0.001369 -0.000110 0.000000 0.038114 0.000000
# 6 0.000000 0.000000 0.000000 0.029840 0.000000 0.052412
#
#
# Mechanical properties :
#
#
# Convention : Reuss Voigt Hill
#
# Bulk Modulus (GPa) = 49.51486 54.65572 52.08529
# Shear Modulus (GPa) = 23.77674 30.57166 27.17420
#
# Velocity S-wave (km/s) = 3.57935 4.05871 3.82654
# Velocity P-wave (km/s) = 6.61534 7.17040 6.89845
#
# Compressibility (1/GPa) = 0.02019596
#
# Stress axis : x y z
#
# Youngs Moduli (GPa) = 65.93489 92.72955 116.05560
#
# Poissons Ratio (x) = 0.38255 0.02771
# Poissons Ratio (y) = 0.27201 0.32743
# Poissons Ratio (z) = 0.01574 0.26162
#
# Static dielectric constant tensor:
#      x y z
#    x 1.665310 0.000000 0.000020 
#    y 0.000000 1.644490 0.000000 
#    z 0.000020 0.000000 1.686820 
# 
# From -- ./inp_files/80049.got.cif
#   From: 2010.05.17/outbox.cif.g08.bks.cpg/sg13_41_cif.got.tgz:80049.got - 2010.06.03 16:44:36.
