data_PCOD9227711
_publ_section_title
;
Structure prediction by ZEFSAII (Michael W. Deem and Ramdas Pophale) SiO2 
 PCOD9227711
Probable space group: P 2/C
;
_chemical_formula_sum "Si O2"
_cell_formula_units_Z 30
_cell_length_a 13.444414
_cell_length_b 13.744388
_cell_length_c 13.539024
_cell_angle_alpha 90.000000
_cell_angle_beta 147.462582
_cell_angle_gamma 90.000000
_cell_volume 1345.600207
_symmetry_space_group_name_H-M "P 2/C"
_symmetry_group_IT_number 13
_symmetry_cell_setting 'monoclinic'
loop_
_space_group_symop_operation_xyz
x,y,z
-x,y,1/2-z
-x,-y,-z
x,-y,1/2+z
loop_
_atom_site_type_symbol
_atom_site_label
_atom_site_fract_x
_atom_site_fract_y
_atom_site_fract_z
Si Si1 0.715230 0.503938 0.938067
Si Si2 0.164941 0.703423 0.457197
Si Si3 0.750247 0.628348 0.654746
Si Si4 0.853960 0.328128 0.928466
Si Si5 0.795011 0.815747 0.552247
Si Si6 0.404176 0.701134 0.466856
Si Si7 0.617346 0.850335 0.749987
Si Si8 0.500000 0.967637 0.250000
O O1 0.500000 0.528679 0.750000
O O2 0.741429 0.416163 0.883212
O O3 0.849374 0.592403 0.019421
O O4 0.761521 0.459697 0.085577
O O5 0.325200 0.684070 0.509239
O O6 0.207054 0.782115 0.577884
O O7 0.000000 0.739198 0.250000
O O8 0.744187 0.726196 0.581894
O O9 0.565479 0.629102 0.565465
O O10 0.934772 0.641139 0.873691
O O11 0.768978 0.307045 0.750912
O O12 0.810393 0.233093 0.957580
O O13 0.000000 0.851602 0.750000
O O14 0.645614 0.899950 0.427447
O O15 0.508326 0.805980 0.566143
O O16 0.500000 0.827496 0.750000
O O17 0.613715 0.965942 0.764717
#
# Coordination Sequence:
#
# PCOD9227711 Si02
#       8
#     4   4   4   4   4   4   4   2
#     4  11  20  40  61  87 126 159 195 240 299 352
#     4  11  24  42  61  82 119 164 203 247 295 353
#     4  10  21  37  62  92 126 153 192 247 293 358
#     4  10  21  38  62  94 122 157 194 243 299 352
#     4   9  19  36  62  93 122 153 193 237 300 359
#     4  11  21  40  60  88 118 158 202 246 298 343
#     4   8  21  40  55  81 111 157 197 244 290 346
#     4  10  18  38  64  82 114 160 200 238 296 362
#
# _framework density 22.294882999999999
#
# number of rings (size 3 to 8) (size 9 to 14) (size 15 to 20)
#    0.400    1.600    1.333    4.000    3.733    1.067 
#    2.400    4.000    0.000    3.200    0.000    0.000 
#    0.000    0.000    0.000    0.000    0.000    0.000 
#
# Total GULP energy -167270.203067 kJ/mol
# GULP energy per Si atom -5575.673436 kJ/mol
# Density = 2.224414 g / cm^3
# Si number density = 22.294883 Si / 1000 Ang^3
#
#
#
# Elastic Constant Matrix: (Units=GPa)
#
#
# Indices 1 2 3 4 5 6 
#
# 1 58.5947 0.0501 12.1129 0.0000 -5.8279 0.0000
# 2 0.0501 102.4622 64.2448 0.0000 -0.4711 0.0000
# 3 12.1129 64.2448 141.2086 0.0000 -7.8583 0.0000
# 4 0.0000 0.0000 0.0000 34.7250 0.0000 -0.7171
# 5 -5.8279 -0.4711 -7.8583 0.0000 24.7115 0.0000
# 6 0.0000 0.0000 0.0000 -0.7171 0.0000 14.6350
#
#
#
# Elastic Compliance Matrix: (Units=1/GPa)
#
#
# Indices 1 2 3 4 5 6 
#
# 1 0.017811 0.001174 -0.001860 0.000000 0.003631 0.000000
# 2 0.001174 0.013807 -0.006467 0.000000 -0.001516 0.000000
# 3 -0.001860 -0.006467 0.010335 0.000000 0.002725 0.000000
# 4 0.000000 0.000000 0.000000 0.028827 0.000000 0.001412
# 5 0.003631 -0.001516 0.002725 0.000000 0.042161 0.000000
# 6 0.000000 0.000000 0.000000 0.001412 0.000000 0.068398
#
#
# Mechanical properties :
#
#
# Convention : Reuss Voigt Hill
#
# Bulk Modulus (GPa) = 36.16900 50.56456 43.36678
# Shear Modulus (GPa) = 24.40689 29.87149 27.13919
#
# Velocity S-wave (km/s) = 3.31226 3.66435 3.49274
# Velocity P-wave (km/s) = 5.55755 6.37435 5.97991
#
# Compressibility (1/GPa) = 0.02764799
#
# Stress axis : x y z
#
# Youngs Moduli (GPa) = 56.14481 72.42785 96.75848
#
# Poissons Ratio (x) = -0.08505 0.17997
# Poissons Ratio (y) = -0.06593 0.62571
# Poissons Ratio (z) = 0.10443 0.46837
#
# Static dielectric constant tensor:
#      x y z
#    x 1.926470 0.000000 0.059930 
#    y 0.000000 1.939010 0.000000 
#    z 0.059930 0.000000 1.884960 
# 
# From -- ./inp_files/53874.got.cif
#   From: 2010.05.17/outbox.cif.g08.bks.cpg/sg13_27_cif.got.tgz:53874.got - 2010.06.03 16:44:36.
