data_PCOD9227826
_publ_section_title
;
Structure prediction by ZEFSAII (Michael W. Deem and Ramdas Pophale) SiO2 
 PCOD9227826
Probable space group: P 2/C
;
_chemical_formula_sum "Si O2"
_cell_formula_units_Z 22
_cell_length_a 9.336204
_cell_length_b 14.301767
_cell_length_c 8.441198
_cell_angle_alpha 90.000000
_cell_angle_beta 64.348009
_cell_angle_gamma 90.000000
_cell_volume 1016.017012
_symmetry_space_group_name_H-M "P 2/C"
_symmetry_group_IT_number 13
_symmetry_cell_setting 'monoclinic'
loop_
_space_group_symop_operation_xyz
x,y,z
-x,y,1/2-z
-x,-y,-z
x,-y,1/2+z
loop_
_atom_site_type_symbol
_atom_site_label
_atom_site_fract_x
_atom_site_fract_y
_atom_site_fract_z
Si Si1 0.211989 0.422183 0.422021
Si Si2 0.680473 0.984891 0.478109
Si Si3 0.308084 0.863815 0.312115
Si Si4 0.500000 0.154467 0.250000
Si Si5 0.000000 0.551323 0.750000
Si Si6 0.500000 0.560227 0.250000
Si Si7 0.595777 0.707433 0.443720
O O1 0.109926 0.392552 0.319058
O O2 0.349722 0.493357 0.302863
O O3 0.289687 0.338954 0.482782
O O4 0.105542 0.482948 0.591867
O O5 0.757606 0.925603 0.302021
O O6 0.648332 0.913925 0.641049
O O7 0.500000 0.000000 0.500000
O O8 0.753663 0.081899 0.503438
O O9 0.500000 0.872889 0.250000
O O10 0.304612 0.759172 0.243902
O O11 0.506655 0.218765 0.404309
O O12 0.494812 0.627324 0.405773
#
# Coordination Sequence:
#
# PCOD9227826 Si02
#       7
#     4   4   4   2   2   2   4
#     4  11  23  43  58  85 107 160 192 247 290 360
#     4   9  14  25  41  62 105 160 177 203 279 347
#     4   9  16  26  43  68 108 154 178 218 270 356
#     4  10  19  27  46  76 116 156 178 235 275 352
#     4  10  24  42  66  72 110 158 204 232 300 352
#     4  12  23  37  60  82 122 148 190 245 301 340
#     4  11  22  31  51  83 113 145 192 238 289 334
#
# _framework density 21.653179999999999
#
# number of rings (size 3 to 8) (size 9 to 14) (size 15 to 20)
#    0.000    1.818    5.455    1.091    2.545    0.000 
#    0.000    0.000    0.000    0.000    0.000    0.000 
#    0.000   17.455    0.000    0.000    0.000    0.000 
#
# Total GULP energy -122509.476158 kJ/mol
# GULP energy per Si atom -5568.612553 kJ/mol
# Density = 2.160390 g / cm^3
# Si number density = 21.653180 Si / 1000 Ang^3
#
#
#
# Elastic Constant Matrix: (Units=GPa)
#
#
# Indices 1 2 3 4 5 6 
#
# 1 60.6770 31.4219 34.6624 0.0000 35.9982 0.0000
# 2 31.4219 93.6008 24.9853 0.0000 25.5182 0.0000
# 3 34.6624 24.9853 65.4804 0.0000 27.3986 0.0000
# 4 0.0000 0.0000 0.0000 57.0327 0.0000 29.8571
# 5 35.9982 25.5182 27.3986 0.0000 38.0864 0.0000
# 6 0.0000 0.0000 0.0000 29.8571 0.0000 12.3068
#
#
#
# Elastic Compliance Matrix: (Units=1/GPa)
#
#
# Indices 1 2 3 4 5 6 
#
# 1 0.040830 -0.003261 -0.007348 0.000000 -0.031121 0.000000
# 2 -0.003261 0.013498 -0.001330 0.000000 -0.005005 0.000000
# 3 -0.007348 -0.001330 0.023448 0.000000 -0.009032 0.000000
# 4 0.000000 0.000000 0.000000 -0.064924 0.000000 0.157509
# 5 -0.031121 -0.005005 -0.009032 0.000000 0.065521 0.000000
# 6 0.000000 0.000000 0.000000 0.157509 0.000000 -0.300873
#
#
# Mechanical properties :
#
#
# Convention : Reuss Voigt Hill
#
# Bulk Modulus (GPa) = 18.55334 44.65526 31.60430
# Shear Modulus (GPa) = -27.67694 30.06442 1.19374
#
# Velocity S-wave (km/s) = -3.57906 3.73024 0.74330
# Velocity P-wave (km/s) = 2.91420 6.26264 3.91970
#
# Compressibility (1/GPa) = 0.05389865
#
# Stress axis : x y z
#
# Youngs Moduli (GPa) = 24.49178 74.08603 42.64743
#
# Poissons Ratio (x) = 0.24159 0.31336
# Poissons Ratio (y) = 0.07987 0.05672
# Poissons Ratio (z) = 0.17996 0.09854
#
# Static dielectric constant tensor:
#      x y z
#    x 1.839230 0.000000 -0.018120 
#    y 0.000000 1.852120 0.000000 
#    z -0.018120 0.000000 1.905570 
# 
# From -- ./inp_files/12286.got.cif
#   From: 2010.05.17/outbox.cif.g08.bks.cpg/sg13_7_cif.got.tgz:12286.got - 2010.06.03 16:44:36.
