data_PCOD9227547
_publ_section_title
;
Structure prediction by ZEFSAII (Michael W. Deem and Ramdas Pophale) SiO2 
 PCOD9227547
Probable space group: P 2/C
;
_chemical_formula_sum "Si O2"
_cell_formula_units_Z 22
_cell_length_a 29.756451
_cell_length_b 6.924165
_cell_length_c 16.155391
_cell_angle_alpha 90.000000
_cell_angle_beta 161.777088
_cell_angle_gamma 90.000000
_cell_volume 1040.912968
_symmetry_space_group_name_H-M "P 2/C"
_symmetry_group_IT_number 13
_symmetry_cell_setting 'monoclinic'
loop_
_space_group_symop_operation_xyz
x,y,z
-x,y,1/2-z
-x,-y,-z
x,-y,1/2+z
loop_
_atom_site_type_symbol
_atom_site_label
_atom_site_fract_x
_atom_site_fract_y
_atom_site_fract_z
Si Si1 0.717010 0.168980 0.567917
Si Si2 0.687533 0.810347 0.199159
Si Si3 0.979650 0.652510 0.892406
Si Si4 0.000000 0.655839 0.750000
Si Si5 0.519427 0.465230 0.691591
Si Si6 0.334277 0.851103 0.156871
O O1 0.661917 0.105003 0.562848
O O2 0.647153 0.377610 0.426532
O O3 0.670001 0.027776 0.413520
O O4 0.888829 0.196134 0.871135
O O5 0.858126 0.785253 0.502803
O O6 0.638201 0.903429 0.198915
O O7 0.616414 0.596867 0.071123
O O8 0.997418 0.550083 0.833487
O O9 0.824611 0.752579 0.625066
O O10 0.000000 0.500000 0.000000
O O11 0.500000 0.380387 0.750000
O O12 0.557680 0.308588 0.690297
#
# Coordination Sequence:
#
# PCOD9227547 Si02
#       6
#     4   4   4   2   4   4
#     4  10  21  38  57  87 121 149 193 245 287 338
#     4   9  20  38  59  85 121 153 192 245 291 345
#     4  10  18  36  60  84 115 152 194 236 289 346
#     4   8  18  34  60  84 112 154 186 240 296 334
#     4  10  21  37  58  85 118 155 192 239 292 347
#     4  11  21  37  62  86 112 159 198 232 294 351
#
# _framework density 21.135292
#
# number of rings (size 3 to 8) (size 9 to 14) (size 15 to 20)
#    0.000    2.182    1.818    1.091    0.000    2.909 
#    0.000    5.455    0.000    0.000    0.000    0.000 
#    0.000    0.000    0.000    0.000    0.000    0.000 
#
# Total GULP energy -122771.245756 kJ/mol
# GULP energy per Si atom -5580.511171 kJ/mol
# Density = 2.108719 g / cm^3
# Si number density = 21.135292 Si / 1000 Ang^3
#
#
#
# Elastic Constant Matrix: (Units=GPa)
#
#
# Indices 1 2 3 4 5 6 
#
# 1 223.2302 57.8949 21.0513 0.0000 -29.6581 0.0000
# 2 57.8949 40.0267 8.0746 0.0000 -4.4946 0.0000
# 3 21.0513 8.0746 96.3088 0.0000 6.3986 0.0000
# 4 0.0000 0.0000 0.0000 11.7627 0.0000 -9.6197
# 5 -29.6581 -4.4946 6.3986 0.0000 39.0602 0.0000
# 6 0.0000 0.0000 0.0000 -9.6197 0.0000 22.1032
#
#
#
# Elastic Compliance Matrix: (Units=1/GPa)
#
#
# Indices 1 2 3 4 5 6 
#
# 1 0.008094 -0.010895 -0.001194 0.000000 0.005087 0.000000
# 2 -0.010895 0.040508 -0.000784 0.000000 -0.003483 0.000000
# 3 -0.001194 -0.000784 0.010895 0.000000 -0.002781 0.000000
# 4 0.000000 0.000000 0.000000 0.131994 0.000000 0.057446
# 5 0.005087 -0.003483 -0.002781 0.000000 0.029519 0.000000
# 6 0.000000 0.000000 0.000000 0.057446 0.000000 0.070244
#
#
# Mechanical properties :
#
#
# Convention : Reuss Voigt Hill
#
# Bulk Modulus (GPa) = 29.62703 59.28969 44.45836
# Shear Modulus (GPa) = 15.23233 32.75489 23.99361
#
# Velocity S-wave (km/s) = 2.68751 3.94099 3.37299
# Velocity P-wave (km/s) = 4.86606 6.98726 6.02081
#
# Compressibility (1/GPa) = 0.03375296
#
# Stress axis : x y z
#
# Youngs Moduli (GPa) = 123.55286 24.68622 91.78805
#
# Poissons Ratio (x) = 0.26895 0.10957
# Poissons Ratio (y) = 1.34607 0.07192
# Poissons Ratio (z) = 0.14749 0.01934
#
# Static dielectric constant tensor:
#      x y z
#    x 1.810940 0.000000 -0.002200 
#    y 0.000000 1.707610 0.000000 
#    z -0.002200 0.000000 1.809280 
# 
# From -- ./inp_files/49243.got.cif
#   From: 2010.05.17/outbox.cif.g08.bks.cpg/sg13_25_cif.got.tgz:49243.got - 2010.06.03 16:44:36.
