data_PCOD9227240
_publ_section_title
;
Structure prediction by ZEFSAII (Michael W. Deem and Ramdas Pophale) SiO2 
 PCOD9227240
Probable space group: P 2/C
;
_chemical_formula_sum "Si O2"
_cell_formula_units_Z 32
_cell_length_a 21.424200
_cell_length_b 13.319946
_cell_length_c 11.370843
_cell_angle_alpha 90.000000
_cell_angle_beta 145.574848
_cell_angle_gamma 90.000000
_cell_volume 1834.429939
_symmetry_space_group_name_H-M "P 2/C"
_symmetry_group_IT_number 13
_symmetry_cell_setting 'monoclinic'
loop_
_space_group_symop_operation_xyz
x,y,z
-x,y,1/2-z
-x,-y,-z
x,-y,1/2+z
loop_
_atom_site_type_symbol
_atom_site_label
_atom_site_fract_x
_atom_site_fract_y
_atom_site_fract_z
Si Si1 0.257384 0.015514 0.600469
Si Si2 0.802550 0.759725 0.519854
Si Si3 0.374727 0.964756 0.027553
Si Si4 0.812691 0.365467 0.390251
Si Si5 0.115856 0.582850 0.999002
Si Si6 0.887875 0.182181 0.650357
Si Si7 0.000926 0.303347 0.000404
Si Si8 0.372354 0.729286 0.054126
O O1 0.179774 0.918077 0.476865
O O2 0.198667 0.123865 0.515855
O O3 0.312936 0.014099 0.555902
O O4 0.330325 0.008254 0.834228
O O5 0.818399 0.681019 0.440459
O O6 0.690360 0.735834 0.417858
O O7 0.908367 0.736867 0.766823
O O8 0.500000 0.995176 0.250000
O O9 0.369984 0.844005 0.004176
O O10 0.816873 0.482734 0.423796
O O11 0.822583 0.281796 0.506463
O O12 0.924413 0.346930 0.488242
O O13 0.706204 0.338455 0.148036
O O14 0.076106 0.608919 0.068522
O O15 0.000000 0.574084 0.750000
O O16 0.000000 0.172755 0.750000
O O17 0.928297 0.209980 0.843383
O O18 0.500000 0.697247 0.250000
#
# Coordination Sequence:
#
# PCOD9227240 Si02
#       8
#     4   4   4   4   4   4   4   4
#     4  11  22  37  59  86 118 148 188 234 285 342
#     4   9  21  35  52  80 112 144 187 224 278 341
#     4  10  21  39  62  85 110 148 193 239 284 334
#     4  10  18  34  54  80 105 139 191 234 272 335
#     4  10  19  33  54  79 109 145 182 229 277 329
#     4  10  21  33  52  80 115 145 184 225 282 335
#     4   9  19  33  52  79 110 148 184 225 277 334
#     4   9  18  36  58  76 103 143 187 231 283 337
#
# _framework density 17.444110999999999
#
# number of rings (size 3 to 8) (size 9 to 14) (size 15 to 20)
#    0.000    2.250    1.250    1.875    3.500    4.000 
#    0.000    0.625    0.000    0.750    0.000    0.000 
#    0.000    0.000    0.000    0.000    0.000    0.000 
#
# Total GULP energy -178141.743529 kJ/mol
# GULP energy per Si atom -5566.929485 kJ/mol
# Density = 1.740441 g / cm^3
# Si number density = 17.444111 Si / 1000 Ang^3
#
#
#
# Elastic Constant Matrix: (Units=GPa)
#
#
# Indices 1 2 3 4 5 6 
#
# 1 47.2541 33.2668 33.4050 0.0000 -0.9202 0.0000
# 2 33.2668 114.4343 32.9895 0.0000 8.2717 0.0000
# 3 33.4050 32.9895 55.1065 0.0000 5.9609 0.0000
# 4 0.0000 0.0000 0.0000 12.9288 0.0000 -1.5477
# 5 -0.9202 8.2717 5.9609 0.0000 20.1265 0.0000
# 6 0.0000 0.0000 0.0000 -1.5477 0.0000 14.8895
#
#
#
# Elastic Compliance Matrix: (Units=1/GPa)
#
#
# Indices 1 2 3 4 5 6 
#
# 1 0.042116 -0.006466 -0.022888 0.000000 0.011362 0.000000
# 2 -0.006466 0.011682 -0.002606 0.000000 -0.004325 0.000000
# 3 -0.022888 -0.002606 0.034690 0.000000 -0.010250 0.000000
# 4 0.000000 0.000000 0.000000 0.078321 0.000000 0.008141
# 5 0.011362 -0.004325 -0.010250 0.000000 0.055019 0.000000
# 6 0.000000 0.000000 0.000000 0.008141 0.000000 0.068008
#
#
# Mechanical properties :
#
#
# Convention : Reuss Voigt Hill
#
# Bulk Modulus (GPa) = 40.70452 46.23528 43.46990
# Shear Modulus (GPa) = 13.81421 17.39786 15.60604
#
# Velocity S-wave (km/s) = 2.81715 3.16151 2.99428
# Velocity P-wave (km/s) = 5.82809 6.31579 6.07684
#
# Compressibility (1/GPa) = 0.02456730
#
# Stress axis : x y z
#
# Youngs Moduli (GPa) = 23.74395 85.59929 28.82672
#
# Poissons Ratio (x) = 0.55352 0.65979
# Poissons Ratio (y) = 0.15354 0.07512
# Poissons Ratio (z) = 0.54346 0.22306
#
# Static dielectric constant tensor:
#      x y z
#    x 1.636660 0.000000 -0.031090 
#    y 0.000000 1.594190 0.000000 
#    z -0.031090 0.000000 1.601870 
# 
# From -- ./inp_files/41860.got.cif
#   From: 2010.05.17/outbox.cif.g08.bks.cpg/sg13_21_cif.got.tgz:41860.got - 2010.06.03 16:44:36.
