data_PCOD9227223
_publ_section_title
;
Structure prediction by ZEFSAII (Michael W. Deem and Ramdas Pophale) SiO2 
 PCOD9227223
Probable space group: P 2/C
;
_chemical_formula_sum "Si O2"
_cell_formula_units_Z 30
_cell_length_a 13.604392
_cell_length_b 14.262201
_cell_length_c 24.753627
_cell_angle_alpha 90.000000
_cell_angle_beta 159.806768
_cell_angle_gamma 90.000000
_cell_volume 1657.904039
_symmetry_space_group_name_H-M "P 2/C"
_symmetry_group_IT_number 13
_symmetry_cell_setting 'monoclinic'
loop_
_space_group_symop_operation_xyz
x,y,z
-x,y,1/2-z
-x,-y,-z
x,-y,1/2+z
loop_
_atom_site_type_symbol
_atom_site_label
_atom_site_fract_x
_atom_site_fract_y
_atom_site_fract_z
Si Si1 0.090180 0.712983 0.684023
Si Si2 0.681251 0.436363 0.771770
Si Si3 0.590482 0.590480 0.476952
Si Si4 0.364793 0.931502 0.384551
Si Si5 0.967162 0.905233 0.668380
Si Si6 0.944526 0.385334 0.008557
Si Si7 0.371363 0.379786 0.985770
Si Si8 0.000000 0.228798 0.750000
O O1 0.828188 0.664479 0.581234
O O2 0.115768 0.819532 0.715458
O O3 0.020966 0.701950 0.585225
O O4 0.367399 0.654226 0.843199
O O5 0.657318 0.413952 0.696203
O O6 0.877681 0.370318 0.911045
O O7 0.353922 0.427192 0.622394
O O8 0.814275 0.537246 0.854867
O O9 0.719169 0.484776 0.544971
O O10 0.479314 0.613131 0.479235
O O11 0.629788 0.906883 0.483439
O O12 0.234280 0.839636 0.344759
O O13 0.500000 0.000000 0.500000
O O14 0.112828 0.995324 0.230929
O O15 0.000000 0.887994 0.750000
O O16 0.137777 0.298625 0.864611
#
# Coordination Sequence:
#
# PCOD9227223 Si02
#       8
#     4   4   4   4   4   4   4   2
#     4  11  20  34  50  71 105 142 178 219 262 314
#     4   9  17  33  50  69  96 137 182 220 251 294
#     4  10  21  34  46  68 108 147 184 203 258 304
#     4  10  18  34  52  72  96 140 176 222 265 322
#     4  10  19  32  53  71 101 138 177 214 266 320
#     4   9  18  31  52  72  95 132 183 221 258 296
#     4  11  23  30  47  73 105 149 174 218 249 320
#     4  12  22  32  50  74 106 138 192 212 266 312
#
# _framework density 18.095136
#
# number of rings (size 3 to 8) (size 9 to 14) (size 15 to 20)
#    0.000    1.867    3.333    3.600    3.733    0.000 
#    0.000    0.000    0.000    0.000    0.000    0.000 
#    0.000   26.667    0.000    1.067    0.000    0.267 
#
# Total GULP energy -167302.283107 kJ/mol
# GULP energy per Si atom -5576.742770 kJ/mol
# Density = 1.805395 g / cm^3
# Si number density = 18.095136 Si / 1000 Ang^3
#
#
#
# Elastic Constant Matrix: (Units=GPa)
#
#
# Indices 1 2 3 4 5 6 
#
# 1 26.4150 8.5698 13.3139 0.0000 -18.6668 0.0000
# 2 8.5698 78.7715 14.2075 0.0000 -1.9715 0.0000
# 3 13.3139 14.2075 75.8373 0.0000 -9.0014 0.0000
# 4 0.0000 0.0000 0.0000 28.0770 0.0000 4.6473
# 5 -18.6668 -1.9715 -9.0014 0.0000 28.6327 0.0000
# 6 0.0000 0.0000 0.0000 4.6473 0.0000 6.2023
#
#
#
# Elastic Compliance Matrix: (Units=1/GPa)
#
#
# Indices 1 2 3 4 5 6 
#
# 1 0.076752 -0.005949 -0.006720 0.000000 0.047515 0.000000
# 2 -0.005949 0.013600 -0.001925 0.000000 -0.003547 0.000000
# 3 -0.006720 -0.001925 0.014741 0.000000 0.000120 0.000000
# 4 0.000000 0.000000 0.000000 0.040659 0.000000 -0.030466
# 5 0.047515 -0.003547 0.000120 0.000000 0.065696 0.000000
# 6 0.000000 0.000000 0.000000 -0.030466 0.000000 0.184059
#
#
# Mechanical properties :
#
#
# Convention : Reuss Voigt Hill
#
# Bulk Modulus (GPa) = 13.17415 28.13401 20.65408
# Shear Modulus (GPa) = 11.11119 22.24457 16.67788
#
# Velocity S-wave (km/s) = 2.48068 3.50996 3.03921
# Velocity P-wave (km/s) = 3.93717 5.65756 4.87387
#
# Compressibility (1/GPa) = 0.07590622
#
# Stress axis : x y z
#
# Youngs Moduli (GPa) = 13.02893 73.52678 67.83908
#
# Poissons Ratio (x) = 0.43740 0.45589
# Poissons Ratio (y) = 0.07751 0.13056
# Poissons Ratio (z) = 0.08756 0.14151
#
# Static dielectric constant tensor:
#      x y z
#    x 1.662440 0.000000 0.012490 
#    y 0.000000 1.617940 0.000000 
#    z 0.012490 0.000000 1.688180 
# 
# From -- ./inp_files/92953.got.cif
#   From: 2010.05.17/outbox.cif.g08.bks.cpg/sg13_47_cif.got.tgz:92953.got - 2010.06.03 16:44:36.
