data_PCOD9227024
_publ_section_title
;
Structure prediction by ZEFSAII (Michael W. Deem and Ramdas Pophale) SiO2 
 PCOD9227024
Probable space group: P 2/C
;
_chemical_formula_sum "Si O2"
_cell_formula_units_Z 22
_cell_length_a 22.023688
_cell_length_b 7.765131
_cell_length_c 5.484420
_cell_angle_alpha 90.000000
_cell_angle_beta 73.496071
_cell_angle_gamma 90.000000
_cell_volume 899.285685
_symmetry_space_group_name_H-M "P 2/C"
_symmetry_group_IT_number 13
_symmetry_cell_setting 'monoclinic'
loop_
_space_group_symop_operation_xyz
x,y,z
-x,y,1/2-z
-x,-y,-z
x,-y,1/2+z
loop_
_atom_site_type_symbol
_atom_site_label
_atom_site_fract_x
_atom_site_fract_y
_atom_site_fract_z
Si Si1 0.868355 0.964557 0.393903
Si Si2 0.263807 0.902562 0.460293
Si Si3 0.000000 0.392959 0.750000
Si Si4 0.425787 0.305724 0.387168
Si Si5 0.375687 0.302813 0.943219
Si Si6 0.143216 0.394400 0.587860
O O1 0.825234 0.791222 0.446184
O O2 0.904300 0.002533 0.602165
O O3 0.812420 0.109312 0.454218
O O4 0.302410 0.727720 0.462420
O O5 0.281273 0.018801 0.676673
O O6 0.070365 0.316623 0.669881
O O7 0.000000 0.500000 0.500000
O O8 0.500000 0.322890 0.250000
O O9 0.413375 0.227170 0.667583
O O10 0.395442 0.497441 0.441596
O O11 0.394172 0.224227 0.183684
O O12 0.152055 0.500433 0.328252
#
# Coordination Sequence:
#
# PCOD9227024 Si02
#       6
#     4   4   2   4   4   4
#     4  10  21  38  60  80 117 163 193 244 305 344
#     4  10  21  37  58  71 107 153 187 218 281 338
#     4   8  16  30  52  86 118 154 188 248 302 342
#     4  10  19  33  58  84 111 135 175 230 282 331
#     4  10  18  32  56  80 104 144 177 218 275 334
#     4  10  19  35  61  87 119 154 206 247 292 350
#
# _framework density 24.463858999999999
#
# number of rings (size 3 to 8) (size 9 to 14) (size 15 to 20)
#    0.000    2.182    0.000    4.909    0.000    0.000 
#    0.000    0.909   96.000   18.545    0.000    0.000 
#    0.000    0.000    0.000    0.000    0.000    0.000 
#
# Total GULP energy -122577.541285 kJ/mol
# GULP energy per Si atom -5571.706422 kJ/mol
# Density = 2.440818 g / cm^3
# Si number density = 24.463859 Si / 1000 Ang^3
#
#
#
# Elastic Constant Matrix: (Units=GPa)
#
#
# Indices 1 2 3 4 5 6 
#
# 1 31.3032 -15.4743 3.5657 0.0000 11.1844 0.0000
# 2 -15.4743 54.2248 38.6092 0.0000 22.4512 0.0000
# 3 3.5657 38.6092 215.6868 0.0000 72.5198 0.0000
# 4 0.0000 0.0000 0.0000 25.5895 0.0000 11.1573
# 5 11.1844 22.4512 72.5198 0.0000 47.2398 0.0000
# 6 0.0000 0.0000 0.0000 11.1573 0.0000 -4.5806
#
#
#
# Elastic Compliance Matrix: (Units=1/GPa)
#
#
# Indices 1 2 3 4 5 6 
#
# 1 0.057367 0.026773 0.006415 0.000000 -0.036155 0.000000
# 2 0.026773 0.035541 0.002079 0.000000 -0.026422 0.000000
# 3 0.006415 0.002079 0.010336 0.000000 -0.018374 0.000000
# 4 0.000000 0.000000 0.000000 0.018952 0.000000 0.046162
# 5 -0.036155 -0.026422 -0.018374 0.000000 0.070493 0.000000
# 6 0.000000 0.000000 0.000000 0.046162 0.000000 -0.105873
#
#
# Mechanical properties :
#
#
# Convention : Reuss Voigt Hill
#
# Bulk Modulus (GPa) = 5.75444 39.40176 22.57810
# Shear Modulus (GPa) = 67.37812 31.95070 49.66441
#
# Velocity S-wave (km/s) = 5.25373 3.61783 4.51057
# Velocity P-wave (km/s) = 6.25776 5.79592 6.03126
#
# Compressibility (1/GPa) = 0.17377881
#
# Stress axis : x y z
#
# Youngs Moduli (GPa) = 17.43153 28.13628 96.74819
#
# Poissons Ratio (x) = -0.75329 -0.62067
# Poissons Ratio (y) = -0.46669 -0.20114
# Poissons Ratio (z) = -0.11183 -0.05849
#
# Static dielectric constant tensor:
#      x y z
#    x 2.289320 0.000000 -0.080970 
#    y 0.000000 2.141110 0.000000 
#    z -0.080970 0.000000 2.104030 
# 
# From -- ./inp_files/6720.got.cif
#   From: 2010.05.17/outbox.cif.g08.bks.cpg/sg13_4_cif.got.tgz:6720.got - 2010.06.03 16:44:36.
