data_PCOD9227290
_publ_section_title
;
Structure prediction by ZEFSAII (Michael W. Deem and Ramdas Pophale) SiO2 
 PCOD9227290
Probable space group: P 2/C
;
_chemical_formula_sum "Si O2"
_cell_formula_units_Z 28
_cell_length_a 19.818839
_cell_length_b 8.514526
_cell_length_c 22.168308
_cell_angle_alpha 90.000000
_cell_angle_beta 25.873983
_cell_angle_gamma 90.000000
_cell_volume 1632.485291
_symmetry_space_group_name_H-M "P 2/C"
_symmetry_group_IT_number 13
_symmetry_cell_setting 'monoclinic'
loop_
_space_group_symop_operation_xyz
x,y,z
-x,y,1/2-z
-x,-y,-z
x,-y,1/2+z
loop_
_atom_site_type_symbol
_atom_site_label
_atom_site_fract_x
_atom_site_fract_y
_atom_site_fract_z
Si Si1 0.130758 0.685839 0.028910
Si Si2 0.720602 0.200940 0.330054
Si Si3 0.579818 0.358803 0.897161
Si Si4 0.088468 0.423213 0.237365
Si Si5 0.652413 0.629563 0.758751
Si Si6 0.179255 0.853141 0.228556
Si Si7 0.700801 0.701681 0.482469
O O1 0.240838 0.726237 0.996773
O O2 0.030383 0.535861 0.131539
O O3 0.002274 0.819069 0.120746
O O4 0.229667 0.650425 0.890460
O O5 0.553271 0.227607 0.496280
O O6 0.839571 0.297936 0.275583
O O7 0.708307 0.276382 0.273316
O O8 0.769087 0.020922 0.288965
O O9 0.630999 0.447467 0.795709
O O10 0.725956 0.283158 0.812762
O O11 0.500000 0.500000 0.000000
O O12 0.222142 0.539176 0.104007
O O13 0.000000 0.356342 0.250000
O O14 0.482570 0.690976 0.877118
O O15 0.230536 0.832379 0.117716
#
# Coordination Sequence:
#
# PCOD9227290 Si02
#       7
#     4   4   4   4   4   4   4
#     4  10  22  35  55  85 111 147 184 231 283 323
#     4  11  21  34  59  84 111 145 186 229 275 333
#     4  10  18  34  58  81 101 138 187 231 262 320
#     4   9  19  36  57  80 109 141 190 232 268 326
#     4  11  20  35  59  83 110 144 187 235 277 324
#     4  11  21  35  57  84 112 144 186 228 278 332
#     4  10  18  37  58  80 107 146 192 227 264 334
#
# _framework density 17.151762000000002
#
# number of rings (size 3 to 8) (size 9 to 14) (size 15 to 20)
#    0.000    1.714    4.286    4.714    0.000    4.000 
#    0.000    0.000    0.000    0.000    0.000    0.000 
#    0.000    0.000    0.000    0.000    0.000    0.000 
#
# Total GULP energy -156186.966980 kJ/mol
# GULP energy per Si atom -5578.105964 kJ/mol
# Density = 1.711272 g / cm^3
# Si number density = 17.151762 Si / 1000 Ang^3
#
#
#
# Elastic Constant Matrix: (Units=GPa)
#
#
# Indices 1 2 3 4 5 6 
#
# 1 127.8612 36.7983 76.1852 0.0000 -11.6382 0.0000
# 2 36.7983 46.6086 39.8338 0.0000 -1.5936 0.0000
# 3 76.1852 39.8338 114.4069 0.0000 9.4991 0.0000
# 4 0.0000 0.0000 0.0000 18.1333 0.0000 -9.2030
# 5 -11.6382 -1.5936 9.4991 0.0000 31.0880 0.0000
# 6 0.0000 0.0000 0.0000 -9.2030 0.0000 14.2502
#
#
#
# Elastic Compliance Matrix: (Units=1/GPa)
#
#
# Indices 1 2 3 4 5 6 
#
# 1 0.015437 -0.003560 -0.009752 0.000000 0.008576 0.000000
# 2 -0.003560 0.032123 -0.009070 0.000000 0.003085 0.000000
# 3 -0.009752 -0.009070 0.019222 0.000000 -0.009989 0.000000
# 4 0.000000 0.000000 0.000000 0.082036 0.000000 0.052980
# 5 0.008576 0.003085 -0.009989 0.000000 0.038588 0.000000
# 6 0.000000 0.000000 0.000000 0.052980 0.000000 0.104390
#
#
# Mechanical properties :
#
#
# Convention : Reuss Voigt Hill
#
# Bulk Modulus (GPa) = 45.41778 66.05682 55.73730
# Shear Modulus (GPa) = 14.53914 21.76494 18.15204
#
# Velocity S-wave (km/s) = 2.91465 3.56611 3.25671
# Velocity P-wave (km/s) = 6.15340 7.45339 6.83437
#
# Compressibility (1/GPa) = 0.02201781
#
# Stress axis : x y z
#
# Youngs Moduli (GPa) = 64.77930 31.13037 52.02244
#
# Poissons Ratio (x) = 0.11081 0.50735
# Poissons Ratio (y) = 0.23059 0.47185
# Poissons Ratio (z) = 0.63176 0.28236
#
# Static dielectric constant tensor:
#      x y z
#    x 1.600200 0.000000 -0.015600 
#    y 0.000000 1.579230 0.000000 
#    z -0.015600 0.000000 1.576220 
# 
# From -- ./inp_files/80833.got.cif
#   From: 2010.05.17/outbox.cif.g08.bks.cpg/sg13_41_cif.got.tgz:80833.got - 2010.06.03 16:44:36.
