data_PCOD9227899
_publ_section_title
;
Structure prediction by ZEFSAII (Michael W. Deem and Ramdas Pophale) SiO2 
 PCOD9227899
Probable space group: P 2/C
;
_chemical_formula_sum "Si O2"
_cell_formula_units_Z 32
_cell_length_a 19.390097
_cell_length_b 5.186583
_cell_length_c 15.885684
_cell_angle_alpha 90.000000
_cell_angle_beta 61.067574
_cell_angle_gamma 90.000000
_cell_volume 1398.202310
_symmetry_space_group_name_H-M "P 2/C"
_symmetry_group_IT_number 13
_symmetry_cell_setting 'monoclinic'
loop_
_space_group_symop_operation_xyz
x,y,z
-x,y,1/2-z
-x,-y,-z
x,-y,1/2+z
loop_
_atom_site_type_symbol
_atom_site_label
_atom_site_fract_x
_atom_site_fract_y
_atom_site_fract_z
Si Si1 0.910761 0.010565 0.331959
Si Si2 0.274710 0.589595 0.460998
Si Si3 0.182669 0.085947 0.461073
Si Si4 0.386309 0.520488 0.752806
Si Si5 0.492339 0.706793 0.928812
Si Si6 0.183465 0.514653 0.168895
Si Si7 0.628520 0.882413 0.392337
Si Si8 0.247605 0.822781 0.760999
O O1 0.896613 0.959783 0.439842
O O2 0.859730 0.783685 0.318688
O O3 0.000000 0.994366 0.250000
O O4 0.874762 0.288012 0.329263
O O5 0.214004 0.377807 0.456871
O O6 0.356549 0.575045 0.361114
O O7 0.262864 0.515788 0.565475
O O8 0.242431 0.877142 0.465607
O O9 0.186860 0.040579 0.358906
O O10 0.475894 0.595947 0.677576
O O11 0.369015 0.324632 0.685067
O O12 0.325236 0.753226 0.769836
O O13 0.557406 0.924657 0.908989
O O14 0.500000 0.500000 0.000000
O O15 0.403659 0.802301 0.996282
O O16 0.207879 0.431387 0.247442
O O17 0.713224 0.015582 0.337564
#
# Coordination Sequence:
#
# PCOD9227899 Si02
#       8
#     4   4   4   4   4   4   4   4
#     4  10  21  40  57  74 104 144 177 211 258 328
#     4   9  17  32  48  75 102 136 173 214 253 309
#     4   9  18  32  53  74 103 135 173 208 258 313
#     4   9  16  27  48  71 103 134 175 211 259 301
#     4   8  15  25  40  72  98 134 173 214 242 311
#     4  10  22  34  56  81 107 133 176 220 269 319
#     4   9  15  26  45  69 104 131 169 212 263 297
#     4  10  19  30  49  80 107 133 165 230 272 304
#
# _framework density 22.886533
#
# number of rings (size 3 to 8) (size 9 to 14) (size 15 to 20)
#    0.000    2.750    1.250    0.375    1.750    0.000 
#    0.000    1.250    0.000    0.000    0.000   40.250 
#    0.000    0.000    0.000    0.000    0.000    0.000 
#
# Total GULP energy -178298.957593 kJ/mol
# GULP energy per Si atom -5571.842425 kJ/mol
# Density = 2.283444 g / cm^3
# Si number density = 22.886533 Si / 1000 Ang^3
#
#
#
# Elastic Constant Matrix: (Units=GPa)
#
#
# Indices 1 2 3 4 5 6 
#
# 1 43.0162 15.8238 47.8362 0.0000 -14.7708 0.0000
# 2 15.8238 77.3768 19.9795 0.0000 -16.1345 0.0000
# 3 47.8362 19.9795 209.7156 0.0000 -39.5063 0.0000
# 4 0.0000 0.0000 0.0000 33.2460 0.0000 -6.2579
# 5 -14.7708 -16.1345 -39.5063 0.0000 26.0053 0.0000
# 6 0.0000 0.0000 0.0000 -6.2579 0.0000 17.8681
#
#
#
# Elastic Compliance Matrix: (Units=1/GPa)
#
#
# Indices 1 2 3 4 5 6 
#
# 1 0.033902 -0.003746 -0.005865 0.000000 0.008022 0.000000
# 2 -0.003746 0.015288 0.001098 0.000000 0.009026 0.000000
# 3 -0.005865 0.001098 0.007708 0.000000 0.009060 0.000000
# 4 0.000000 0.000000 0.000000 0.032202 0.000000 0.011278
# 5 0.008022 0.009026 0.009060 0.000000 0.062375 0.000000
# 6 0.000000 0.000000 0.000000 0.011278 0.000000 0.059916
#
#
# Mechanical properties :
#
#
# Convention : Reuss Voigt Hill
#
# Bulk Modulus (GPa) = 25.07941 55.26527 40.17234
# Shear Modulus (GPa) = 20.68625 31.85515 26.27070
#
# Velocity S-wave (km/s) = 3.00969 3.73483 3.39169
# Velocity P-wave (km/s) = 4.80204 6.54206 5.73838
#
# Compressibility (1/GPa) = 0.03987335
#
# Stress axis : x y z
#
# Youngs Moduli (GPa) = 29.49703 65.40928 129.72978
#
# Poissons Ratio (x) = 0.24502 0.76086
# Poissons Ratio (y) = 0.11049 -0.14248
# Poissons Ratio (z) = 0.17300 -0.07184
#
# Static dielectric constant tensor:
#      x y z
#    x 1.804860 0.000000 0.016620 
#    y 0.000000 1.949300 0.000000 
#    z 0.016620 0.000000 1.966970 
# 
# From -- ./inp_files/70284.got.cif
#   From: 2010.05.17/outbox.cif.g08.bks.cpg/sg13_36_cif.got.tgz:70284.got - 2010.06.03 16:44:36.
