data_PCOD9227066
_publ_section_title
;
Structure prediction by ZEFSAII (Michael W. Deem and Ramdas Pophale) SiO2 
 PCOD9227066
Probable space group: P 2/C
;
_chemical_formula_sum "Si O2"
_cell_formula_units_Z 18
_cell_length_a 23.509169
_cell_length_b 7.954594
_cell_length_c 15.108275
_cell_angle_alpha 90.000000
_cell_angle_beta 18.705362
_cell_angle_gamma 90.000000
_cell_volume 906.090025
_symmetry_space_group_name_H-M "P 2/C"
_symmetry_group_IT_number 13
_symmetry_cell_setting 'monoclinic'
loop_
_space_group_symop_operation_xyz
x,y,z
-x,y,1/2-z
-x,-y,-z
x,-y,1/2+z
loop_
_atom_site_type_symbol
_atom_site_label
_atom_site_fract_x
_atom_site_fract_y
_atom_site_fract_z
Si Si1 0.222260 0.933799 0.476298
Si Si2 0.000000 0.373746 0.250000
Si Si3 0.314776 0.149242 0.489342
Si Si4 0.000506 0.613777 0.085247
Si Si5 0.836754 0.046729 0.120553
O O1 0.168642 0.744398 0.527657
O O2 0.348336 0.997798 0.369137
O O3 0.269482 0.025876 0.314595
O O4 0.032949 0.993431 0.797259
O O5 0.036698 0.493490 0.113831
O O6 0.500000 0.219878 0.250000
O O7 0.189524 0.290950 0.631282
O O8 0.218183 0.072024 0.718030
O O9 0.000000 0.500000 0.000000
O O10 0.143747 0.763904 0.874136
#
# Coordination Sequence:
#
# PCOD9227066 Si02
#       5
#     4   2   4   4   4
#     4   9  18  36  59  78 102 144 193 221 251 319
#     4  10  18  32  58  84 102 130 184 238 264 294
#     4  11  22  36  55  81 114 146 177 220 275 330
#     4  11  19  33  57  82 108 138 183 230 268 316
#     4   9  18  35  56  77 102 145 193 222 252 314
#
# _framework density 19.865575
#
# number of rings (size 3 to 8) (size 9 to 14) (size 15 to 20)
#    0.000    2.222    0.000    9.333    0.000    0.889 
#    0.000    4.444    0.000   12.000    0.000    0.000 
#    0.000    0.000    0.000    0.000    0.000    0.000 
#
# Total GULP energy -100272.650179 kJ/mol
# GULP energy per Si atom -5570.702788 kJ/mol
# Density = 1.982036 g / cm^3
# Si number density = 19.865575 Si / 1000 Ang^3
#
#
#
# Elastic Constant Matrix: (Units=GPa)
#
#
# Indices 1 2 3 4 5 6 
#
# 1 87.7779 20.6172 12.4552 0.0000 22.9954 0.0000
# 2 20.6172 100.6175 14.7526 0.0000 9.6732 0.0000
# 3 12.4552 14.7526 23.6871 0.0000 5.2074 0.0000
# 4 0.0000 0.0000 0.0000 13.4477 0.0000 12.1061
# 5 22.9954 9.6732 5.2074 0.0000 35.0411 0.0000
# 6 0.0000 0.0000 0.0000 12.1061 0.0000 38.6837
#
#
#
# Elastic Compliance Matrix: (Units=1/GPa)
#
#
# Indices 1 2 3 4 5 6 
#
# 1 0.014658 -0.001465 -0.004930 0.000000 -0.008482 0.000000
# 2 -0.001465 0.011232 -0.005949 0.000000 -0.001255 0.000000
# 3 -0.004930 -0.005949 0.049045 0.000000 -0.002411 0.000000
# 4 0.000000 0.000000 0.000000 0.103530 0.000000 -0.032400
# 5 -0.008482 -0.001255 -0.002411 0.000000 0.034809 0.000000
# 6 0.000000 0.000000 0.000000 -0.032400 0.000000 0.035990
#
#
# Mechanical properties :
#
#
# Convention : Reuss Voigt Hill
#
# Bulk Modulus (GPa) = 19.90220 34.19249 27.04734
# Shear Modulus (GPa) = 17.19980 28.38499 22.79239
#
# Velocity S-wave (km/s) = 2.94566 3.78412 3.39090
# Velocity P-wave (km/s) = 4.64859 6.02843 5.38291
#
# Compressibility (1/GPa) = 0.05024570
#
# Stress axis : x y z
#
# Youngs Moduli (GPa) = 68.22116 89.03331 20.38958
#
# Poissons Ratio (x) = 0.13045 0.10053
# Poissons Ratio (y) = 0.09996 0.12130
# Poissons Ratio (z) = 0.33635 0.52965
#
# Static dielectric constant tensor:
#      x y z
#    x 1.770380 0.000000 -0.051740 
#    y 0.000000 1.729460 0.000000 
#    z -0.051740 0.000000 1.721140 
# 
# From -- ./inp_files/58418.got.cif
#   From: 2010.05.17/outbox.cif.g08.bks.cpg/sg13_30_cif.got.tgz:58418.got - 2010.06.03 16:44:36.
