data_PCOD9227456
_publ_section_title
;
Structure prediction by ZEFSAII (Michael W. Deem and Ramdas Pophale) SiO2 
 PCOD9227456
Probable space group: P 2/C
;
_chemical_formula_sum "Si O2"
_cell_formula_units_Z 24
_cell_length_a 8.596575
_cell_length_b 15.190256
_cell_length_c 15.207593
_cell_angle_alpha 90.000000
_cell_angle_beta 147.612551
_cell_angle_gamma 90.000000
_cell_volume 1063.715562
_symmetry_space_group_name_H-M "P 2/C"
_symmetry_group_IT_number 13
_symmetry_cell_setting 'monoclinic'
loop_
_space_group_symop_operation_xyz
x,y,z
-x,y,1/2-z
-x,-y,-z
x,-y,1/2+z
loop_
_atom_site_type_symbol
_atom_site_label
_atom_site_fract_x
_atom_site_fract_y
_atom_site_fract_z
Si Si1 0.798157 0.278408 0.443508
Si Si2 0.255807 0.535340 0.560334
Si Si3 0.313743 0.651062 0.072402
Si Si4 0.940235 0.958439 0.876504
Si Si5 0.277480 0.810169 0.945197
Si Si6 0.325270 0.893423 0.509928
O O1 0.500000 0.263872 0.250000
O O2 0.795175 0.367650 0.501992
O O3 0.825536 0.189253 0.512100
O O4 0.018091 0.307368 0.470961
O O5 0.500000 0.550281 0.750000
O O6 0.311422 0.447395 0.530846
O O7 0.000000 0.500000 0.500000
O O8 0.500000 0.644787 0.250000
O O9 0.413981 0.722962 0.051286
O O10 0.605469 0.933784 0.697373
O O11 0.137871 0.872800 0.952802
O O12 0.000000 0.000000 0.000000
O O13 0.084367 0.032135 0.883371
O O14 0.517892 0.860011 0.003067
O O15 0.000000 0.788475 0.750000
#
# Coordination Sequence:
#
# PCOD9227456 Si02
#       6
#     4   4   4   4   4   4
#     4  10  18  35  61  88 119 159 197 232 284 354
#     4   8  16  30  55  87 118 150 192 239 279 327
#     4  10  20  37  61  91 119 152 199 244 279 330
#     4  11  22  38  59  83 110 148 196 240 283 343
#     4  10  22  39  58  85 121 158 189 233 298 356
#     4  11  23  39  58  84 116 151 190 240 297 346
#
# _framework density 22.562422000000002
#
# number of rings (size 3 to 8) (size 9 to 14) (size 15 to 20)
#    0.000    2.000    0.000    5.000    0.000    2.667 
#    0.000    3.333    0.000    0.000    0.000    0.000 
#    0.000    0.000    0.000    0.333    0.000    0.000 
#
# Total GULP energy -133829.839886 kJ/mol
# GULP energy per Si atom -5576.243329 kJ/mol
# Density = 2.251107 g / cm^3
# Si number density = 22.562422 Si / 1000 Ang^3
#
#
#
# Elastic Constant Matrix: (Units=GPa)
#
#
# Indices 1 2 3 4 5 6 
#
# 1 49.9253 20.0302 11.7302 0.0000 -4.3315 0.0000
# 2 20.0302 206.9569 22.0733 0.0000 -13.4341 0.0000
# 3 11.7302 22.0733 23.0184 0.0000 -0.0503 0.0000
# 4 0.0000 0.0000 0.0000 -5.6914 0.0000 17.7315
# 5 -4.3315 -13.4341 -0.0503 0.0000 30.8049 0.0000
# 6 0.0000 0.0000 0.0000 17.7315 0.0000 28.5429
#
#
#
# Elastic Compliance Matrix: (Units=1/GPa)
#
#
# Indices 1 2 3 4 5 6 
#
# 1 0.023212 -0.000891 -0.010968 0.000000 0.002857 0.000000
# 2 -0.000891 0.005591 -0.004902 0.000000 0.002305 0.000000
# 3 -0.010968 -0.004902 0.053726 0.000000 -0.003592 0.000000
# 4 0.000000 0.000000 0.000000 -0.059857 0.000000 0.037184
# 5 0.002857 0.002305 -0.003592 0.000000 0.033863 0.000000
# 6 0.000000 0.000000 0.000000 0.037184 0.000000 0.011935
#
#
# Mechanical properties :
#
#
# Convention : Reuss Voigt Hill
#
# Bulk Modulus (GPa) = 20.40559 43.06311 31.73435
# Shear Modulus (GPa) = 42.25528 25.80241 34.02884
#
# Velocity S-wave (km/s) = 4.33230 3.38539 3.88778
# Velocity P-wave (km/s) = 5.83856 5.86590 5.85225
#
# Compressibility (1/GPa) = 0.04900618
#
# Stress axis : x y z
#
# Youngs Moduli (GPa) = 43.08037 178.87148 18.61307
#
# Poissons Ratio (x) = 0.15943 0.20415
# Poissons Ratio (y) = 0.03840 0.09124
# Poissons Ratio (z) = 0.47251 0.87680
#
# Static dielectric constant tensor:
#      x y z
#    x 1.905820 0.000000 0.019100 
#    y 0.000000 1.978530 0.000000 
#    z 0.019100 0.000000 1.826820 
# 
# From -- ./inp_files/47771.got.cif
#   From: 2010.05.17/outbox.cif.g08.bks.cpg/sg13_24_cif.got.tgz:47771.got - 2010.06.03 16:44:36.
