data_PCOD9227951
_publ_section_title
;
Structure prediction by ZEFSAII (Michael W. Deem and Ramdas Pophale) SiO2 
 PCOD9227951
Probable space group: P 2/C
;
_chemical_formula_sum "Si O2"
_cell_formula_units_Z 32
_cell_length_a 5.489581
_cell_length_b 15.395284
_cell_length_c 19.490883
_cell_angle_alpha 90.000000
_cell_angle_beta 53.447052
_cell_angle_gamma 90.000000
_cell_volume 1323.243829
_symmetry_space_group_name_H-M "P 2/C"
_symmetry_group_IT_number 13
_symmetry_cell_setting 'monoclinic'
loop_
_space_group_symop_operation_xyz
x,y,z
-x,y,1/2-z
-x,-y,-z
x,-y,1/2+z
loop_
_atom_site_type_symbol
_atom_site_label
_atom_site_fract_x
_atom_site_fract_y
_atom_site_fract_z
Si Si1 0.784042 0.356370 0.233636
Si Si2 0.274742 0.015538 0.400278
Si Si3 0.818043 0.771077 0.466964
Si Si4 0.833342 0.292335 0.459039
Si Si5 0.648772 0.168975 0.298831
Si Si6 0.591553 0.467709 0.574124
Si Si7 0.241111 0.045191 0.592035
Si Si8 0.942469 0.582163 0.409925
O O1 0.500000 0.403681 0.250000
O O2 0.657763 0.273695 0.299099
O O3 0.000000 0.402984 0.250000
O O4 0.960354 0.317166 0.139460
O O5 0.563501 0.953538 0.369892
O O6 0.079149 0.005894 0.362801
O O7 0.435485 0.109177 0.381376
O O8 0.000000 0.000000 0.500000
O O9 0.455308 0.756612 0.524153
O O10 0.855090 0.860653 0.420321
O O11 0.944681 0.685613 0.405910
O O12 0.990981 0.761145 0.511122
O O13 0.718296 0.381553 0.513304
O O14 0.500000 0.151596 0.250000
O O15 0.000000 0.143468 0.250000
O O16 0.730611 0.550708 0.511115
O O17 0.236249 0.460211 0.622436
O O18 0.736530 0.456958 0.623723
O O19 0.500000 0.000000 0.500000
#
# Coordination Sequence:
#
# PCOD9227951 Si02
#       8
#     4   4   4   4   4   4   4   4
#     4  10  21  32  45  66  93 127 166 207 243 296
#     4  10  21  36  52  71  97 131 171 219 269 315
#     4  10  19  31  48  71  99 133 167 205 257 311
#     4  10  19  31  48  70  98 131 166 204 251 308
#     4  10  21  36  53  72  95 128 173 215 258 314
#     4   8  14  25  42  65  93 125 156 185 228 287
#     4  10  21  32  46  68  97 132 171 213 260 311
#     4   8  14  25  42  65  94 125 156 190 229 286
#
# _framework density 24.182995999999999
#
# number of rings (size 3 to 8) (size 9 to 14) (size 15 to 20)
#    0.000    2.500    0.000    2.250    0.000   12.000 
#    0.000    0.000    0.000    0.000    0.000    0.000 
#    0.000    6.000    0.000    0.000    0.000    0.000 
#
# Total GULP energy -178512.817127 kJ/mol
# GULP energy per Si atom -5578.525535 kJ/mol
# Density = 2.412795 g / cm^3
# Si number density = 24.182996 Si / 1000 Ang^3
#
#
#
# Elastic Constant Matrix: (Units=GPa)
#
#
# Indices 1 2 3 4 5 6 
#
# 1 296.1982 37.5705 28.8397 0.0000 -10.9827 0.0000
# 2 37.5705 138.5125 33.5722 0.0000 -1.7645 0.0000
# 3 28.8397 33.5722 33.1409 0.0000 -0.4930 0.0000
# 4 0.0000 0.0000 0.0000 27.5955 0.0000 10.8934
# 5 -10.9827 -1.7645 -0.4930 0.0000 16.4450 0.0000
# 6 0.0000 0.0000 0.0000 10.8934 0.0000 0.7658
#
#
#
# Elastic Compliance Matrix: (Units=1/GPa)
#
#
# Indices 1 2 3 4 5 6 
#
# 1 0.003791 -0.000274 -0.002986 0.000000 0.002413 0.000000
# 2 -0.000274 0.009598 -0.009476 0.000000 0.000563 0.000000
# 3 -0.002986 -0.009476 0.042346 0.000000 -0.001741 0.000000
# 4 0.000000 0.000000 0.000000 -0.007852 0.000000 0.111689
# 5 0.002413 0.000563 -0.001741 0.000000 0.062429 0.000000
# 6 0.000000 0.000000 0.000000 0.111689 0.000000 -0.282934
#
#
# Mechanical properties :
#
#
# Convention : Reuss Voigt Hill
#
# Bulk Modulus (GPa) = 33.04313 74.20182 53.62248
# Shear Modulus (GPa) = -36.47917 33.48587 -1.49665
#
# Velocity S-wave (km/s) = -3.88811 3.72517 -0.78755
# Velocity P-wave (km/s) = 2.54226 7.01802 4.62545
#
# Compressibility (1/GPa) = 0.03026348
#
# Stress axis : x y z
#
# Youngs Moduli (GPa) = 263.78057 104.19093 23.61520
#
# Poissons Ratio (x) = 0.02854 0.07051
# Poissons Ratio (y) = 0.07225 0.22378
# Poissons Ratio (z) = 0.78755 0.98730
#
# Static dielectric constant tensor:
#      x y z
#    x 2.402260 0.000000 0.886020 
#    y 0.000000 2.076840 0.000000 
#    z 0.886020 0.000000 4.163990 
# 
# From -- ./inp_files/74011.got.cif
#   From: 2010.05.17/outbox.cif.g08.bks.cpg/sg13_38_cif.got.tgz:74011.got - 2010.06.03 16:44:36.
