data_PCOD9227521
_publ_section_title
;
Structure prediction by ZEFSAII (Michael W. Deem and Ramdas Pophale) SiO2 
 PCOD9227521
Probable space group: P 2/C
;
_chemical_formula_sum "Si O2"
_cell_formula_units_Z 30
_cell_length_a 11.080696
_cell_length_b 8.945263
_cell_length_c 15.774884
_cell_angle_alpha 90.000000
_cell_angle_beta 99.378514
_cell_angle_gamma 90.000000
_cell_volume 1542.702258
_symmetry_space_group_name_H-M "P 2/C"
_symmetry_group_IT_number 13
_symmetry_cell_setting 'monoclinic'
loop_
_space_group_symop_operation_xyz
x,y,z
-x,y,1/2-z
-x,-y,-z
x,-y,1/2+z
loop_
_atom_site_type_symbol
_atom_site_label
_atom_site_fract_x
_atom_site_fract_y
_atom_site_fract_z
Si Si1 0.129243 0.634786 0.309474
Si Si2 0.000000 0.076865 0.250000
Si Si3 0.033461 0.331012 0.973852
Si Si4 0.358593 0.640026 0.210239
Si Si5 0.638801 0.291158 0.272933
Si Si6 0.156593 0.097626 0.112219
Si Si7 0.189784 0.700412 0.857014
Si Si8 0.219245 0.793609 0.051648
O O1 0.127843 0.688894 0.407081
O O2 0.251896 0.670648 0.269156
O O3 0.127767 0.456179 0.325281
O O4 0.000000 0.676717 0.250000
O O5 0.080606 0.016835 0.180010
O O6 0.099931 0.174204 0.311366
O O7 0.904946 0.273703 0.924489
O O8 0.075982 0.224282 0.055661
O O9 0.000000 0.500000 0.000000
O O10 0.500000 0.669448 0.250000
O O11 0.351243 0.461274 0.191404
O O12 0.325750 0.735966 0.124039
O O13 0.500000 0.241683 0.250000
O O14 0.728144 0.183426 0.334717
O O15 0.687817 0.296657 0.183157
O O16 0.201625 0.971126 0.052949
O O17 0.220677 0.727193 0.957799
#
# Coordination Sequence:
#
# PCOD9227521 Si02
#       8
#     4   2   4   4   4   4   4   4
#     4  11  20  36  64  95 117 158 211 252 309 361
#     4  10  18  36  58  84 120 160 192 234 308 366
#     4  12  22  37  61  92 124 154 203 260 305 359
#     4  10  23  43  64  89 123 164 211 260 309 364
#     4   9  21  44  64  84 115 164 216 249 301 371
#     4  11  24  37  61  89 125 161 199 254 310 373
#     4  10  20  35  62  90 120 160 193 253 311 362
#     4  12  23  39  59  92 128 159 200 253 318 372
#
# _framework density 19.446397999999999
#
# number of rings (size 3 to 8) (size 9 to 14) (size 15 to 20)
#    0.000    1.333    4.667    1.200    1.867    1.600 
#    4.800    2.667    0.000    0.000    0.000    0.000 
#    0.000    0.000    0.000    0.000    0.000    0.000 
#
# Total GULP energy -167205.193693 kJ/mol
# GULP energy per Si atom -5573.506456 kJ/mol
# Density = 1.940214 g / cm^3
# Si number density = 19.446398 Si / 1000 Ang^3
#
#
#
# Elastic Constant Matrix: (Units=GPa)
#
#
# Indices 1 2 3 4 5 6 
#
# 1 90.2891 23.6659 32.5541 0.0000 11.7624 0.0000
# 2 23.6659 64.3582 32.4627 0.0000 11.5421 0.0000
# 3 32.5541 32.4627 96.7596 0.0000 -4.7424 0.0000
# 4 0.0000 0.0000 0.0000 -4.2315 0.0000 -27.1644
# 5 11.7624 11.5421 -4.7424 0.0000 29.5255 0.0000
# 6 0.0000 0.0000 0.0000 -27.1644 0.0000 -27.9045
#
#
#
# Elastic Compliance Matrix: (Units=1/GPa)
#
#
# Indices 1 2 3 4 5 6 
#
# 1 0.013834 -0.001964 -0.004261 0.000000 -0.005428 0.000000
# 2 -0.001964 0.021297 -0.006908 0.000000 -0.008652 0.000000
# 3 -0.004261 -0.006908 0.014415 0.000000 0.006714 0.000000
# 4 0.000000 0.000000 0.000000 0.045020 0.000000 -0.043826
# 5 -0.005428 -0.008652 0.006714 0.000000 0.040492 0.000000
# 6 0.000000 0.000000 0.000000 -0.043826 0.000000 0.006827
#
#
# Mechanical properties :
#
#
# Convention : Reuss Voigt Hill
#
# Bulk Modulus (GPa) = 42.95832 47.64137 45.29985
# Shear Modulus (GPa) = 28.42337 10.32618 19.37478
#
# Velocity S-wave (km/s) = 3.82727 2.30686 3.15987
# Velocity P-wave (km/s) = 6.45517 5.62561 6.05461
#
# Compressibility (1/GPa) = 0.02327838
#
# Stress axis : x y z
#
# Youngs Moduli (GPa) = 72.28605 46.95588 69.37048
#
# Poissons Ratio (x) = 0.09223 0.29562
# Poissons Ratio (y) = 0.14198 0.47923
# Poissons Ratio (z) = 0.30804 0.32438
#
# Static dielectric constant tensor:
#      x y z
#    x 1.728300 0.000000 -0.068040 
#    y 0.000000 1.725890 0.000000 
#    z -0.068040 0.000000 1.694010 
# 
# From -- ./inp_files/50379.got.cif
#   From: 2010.05.17/outbox.cif.g08.bks.cpg/sg13_26_cif.got.tgz:50379.got - 2010.06.03 16:44:36.
