data_PCOD9227357
_publ_section_title
;
Structure prediction by ZEFSAII (Michael W. Deem and Ramdas Pophale) SiO2 
 PCOD9227357
Probable space group: P 2/C
;
_chemical_formula_sum "Si O2"
_cell_formula_units_Z 26
_cell_length_a 14.905675
_cell_length_b 8.182939
_cell_length_c 15.487932
_cell_angle_alpha 90.000000
_cell_angle_beta 142.349095
_cell_angle_gamma 90.000000
_cell_volume 1153.953074
_symmetry_space_group_name_H-M "P 2/C"
_symmetry_group_IT_number 13
_symmetry_cell_setting 'monoclinic'
loop_
_space_group_symop_operation_xyz
x,y,z
-x,y,1/2-z
-x,-y,-z
x,-y,1/2+z
loop_
_atom_site_type_symbol
_atom_site_label
_atom_site_fract_x
_atom_site_fract_y
_atom_site_fract_z
Si Si1 0.312388 0.517695 0.929614
Si Si2 0.000000 0.391898 0.250000
Si Si3 0.113823 0.178472 0.477259
Si Si4 0.595055 0.164576 0.908806
Si Si5 0.125836 0.603386 0.142921
Si Si6 0.062999 0.155520 0.890463
Si Si7 0.395817 0.205655 0.089741
O O1 0.158395 0.521249 0.867964
O O2 0.255930 0.494497 0.788550
O O3 0.399430 0.683583 0.020614
O O4 0.396866 0.354049 0.023092
O O5 0.997236 0.286702 0.335955
O O6 0.240840 0.156055 0.503751
O O7 0.175715 0.269284 0.607767
O O8 0.054344 0.998456 0.447447
O O9 0.500000 0.198780 0.750000
O O10 0.564338 0.977232 0.915161
O O11 0.038572 0.702879 0.149854
O O12 0.000000 0.500000 0.000000
O O13 0.000000 0.103934 0.750000
O O14 0.231737 0.200229 0.004494
O O15 0.500000 0.239675 0.250000
#
# Coordination Sequence:
#
# PCOD9227357 Si02
#       7
#     4   2   4   4   4   4   4
#     4  11  20  35  59  86 119 161 197 244 307 357
#     4  10  18  34  62  84 118 154 204 248 296 358
#     4  10  21  37  61  89 119 153 202 257 302 352
#     4   9  21  40  64  85 116 160 211 248 299 364
#     4  12  24  35  55  91 131 153 195 258 308 353
#     4  11  21  39  65  89 115 162 207 249 303 365
#     4  10  21  38  65  91 114 153 211 254 291 360
#
# _framework density 22.531244999999998
#
# number of rings (size 3 to 8) (size 9 to 14) (size 15 to 20)
#    0.000    1.538    3.846    1.846    2.154    0.000 
#    2.769    0.769    0.000    2.769    0.000    0.000 
#    0.000    0.000    0.000    0.000    0.000    0.000 
#
# Total GULP energy -145101.233870 kJ/mol
# GULP energy per Si atom -5580.816687 kJ/mol
# Density = 2.247996 g / cm^3
# Si number density = 22.531245 Si / 1000 Ang^3
#
#
#
# Elastic Constant Matrix: (Units=GPa)
#
#
# Indices 1 2 3 4 5 6 
#
# 1 19.2604 -12.3737 -11.1038 0.0000 0.2285 0.0000
# 2 -12.3737 129.9157 50.0196 0.0000 -5.2416 0.0000
# 3 -11.1038 50.0196 124.4127 0.0000 6.6789 0.0000
# 4 0.0000 0.0000 0.0000 35.0257 0.0000 6.3007
# 5 0.2285 -5.2416 6.6789 0.0000 17.2580 0.0000
# 6 0.0000 0.0000 0.0000 6.3007 0.0000 0.7750
#
#
#
# Elastic Compliance Matrix: (Units=1/GPa)
#
#
# Indices 1 2 3 4 5 6 
#
# 1 0.056511 0.004007 0.003480 0.000000 -0.000878 0.000000
# 2 0.004007 0.009710 -0.003780 0.000000 0.004359 0.000000
# 3 0.003480 -0.003780 0.010143 0.000000 -0.005120 0.000000
# 4 0.000000 0.000000 0.000000 -0.061724 0.000000 0.501841
# 5 -0.000878 0.004359 -0.005120 0.000000 0.061261 0.000000
# 6 0.000000 0.000000 0.000000 0.501841 0.000000 -2.789755
#
#
# Mechanical properties :
#
#
# Convention : Reuss Voigt Hill
#
# Bulk Modulus (GPa) = 11.93641 36.29700 24.11670
# Shear Modulus (GPa) = -1.85643 27.08151 12.61254
#
# Velocity S-wave (km/s) = -0.90869 3.47068 2.36853
# Velocity P-wave (km/s) = 2.05140 5.67498 4.26695
#
# Compressibility (1/GPa) = 0.08377729
#
# Stress axis : x y z
#
# Youngs Moduli (GPa) = 17.69568 102.98296 98.58970
#
# Poissons Ratio (x) = -0.41267 -0.34306
# Poissons Ratio (y) = -0.07091 0.37271
# Poissons Ratio (z) = -0.06157 0.38931
#
# Static dielectric constant tensor:
#      x y z
#    x 1.841550 0.000000 0.029600 
#    y 0.000000 1.952110 0.000000 
#    z 0.029600 0.000000 1.898040 
# 
# From -- ./inp_files/70437.got.cif
#   From: 2010.05.17/outbox.cif.g08.bks.cpg/sg13_36_cif.got.tgz:70437.got - 2010.06.03 16:44:36.
