data_PCOD9227452
_publ_section_title
;
Structure prediction by ZEFSAII (Michael W. Deem and Ramdas Pophale) SiO2 
 PCOD9227452
Probable space group: P 2/C
;
_chemical_formula_sum "Si O2"
_cell_formula_units_Z 32
_cell_length_a 17.508685
_cell_length_b 8.389980
_cell_length_c 22.018911
_cell_angle_alpha 90.000000
_cell_angle_beta 31.242786
_cell_angle_gamma 90.000000
_cell_volume 1677.636040
_symmetry_space_group_name_H-M "P 2/C"
_symmetry_group_IT_number 13
_symmetry_cell_setting 'monoclinic'
loop_
_space_group_symop_operation_xyz
x,y,z
-x,y,1/2-z
-x,-y,-z
x,-y,1/2+z
loop_
_atom_site_type_symbol
_atom_site_label
_atom_site_fract_x
_atom_site_fract_y
_atom_site_fract_z
Si Si1 0.837525 0.510173 0.836107
Si Si2 0.879548 0.696923 0.185817
Si Si3 0.605822 0.266074 0.429342
Si Si4 0.432736 0.951331 0.734667
Si Si5 0.205148 0.294526 0.415646
Si Si6 0.347220 0.075591 0.664545
Si Si7 0.350605 0.518229 0.715294
Si Si8 0.625600 0.373290 0.081945
O O1 0.868995 0.403987 0.754786
O O2 0.729411 0.656184 0.889466
O O3 0.000000 0.558543 0.750000
O O4 0.748234 0.403963 0.946649
O O5 0.820209 0.873936 0.233650
O O6 0.754921 0.626889 0.226228
O O7 0.038266 0.693900 0.048536
O O8 0.452571 0.212974 0.564165
O O9 0.591911 0.396370 0.385159
O O10 0.643916 0.097412 0.372681
O O11 0.500000 0.026336 0.750000
O O12 0.403163 0.052340 0.695175
O O13 0.276696 0.879515 0.862770
O O14 0.539141 0.799202 0.642894
O O15 0.241402 0.364675 0.325540
O O16 0.298222 0.384774 0.404632
O O17 0.495909 0.500888 0.656935
#
# Coordination Sequence:
#
# PCOD9227452 Si02
#       8
#     4   4   4   4   4   4   4   4
#     4  11  22  40  58  88 122 148 194 256 303 350
#     4  11  23  34  60  89 119 153 199 243 304 356
#     4  10  22  38  62  83 118 155 192 247 302 338
#     4   9  20  38  61  82 122 158 197 243 296 350
#     4  10  19  36  57  87 114 158 194 245 300 355
#     4  11  21  40  59  89 116 156 204 240 290 367
#     4  10  19  38  59  87 114 151 199 251 292 348
#     4  10  18  35  61  83 108 156 200 239 293 352
#
# _framework density 19.074459000000001
#
# number of rings (size 3 to 8) (size 9 to 14) (size 15 to 20)
#    0.000    1.750    3.750    3.000    1.750    2.500 
#    0.000    5.625    0.000    0.000    0.000    0.000 
#    0.000    0.000    0.000    0.000    0.000    0.000 
#
# Total GULP energy -178219.712669 kJ/mol
# GULP energy per Si atom -5569.366021 kJ/mol
# Density = 1.903104 g / cm^3
# Si number density = 19.074459 Si / 1000 Ang^3
#
#
#
# Elastic Constant Matrix: (Units=GPa)
#
#
# Indices 1 2 3 4 5 6 
#
# 1 76.5000 27.0405 40.3468 0.0000 -3.3415 0.0000
# 2 27.0405 39.8882 28.3369 0.0000 -5.7529 0.0000
# 3 40.3468 28.3369 131.4104 0.0000 0.2323 0.0000
# 4 0.0000 0.0000 0.0000 6.9076 0.0000 -6.4768
# 5 -3.3415 -5.7529 0.2323 0.0000 31.6743 0.0000
# 6 0.0000 0.0000 0.0000 -6.4768 0.0000 18.0011
#
#
#
# Elastic Compliance Matrix: (Units=1/GPa)
#
#
# Indices 1 2 3 4 5 6 
#
# 1 0.018467 -0.010000 -0.003514 0.000000 0.000158 0.000000
# 2 -0.010000 0.035982 -0.004699 0.000000 0.005515 0.000000
# 3 -0.003514 -0.004699 0.009704 0.000000 -0.001295 0.000000
# 4 0.000000 0.000000 0.000000 0.218471 0.000000 0.078606
# 5 0.000158 0.005515 -0.001295 0.000000 0.032599 0.000000
# 6 0.000000 0.000000 0.000000 0.078606 0.000000 0.083835
#
#
# Mechanical properties :
#
#
# Convention : Reuss Voigt Hill
#
# Bulk Modulus (GPa) = 36.06368 48.80523 42.43446
# Shear Modulus (GPa) = 11.24291 21.45488 16.34890
#
# Velocity S-wave (km/s) = 2.43044 3.35744 2.93082
# Velocity P-wave (km/s) = 5.17918 6.37747 5.80930
#
# Compressibility (1/GPa) = 0.02772873
#
# Stress axis : x y z
#
# Youngs Moduli (GPa) = 54.15191 27.79143 103.04956
#
# Poissons Ratio (x) = 0.27791 0.36209
# Poissons Ratio (y) = 0.54150 0.48420
# Poissons Ratio (z) = 0.19028 0.13058
#
# Static dielectric constant tensor:
#      x y z
#    x 1.694000 0.000000 0.017080 
#    y 0.000000 1.702360 0.000000 
#    z 0.017080 0.000000 1.672850 
# 
# From -- ./inp_files/87905.got.cif
#   From: 2010.05.17/outbox.cif.g08.bks.cpg/sg13_44_cif.got.tgz:87905.got - 2010.06.03 16:44:36.
