data_PCOD9227264
_publ_section_title
;
Structure prediction by ZEFSAII (Michael W. Deem and Ramdas Pophale) SiO2 
 PCOD9227264
Probable space group: P 2/C
;
_chemical_formula_sum "Si O2"
_cell_formula_units_Z 18
_cell_length_a 12.446365
_cell_length_b 8.783119
_cell_length_c 7.632501
_cell_angle_alpha 90.000000
_cell_angle_beta 113.321529
_cell_angle_gamma 90.000000
_cell_volume 766.199142
_symmetry_space_group_name_H-M "P 2/C"
_symmetry_group_IT_number 13
_symmetry_cell_setting 'monoclinic'
loop_
_space_group_symop_operation_xyz
x,y,z
-x,y,1/2-z
-x,-y,-z
x,-y,1/2+z
loop_
_atom_site_type_symbol
_atom_site_label
_atom_site_fract_x
_atom_site_fract_y
_atom_site_fract_z
Si Si1 0.239150 0.416021 0.227176
Si Si2 0.711628 0.264760 0.609637
Si Si3 0.527595 0.676411 0.469293
Si Si4 0.066331 0.852601 0.115669
Si Si5 0.000000 0.646280 0.750000
O O1 0.281150 0.591082 0.252131
O O2 0.336079 0.315526 0.393681
O O3 0.111847 0.428840 0.231157
O O4 0.239403 0.336719 0.038645
O O5 0.574361 0.229893 0.496918
O O6 0.798224 0.136245 0.738185
O O7 0.500000 0.706633 0.250000
O O8 0.500000 0.500000 0.500000
O O9 0.000000 0.801784 0.250000
O O10 0.054902 0.740474 0.945482
O O11 0.000000 0.000000 0.000000
#
# Coordination Sequence:
#
# PCOD9227264 Si02
#       5
#     4   4   4   4   2
#     4  11  22  36  62  99 137 163 206 263 333 396
#     4  11  22  38  62  95 130 173 210 264 323 389
#     4  10  18  34  56  90 130 170 204 251 318 392
#     4  12  25  44  64  90 122 174 224 267 314 378
#     4  12  24  40  64  96 130 164 210 270 332 388
#
# _framework density 23.492588000000001
#
# number of rings (size 3 to 8) (size 9 to 14) (size 15 to 20)
#    0.000    0.889    3.333    8.667    1.556    1.778 
#    0.000    0.000    0.000    1.333    5.778    0.000 
#    0.000    0.000    0.000    0.000    0.000    0.000 
#
# Total GULP energy -100456.597240 kJ/mol
# GULP energy per Si atom -5580.922069 kJ/mol
# Density = 2.343912 g / cm^3
# Si number density = 23.492588 Si / 1000 Ang^3
#
#
#
# Elastic Constant Matrix: (Units=GPa)
#
#
# Indices 1 2 3 4 5 6 
#
# 1 155.0553 12.6506 46.9468 0.0000 21.6170 0.0000
# 2 12.6506 17.7017 27.3943 0.0000 8.9073 0.0000
# 3 46.9468 27.3943 148.2273 0.0000 12.8717 0.0000
# 4 0.0000 0.0000 0.0000 28.7448 0.0000 11.3670
# 5 21.6170 8.9073 12.8717 0.0000 65.3133 0.0000
# 6 0.0000 0.0000 0.0000 11.3670 0.0000 13.6144
#
#
#
# Elastic Compliance Matrix: (Units=1/GPa)
#
#
# Indices 1 2 3 4 5 6 
#
# 1 0.007408 -0.001355 -0.001932 0.000000 -0.001886 0.000000
# 2 -0.001355 0.083755 -0.014342 0.000000 -0.008147 0.000000
# 3 -0.001932 -0.014342 0.009954 0.000000 0.000634 0.000000
# 4 0.000000 0.000000 0.000000 0.051937 0.000000 -0.043363
# 5 -0.001886 -0.008147 0.000634 0.000000 0.016921 0.000000
# 6 0.000000 0.000000 0.000000 -0.043363 0.000000 0.109657
#
#
# Mechanical properties :
#
#
# Convention : Reuss Voigt Hill
#
# Bulk Modulus (GPa) = 15.18418 54.99642 35.09030
# Shear Modulus (GPa) = 14.84371 37.13401 25.98886
#
# Velocity S-wave (km/s) = 2.51638 3.98008 3.32965
# Velocity P-wave (km/s) = 3.86268 6.67700 5.45448
#
# Compressibility (1/GPa) = 0.06585802
#
# Stress axis : x y z
#
# Youngs Moduli (GPa) = 134.99305 11.93958 100.46296
#
# Poissons Ratio (x) = 0.01618 0.19409
# Poissons Ratio (y) = 0.18292 1.44087
# Poissons Ratio (z) = 0.26080 0.17124
#
# Static dielectric constant tensor:
#      x y z
#    x 2.021000 0.000000 0.079730 
#    y 0.000000 2.042130 0.000000 
#    z 0.079730 0.000000 1.949160 
# 
# From -- ./inp_files/16006.got.cif
#   From: 2010.05.17/outbox.cif.g08.bks.cpg/sg13_9_cif.got.tgz:16006.got - 2010.06.03 16:44:36.
