data_PCOD9227516
_publ_section_title
;
Structure prediction by ZEFSAII (Michael W. Deem and Ramdas Pophale) SiO2 
 PCOD9227516
Probable space group: P 2/C
;
_chemical_formula_sum "Si O2"
_cell_formula_units_Z 26
_cell_length_a 10.458003
_cell_length_b 16.627349
_cell_length_c 13.411300
_cell_angle_alpha 90.000000
_cell_angle_beta 34.028476
_cell_angle_gamma 90.000000
_cell_volume 1305.040935
_symmetry_space_group_name_H-M "P 2/C"
_symmetry_group_IT_number 13
_symmetry_cell_setting 'monoclinic'
loop_
_space_group_symop_operation_xyz
x,y,z
-x,y,1/2-z
-x,-y,-z
x,-y,1/2+z
loop_
_atom_site_type_symbol
_atom_site_label
_atom_site_fract_x
_atom_site_fract_y
_atom_site_fract_z
Si Si1 0.655431 0.413110 0.340535
Si Si2 0.052177 0.932120 0.548960
Si Si3 0.368793 0.074751 0.033787
Si Si4 0.102111 0.632905 0.465481
Si Si5 0.820007 0.422358 0.788739
Si Si6 0.328321 0.798356 0.268686
Si Si7 0.500000 0.481801 0.750000
O O1 0.427582 0.380261 0.540206
O O2 0.759756 0.483817 0.341089
O O3 0.564261 0.460115 0.300450
O O4 0.865703 0.355759 0.176592
O O5 0.253464 0.949577 0.501071
O O6 0.132402 0.858263 0.430929
O O7 0.836235 0.909316 0.756669
O O8 0.000000 0.000000 0.500000
O O9 0.529718 0.152619 0.907815
O O10 0.500000 0.000000 0.000000
O O11 0.057833 0.579885 0.396267
O O12 0.210206 0.711580 0.344170
O O13 0.289937 0.580581 0.403400
O O14 0.000000 0.390234 0.750000
O O15 0.500000 0.790649 0.250000
#
# Coordination Sequence:
#
# PCOD9227516 Si02
#       7
#     4   4   4   4   4   4   2
#     4  10  20  33  57  81 106 151 202 248 294 360
#     4  10  20  36  62  90 117 155 200 241 294 368
#     4  10  20  36  62  91 118 152 200 243 294 366
#     4  11  21  35  56  82 115 154 197 248 303 354
#     4  10  20  35  53  79 112 147 196 251 301 350
#     4  10  21  38  57  85 124 156 189 249 306 351
#     4  10  18  36  58  78 108 152 204 246 300 352
#
# _framework density 19.922747000000001
#
# number of rings (size 3 to 8) (size 9 to 14) (size 15 to 20)
#    0.000    1.846    2.308    3.692    0.000    1.231 
#    0.000    1.538    0.000    3.692    0.000    0.000 
#    0.000    0.000    0.000    0.000    0.000    0.000 
#
# Total GULP energy -144741.402575 kJ/mol
# GULP energy per Si atom -5566.977022 kJ/mol
# Density = 1.987740 g / cm^3
# Si number density = 19.922747 Si / 1000 Ang^3
#
#
#
# Elastic Constant Matrix: (Units=GPa)
#
#
# Indices 1 2 3 4 5 6 
#
# 1 46.5947 15.8679 20.9643 0.0000 0.7870 0.0000
# 2 15.8679 75.7596 41.1844 0.0000 -0.7787 0.0000
# 3 20.9643 41.1844 150.5245 0.0000 -3.0755 0.0000
# 4 0.0000 0.0000 0.0000 31.1894 0.0000 -2.4377
# 5 0.7870 -0.7787 -3.0755 0.0000 27.7634 0.0000
# 6 0.0000 0.0000 0.0000 -2.4377 0.0000 14.3005
#
#
#
# Elastic Compliance Matrix: (Units=1/GPa)
#
#
# Indices 1 2 3 4 5 6 
#
# 1 0.023792 -0.003737 -0.002312 0.000000 -0.001035 0.000000
# 2 -0.003737 0.016093 -0.003880 0.000000 0.000127 0.000000
# 3 -0.002312 -0.003880 0.008044 0.000000 0.000848 0.000000
# 4 0.000000 0.000000 0.000000 0.032495 0.000000 0.005539
# 5 -0.001035 0.000127 0.000848 0.000000 0.036146 0.000000
# 6 0.000000 0.000000 0.000000 0.005539 0.000000 0.070872
#
#
# Mechanical properties :
#
#
# Convention : Reuss Voigt Hill
#
# Bulk Modulus (GPa) = 35.62410 47.65689 41.64049
# Shear Modulus (GPa) = 23.07788 27.64146 25.35967
#
# Velocity S-wave (km/s) = 3.40717 3.72887 3.57164
# Velocity P-wave (km/s) = 5.77913 6.52012 6.16078
#
# Compressibility (1/GPa) = 0.02807089
#
# Stress axis : x y z
#
# Youngs Moduli (GPa) = 42.03063 62.13906 124.30964
#
# Poissons Ratio (x) = 0.23221 0.28745
# Poissons Ratio (y) = 0.15706 0.48233
# Poissons Ratio (z) = 0.09719 0.24110
#
# Static dielectric constant tensor:
#      x y z
#    x 1.756380 0.000000 -0.016970 
#    y 0.000000 1.795720 0.000000 
#    z -0.016970 0.000000 1.778110 
# 
# From -- ./inp_files/51434.got.cif
#   From: 2010.05.17/outbox.cif.g08.bks.cpg/sg13_26_cif.got.tgz:51434.got - 2010.06.03 16:44:36.
