data_PCOD9227196
_publ_section_title
;
Structure prediction by ZEFSAII (Michael W. Deem and Ramdas Pophale) SiO2 
 PCOD9227196
Probable space group: P 2/C
;
_chemical_formula_sum "Si O2"
_cell_formula_units_Z 32
_cell_length_a 22.570411
_cell_length_b 11.411181
_cell_length_c 16.180715
_cell_angle_alpha 90.000000
_cell_angle_beta 18.524693
_cell_angle_gamma 90.000000
_cell_volume 1324.046405
_symmetry_space_group_name_H-M "P 2/C"
_symmetry_group_IT_number 13
_symmetry_cell_setting 'monoclinic'
loop_
_space_group_symop_operation_xyz
x,y,z
-x,y,1/2-z
-x,-y,-z
x,-y,1/2+z
loop_
_atom_site_type_symbol
_atom_site_label
_atom_site_fract_x
_atom_site_fract_y
_atom_site_fract_z
Si Si1 0.432941 0.779514 0.256181
Si Si2 0.289182 0.522166 0.085607
Si Si3 0.012087 0.821228 0.830710
Si Si4 0.306403 0.200798 0.555241
Si Si5 0.388308 0.550179 0.226124
Si Si6 0.941234 0.563352 0.954465
Si Si7 0.905512 0.075944 0.796779
Si Si8 0.492274 0.017924 0.413026
O O1 0.500000 0.715923 0.250000
O O2 0.232168 0.819372 0.553783
O O3 0.416347 0.689243 0.203400
O O4 0.550188 0.893333 0.074916
O O5 0.168571 0.494210 0.328226
O O6 0.159357 0.466150 0.184123
O O7 0.281546 0.661537 0.087917
O O8 0.502334 0.501441 0.837654
O O9 0.000000 0.792848 0.750000
O O10 0.927070 0.705715 0.985205
O O11 0.972774 0.960258 0.886598
O O12 0.500000 0.180186 0.250000
O O13 0.133700 0.147401 0.733542
O O14 0.351215 0.122185 0.576071
O O15 0.174380 0.535111 0.476950
O O16 0.500000 0.500000 0.000000
O O17 0.000000 0.139017 0.750000
O O18 0.700567 0.045344 0.104227
O O19 0.500000 0.000000 0.500000
#
# Coordination Sequence:
#
# PCOD9227196 Si02
#       8
#     4   4   4   4   4   4   4   4
#     4  11  21  37  63  94 123 162 219 271 325 388
#     4  10  23  40  62  87 130 171 208 264 323 385
#     4  10  18  33  61  86 116 153 201 267 312 369
#     4  10  22  43  60  87 130 170 207 259 320 396
#     4  10  22  39  64  90 129 168 212 266 326 383
#     4  10  21  41  60  93 124 162 214 269 320 379
#     4   9  20  40  61  91 125 163 208 264 326 384
#     4  10  22  38  66  94 125 167 213 266 330 397
#
# _framework density 24.168337000000001
#
# number of rings (size 3 to 8) (size 9 to 14) (size 15 to 20)
#    0.000    2.000    1.250    2.625    3.500    1.500 
#    4.500    5.000    0.000    0.000    0.000    0.000 
#    0.000    0.000    0.000    0.000    0.000    0.000 
#
# Total GULP energy -178218.350992 kJ/mol
# GULP energy per Si atom -5569.323469 kJ/mol
# Density = 2.411333 g / cm^3
# Si number density = 24.168337 Si / 1000 Ang^3
#
#
#
# Elastic Constant Matrix: (Units=GPa)
#
#
# Indices 1 2 3 4 5 6 
#
# 1 169.8111 60.4949 29.9253 0.0000 -59.2159 0.0000
# 2 60.4949 99.5432 12.8076 0.0000 -25.0701 0.0000
# 3 29.9253 12.8076 84.9559 0.0000 -27.6168 0.0000
# 4 0.0000 0.0000 0.0000 27.4276 0.0000 -9.1346
# 5 -59.2159 -25.0701 -27.6168 0.0000 39.0177 0.0000
# 6 0.0000 0.0000 0.0000 -9.1346 0.0000 35.2775
#
#
#
# Elastic Compliance Matrix: (Units=1/GPa)
#
#
# Indices 1 2 3 4 5 6 
#
# 1 0.013859 -0.003594 0.002269 0.000000 0.020329 0.000000
# 2 -0.003594 0.012971 0.000320 0.000000 0.003106 0.000000
# 3 0.002269 0.000320 0.015728 0.000000 0.014782 0.000000
# 4 0.000000 0.000000 0.000000 0.039901 0.000000 0.010332
# 5 0.020329 0.003106 0.014782 0.000000 0.068941 0.000000
# 6 0.000000 0.000000 0.000000 0.010332 0.000000 0.031022
#
#
# Mechanical properties :
#
#
# Convention : Reuss Voigt Hill
#
# Bulk Modulus (GPa) = 24.66206 62.30729 43.48467
# Shear Modulus (GPa) = 25.25916 37.08340 31.17128
#
# Velocity S-wave (km/s) = 3.23636 3.92136 3.59521
# Velocity P-wave (km/s) = 4.91852 6.80730 5.93848
#
# Compressibility (1/GPa) = 0.04054812
#
# Stress axis : x y z
#
# Youngs Moduli (GPa) = 72.15720 77.09320 63.57896
#
# Poissons Ratio (x) = 0.27709 -0.14424
# Poissons Ratio (y) = 0.25935 -0.02037
# Poissons Ratio (z) = -0.16370 -0.02470
#
# Static dielectric constant tensor:
#      x y z
#    x 2.051300 0.000000 -0.030130 
#    y 0.000000 1.959040 0.000000 
#    z -0.030130 0.000000 2.013400 
# 
# From -- ./inp_files/71463.got.cif
#   From: 2010.05.17/outbox.cif.g08.bks.cpg/sg13_36_cif.got.tgz:71463.got - 2010.06.03 16:44:36.
