data_PCOD9227815
_publ_section_title
;
Structure prediction by ZEFSAII (Michael W. Deem and Ramdas Pophale) SiO2 
 PCOD9227815
Probable space group: P 2/C
;
_chemical_formula_sum "Si O2"
_cell_formula_units_Z 20
_cell_length_a 7.784669
_cell_length_b 5.714175
_cell_length_c 27.660465
_cell_angle_alpha 90.000000
_cell_angle_beta 44.005442
_cell_angle_gamma 90.000000
_cell_volume 854.805188
_symmetry_space_group_name_H-M "P 2/C"
_symmetry_group_IT_number 13
_symmetry_cell_setting 'monoclinic'
loop_
_space_group_symop_operation_xyz
x,y,z
-x,y,1/2-z
-x,-y,-z
x,-y,1/2+z
loop_
_atom_site_type_symbol
_atom_site_label
_atom_site_fract_x
_atom_site_fract_y
_atom_site_fract_z
Si Si1 0.769881 0.240352 0.529416
Si Si2 0.738646 0.605651 0.614561
Si Si3 0.018824 0.450143 0.150574
Si Si4 0.500000 0.500000 0.500000
Si Si5 0.368582 0.104214 0.133580
Si Si6 0.000000 0.263141 0.750000
O O1 0.772947 0.353197 0.582030
O O2 0.633927 0.430646 0.523464
O O3 0.043931 0.229740 0.452245
O O4 0.600106 0.012386 0.559379
O O5 0.480603 0.710244 0.648599
O O6 0.794377 0.598588 0.659914
O O7 0.177418 0.222045 0.135066
O O8 0.949208 0.583096 0.213131
O O9 0.227977 0.585423 0.077570
O O10 0.228682 0.902644 0.190672
#
# Coordination Sequence:
#
# PCOD9227815 Si02
#       6
#     4   4   4   2   4   2
#     4  10  21  41  69 105 145 172 222 295 354 401
#     4  10  23  43  69 105 139 176 229 290 349 411
#     4  11  25  46  71 102 139 186 229 289 355 408
#     4  10  18  42  72  98 136 178 220 290 348 396
#     4  12  23  45  70 102 137 183 237 280 345 432
#     4  12  26  48  68  94 148 190 226 290 358 418
#
# _framework density 23.397144000000001
#
# number of rings (size 3 to 8) (size 9 to 14) (size 15 to 20)
#    0.000    1.200    4.000    1.200    0.000    4.800 
#    3.600   15.000    0.000    0.000    0.000    0.000 
#    0.000    0.000    0.000    0.000    0.000    0.000 
#
# Total GULP energy -111355.240531 kJ/mol
# GULP energy per Si atom -5567.762027 kJ/mol
# Density = 2.334389 g / cm^3
# Si number density = 23.397144 Si / 1000 Ang^3
#
#
#
# Elastic Constant Matrix: (Units=GPa)
#
#
# Indices 1 2 3 4 5 6 
#
# 1 147.3081 33.8597 42.0999 0.0000 49.7779 0.0000
# 2 33.8597 57.3280 19.5808 0.0000 15.8071 0.0000
# 3 42.0999 19.5808 53.2459 0.0000 17.1372 0.0000
# 4 0.0000 0.0000 0.0000 11.0016 0.0000 -16.4084
# 5 49.7779 15.8071 17.1372 0.0000 42.7942 0.0000
# 6 0.0000 0.0000 0.0000 -16.4084 0.0000 16.9628
#
#
#
# Elastic Compliance Matrix: (Units=1/GPa)
#
#
# Indices 1 2 3 4 5 6 
#
# 1 0.012976 -0.002486 -0.005491 0.000000 -0.011977 0.000000
# 2 -0.002486 0.021439 -0.004936 0.000000 -0.003050 0.000000
# 3 -0.005491 -0.004936 0.025594 0.000000 -0.002039 0.000000
# 4 0.000000 0.000000 0.000000 -0.205318 0.000000 -0.198607
# 5 -0.011977 -0.003050 -0.002039 0.000000 0.039242 0.000000
# 6 0.000000 0.000000 0.000000 -0.198607 0.000000 -0.133163
#
#
# Mechanical properties :
#
#
# Convention : Reuss Voigt Hill
#
# Bulk Modulus (GPa) = 29.25548 49.88476 39.57012
# Shear Modulus (GPa) = -24.75156 24.97450 0.11147
#
# Velocity S-wave (km/s) = -3.25605 3.27068 0.21851
# Velocity P-wave (km/s) = 1.26680 5.96911 4.12465
#
# Compressibility (1/GPa) = 0.03418163
#
# Stress axis : x y z
#
# Youngs Moduli (GPa) = 77.06240 46.64364 39.07190
#
# Poissons Ratio (x) = 0.11598 0.21454
# Poissons Ratio (y) = 0.19161 0.19288
# Poissons Ratio (z) = 0.42315 0.23026
#
# Static dielectric constant tensor:
#      x y z
#    x 1.867370 0.000000 -0.036880 
#    y 0.000000 1.968290 0.000000 
#    z -0.036880 0.000000 1.930980 
# 
# From -- ./inp_files/90628.got.cif
#   From: 2010.05.17/outbox.cif.g08.bks.cpg/sg13_46_cif.got.tgz:90628.got - 2010.06.03 16:44:36.
