data_PCOD9227695
_publ_section_title
;
Structure prediction by ZEFSAII (Michael W. Deem and Ramdas Pophale) SiO2 
 PCOD9227695
Probable space group: P 2/C
;
_chemical_formula_sum "Si O2"
_cell_formula_units_Z 30
_cell_length_a 12.381698
_cell_length_b 8.727752
_cell_length_c 25.821972
_cell_angle_alpha 90.000000
_cell_angle_beta 144.263921
_cell_angle_gamma 90.000000
_cell_volume 1629.760807
_symmetry_space_group_name_H-M "P 2/C"
_symmetry_group_IT_number 13
_symmetry_cell_setting 'monoclinic'
loop_
_space_group_symop_operation_xyz
x,y,z
-x,y,1/2-z
-x,-y,-z
x,-y,1/2+z
loop_
_atom_site_type_symbol
_atom_site_label
_atom_site_fract_x
_atom_site_fract_y
_atom_site_fract_z
Si Si1 0.520379 0.093486 0.318976
Si Si2 0.143820 0.129780 0.517189
Si Si3 0.589208 0.673149 0.446116
Si Si4 0.748745 0.148061 0.737555
Si Si5 0.390432 0.313677 0.063505
Si Si6 0.000000 0.000204 0.750000
Si Si7 0.993431 0.172540 0.924996
Si Si8 0.620194 0.147832 0.063891
O O1 0.500000 0.100565 0.250000
O O2 0.545889 0.258380 0.354939
O O3 0.698195 0.986932 0.400509
O O4 0.356071 0.004701 0.284039
O O5 0.242469 0.254858 0.520973
O O6 0.048790 0.201605 0.530860
O O7 0.018063 0.013546 0.434799
O O8 0.401488 0.745857 0.349334
O O9 0.591184 0.491756 0.440771
O O10 0.613549 0.733339 0.513901
O O11 0.833102 0.217613 0.822934
O O12 0.910049 0.102551 0.760494
O O13 0.515491 0.221116 0.071682
O O14 0.179862 0.253600 0.978678
O O15 0.172150 0.903289 0.840123
O O16 0.500000 0.000000 0.000000
#
# Coordination Sequence:
#
# PCOD9227695 Si02
#       8
#     4   4   4   4   4   2   4   4
#     4  10  18  38  62  88 121 161 208 260 296 350
#     4   9  19  37  63  90 118 160 215 257 296 350
#     4  11  24  41  60  89 135 165 190 254 328 373
#     4  11  21  38  65  93 116 158 218 259 301 361
#     4  11  24  42  58  91 134 164 190 251 330 371
#     4  12  22  38  72  94 112 156 222 264 298 358
#     4  10  20  37  65  92 117 162 216 259 290 361
#     4  12  22  45  68  91 120 161 215 263 299 362
#
# _framework density 18.407609999999998
#
# number of rings (size 3 to 8) (size 9 to 14) (size 15 to 20)
#    0.000    1.333    4.000    3.600    0.000    0.533 
#    4.800    0.000    0.000    0.000    0.000    0.000 
#    0.000    0.000    0.000    0.000    0.000    0.000 
#
# Total GULP energy -167464.213008 kJ/mol
# GULP energy per Si atom -5582.140434 kJ/mol
# Density = 1.836571 g / cm^3
# Si number density = 18.407610 Si / 1000 Ang^3
#
#
#
# Elastic Constant Matrix: (Units=GPa)
#
#
# Indices 1 2 3 4 5 6 
#
# 1 118.8254 36.5202 21.9960 0.0000 2.9000 0.0000
# 2 36.5202 85.5825 19.2141 0.0000 -13.2299 0.0000
# 3 21.9960 19.2141 88.6537 0.0000 -3.4406 0.0000
# 4 0.0000 0.0000 0.0000 10.2573 0.0000 -4.1323
# 5 2.9000 -13.2299 -3.4406 0.0000 29.3544 0.0000
# 6 0.0000 0.0000 0.0000 -4.1323 0.0000 12.6595
#
#
#
# Elastic Compliance Matrix: (Units=1/GPa)
#
#
# Indices 1 2 3 4 5 6 
#
# 1 0.010177 -0.004462 -0.001683 0.000000 -0.003214 0.000000
# 2 -0.004462 0.015099 -0.001893 0.000000 0.007024 0.000000
# 3 -0.001683 -0.001893 0.012136 0.000000 0.000736 0.000000
# 4 0.000000 0.000000 0.000000 0.112253 0.000000 0.036642
# 5 -0.003214 0.007024 0.000736 0.000000 0.037636 0.000000
# 6 0.000000 0.000000 0.000000 0.036642 0.000000 0.090953
#
#
# Mechanical properties :
#
#
# Convention : Reuss Voigt Hill
#
# Bulk Modulus (GPa) = 46.86537 49.83581 48.35059
# Shear Modulus (GPa) = 16.58698 24.80965 20.69831
#
# Velocity S-wave (km/s) = 3.00508 3.67521 3.35691
# Velocity P-wave (km/s) = 6.12827 6.71877 6.43030
#
# Compressibility (1/GPa) = 0.02133772
#
# Stress axis : x y z
#
# Youngs Moduli (GPa) = 98.26158 66.22781 82.39848
#
# Poissons Ratio (x) = 0.29549 0.13865
# Poissons Ratio (y) = 0.43842 0.15597
# Poissons Ratio (z) = 0.16535 0.12536
#
# Static dielectric constant tensor:
#      x y z
#    x 1.641030 0.000000 0.010500 
#    y 0.000000 1.598570 0.000000 
#    z 0.010500 0.000000 1.666710 
# 
# From -- ./inp_files/86407.got.cif
#   From: 2010.05.17/outbox.cif.g08.bks.cpg/sg13_44_cif.got.tgz:86407.got - 2010.06.03 16:44:36.
