data_PCOD9227668
_publ_section_title
;
Structure prediction by ZEFSAII (Michael W. Deem and Ramdas Pophale) SiO2 
 PCOD9227668
Probable space group: P 2/C
;
_chemical_formula_sum "Si O2"
_cell_formula_units_Z 30
_cell_length_a 22.068246
_cell_length_b 5.450118
_cell_length_c 18.769992
_cell_angle_alpha 90.000000
_cell_angle_beta 40.009176
_cell_angle_gamma 90.000000
_cell_volume 1451.403555
_symmetry_space_group_name_H-M "P 2/C"
_symmetry_group_IT_number 13
_symmetry_cell_setting 'monoclinic'
loop_
_space_group_symop_operation_xyz
x,y,z
-x,y,1/2-z
-x,-y,-z
x,-y,1/2+z
loop_
_atom_site_type_symbol
_atom_site_label
_atom_site_fract_x
_atom_site_fract_y
_atom_site_fract_z
Si Si1 0.483293 0.749689 0.060965
Si Si2 0.674014 0.179418 0.448432
Si Si3 0.170299 0.924904 0.107325
Si Si4 0.173197 0.557334 0.233911
Si Si5 0.720383 0.107743 0.761526
Si Si6 0.862952 0.880758 0.530216
Si Si7 0.029092 0.395154 0.072641
Si Si8 0.000000 0.710965 0.750000
O O1 0.374239 0.764336 0.182558
O O2 0.500000 0.500000 0.000000
O O3 0.563324 0.761805 0.050061
O O4 0.500000 0.000000 0.000000
O O5 0.734808 0.418695 0.376850
O O6 0.727879 0.039311 0.463195
O O7 0.690693 0.024530 0.361398
O O8 0.148373 0.723937 0.187703
O O9 0.165599 0.863033 0.027820
O O10 0.087449 0.121651 0.194277
O O11 0.203176 0.702860 0.277265
O O12 0.083048 0.398002 0.336469
O O13 0.770576 0.927512 0.661139
O O14 0.920722 0.639412 0.501470
O O15 0.925845 0.129267 0.481965
O O16 0.037878 0.436111 0.149748
#
# Coordination Sequence:
#
# PCOD9227668 Si02
#       8
#     4   4   4   4   4   4   4   2
#     4  10  20  39  64  91 115 151 200 253 302 353
#     4  10  21  38  64  93 114 154 210 261 297 352
#     4  10  21  37  59  89 122 158 210 249 300 356
#     4  11  20  37  63  88 121 160 209 260 290 358
#     4  10  24  40  61  89 126 157 201 255 317 365
#     4  11  26  40  57  89 128 170 195 245 312 374
#     4  11  23  37  58  87 124 166 205 242 300 362
#     4  10  18  38  58  84 122 166 210 252 286 362
#
# _framework density 20.669647999999999
#
# number of rings (size 3 to 8) (size 9 to 14) (size 15 to 20)
#    0.000    1.600    2.667    2.400    5.600    1.600 
#    0.000    0.667    0.000    0.000    0.000    0.000 
#    0.000    0.000    0.000    0.000    0.000    0.000 
#
# Total GULP energy -167346.706131 kJ/mol
# GULP energy per Si atom -5578.223538 kJ/mol
# Density = 2.062260 g / cm^3
# Si number density = 20.669648 Si / 1000 Ang^3
#
#
#
# Elastic Constant Matrix: (Units=GPa)
#
#
# Indices 1 2 3 4 5 6 
#
# 1 61.1274 4.3947 10.6582 0.0000 -15.9148 0.0000
# 2 4.3947 61.9985 -5.7953 0.0000 -5.1307 0.0000
# 3 10.6582 -5.7953 35.7863 0.0000 -13.7836 0.0000
# 4 0.0000 0.0000 0.0000 -56.3509 0.0000 -46.7191
# 5 -15.9148 -5.1307 -13.7836 0.0000 31.3202 0.0000
# 6 0.0000 0.0000 0.0000 -46.7191 0.0000 3.0678
#
#
#
# Elastic Compliance Matrix: (Units=1/GPa)
#
#
# Indices 1 2 3 4 5 6 
#
# 1 0.019062 -0.000898 -0.002587 0.000000 0.008400 0.000000
# 2 -0.000898 0.016998 0.004716 0.000000 0.004404 0.000000
# 3 -0.002587 0.004716 0.035243 0.000000 0.014968 0.000000
# 4 0.000000 0.000000 0.000000 -0.001302 0.000000 -0.019834
# 5 0.008400 0.004404 0.014968 0.000000 0.043505 0.000000
# 6 0.000000 0.000000 0.000000 -0.019834 0.000000 0.023923
#
#
# Mechanical properties :
#
#
# Convention : Reuss Voigt Hill
#
# Bulk Modulus (GPa) = 13.55631 19.71417 16.63524
# Shear Modulus (GPa) = 31.33716 5.58440 18.46078
#
# Velocity S-wave (km/s) = 3.89793 1.64548 2.99178
# Velocity P-wave (km/s) = 5.17989 3.62886 4.47213
#
# Compressibility (1/GPa) = 0.07376640
#
# Stress axis : x y z
#
# Youngs Moduli (GPa) = 52.46040 58.82915 28.37435
#
# Poissons Ratio (x) = 0.05282 0.07341
# Poissons Ratio (y) = 0.04710 -0.13382
# Poissons Ratio (z) = 0.13572 -0.27746
#
# Static dielectric constant tensor:
#      x y z
#    x 2.602730 0.000000 0.435710 
#    y 0.000000 1.655650 0.000000 
#    z 0.435710 0.000000 2.004220 
# 
# From -- ./inp_files/81982.got.cif
#   From: 2010.05.17/outbox.cif.g08.bks.cpg/sg13_41_cif.got.tgz:81982.got - 2010.06.03 16:44:36.
