data_PCOD9227259
_publ_section_title
;
Structure prediction by ZEFSAII (Michael W. Deem and Ramdas Pophale) SiO2 
 PCOD9227259
Probable space group: P 2/C
;
_chemical_formula_sum "Si O2"
_cell_formula_units_Z 26
_cell_length_a 15.177831
_cell_length_b 6.858762
_cell_length_c 16.132924
_cell_angle_alpha 90.000000
_cell_angle_beta 34.254981
_cell_angle_gamma 90.000000
_cell_volume 945.326584
_symmetry_space_group_name_H-M "P 2/C"
_symmetry_group_IT_number 13
_symmetry_cell_setting 'monoclinic'
loop_
_space_group_symop_operation_xyz
x,y,z
-x,y,1/2-z
-x,-y,-z
x,-y,1/2+z
loop_
_atom_site_type_symbol
_atom_site_label
_atom_site_fract_x
_atom_site_fract_y
_atom_site_fract_z
Si Si1 0.500000 0.240029 0.750000
Si Si2 0.676460 0.230587 0.207013
Si Si3 0.537018 0.770191 0.489839
Si Si4 0.882701 0.370675 0.905097
Si Si5 0.258883 0.777235 0.310415
Si Si6 0.066982 0.681580 0.862907
Si Si7 0.719275 0.271522 0.438851
O O1 0.624668 0.340226 0.716670
O O2 0.624858 0.156759 0.584385
O O3 0.507492 0.271941 0.380804
O O4 0.798683 0.336794 0.173516
O O5 0.692485 0.999400 0.208680
O O6 0.747255 0.264726 0.061594
O O7 0.700719 0.736813 0.316726
O O8 0.411332 0.668026 0.526723
O O9 0.500000 0.000000 0.500000
O O10 0.797339 0.545032 0.922199
O O11 0.000000 0.262611 0.750000
O O12 0.998254 0.483867 0.878434
O O13 0.081675 0.770103 0.475967
O O14 0.142240 0.807367 0.728586
#
# Coordination Sequence:
#
# PCOD9227259 Si02
#       7
#     2   4   4   4   4   4   4
#     4  10  18  34  56  82 110 150 188 246 286 346
#     4  10  20  36  57  84 118 146 188 251 298 342
#     4   8  17  34  59  85 113 151 192 248 291 340
#     4  10  20  36  55  82 119 156 188 235 293 355
#     4  10  19  34  60  85 111 144 199 242 300 341
#     4  10  19  35  60  83 107 153 199 236 286 349
#     4   9  18  33  58  82 111 153 195 232 290 356
#
# _framework density 27.503722
#
# number of rings (size 3 to 8) (size 9 to 14) (size 15 to 20)
#    0.000    2.462    1.538    0.923    0.000    0.000 
#    2.769    1.538    6.769    0.000    0.000    0.000 
#    0.000    0.000    0.000    0.000    0.000    0.000 
#
# Total GULP energy -145080.799762 kJ/mol
# GULP energy per Si atom -5580.030760 kJ/mol
# Density = 2.744112 g / cm^3
# Si number density = 27.503722 Si / 1000 Ang^3
#
#
#
# Elastic Constant Matrix: (Units=GPa)
#
#
# Indices 1 2 3 4 5 6 
#
# 1 120.9492 19.3334 52.4468 0.0000 -4.2697 0.0000
# 2 19.3334 63.1411 44.9627 0.0000 6.7492 0.0000
# 3 52.4468 44.9627 373.6484 0.0000 56.8538 0.0000
# 4 0.0000 0.0000 0.0000 32.4532 0.0000 2.7687
# 5 -4.2697 6.7492 56.8538 0.0000 50.6350 0.0000
# 6 0.0000 0.0000 0.0000 2.7687 0.0000 21.7146
#
#
#
# Elastic Compliance Matrix: (Units=1/GPa)
#
#
# Indices 1 2 3 4 5 6 
#
# 1 0.009338 -0.002102 -0.001472 0.000000 0.002720 0.000000
# 2 -0.002102 0.017795 -0.001759 0.000000 -0.000574 0.000000
# 3 -0.001472 -0.001759 0.003712 0.000000 -0.004057 0.000000
# 4 0.000000 0.000000 0.000000 0.031152 0.000000 -0.003972
# 5 0.002720 -0.000574 -0.004057 0.000000 0.024611 0.000000
# 6 0.000000 0.000000 0.000000 -0.003972 0.000000 0.046558
#
#
# Mechanical properties :
#
#
# Convention : Reuss Voigt Hill
#
# Bulk Modulus (GPa) = 49.55441 87.91381 68.73411
# Shear Modulus (GPa) = 33.20963 50.36028 41.78496
#
# Velocity S-wave (km/s) = 3.47862 4.28370 3.90198
# Velocity P-wave (km/s) = 5.84730 7.51668 6.73392
#
# Compressibility (1/GPa) = 0.02017984
#
# Stress axis : x y z
#
# Youngs Moduli (GPa) = 107.08802 56.19531 269.40254
#
# Poissons Ratio (x) = 0.11812 0.39647
# Poissons Ratio (y) = 0.22510 0.47386
# Poissons Ratio (z) = 0.15760 0.09884
#
# Static dielectric constant tensor:
#      x y z
#    x 2.144340 0.000000 0.030650 
#    y 0.000000 2.311970 0.000000 
#    z 0.030650 0.000000 2.159900 
# 
# From -- ./inp_files/69633.got.cif
#   From: 2010.05.17/outbox.cif.g08.bks.cpg/sg13_35_cif.got.tgz:69633.got - 2010.06.03 16:44:36.
