data_PCOD9227781
_publ_section_title
;
Structure prediction by ZEFSAII (Michael W. Deem and Ramdas Pophale) SiO2 
 PCOD9227781
Probable space group: P 2/C
;
_chemical_formula_sum "Si O2"
_cell_formula_units_Z 18
_cell_length_a 8.933220
_cell_length_b 4.772882
_cell_length_c 25.310559
_cell_angle_alpha 90.000000
_cell_angle_beta 144.655376
_cell_angle_gamma 90.000000
_cell_volume 624.293246
_symmetry_space_group_name_H-M "P 2/C"
_symmetry_group_IT_number 13
_symmetry_cell_setting 'monoclinic'
loop_
_space_group_symop_operation_xyz
x,y,z
-x,y,1/2-z
-x,-y,-z
x,-y,1/2+z
loop_
_atom_site_type_symbol
_atom_site_label
_atom_site_fract_x
_atom_site_fract_y
_atom_site_fract_z
Si Si1 0.622775 0.875240 0.687439
Si Si2 0.928131 0.711122 0.081134
Si Si3 0.851149 0.601165 0.660967
Si Si4 0.500000 0.503770 0.250000
Si Si5 0.807139 0.808101 0.479027
O O1 0.927918 0.836537 0.787976
O O2 0.464036 0.156679 0.630026
O O3 0.622947 0.736066 0.628644
O O4 0.488434 0.701279 0.695656
O O5 0.239469 0.687500 0.179845
O O6 0.797039 0.581633 0.095163
O O7 0.883580 0.498870 0.019093
O O8 0.825490 0.983537 0.538664
O O9 0.000000 0.424910 0.750000
O O10 0.000000 0.000000 0.500000
#
# Coordination Sequence:
#
# PCOD9227781 Si02
#       5
#     4   4   4   2   4
#     4   8  18  37  65  89 130 162 215 259 317 375
#     4  11  24  41  66  91 128 167 214 255 326 371
#     4   7  18  42  63  92 125 173 212 260 311 384
#     4  10  18  40  64  92 124 170 210 260 310 390
#     4  12  24  40  64  99 127 164 207 271 317 374
#
# _framework density 28.832605999999998
#
# number of rings (size 3 to 8) (size 9 to 14) (size 15 to 20)
#    1.333    0.889    2.222    0.667    0.000    2.667 
#    0.000    1.111    0.000    0.000    0.000    0.000 
#    0.000    0.000    0.000    0.000    0.000    0.000 
#
# Total GULP energy -100766.120591 kJ/mol
# GULP energy per Si atom -5598.117811 kJ/mol
# Density = 2.876698 g / cm^3
# Si number density = 28.832606 Si / 1000 Ang^3
#
#
#
# Elastic Constant Matrix: (Units=GPa)
#
#
# Indices 1 2 3 4 5 6 
#
# 1 116.3016 12.9829 28.4919 0.0000 -19.0490 0.0000
# 2 12.9829 138.4396 38.1915 0.0000 -4.9666 0.0000
# 3 28.4919 38.1915 128.3463 0.0000 5.3188 0.0000
# 4 0.0000 0.0000 0.0000 47.7926 0.0000 -7.0237
# 5 -19.0490 -4.9666 5.3188 0.0000 64.7437 0.0000
# 6 0.0000 0.0000 0.0000 -7.0237 0.0000 25.4655
#
#
#
# Elastic Compliance Matrix: (Units=1/GPa)
#
#
# Indices 1 2 3 4 5 6 
#
# 1 0.009654 -0.000187 -0.002212 0.000000 0.003008 0.000000
# 2 -0.000187 0.007914 -0.002344 0.000000 0.000745 0.000000
# 3 -0.002212 -0.002344 0.009045 0.000000 -0.001574 0.000000
# 4 0.000000 0.000000 0.000000 0.021808 0.000000 0.006015
# 5 0.003008 0.000745 -0.001574 0.000000 0.016517 0.000000
# 6 0.000000 0.000000 0.000000 0.006015 0.000000 0.040928
#
#
# Mechanical properties :
#
#
# Convention : Reuss Voigt Hill
#
# Bulk Modulus (GPa) = 58.38966 60.26890 59.32928
# Shear Modulus (GPa) = 41.30129 47.82844 44.56487
#
# Velocity S-wave (km/s) = 3.78888 4.07729 3.93573
# Velocity P-wave (km/s) = 6.27981 6.56614 6.42457
#
# Compressibility (1/GPa) = 0.01712632
#
# Stress axis : x y z
#
# Youngs Moduli (GPa) = 103.58655 126.35233 110.55491
#
# Poissons Ratio (x) = 0.02365 0.24455
# Poissons Ratio (y) = 0.01939 0.25918
# Poissons Ratio (z) = 0.22913 0.29621
#
# Static dielectric constant tensor:
#      x y z
#    x 2.277230 0.000000 -0.025950 
#    y 0.000000 2.163190 0.000000 
#    z -0.025950 0.000000 2.306400 
# 
# From -- ./inp_files/84233.got.cif
#   From: 2010.05.17/outbox.cif.g08.bks.cpg/sg13_43_cif.got.tgz:84233.got - 2010.06.03 16:44:36.
