data_PCOD9227368
_publ_section_title
;
Structure prediction by ZEFSAII (Michael W. Deem and Ramdas Pophale) SiO2 
 PCOD9227368
Probable space group: P 2/C
;
_chemical_formula_sum "Si O2"
_cell_formula_units_Z 26
_cell_length_a 11.869674
_cell_length_b 8.617911
_cell_length_c 14.624496
_cell_angle_alpha 90.000000
_cell_angle_beta 54.159292
_cell_angle_gamma 90.000000
_cell_volume 1212.701805
_symmetry_space_group_name_H-M "P 2/C"
_symmetry_group_IT_number 13
_symmetry_cell_setting 'monoclinic'
loop_
_space_group_symop_operation_xyz
x,y,z
-x,y,1/2-z
-x,-y,-z
x,-y,1/2+z
loop_
_atom_site_type_symbol
_atom_site_label
_atom_site_fract_x
_atom_site_fract_y
_atom_site_fract_z
Si Si1 0.573004 0.956701 0.315786
Si Si2 0.161793 0.128106 0.350988
Si Si3 0.483924 0.251572 0.484872
Si Si4 0.000000 0.369360 0.750000
Si Si5 0.208839 0.201460 0.533166
Si Si6 0.895026 0.886754 0.884014
Si Si7 0.226941 0.376494 0.162397
O O1 0.500000 0.947454 0.250000
O O2 0.537859 0.817228 0.402527
O O3 0.738287 0.982941 0.220284
O O4 0.527734 0.110791 0.394450
O O5 0.208770 0.193847 0.425316
O O6 0.191148 0.261211 0.262676
O O7 0.996843 0.100427 0.421519
O O8 0.334787 0.297786 0.515482
O O9 0.607110 0.376394 0.421503
O O10 0.936066 0.265226 0.860146
O O11 0.872053 0.476931 0.779507
O O12 0.218045 0.022089 0.561678
O O13 0.826964 0.720179 0.900765
O O14 0.000000 0.915966 0.750000
#
# Coordination Sequence:
#
# PCOD9227368 Si02
#       7
#     4   4   4   2   4   4   4
#     4  10  18  34  62  99 127 156 198 257 325 379
#     4  10  20  35  65  91 127 154 206 258 324 366
#     4  10  21  37  62  90 129 160 205 261 316 372
#     4  12  26  42  60  84 128 174 220 246 312 372
#     4  12  23  37  63 100 119 160 212 270 306 375
#     4  10  18  38  61  89 122 154 201 256 319 359
#     4  10  22  43  62  83 125 178 201 256 320 381
#
# _framework density 21.439730999999998
#
# number of rings (size 3 to 8) (size 9 to 14) (size 15 to 20)
#    0.000    1.538    4.615    4.154    0.000    1.231 
#    0.000    0.000    0.000    0.000    0.000    0.000 
#    0.000    0.000    0.000    0.000    0.000    0.000 
#
# Total GULP energy -145123.306080 kJ/mol
# GULP energy per Si atom -5581.665618 kJ/mol
# Density = 2.139093 g / cm^3
# Si number density = 21.439731 Si / 1000 Ang^3
#
#
#
# Elastic Constant Matrix: (Units=GPa)
#
#
# Indices 1 2 3 4 5 6 
#
# 1 124.0548 8.2265 47.8305 0.0000 -7.7415 0.0000
# 2 8.2265 29.0240 13.2452 0.0000 -7.2673 0.0000
# 3 47.8305 13.2452 85.7036 0.0000 5.9118 0.0000
# 4 0.0000 0.0000 0.0000 14.3823 0.0000 -14.2568
# 5 -7.7415 -7.2673 5.9118 0.0000 48.2397 0.0000
# 6 0.0000 0.0000 0.0000 -14.2568 0.0000 24.4867
#
#
#
# Elastic Compliance Matrix: (Units=1/GPa)
#
#
# Indices 1 2 3 4 5 6 
#
# 1 0.010552 0.000435 -0.006129 0.000000 0.002510 0.000000
# 2 0.000435 0.039114 -0.006756 0.000000 0.006790 0.000000
# 3 -0.006129 -0.006756 0.016410 0.000000 -0.004012 0.000000
# 4 0.000000 0.000000 0.000000 0.164430 0.000000 0.095736
# 5 0.002510 0.006790 -0.004012 0.000000 0.022647 0.000000
# 6 0.000000 0.000000 0.000000 0.095736 0.000000 0.096578
#
#
# Mechanical properties :
#
#
# Convention : Reuss Voigt Hill
#
# Bulk Modulus (GPa) = 24.28660 41.93188 33.10924
# Shear Modulus (GPa) = 12.87472 28.72043 20.79757
#
# Velocity S-wave (km/s) = 2.45318 3.66401 3.11794
# Velocity P-wave (km/s) = 4.40188 6.12376 5.33278
#
# Compressibility (1/GPa) = 0.04117498
#
# Stress axis : x y z
#
# Youngs Moduli (GPa) = 94.76908 25.56601 60.93940
#
# Poissons Ratio (x) = -0.01112 0.37352
# Poissons Ratio (y) = -0.04120 0.41171
# Poissons Ratio (z) = 0.58087 0.17273
#
# Static dielectric constant tensor:
#      x y z
#    x 1.872780 0.000000 -0.032060 
#    y 0.000000 1.794060 0.000000 
#    z -0.032060 0.000000 1.773400 
# 
# From -- ./inp_files/49899.got.cif
#   From: 2010.05.17/outbox.cif.g08.bks.cpg/sg13_25_cif.got.tgz:49899.got - 2010.06.03 16:44:36.
