data_PCOD9227636
_publ_section_title
;
Structure prediction by ZEFSAII (Michael W. Deem and Ramdas Pophale) SiO2 
 PCOD9227636
Probable space group: P 2/C
;
_chemical_formula_sum "Si O2"
_cell_formula_units_Z 28
_cell_length_a 14.842521
_cell_length_b 14.699858
_cell_length_c 8.355238
_cell_angle_alpha 90.000000
_cell_angle_beta 41.769177
_cell_angle_gamma 90.000000
_cell_volume 1214.337763
_symmetry_space_group_name_H-M "P 2/C"
_symmetry_group_IT_number 13
_symmetry_cell_setting 'monoclinic'
loop_
_space_group_symop_operation_xyz
x,y,z
-x,y,1/2-z
-x,-y,-z
x,-y,1/2+z
loop_
_atom_site_type_symbol
_atom_site_label
_atom_site_fract_x
_atom_site_fract_y
_atom_site_fract_z
Si Si1 0.275852 0.372051 0.714691
Si Si2 0.600588 0.039288 0.733890
Si Si3 0.009629 0.321905 0.927357
Si Si4 0.941938 0.869227 0.506546
Si Si5 0.784773 0.046257 0.744769
Si Si6 0.213659 0.566242 0.660570
Si Si7 0.465820 0.397608 0.984727
O O1 0.161688 0.307175 0.791524
O O2 0.258071 0.461614 0.626041
O O3 0.432151 0.341621 0.535783
O O4 0.238661 0.402316 0.945548
O O5 0.500000 0.091891 0.750000
O O6 0.679752 0.959948 0.530790
O O7 0.714516 0.089096 0.683531
O O8 0.500000 0.000000 0.000000
O O9 0.000000 0.333954 0.750000
O O10 0.921376 0.233157 0.089188
O O11 0.939894 0.408068 0.100417
O O12 0.818326 0.938569 0.676391
O O13 0.000000 0.865006 0.250000
O O14 0.069375 0.910661 0.430466
O O15 0.305005 0.615035 0.679809
O O16 0.500000 0.390286 0.750000
O O17 0.500000 0.500000 0.000000
#
# Coordination Sequence:
#
# PCOD9227636 Si02
#       7
#     4   4   4   4   4   4   4
#     4  10  19  35  57  82 109 142 185 232 285 338
#     4   9  18  32  60  90 115 141 179 233 280 339
#     4  11  23  37  52  77 113 149 189 232 277 327
#     4  10  21  36  58  80 110 152 189 241 275 333
#     4  10  18  37  60  85 112 145 193 228 283 332
#     4  10  19  35  57  82 108 143 183 233 284 337
#     4   8  16  30  54  78 103 134 176 224 272 333
#
# _framework density 23.057832999999999
#
# number of rings (size 3 to 8) (size 9 to 14) (size 15 to 20)
#    0.000    2.286    1.429    1.714    0.000    1.143 
#    5.143    0.000    9.429    0.000    0.000    0.000 
#    0.000    0.000    0.000    0.000    0.000    0.000 
#
# Total GULP energy -155897.799651 kJ/mol
# GULP energy per Si atom -5567.778559 kJ/mol
# Density = 2.300535 g / cm^3
# Si number density = 23.057833 Si / 1000 Ang^3
#
#
#
# Elastic Constant Matrix: (Units=GPa)
#
#
# Indices 1 2 3 4 5 6 
#
# 1 172.7713 0.6084 6.8245 0.0000 -4.1979 0.0000
# 2 0.6084 44.0568 0.3421 0.0000 -1.4795 0.0000
# 3 6.8245 0.3421 54.4115 0.0000 5.5099 0.0000
# 4 0.0000 0.0000 0.0000 10.9666 0.0000 -1.7918
# 5 -4.1979 -1.4795 5.5099 0.0000 32.2381 0.0000
# 6 0.0000 0.0000 0.0000 -1.7918 0.0000 6.3133
#
#
#
# Elastic Compliance Matrix: (Units=1/GPa)
#
#
# Indices 1 2 3 4 5 6 
#
# 1 0.005843 -0.000044 -0.000824 0.000000 0.000900 0.000000
# 2 -0.000044 0.022737 -0.000247 0.000000 0.001080 0.000000
# 3 -0.000824 -0.000247 0.018821 0.000000 -0.003335 0.000000
# 4 0.000000 0.000000 0.000000 0.095620 0.000000 0.027139
# 5 0.000900 0.001080 -0.003335 0.000000 0.031756 0.000000
# 6 0.000000 0.000000 0.000000 0.027139 0.000000 0.166099
#
#
# Mechanical properties :
#
#
# Convention : Reuss Voigt Hill
#
# Bulk Modulus (GPa) = 22.13788 31.86551 27.00170
# Shear Modulus (GPa) = 13.96016 27.46790 20.71403
#
# Velocity S-wave (km/s) = 2.46324 3.45521 3.00050
# Velocity P-wave (km/s) = 4.20856 5.45599 4.87236
#
# Compressibility (1/GPa) = 0.04517143
#
# Stress axis : x y z
#
# Youngs Moduli (GPa) = 171.15841 43.98163 53.13198
#
# Poissons Ratio (x) = 0.00194 0.04376
# Poissons Ratio (y) = 0.00754 0.01311
# Poissons Ratio (z) = 0.14097 0.01085
#
# Static dielectric constant tensor:
#      x y z
#    x 1.966020 0.000000 -0.030000 
#    y 0.000000 1.888640 0.000000 
#    z -0.030000 0.000000 1.910500 
# 
# From -- ./inp_files/19597.got.cif
#   From: 2010.05.17/outbox.cif.g08.bks.cpg/sg13_10_cif.got.tgz:19597.got - 2010.06.03 16:44:36.
