data_PCOD9227383
_publ_section_title
;
Structure prediction by ZEFSAII (Michael W. Deem and Ramdas Pophale) SiO2 
 PCOD9227383
Probable space group: P 2/C
;
_chemical_formula_sum "Si O2"
_cell_formula_units_Z 20
_cell_length_a 10.874714
_cell_length_b 8.796973
_cell_length_c 13.411416
_cell_angle_alpha 90.000000
_cell_angle_beta 132.762159
_cell_angle_gamma 90.000000
_cell_volume 941.948946
_symmetry_space_group_name_H-M "P 2/C"
_symmetry_group_IT_number 13
_symmetry_cell_setting 'monoclinic'
loop_
_space_group_symop_operation_xyz
x,y,z
-x,y,1/2-z
-x,-y,-z
x,-y,1/2+z
loop_
_atom_site_type_symbol
_atom_site_label
_atom_site_fract_x
_atom_site_fract_y
_atom_site_fract_z
Si Si1 0.500000 0.460437 0.250000
Si Si2 0.815062 0.336297 0.142995
Si Si3 0.246031 0.709359 0.119863
Si Si4 0.479036 0.776081 0.565705
Si Si5 0.500000 0.978890 0.250000
Si Si6 0.155704 0.686946 0.273086
O O1 0.367714 0.575427 0.224772
O O2 0.558885 0.355790 0.373325
O O3 0.657089 0.255883 0.109518
O O4 0.826441 0.507089 0.193006
O O5 0.000000 0.262110 0.250000
O O6 0.790278 0.341450 0.011138
O O7 0.340967 0.868368 0.167536
O O8 0.111468 0.713477 0.132800
O O9 0.327920 0.768300 0.402966
O O10 0.489506 0.922424 0.643102
O O11 0.000000 0.746475 0.250000
#
# Coordination Sequence:
#
# PCOD9227383 Si02
#       6
#     2   4   4   4   2   4
#     4  10  18  34  70  86 120 168 214 258 316 364
#     4  11  24  40  69 100 129 167 219 276 324 379
#     4  11  22  41  62  98 129 169 218 267 310 395
#     4  11  21  43  63  96 130 174 208 269 320 383
#     4  10  26  40  70  96 134 174 220 254 330 392
#     4  11  24  40  69 100 129 167 219 276 324 379
#
# _framework density 21.232572999999999
#
# number of rings (size 3 to 8) (size 9 to 14) (size 15 to 20)
#    0.000    1.200    4.000    3.000    0.000    9.600 
#    0.000    6.000    0.000    0.000    0.000    0.000 
#    0.000    0.000    0.000    0.000    0.000    0.000 
#
# Total GULP energy -111618.244215 kJ/mol
# GULP energy per Si atom -5580.912211 kJ/mol
# Density = 2.118425 g / cm^3
# Si number density = 21.232573 Si / 1000 Ang^3
#
#
#
# Elastic Constant Matrix: (Units=GPa)
#
#
# Indices 1 2 3 4 5 6 
#
# 1 164.7569 28.4039 40.9381 0.0000 -20.4281 0.0000
# 2 28.4039 74.4414 29.8974 0.0000 -9.3213 0.0000
# 3 40.9381 29.8974 62.4667 0.0000 -23.1725 0.0000
# 4 0.0000 0.0000 0.0000 10.9113 0.0000 -12.6477
# 5 -20.4281 -9.3213 -23.1725 0.0000 47.3993 0.0000
# 6 0.0000 0.0000 0.0000 -12.6477 0.0000 -18.0998
#
#
#
# Elastic Compliance Matrix: (Units=1/GPa)
#
#
# Indices 1 2 3 4 5 6 
#
# 1 0.007361 -0.001109 -0.003905 0.000000 0.001045 0.000000
# 2 -0.001109 0.016820 -0.007663 0.000000 -0.000917 0.000000
# 3 -0.003905 -0.007663 0.025716 0.000000 0.009382 0.000000
# 4 0.000000 0.000000 0.000000 0.050635 0.000000 -0.035382
# 5 0.001045 -0.000917 0.009382 0.000000 0.025954 0.000000
# 6 0.000000 0.000000 0.000000 -0.035382 0.000000 -0.030525
#
#
# Mechanical properties :
#
#
# Convention : Reuss Voigt Hill
#
# Bulk Modulus (GPa) = 40.74891 55.57152 48.16021
# Shear Modulus (GPa) = 38.61116 21.53719 30.07418
#
# Velocity S-wave (km/s) = 4.26900 3.18834 3.76761
# Velocity P-wave (km/s) = 6.59792 6.30742 6.45430
#
# Compressibility (1/GPa) = 0.02454054
#
# Stress axis : x y z
#
# Youngs Moduli (GPa) = 135.85596 59.45468 38.88640
#
# Poissons Ratio (x) = 0.06595 0.15187
# Poissons Ratio (y) = 0.15069 0.29799
# Poissons Ratio (z) = 0.53057 0.45561
#
# Static dielectric constant tensor:
#      x y z
#    x 1.880560 0.000000 -0.002900 
#    y 0.000000 1.750300 0.000000 
#    z -0.002900 0.000000 1.890280 
# 
# From -- ./inp_files/32787.got.cif
#   From: 2010.05.17/outbox.cif.g08.bks.cpg/sg13_17_cif.got.tgz:32787.got - 2010.06.03 16:44:36.
