data_PCOD9227940
_publ_section_title
;
Structure prediction by ZEFSAII (Michael W. Deem and Ramdas Pophale) SiO2 
 PCOD9227940
Probable space group: P 2/C
;
_chemical_formula_sum "Si O2"
_cell_formula_units_Z 20
_cell_length_a 7.196386
_cell_length_b 22.659345
_cell_length_c 8.212083
_cell_angle_alpha 90.000000
_cell_angle_beta 141.058256
_cell_angle_gamma 90.000000
_cell_volume 841.668496
_symmetry_space_group_name_H-M "P 2/C"
_symmetry_group_IT_number 13
_symmetry_cell_setting 'monoclinic'
loop_
_space_group_symop_operation_xyz
x,y,z
-x,y,1/2-z
-x,-y,-z
x,-y,1/2+z
loop_
_atom_site_type_symbol
_atom_site_label
_atom_site_fract_x
_atom_site_fract_y
_atom_site_fract_z
Si Si1 0.169909 0.256980 0.190863
Si Si2 0.283495 0.539437 0.248653
Si Si3 0.321895 0.328052 0.803161
Si Si4 0.642828 0.940017 0.169165
Si Si5 0.159555 0.122129 0.178530
O O1 0.478371 0.288959 0.440254
O O2 0.155947 0.189625 0.121538
O O3 0.000000 0.255715 0.250000
O O4 0.983532 0.296686 0.943130
O O5 0.500000 0.553048 0.250000
O O6 0.500000 0.500000 0.500000
O O7 0.249080 0.604426 0.301165
O O8 0.000000 0.500000 0.000000
O O9 0.500000 0.326939 0.750000
O O10 0.500000 0.934312 0.250000
O O11 0.984941 0.924221 0.442094
O O12 0.497603 0.893109 0.948862
O O13 0.500000 0.000000 0.000000
O O14 0.000000 0.118671 0.250000
#
# Coordination Sequence:
#
# PCOD9227940 Si02
#       5
#     4   4   4   4   4
#     4   9  15  26  44  69  98 126 158 207 264 307
#     4  11  22  37  56  82 114 148 186 228 275 333
#     4   9  17  28  46  72 102 132 166 211 263 314
#     4  10  19  31  46  68  96 127 161 199 243 298
#     4   9  17  28  45  69  97 125 159 203 252 302
#
# _framework density 23.762325000000001
#
# number of rings (size 3 to 8) (size 9 to 14) (size 15 to 20)
#    0.000    2.400    0.000    3.600    0.000    8.000 
#    0.000    0.000    0.000    0.000    0.000   21.000 
#    0.000    0.000    0.000    0.000    0.000    0.000 
#
# Total GULP energy -111571.989981 kJ/mol
# GULP energy per Si atom -5578.599499 kJ/mol
# Density = 2.370824 g / cm^3
# Si number density = 23.762325 Si / 1000 Ang^3
#
#
#
# Elastic Constant Matrix: (Units=GPa)
#
#
# Indices 1 2 3 4 5 6 
#
# 1 72.5550 -9.8404 7.1703 0.0000 15.1173 0.0000
# 2 -9.8404 180.7395 90.8124 0.0000 0.0638 0.0000
# 3 7.1703 90.8124 214.3351 0.0000 17.6712 0.0000
# 4 0.0000 0.0000 0.0000 44.7717 0.0000 -0.0353
# 5 15.1173 0.0638 17.6712 0.0000 24.8652 0.0000
# 6 0.0000 0.0000 0.0000 -0.0353 0.0000 13.5960
#
#
#
# Elastic Compliance Matrix: (Units=1/GPa)
#
#
# Indices 1 2 3 4 5 6 
#
# 1 0.015921 0.000941 -0.000141 0.000000 -0.009581 0.000000
# 2 0.000941 0.007203 -0.003224 0.000000 0.001700 0.000000
# 3 -0.000141 -0.003224 0.006404 0.000000 -0.004457 0.000000
# 4 0.000000 0.000000 0.000000 0.022336 0.000000 0.000058
# 5 -0.009581 0.001700 -0.004457 0.000000 0.049205 0.000000
# 6 0.000000 0.000000 0.000000 0.000058 0.000000 0.073551
#
#
# Mechanical properties :
#
#
# Convention : Reuss Voigt Hill
#
# Bulk Modulus (GPa) = 40.51918 71.54604 56.03261
# Shear Modulus (GPa) = 26.63924 41.94572 34.29248
#
# Velocity S-wave (km/s) = 3.35187 4.20601 3.80300
# Velocity P-wave (km/s) = 5.66294 7.33224 6.55098
#
# Compressibility (1/GPa) = 0.02467967
#
# Stress axis : x y z
#
# Youngs Moduli (GPa) = 62.81183 138.82779 156.16264
#
# Poissons Ratio (x) = -0.13067 0.02209
# Poissons Ratio (y) = -0.05912 0.50341
# Poissons Ratio (z) = 0.00889 0.44753
#
# Static dielectric constant tensor:
#      x y z
#    x 1.983870 0.000000 -0.024780 
#    y 0.000000 1.978810 0.000000 
#    z -0.024780 0.000000 1.842680 
# 
# From -- ./inp_files/9961.got.cif
#   From: 2010.05.17/outbox.cif.g08.bks.cpg/sg13_5_cif.got.tgz:9961.got - 2010.06.03 16:44:36.
