data_PCOD9227332
_publ_section_title
;
Structure prediction by ZEFSAII (Michael W. Deem and Ramdas Pophale) SiO2 
 PCOD9227332
Probable space group: P 2/C
;
_chemical_formula_sum "Si O2"
_cell_formula_units_Z 26
_cell_length_a 21.605574
_cell_length_b 9.824171
_cell_length_c 9.701696
_cell_angle_alpha 90.000000
_cell_angle_beta 27.288953
_cell_angle_gamma 90.000000
_cell_volume 944.121936
_symmetry_space_group_name_H-M "P 2/C"
_symmetry_group_IT_number 13
_symmetry_cell_setting 'monoclinic'
loop_
_space_group_symop_operation_xyz
x,y,z
-x,y,1/2-z
-x,-y,-z
x,-y,1/2+z
loop_
_atom_site_type_symbol
_atom_site_label
_atom_site_fract_x
_atom_site_fract_y
_atom_site_fract_z
Si Si1 0.105358 0.821857 0.322948
Si Si2 0.218469 0.590853 0.755678
Si Si3 0.000000 0.179797 0.750000
Si Si4 0.500000 0.149949 0.750000
Si Si5 0.000000 0.638822 0.750000
Si Si6 0.542909 0.766752 0.469354
Si Si7 0.671964 0.584187 0.680228
Si Si8 0.681683 0.083536 0.908885
O O1 0.995845 0.735981 0.625214
O O2 0.180277 0.919326 0.282573
O O3 0.055863 0.887146 0.279074
O O4 0.216930 0.704201 0.066979
O O5 0.334470 0.591045 0.642384
O O6 0.270782 0.551928 0.501447
O O7 0.121206 0.720389 0.957988
O O8 0.125523 0.462771 0.986069
O O9 0.447285 0.212106 0.712236
O O10 0.630352 0.058136 0.450409
O O11 0.461273 0.626384 0.640811
O O12 0.669401 0.802252 0.314413
O O13 0.432784 0.873475 0.752035
#
# Coordination Sequence:
#
# PCOD9227332 Si02
#       8
#     4   4   2   2   2   4   4   4
#     4   9  17  29  49  77 106 137 174 212 257 302
#     4   9  16  28  49  75 106 144 183 212 249 296
#     4   9  16  28  48  76 109 146 183 216 240 295
#     4  10  18  34  60  84  96 126 178 224 262 320
#     4   9  16  28  48  74 107 144 181 214 246 301
#     4   9  18  33  55  80 104 130 173 218 263 318
#     4   9  17  30  49  76 105 138 175 215 254 302
#     4   9  17  33  55  79 106 134 165 213 272 322
#
# _framework density 27.538817000000002
#
# number of rings (size 3 to 8) (size 9 to 14) (size 15 to 20)
#    0.000    3.077    0.000    2.769    0.000    3.692 
#    0.000   10.769    0.000   41.538    0.000   52.769 
#    0.000    0.000    0.000    0.000    0.000    0.000 
#
# Total GULP energy -145477.272006 kJ/mol
# GULP energy per Si atom -5595.279693 kJ/mol
# Density = 2.747614 g / cm^3
# Si number density = 27.538817 Si / 1000 Ang^3
#
#
#
# Elastic Constant Matrix: (Units=GPa)
#
#
# Indices 1 2 3 4 5 6 
#
# 1 237.8919 30.8867 42.5970 0.0000 10.8335 0.0000
# 2 30.8867 41.6540 13.2433 0.0000 -3.4573 0.0000
# 3 42.5970 13.2433 74.1273 0.0000 6.4007 0.0000
# 4 0.0000 0.0000 0.0000 30.6699 0.0000 0.2922
# 5 10.8335 -3.4573 6.4007 0.0000 50.1311 0.0000
# 6 0.0000 0.0000 0.0000 0.2922 0.0000 45.5668
#
#
#
# Elastic Compliance Matrix: (Units=1/GPa)
#
#
# Indices 1 2 3 4 5 6 
#
# 1 0.005060 -0.003117 -0.002263 0.000000 -0.001020 0.000000
# 2 -0.003117 0.027653 -0.003410 0.000000 0.003016 0.000000
# 3 -0.002263 -0.003410 0.015549 0.000000 -0.001731 0.000000
# 4 0.000000 0.000000 0.000000 0.032607 0.000000 -0.000209
# 5 -0.001020 0.003016 -0.001731 0.000000 0.020597 0.000000
# 6 0.000000 0.000000 0.000000 -0.000209 0.000000 0.021947
#
#
# Mechanical properties :
#
#
# Convention : Reuss Voigt Hill
#
# Bulk Modulus (GPa) = 32.59103 58.56969 45.58036
# Shear Modulus (GPa) = 33.06433 43.06997 38.06715
#
# Velocity S-wave (km/s) = 3.46879 3.95900 3.72198
# Velocity P-wave (km/s) = 5.28239 6.49711 5.92098
#
# Compressibility (1/GPa) = 0.03068329
#
# Stress axis : x y z
#
# Youngs Moduli (GPa) = 197.63243 36.16234 64.31189
#
# Poissons Ratio (x) = 0.11272 0.14552
# Poissons Ratio (y) = 0.61605 0.21928
# Poissons Ratio (z) = 0.44719 0.12330
#
# Static dielectric constant tensor:
#      x y z
#    x 2.102980 0.000000 -0.034670 
#    y 0.000000 2.260140 0.000000 
#    z -0.034670 0.000000 2.194060 
# 
# From -- ./inp_files/23531.got.cif
#   From: 2010.05.17/outbox.cif.g08.bks.cpg/sg13_12_cif.got.tgz:23531.got - 2010.06.03 16:44:36.
