data_PCOD9227722
_publ_section_title
;
Structure prediction by ZEFSAII (Michael W. Deem and Ramdas Pophale) SiO2 
 PCOD9227722
Probable space group: P 2/C
;
_chemical_formula_sum "Si O2"
_cell_formula_units_Z 26
_cell_length_a 7.925738
_cell_length_b 5.614018
_cell_length_c 26.049710
_cell_angle_alpha 90.000000
_cell_angle_beta 101.012456
_cell_angle_gamma 90.000000
_cell_volume 1137.744170
_symmetry_space_group_name_H-M "P 2/C"
_symmetry_group_IT_number 13
_symmetry_cell_setting 'monoclinic'
loop_
_space_group_symop_operation_xyz
x,y,z
-x,y,1/2-z
-x,-y,-z
x,-y,1/2+z
loop_
_atom_site_type_symbol
_atom_site_label
_atom_site_fract_x
_atom_site_fract_y
_atom_site_fract_z
Si Si1 0.199342 0.974585 0.559056
Si Si2 0.012142 0.584039 0.892611
Si Si3 0.818277 0.960981 0.659487
Si Si4 0.276008 0.541940 0.194934
Si Si5 0.433444 0.030312 0.170762
Si Si6 0.000000 0.301552 0.750000
Si Si7 0.158140 0.806176 0.450442
O O1 0.348757 0.005958 0.609169
O O2 0.256638 0.903199 0.505291
O O3 0.088474 0.759111 0.576194
O O4 0.046491 0.169308 0.547099
O O5 0.089759 0.713527 0.847319
O O6 0.165188 0.466674 0.933686
O O7 0.863239 0.425380 0.858882
O O8 0.635838 0.941757 0.675639
O O9 0.801090 0.062432 0.600398
O O10 0.938323 0.129428 0.700420
O O11 0.360372 0.280113 0.190445
O O12 0.164922 0.552023 0.240331
O O13 0.388680 0.783104 0.197324
#
# Coordination Sequence:
#
# PCOD9227722 Si02
#       7
#     4   4   4   4   4   2   4
#     4   9  19  35  66  97 136 177 228 266 340 393
#     4  10  19  40  64  98 129 183 223 280 316 420
#     4  11  26  42  67  97 142 172 233 279 348 392
#     4  11  24  45  73  94 137 169 234 270 345 390
#     4  11  25  46  66 106 139 174 207 299 335 406
#     4  12  24  50  70  94 120 188 230 282 328 422
#     4  10  18  38  65  97 132 183 228 269 322 420
#
# _framework density 22.852236999999999
#
# number of rings (size 3 to 8) (size 9 to 14) (size 15 to 20)
#    0.000    1.538    3.077    2.308    2.154    3.692 
#    0.000    3.846    0.000    0.000    0.000    0.000 
#    0.000    0.000    0.000    0.000    0.000    0.000 
#
# Total GULP energy -145079.989632 kJ/mol
# GULP energy per Si atom -5579.999601 kJ/mol
# Density = 2.280022 g / cm^3
# Si number density = 22.852237 Si / 1000 Ang^3
#
#
#
# Elastic Constant Matrix: (Units=GPa)
#
#
# Indices 1 2 3 4 5 6 
#
# 1 92.0298 52.3334 37.6366 0.0000 -15.2294 0.0000
# 2 52.3334 80.0867 26.0641 0.0000 -8.3486 0.0000
# 3 37.6366 26.0641 123.4607 0.0000 -4.8775 0.0000
# 4 0.0000 0.0000 0.0000 6.1034 0.0000 -30.1666
# 5 -15.2294 -8.3486 -4.8775 0.0000 33.0802 0.0000
# 6 0.0000 0.0000 0.0000 -30.1666 0.0000 213.8321
#
#
#
# Elastic Compliance Matrix: (Units=1/GPa)
#
#
# Indices 1 2 3 4 5 6 
#
# 1 0.019455 -0.011021 -0.003380 0.000000 0.005677 0.000000
# 2 -0.011021 0.019951 -0.000859 0.000000 -0.000166 0.000000
# 3 -0.003380 -0.000859 0.009295 0.000000 -0.000402 0.000000
# 4 0.000000 0.000000 0.000000 0.541238 0.000000 0.076356
# 5 0.005677 -0.000166 -0.000402 0.000000 0.032742 0.000000
# 6 0.000000 0.000000 0.000000 0.076356 0.000000 0.015449
#
#
# Mechanical properties :
#
#
# Convention : Reuss Voigt Hill
#
# Bulk Modulus (GPa) = 55.00027 58.62725 56.81376
# Shear Modulus (GPa) = 7.41060 62.57268 34.99164
#
# Velocity S-wave (km/s) = 1.80274 5.23840 3.91732
# Velocity P-wave (km/s) = 5.33415 7.89294 6.73616
#
# Compressibility (1/GPa) = 0.01818173
#
# Stress axis : x y z
#
# Youngs Moduli (GPa) = 51.40068 50.12377 107.57987
#
# Poissons Ratio (x) = 0.55243 0.36360
# Poissons Ratio (y) = 0.56650 0.09236
# Poissons Ratio (z) = 0.17372 0.04303
#
# Static dielectric constant tensor:
#      x y z
#    x 1.811720 0.000000 0.002880 
#    y 0.000000 1.988850 0.000000 
#    z 0.002880 0.000000 1.881220 
# 
# From -- ./inp_files/90846.got.cif
#   From: 2010.05.17/outbox.cif.g08.bks.cpg/sg13_46_cif.got.tgz:90846.got - 2010.06.03 16:44:36.
