data_PCOD9227713
_publ_section_title
;
Structure prediction by ZEFSAII (Michael W. Deem and Ramdas Pophale) SiO2 
 PCOD9227713
Probable space group: P 2/C
;
_chemical_formula_sum "Si O2"
_cell_formula_units_Z 26
_cell_length_a 20.582668
_cell_length_b 8.317314
_cell_length_c 10.189679
_cell_angle_alpha 90.000000
_cell_angle_beta 42.080164
_cell_angle_gamma 90.000000
_cell_volume 1169.041855
_symmetry_space_group_name_H-M "P 2/C"
_symmetry_group_IT_number 13
_symmetry_cell_setting 'monoclinic'
loop_
_space_group_symop_operation_xyz
x,y,z
-x,y,1/2-z
-x,-y,-z
x,-y,1/2+z
loop_
_atom_site_type_symbol
_atom_site_label
_atom_site_fract_x
_atom_site_fract_y
_atom_site_fract_z
Si Si1 0.334323 0.100031 0.597479
Si Si2 0.688413 0.841647 0.657430
Si Si3 0.500000 0.138947 0.750000
Si Si4 0.899204 0.557670 0.218246
Si Si5 0.828721 0.391122 0.092823
Si Si6 0.479959 0.688450 0.017350
Si Si7 0.993170 0.131084 0.901915
O O1 0.280922 0.133443 0.540066
O O2 0.388973 0.259663 0.565327
O O3 0.290331 0.002784 0.788090
O O4 0.416233 0.972442 0.431379
O O5 0.738538 0.694418 0.659502
O O6 0.574544 0.788993 0.825891
O O7 0.540092 0.245939 0.807140
O O8 0.818184 0.500657 0.237277
O O9 0.879039 0.507148 0.398889
O O10 0.918790 0.745457 0.208608
O O11 0.000000 0.500000 0.000000
O O12 0.898221 0.244402 0.036502
O O13 0.500000 0.500000 0.000000
O O14 0.000000 0.051903 0.750000
O O15 0.000000 0.000000 0.000000
#
# Coordination Sequence:
#
# PCOD9227713 Si02
#       7
#     4   4   2   4   4   4   4
#     4  11  20  43  62  83 120 178 218 257 322 395
#     4  11  23  39  62  87 125 162 210 269 322 379
#     4  10  18  38  64  84 110 172 226 254 314 390
#     4   9  19  40  63  84 121 162 198 242 308 387
#     4  10  22  39  59  93 121 158 204 255 317 367
#     4  11  23  37  63  91 122 164 227 271 314 374
#     4   9  19  35  60  86 116 153 198 239 291 377
#
# _framework density 22.240435999999999
#
# number of rings (size 3 to 8) (size 9 to 14) (size 15 to 20)
#    0.000    1.846    3.077    2.308    2.154    6.154 
#    2.769    1.538    0.000    0.000    0.000    0.000 
#    0.000    0.000    0.000    0.000    0.000    0.000 
#
# Total GULP energy -145017.687366 kJ/mol
# GULP energy per Si atom -5577.603360 kJ/mol
# Density = 2.218982 g / cm^3
# Si number density = 22.240436 Si / 1000 Ang^3
#
#
#
# Elastic Constant Matrix: (Units=GPa)
#
#
# Indices 1 2 3 4 5 6 
#
# 1 137.8713 43.6488 40.1364 0.0000 40.5489 0.0000
# 2 43.6488 83.0264 24.6126 0.0000 36.0967 0.0000
# 3 40.1364 24.6126 46.1743 0.0000 38.7086 0.0000
# 4 0.0000 0.0000 0.0000 24.3113 0.0000 14.3622
# 5 40.5489 36.0967 38.7086 0.0000 51.0713 0.0000
# 6 0.0000 0.0000 0.0000 14.3622 0.0000 50.1184
#
#
#
# Elastic Compliance Matrix: (Units=1/GPa)
#
#
# Indices 1 2 3 4 5 6 
#
# 1 0.010456 -0.003027 -0.006334 0.000000 -0.001361 0.000000
# 2 -0.003027 0.018400 0.004692 0.000000 -0.014158 0.000000
# 3 -0.006334 0.004692 0.063700 0.000000 -0.046568 0.000000
# 4 0.000000 0.000000 0.000000 0.049516 0.000000 -0.014189
# 5 -0.001361 -0.014158 -0.046568 0.000000 0.065964 0.000000
# 6 0.000000 0.000000 0.000000 -0.014189 0.000000 0.024019
#
#
# Mechanical properties :
#
#
# Convention : Reuss Voigt Hill
#
# Bulk Modulus (GPa) = 12.01653 53.76307 32.88980
# Shear Modulus (GPa) = 18.57829 35.67848 27.12838
#
# Velocity S-wave (km/s) = 2.89336 4.00961 3.49632
# Velocity P-wave (km/s) = 4.07146 6.75737 5.57848
#
# Compressibility (1/GPa) = 0.08321872
#
# Stress axis : x y z
#
# Youngs Moduli (GPa) = 95.64090 54.34706 15.69858
#
# Poissons Ratio (x) = 0.16453 0.09943
# Poissons Ratio (y) = 0.28955 -0.07366
# Poissons Ratio (z) = 0.60575 -0.25501
#
# Static dielectric constant tensor:
#      x y z
#    x 1.863820 0.000000 -0.017040 
#    y 0.000000 1.808590 0.000000 
#    z -0.017040 0.000000 1.985850 
# 
# From -- ./inp_files/22968.got.cif
#   From: 2010.05.17/outbox.cif.g08.bks.cpg/sg13_12_cif.got.tgz:22968.got - 2010.06.03 16:44:36.
