data_PCOD9227939
_publ_section_title
;
Structure prediction by ZEFSAII (Michael W. Deem and Ramdas Pophale) SiO2 
 PCOD9227939
Probable space group: P 2/C
;
_chemical_formula_sum "Si O2"
_cell_formula_units_Z 20
_cell_length_a 7.623984
_cell_length_b 22.893043
_cell_length_c 11.001300
_cell_angle_alpha 90.000000
_cell_angle_beta 155.517039
_cell_angle_gamma 90.000000
_cell_volume 795.743232
_symmetry_space_group_name_H-M "P 2/C"
_symmetry_group_IT_number 13
_symmetry_cell_setting 'monoclinic'
loop_
_space_group_symop_operation_xyz
x,y,z
-x,y,1/2-z
-x,-y,-z
x,-y,1/2+z
loop_
_atom_site_type_symbol
_atom_site_label
_atom_site_fract_x
_atom_site_fract_y
_atom_site_fract_z
Si Si1 0.412532 0.272469 0.420575
Si Si2 0.535406 0.451492 0.916868
Si Si3 0.093088 0.658885 0.084535
Si Si4 0.418276 0.860956 0.926375
Si Si5 0.912932 0.931233 0.429471
O O1 0.796947 0.293915 0.745134
O O2 0.491248 0.205794 0.433954
O O3 0.000000 0.271836 0.250000
O O4 0.293334 0.318955 0.240540
O O5 0.500000 0.470746 0.750000
O O6 0.150033 0.404814 0.680424
O O7 0.500000 0.500000 0.000000
O O8 0.000000 0.424762 0.250000
O O9 0.500000 0.657972 0.250000
O O10 0.000000 0.858742 0.750000
O O11 0.291310 0.899077 0.732809
O O12 0.776042 0.896790 0.223029
O O13 0.500000 0.921768 0.250000
O O14 0.000000 0.000000 0.500000
#
# Coordination Sequence:
#
# PCOD9227939 Si02
#       5
#     4   4   4   4   4
#     4   9  15  25  43  68  98 127 158 208 269 316
#     4  11  22  37  56  82 116 153 192 235 283 345
#     4   9  16  27  45  71 102 133 167 213 269 321
#     4   9  17  28  44  68  97 126 160 205 258 311
#     4  10  19  31  46  67  96 129 164 203 248 305
#
# _framework density 25.133734
#
# number of rings (size 3 to 8) (size 9 to 14) (size 15 to 20)
#    0.000    2.400    0.000    5.400    0.000    4.800 
#    0.000    0.000    0.000    0.000    0.000    7.000 
#    0.000    9.600    0.000    0.000    0.000    0.000 
#
# Total GULP energy -111739.157052 kJ/mol
# GULP energy per Si atom -5586.957853 kJ/mol
# Density = 2.507653 g / cm^3
# Si number density = 25.133734 Si / 1000 Ang^3
#
#
#
# Elastic Constant Matrix: (Units=GPa)
#
#
# Indices 1 2 3 4 5 6 
#
# 1 79.1754 32.1072 30.9537 0.0000 -14.2909 0.0000
# 2 32.1072 221.6654 89.6704 0.0000 -43.6809 0.0000
# 3 30.9537 89.6704 213.4814 0.0000 -31.9501 0.0000
# 4 0.0000 0.0000 0.0000 47.0787 0.0000 -10.0097
# 5 -14.2909 -43.6809 -31.9501 0.0000 52.7659 0.0000
# 6 0.0000 0.0000 0.0000 -10.0097 0.0000 26.2225
#
#
#
# Elastic Compliance Matrix: (Units=1/GPa)
#
#
# Indices 1 2 3 4 5 6 
#
# 1 0.013944 -0.001100 -0.001243 0.000000 0.002113 0.000000
# 2 -0.001100 0.006150 -0.001877 0.000000 0.003657 0.000000
# 3 -0.001243 -0.001877 0.005905 0.000000 0.001685 0.000000
# 4 0.000000 0.000000 0.000000 0.023117 0.000000 0.008824
# 5 0.002113 0.003657 0.001685 0.000000 0.023572 0.000000
# 6 0.000000 0.000000 0.000000 0.008824 0.000000 0.041504
#
#
# Mechanical properties :
#
#
# Convention : Reuss Voigt Hill
#
# Bulk Modulus (GPa) = 56.95186 91.08719 74.01953
# Shear Modulus (GPa) = 38.91486 49.31946 44.11716
#
# Velocity S-wave (km/s) = 3.93913 4.43457 4.19417
# Velocity P-wave (km/s) = 6.58769 7.90824 7.27798
#
# Compressibility (1/GPa) = 0.01755869
#
# Stress axis : x y z
#
# Youngs Moduli (GPa) = 71.71618 162.58842 169.34857
#
# Poissons Ratio (x) = 0.17891 0.21057
# Poissons Ratio (y) = 0.07892 0.31779
# Poissons Ratio (z) = 0.08917 0.30510
#
# Static dielectric constant tensor:
#      x y z
#    x 2.094510 0.000000 0.079090 
#    y 0.000000 2.064410 0.000000 
#    z 0.079090 0.000000 1.921650 
# 
# From -- ./inp_files/51629.got.cif
#   From: 2010.05.17/outbox.cif.g08.bks.cpg/sg13_26_cif.got.tgz:51629.got - 2010.06.03 16:44:36.
