data_PCOD9227674
_publ_section_title
;
Structure prediction by ZEFSAII (Michael W. Deem and Ramdas Pophale) SiO2 
 PCOD9227674
Probable space group: P 2/C
;
_chemical_formula_sum "Si O2"
_cell_formula_units_Z 26
_cell_length_a 18.685826
_cell_length_b 9.164608
_cell_length_c 26.737224
_cell_angle_alpha 90.000000
_cell_angle_beta 15.820672
_cell_angle_gamma 90.000000
_cell_volume 1248.279959
_symmetry_space_group_name_H-M "P 2/C"
_symmetry_group_IT_number 13
_symmetry_cell_setting 'monoclinic'
loop_
_space_group_symop_operation_xyz
x,y,z
-x,y,1/2-z
-x,-y,-z
x,-y,1/2+z
loop_
_atom_site_type_symbol
_atom_site_label
_atom_site_fract_x
_atom_site_fract_y
_atom_site_fract_z
Si Si1 0.000000 0.524340 0.750000
Si Si2 0.785184 0.309642 0.628198
Si Si3 0.500000 0.548594 0.750000
Si Si4 0.000000 0.027432 0.750000
Si Si5 0.861513 0.272390 0.199400
Si Si6 0.738814 0.212065 0.482775
Si Si7 0.057795 0.615602 0.365594
Si Si8 0.273633 0.734264 0.126892
O O1 0.802713 0.633352 0.912125
O O2 0.838191 0.415228 0.822945
O O3 0.637568 0.442244 0.698112
O O4 0.896182 0.359922 0.606760
O O5 0.007403 0.243870 0.442742
O O6 0.544844 0.204715 0.802148
O O7 0.747629 0.637542 0.562296
O O8 0.908432 0.133529 0.767824
O O9 0.777062 0.917835 0.918430
O O10 0.880334 0.448398 0.189480
O O11 0.562103 0.235376 0.411813
O O12 0.044420 0.205368 0.119298
O O13 0.246407 0.712182 0.204387
#
# Coordination Sequence:
#
# PCOD9227674 Si02
#       8
#     2   4   2   2   4   4   4   4
#     4  10  20  36  66  90 126 162 208 270 310 380
#     4  11  21  38  63  97 129 166 210 263 321 380
#     4  10  18  38  60 102 138 160 204 264 322 374
#     4  10  28  42  64  88 130 172 212 274 316 378
#     4  11  21  37  66  95 126 162 211 268 313 386
#     4  11  21  41  64  91 121 173 220 255 312 378
#     4  11  22  35  67 102 130 165 204 269 325 379
#     4  11  23  42  60  98 128 162 211 267 328 369
#
# _framework density 20.828661
#
# number of rings (size 3 to 8) (size 9 to 14) (size 15 to 20)
#    0.000    1.231    4.615    3.231    4.308    4.308 
#    0.000    0.769    6.769    0.000    0.000    0.000 
#    0.000    0.000    0.000    0.000    0.000    0.000 
#
# Total GULP energy -145215.599877 kJ/mol
# GULP energy per Si atom -5585.215380 kJ/mol
# Density = 2.078125 g / cm^3
# Si number density = 20.828661 Si / 1000 Ang^3
#
#
#
# Elastic Constant Matrix: (Units=GPa)
#
#
# Indices 1 2 3 4 5 6 
#
# 1 86.6455 8.1884 12.2551 0.0000 18.3283 0.0000
# 2 8.1884 57.0035 14.2829 0.0000 9.6476 0.0000
# 3 12.2551 14.2829 130.8278 0.0000 15.0794 0.0000
# 4 0.0000 0.0000 0.0000 0.8808 0.0000 0.8638
# 5 18.3283 9.6476 15.0794 0.0000 35.0319 0.0000
# 6 0.0000 0.0000 0.0000 0.8638 0.0000 3.8742
#
#
#
# Elastic Compliance Matrix: (Units=1/GPa)
#
#
# Indices 1 2 3 4 5 6 
#
# 1 0.013028 -0.000678 -0.000402 0.000000 -0.006456 0.000000
# 2 -0.000678 0.018719 -0.001501 0.000000 -0.004154 0.000000
# 3 -0.000402 -0.001501 0.008179 0.000000 -0.002897 0.000000
# 4 0.000000 0.000000 0.000000 1.453124 0.000000 -0.323984
# 5 -0.006456 -0.004154 -0.002897 0.000000 0.034314 0.000000
# 6 0.000000 0.000000 0.000000 -0.323984 0.000000 0.330351
#
#
# Mechanical properties :
#
#
# Convention : Reuss Voigt Hill
#
# Bulk Modulus (GPa) = 28.76579 38.21438 33.49009
# Shear Modulus (GPa) = 2.66743 23.94074 13.30408
#
# Velocity S-wave (km/s) = 1.13289 3.39398 2.53007
# Velocity P-wave (km/s) = 3.94359 5.80910 4.96475
#
# Compressibility (1/GPa) = 0.03476351
#
# Stress axis : x y z
#
# Youngs Moduli (GPa) = 76.75809 53.42042 122.26274
#
# Poissons Ratio (x) = 0.03622 0.04917
# Poissons Ratio (y) = 0.05204 0.18356
# Poissons Ratio (z) = 0.03087 0.08020
#
# Static dielectric constant tensor:
#      x y z
#    x 1.774110 0.000000 0.007010 
#    y 0.000000 1.713140 0.000000 
#    z 0.007010 0.000000 1.799410 
# 
# From -- ./inp_files/88027.got.cif
#   From: 2010.05.17/outbox.cif.g08.bks.cpg/sg13_45_cif.got.tgz:88027.got - 2010.06.03 16:44:36.
