data_PCOD9227866
_publ_section_title
;
Structure prediction by ZEFSAII (Michael W. Deem and Ramdas Pophale) SiO2 
 PCOD9227866
Probable space group: P 2/C
;
_chemical_formula_sum "Si O2"
_cell_formula_units_Z 32
_cell_length_a 13.060616
_cell_length_b 22.440846
_cell_length_c 5.526654
_cell_angle_alpha 90.000000
_cell_angle_beta 64.620315
_cell_angle_gamma 90.000000
_cell_volume 1463.481459
_symmetry_space_group_name_H-M "P 2/C"
_symmetry_group_IT_number 13
_symmetry_cell_setting 'monoclinic'
loop_
_space_group_symop_operation_xyz
x,y,z
-x,y,1/2-z
-x,-y,-z
x,-y,1/2+z
loop_
_atom_site_type_symbol
_atom_site_label
_atom_site_fract_x
_atom_site_fract_y
_atom_site_fract_z
Si Si1 0.375485 0.188687 0.945781
Si Si2 0.197895 0.628461 0.111835
Si Si3 0.878025 0.427175 0.305385
Si Si4 0.708958 0.760860 0.468138
Si Si5 0.826767 0.910033 0.821076
Si Si6 0.337112 0.018253 0.522823
Si Si7 0.663009 0.516444 0.503923
Si Si8 0.165691 0.120706 0.687139
O O1 0.500000 0.164278 0.750000
O O2 0.347757 0.230570 0.740253
O O3 0.366038 0.221768 0.217297
O O4 0.280231 0.136893 0.061100
O O5 0.148301 0.613470 0.429923
O O6 0.306620 0.585032 0.990252
O O7 0.125455 0.608770 0.946656
O O8 0.238006 0.696008 0.054669
O O9 0.781675 0.477879 0.377912
O O10 0.000000 0.454122 0.250000
O O11 0.808922 0.809849 0.356891
O O12 0.887264 0.899377 0.508522
O O13 0.888453 0.897433 0.007067
O O14 0.774058 0.975505 0.872934
O O15 0.288727 0.085203 0.568203
O O16 0.393898 0.998816 0.714058
O O17 0.608026 0.492653 0.801387
#
# Coordination Sequence:
#
# PCOD9227866 Si02
#       8
#     4   4   4   4   4   4   4   4
#     4  10  19  31  46  62  83 114 154 196 237 273
#     4  10  19  30  45  67  94 124 156 179 210 255
#     4  10  19  31  48  71 100 126 148 174 203 247
#     4  10  19  31  45  62  87 115 150 193 226 261
#     4   8  14  23  37  54  73  98 134 177 223 263
#     4   8  12  20  34  51  71  97 133 168 212 260
#     4   8  16  27  42  64  92 118 147 173 201 238
#     4   8  14  23  37  53  74 106 138 170 218 255
#
# _framework density 21.865670000000001
#
# number of rings (size 3 to 8) (size 9 to 14) (size 15 to 20)
#    0.000    3.000    0.000    1.500    0.000    4.500 
#    0.000    0.000    0.000   18.750    0.000    0.000 
#    0.000   90.000    0.000    0.000    0.000  312.500 
#
# Total GULP energy -178277.944618 kJ/mol
# GULP energy per Si atom -5571.185769 kJ/mol
# Density = 2.181590 g / cm^3
# Si number density = 21.865670 Si / 1000 Ang^3
#
#
#
# Elastic Constant Matrix: (Units=GPa)
#
#
# Indices 1 2 3 4 5 6 
#
# 1 59.7924 9.5616 43.3286 0.0000 17.3631 0.0000
# 2 9.5616 124.0022 25.4421 0.0000 8.7801 0.0000
# 3 43.3286 25.4421 188.4022 0.0000 51.4089 0.0000
# 4 0.0000 0.0000 0.0000 26.5910 0.0000 8.9710
# 5 17.3631 8.7801 51.4089 0.0000 44.2577 0.0000
# 6 0.0000 0.0000 0.0000 8.9710 0.0000 11.8538
#
#
#
# Elastic Compliance Matrix: (Units=1/GPa)
#
#
# Indices 1 2 3 4 5 6 
#
# 1 0.020526 -0.000575 -0.003626 0.000000 -0.003727 0.000000
# 2 -0.000575 0.008318 -0.000882 0.000000 -0.000400 0.000000
# 3 -0.003626 -0.000882 0.008528 0.000000 -0.008308 0.000000
# 4 0.000000 0.000000 0.000000 0.050501 0.000000 -0.038219
# 5 -0.003727 -0.000400 -0.008308 0.000000 0.033787 0.000000
# 6 0.000000 0.000000 0.000000 -0.038219 0.000000 0.113286
#
#
# Mechanical properties :
#
#
# Convention : Reuss Voigt Hill
#
# Bulk Modulus (GPa) = 36.75579 58.76238 47.75909
# Shear Modulus (GPa) = 19.67109 36.13147 27.90128
#
# Velocity S-wave (km/s) = 3.00264 4.06942 3.57603
# Velocity P-wave (km/s) = 5.37285 7.00092 6.24020
#
# Compressibility (1/GPa) = 0.02720660
#
# Stress axis : x y z
#
# Youngs Moduli (GPa) = 48.71793 120.22159 117.26282
#
# Poissons Ratio (x) = 0.06911 0.42520
# Poissons Ratio (y) = 0.02801 0.10341
# Poissons Ratio (z) = 0.17665 0.10601
#
# Static dielectric constant tensor:
#      x y z
#    x 1.811280 0.000000 0.030280 
#    y 0.000000 1.730840 0.000000 
#    z 0.030280 0.000000 1.905950 
# 
# From -- ./inp_files/5550.got.cif
#   From: 2010.05.17/outbox.cif.g08.bks.cpg/sg13_3_cif.got.tgz:5550.got - 2010.06.03 16:44:36.
