data_PCOD9227158
_publ_section_title
;
Structure prediction by ZEFSAII (Michael W. Deem and Ramdas Pophale) SiO2 
 PCOD9227158
Probable space group: P 2/C
;
_chemical_formula_sum "Si O2"
_cell_formula_units_Z 26
_cell_length_a 11.484453
_cell_length_b 10.259911
_cell_length_c 13.094059
_cell_angle_alpha 90.000000
_cell_angle_beta 69.516031
_cell_angle_gamma 90.000000
_cell_volume 1445.310773
_symmetry_space_group_name_H-M "P 2/C"
_symmetry_group_IT_number 13
_symmetry_cell_setting 'monoclinic'
loop_
_space_group_symop_operation_xyz
x,y,z
-x,y,1/2-z
-x,-y,-z
x,-y,1/2+z
loop_
_atom_site_type_symbol
_atom_site_label
_atom_site_fract_x
_atom_site_fract_y
_atom_site_fract_z
Si Si1 0.867605 0.051175 0.080553
Si Si2 0.126508 0.656853 0.989744
Si Si3 0.311153 0.163577 0.965950
Si Si4 0.833006 0.382315 0.589009
Si Si5 0.147627 0.749251 0.199395
Si Si6 0.500000 0.074718 0.750000
Si Si7 0.723531 0.018392 0.315915
O O1 0.842348 0.055386 0.209473
O O2 0.776173 0.943442 0.062374
O O3 0.841041 0.196783 0.051685
O O4 0.000000 0.000000 0.000000
O O5 0.154952 0.651757 0.101688
O O6 0.978140 0.643055 0.019937
O O7 0.187862 0.536717 0.912005
O O8 0.248998 0.302761 0.966157
O O9 0.436779 0.156261 0.861029
O O10 0.312281 0.114939 0.081835
O O11 0.814931 0.319284 0.706243
O O12 0.000000 0.787217 0.250000
O O13 0.234763 0.875261 0.157098
O O14 0.393602 0.993392 0.724425
#
# Coordination Sequence:
#
# PCOD9227158 Si02
#       7
#     4   4   4   4   4   2   4
#     4  11  19  34  55  90 123 152 186 238 297 357
#     4  10  20  33  55  84 125 152 185 235 296 364
#     4  11  21  36  60  85 113 154 204 245 296 351
#     4  10  20  35  53  85 122 154 189 236 293 366
#     4  10  18  33  56  84 115 156 186 229 306 362
#     4  10  22  40  56  86 116 154 206 262 296 344
#     4  11  22  34  62  88 114 155 199 254 293 355
#
# _framework density 17.989211999999998
#
# number of rings (size 3 to 8) (size 9 to 14) (size 15 to 20)
#    0.000    1.538    6.154    1.385    0.000    1.231 
#    0.000    1.538    0.000    4.615    0.000    0.000 
#    0.000    0.000    0.000    0.000    0.000    0.000 
#
# Total GULP energy -144860.601814 kJ/mol
# GULP energy per Si atom -5571.561608 kJ/mol
# Density = 1.794827 g / cm^3
# Si number density = 17.989212 Si / 1000 Ang^3
#
#
#
# Elastic Constant Matrix: (Units=GPa)
#
#
# Indices 1 2 3 4 5 6 
#
# 1 53.5806 13.9940 34.1285 0.0000 5.5710 0.0000
# 2 13.9940 99.6945 24.9931 0.0000 0.2002 0.0000
# 3 34.1285 24.9931 107.1962 0.0000 6.9128 0.0000
# 4 0.0000 0.0000 0.0000 16.0492 0.0000 5.2469
# 5 5.5710 0.2002 6.9128 0.0000 21.8218 0.0000
# 6 0.0000 0.0000 0.0000 5.2469 0.0000 10.1998
#
#
#
# Elastic Compliance Matrix: (Units=1/GPa)
#
#
# Indices 1 2 3 4 5 6 
#
# 1 0.023943 -0.001598 -0.007000 0.000000 -0.003880 0.000000
# 2 -0.001598 0.010771 -0.002064 0.000000 0.000963 0.000000
# 3 -0.007000 -0.002064 0.012171 0.000000 -0.002050 0.000000
# 4 0.000000 0.000000 0.000000 0.074906 0.000000 -0.038532
# 5 -0.003880 0.000963 -0.002050 0.000000 0.047457 0.000000
# 6 0.000000 0.000000 0.000000 -0.038532 0.000000 0.117862
#
#
# Mechanical properties :
#
#
# Convention : Reuss Voigt Hill
#
# Bulk Modulus (GPa) = 39.12496 45.18916 42.15706
# Shear Modulus (GPa) = 15.77514 22.10453 18.93984
#
# Velocity S-wave (km/s) = 2.96450 3.50918 3.24828
# Velocity P-wave (km/s) = 5.78913 6.44933 6.12812
#
# Compressibility (1/GPa) = 0.02555913
#
# Stress axis : x y z
#
# Youngs Moduli (GPa) = 41.76578 92.84525 82.16376
#
# Poissons Ratio (x) = 0.14838 0.57515
# Poissons Ratio (y) = 0.06675 0.16963
# Poissons Ratio (z) = 0.29236 0.19168
#
# Static dielectric constant tensor:
#      x y z
#    x 1.646600 0.000000 -0.007480 
#    y 0.000000 1.606010 0.000000 
#    z -0.007480 0.000000 1.688010 
# 
# From -- ./inp_files/49917.got.cif
#   From: 2010.05.17/outbox.cif.g08.bks.cpg/sg13_25_cif.got.tgz:49917.got - 2010.06.03 16:44:36.
