data_PCOD9227882
_publ_section_title
;
Structure prediction by ZEFSAII (Michael W. Deem and Ramdas Pophale) SiO2 
 PCOD9227882
Probable space group: P 2/C
;
_chemical_formula_sum "Si O2"
_cell_formula_units_Z 28
_cell_length_a 4.971898
_cell_length_b 16.616590
_cell_length_c 19.551745
_cell_angle_alpha 90.000000
_cell_angle_beta 110.445527
_cell_angle_gamma 90.000000
_cell_volume 1513.531337
_symmetry_space_group_name_H-M "P 2/C"
_symmetry_group_IT_number 13
_symmetry_cell_setting 'monoclinic'
loop_
_space_group_symop_operation_xyz
x,y,z
-x,y,1/2-z
-x,-y,-z
x,-y,1/2+z
loop_
_atom_site_type_symbol
_atom_site_label
_atom_site_fract_x
_atom_site_fract_y
_atom_site_fract_z
Si Si1 0.421084 0.758920 0.953455
Si Si2 0.189277 0.749950 0.637660
Si Si3 0.149001 0.536181 0.408391
Si Si4 0.500000 0.384080 0.250000
Si Si5 0.000000 0.505528 0.750000
Si Si6 0.692282 0.940902 0.563099
Si Si7 0.664195 0.069055 0.332044
Si Si8 0.241914 0.604077 0.015258
O O1 0.708152 0.752464 0.933213
O O2 0.358360 0.850500 0.971213
O O3 0.149168 0.743182 0.880046
O O4 0.366843 0.690528 0.005027
O O5 0.335626 0.674494 0.684446
O O6 0.278250 0.836180 0.675273
O O7 0.009531 0.541792 0.321880
O O8 0.485321 0.554309 0.433364
O O9 0.124336 0.446896 0.439656
O O10 0.000803 0.596990 0.448788
O O11 0.280061 0.439031 0.271782
O O12 0.556386 0.938564 0.625972
O O13 0.028311 0.960486 0.608527
O O14 0.500000 0.000000 0.500000
O O15 0.500000 0.035755 0.250000
#
# Coordination Sequence:
#
# PCOD9227882 Si02
#       8
#     4   4   4   2   2   4   4   4
#     4  10  20  33  53  76 105 138 182 218 273 319
#     4  10  19  30  47  77 109 140 170 211 258 342
#     4  10  21  34  51  72 104 133 180 222 263 316
#     4  12  20  30  48  70 112 140 172 204 270 340
#     4  12  24  34  48  76 104 146 172 228 282 316
#     4  10  21  35  55  84 116 147 184 232 275 336
#     4  10  19  34  53  79 115 152 183 214 274 338
#     4  10  19  35  53  73  98 140 179 217 259 320
#
# _framework density 18.499783000000001
#
# number of rings (size 3 to 8) (size 9 to 14) (size 15 to 20)
#    0.000    1.714    0.714    5.143    0.000    2.286 
#    0.000    0.000    0.000    0.000    7.429    0.000 
#    0.000    0.000    0.000    0.000    0.000    0.000 
#
# Total GULP energy -156077.639733 kJ/mol
# GULP energy per Si atom -5574.201419 kJ/mol
# Density = 1.845768 g / cm^3
# Si number density = 18.499783 Si / 1000 Ang^3
#
#
#
# Elastic Constant Matrix: (Units=GPa)
#
#
# Indices 1 2 3 4 5 6 
#
# 1 72.8233 -2.8075 -4.6630 0.0000 6.7632 0.0000
# 2 -2.8075 64.2445 26.0564 0.0000 3.9006 0.0000
# 3 -4.6630 26.0564 79.3421 0.0000 5.9482 0.0000
# 4 0.0000 0.0000 0.0000 85.4865 0.0000 41.0684
# 5 6.7632 3.9006 5.9482 0.0000 20.4610 0.0000
# 6 0.0000 0.0000 0.0000 41.0684 0.0000 38.5837
#
#
#
# Elastic Compliance Matrix: (Units=1/GPa)
#
#
# Indices 1 2 3 4 5 6 
#
# 1 0.014296 0.000507 0.001058 0.000000 -0.005130 0.000000
# 2 0.000507 0.018037 -0.005748 0.000000 -0.001935 0.000000
# 3 0.001058 -0.005748 0.014821 0.000000 -0.003562 0.000000
# 4 0.000000 0.000000 0.000000 0.023939 0.000000 -0.025480
# 5 -0.005130 -0.001935 -0.003562 0.000000 0.051973 0.000000
# 6 0.000000 0.000000 0.000000 -0.025480 0.000000 0.053039
#
#
# Mechanical properties :
#
#
# Convention : Reuss Voigt Hill
#
# Bulk Modulus (GPa) = 25.78227 28.17576 26.97902
# Shear Modulus (GPa) = 25.32938 42.09451 33.71195
#
# Velocity S-wave (km/s) = 3.70425 4.77530 4.27346
# Velocity P-wave (km/s) = 5.67997 6.75781 6.24220
#
# Compressibility (1/GPa) = 0.03878634
#
# Stress axis : x y z
#
# Youngs Moduli (GPa) = 69.95179 55.44274 67.47297
#
# Poissons Ratio (x) = -0.02811 -0.07140
# Poissons Ratio (y) = -0.03546 0.38787
# Poissons Ratio (z) = -0.07403 0.31871
#
# Static dielectric constant tensor:
#      x y z
#    x 1.647920 0.000000 0.025130 
#    y 0.000000 1.666090 0.000000 
#    z 0.025130 0.000000 1.655970 
# 
# From -- ./inp_files/61275.got.cif
#   From: 2010.05.17/outbox.cif.g08.bks.cpg/sg13_31_cif.got.tgz:61275.got - 2010.06.03 16:44:36.
