data_PCOD9227198
_publ_section_title
;
Structure prediction by ZEFSAII (Michael W. Deem and Ramdas Pophale) SiO2 
 PCOD9227198
Probable space group: P 2/C
;
_chemical_formula_sum "Si O2"
_cell_formula_units_Z 28
_cell_length_a 9.624926
_cell_length_b 11.747727
_cell_length_c 14.450419
_cell_angle_alpha 90.000000
_cell_angle_beta 107.764522
_cell_angle_gamma 90.000000
_cell_volume 1556.015452
_symmetry_space_group_name_H-M "P 2/C"
_symmetry_group_IT_number 13
_symmetry_cell_setting 'monoclinic'
loop_
_space_group_symop_operation_xyz
x,y,z
-x,y,1/2-z
-x,-y,-z
x,-y,1/2+z
loop_
_atom_site_type_symbol
_atom_site_label
_atom_site_fract_x
_atom_site_fract_y
_atom_site_fract_z
Si Si1 0.919217 0.518831 0.637837
Si Si2 0.834825 0.850739 0.684071
Si Si3 0.131347 0.912204 0.017951
Si Si4 0.015303 0.327909 0.984000
Si Si5 0.656657 0.050122 0.313173
Si Si6 0.658286 0.312516 0.375080
Si Si7 0.656599 0.619677 0.664750
O O1 0.984734 0.402733 0.609060
O O2 0.748312 0.522651 0.631294
O O3 0.000000 0.549399 0.750000
O O4 0.947468 0.605727 0.558713
O O5 0.833919 0.903511 0.583024
O O6 0.761078 0.929227 0.746541
O O7 0.742390 0.735574 0.658781
O O8 0.000000 0.826592 0.750000
O O9 0.069940 0.790606 0.039739
O O10 0.265125 0.964670 0.101420
O O11 0.000000 0.000000 0.000000
O O12 0.186970 0.316425 0.043127
O O13 0.500000 0.006854 0.250000
O O14 0.632576 0.178163 0.349064
O O15 0.513808 0.364144 0.392955
O O16 0.669755 0.380289 0.279560
#
# Coordination Sequence:
#
# PCOD9227198 Si02
#       7
#     4   4   4   4   4   4   4
#     4  11  22  39  63  85 118 162 201 257 304 360
#     4  11  19  34  59  87 117 160 202 245 306 361
#     4  12  22  37  63  90 122 162 204 256 305 368
#     4  11  23  38  61  91 118 156 214 248 298 370
#     4  11  22  38  58  93 128 161 204 259 308 366
#     4  10  18  35  61  90 120 150 203 257 297 372
#     4  10  18  33  61  88 115 152 201 252 298 356
#
# _framework density 17.994679999999999
#
# number of rings (size 3 to 8) (size 9 to 14) (size 15 to 20)
#    0.000    1.143    8.571    1.286    0.000    1.143 
#    2.571    0.000    0.000    0.000    0.000    0.000 
#    0.000    0.000    0.000    0.000    0.000    0.000 
#
# Total GULP energy -156184.729375 kJ/mol
# GULP energy per Si atom -5578.026049 kJ/mol
# Density = 1.795372 g / cm^3
# Si number density = 17.994680 Si / 1000 Ang^3
#
#
#
# Elastic Constant Matrix: (Units=GPa)
#
#
# Indices 1 2 3 4 5 6 
#
# 1 107.1777 10.9789 24.4196 0.0000 -2.7417 0.0000
# 2 10.9789 63.7242 16.5783 0.0000 -13.0366 0.0000
# 3 24.4196 16.5783 58.1837 0.0000 -7.9657 0.0000
# 4 0.0000 0.0000 0.0000 14.4827 0.0000 5.7882
# 5 -2.7417 -13.0366 -7.9657 0.0000 34.2741 0.0000
# 6 0.0000 0.0000 0.0000 5.7882 0.0000 12.3137
#
#
#
# Elastic Compliance Matrix: (Units=1/GPa)
#
#
# Indices 1 2 3 4 5 6 
#
# 1 0.010352 -0.000786 -0.004181 0.000000 -0.000443 0.000000
# 2 -0.000786 0.018075 -0.004015 0.000000 0.005879 0.000000
# 3 -0.004181 -0.004015 0.020483 0.000000 0.002899 0.000000
# 4 0.000000 0.000000 0.000000 0.085021 0.000000 -0.039965
# 5 -0.000443 0.005879 0.002899 0.000000 0.032051 0.000000
# 6 0.000000 0.000000 0.000000 -0.039965 0.000000 0.099996
#
#
# Mechanical properties :
#
#
# Convention : Reuss Voigt Hill
#
# Bulk Modulus (GPa) = 32.31606 37.00436 34.66021
# Shear Modulus (GPa) = 16.99183 24.02137 20.50660
#
# Velocity S-wave (km/s) = 3.07623 3.65761 3.37945
# Velocity P-wave (km/s) = 5.53311 6.20050 5.87629
#
# Compressibility (1/GPa) = 0.03094437
#
# Stress axis : x y z
#
# Youngs Moduli (GPa) = 96.59766 55.32363 48.82149
#
# Poissons Ratio (x) = 0.04350 0.20414
# Poissons Ratio (y) = 0.07596 0.19604
# Poissons Ratio (z) = 0.40391 0.22214
#
# Static dielectric constant tensor:
#      x y z
#    x 1.638400 0.000000 0.034020 
#    y 0.000000 1.630160 0.000000 
#    z 0.034020 0.000000 1.528960 
# 
# From -- ./inp_files/46998.got.cif
#   From: 2010.05.17/outbox.cif.g08.bks.cpg/sg13_24_cif.got.tgz:46998.got - 2010.06.03 16:44:36.
