data_PCOD9227893
_publ_section_title
;
Structure prediction by ZEFSAII (Michael W. Deem and Ramdas Pophale) SiO2 
 PCOD9227893
Probable space group: P 2/C
;
_chemical_formula_sum "Si O2"
_cell_formula_units_Z 24
_cell_length_a 26.955421
_cell_length_b 4.981590
_cell_length_c 23.965929
_cell_angle_alpha 90.000000
_cell_angle_beta 23.615214
_cell_angle_gamma 90.000000
_cell_volume 1289.172443
_symmetry_space_group_name_H-M "P 2/C"
_symmetry_group_IT_number 13
_symmetry_cell_setting 'monoclinic'
loop_
_space_group_symop_operation_xyz
x,y,z
-x,y,1/2-z
-x,-y,-z
x,-y,1/2+z
loop_
_atom_site_type_symbol
_atom_site_label
_atom_site_fract_x
_atom_site_fract_y
_atom_site_fract_z
Si Si1 0.841062 0.183512 0.757871
Si Si2 0.582670 0.772357 0.348874
Si Si3 0.038059 0.861504 0.148777
Si Si4 0.033075 0.307013 0.414957
Si Si5 0.582787 0.274870 0.978658
Si Si6 0.168363 0.658570 0.467850
O O1 0.877051 0.494072 0.712006
O O2 0.914169 0.102223 0.738713
O O3 0.898418 0.979004 0.652116
O O4 0.694226 0.178067 0.902797
O O5 0.466884 0.572797 0.459539
O O6 0.624215 0.734116 0.370773
O O7 0.533150 0.074438 0.395543
O O8 0.690181 0.697448 0.195050
O O9 0.124040 0.636659 0.031021
O O10 0.000000 0.782835 0.250000
O O11 0.117128 0.134536 0.066465
O O12 0.000000 0.500000 0.500000
O O13 0.908920 0.263553 0.507864
#
# Coordination Sequence:
#
# PCOD9227893 Si02
#       6
#     4   4   4   4   4   4
#     4  10  20  33  51  75 101 135 172 209 258 309
#     4  10  20  33  51  76 107 142 170 199 244 306
#     4  10  21  37  57  77  99 132 174 226 274 305
#     4  10  19  30  49  76 105 131 162 211 261 310
#     4  10  20  33  51  75 108 143 170 198 242 308
#     4  10  20  34  54  78 103 134 173 214 261 313
#
# _framework density 18.616595
#
# number of rings (size 3 to 8) (size 9 to 14) (size 15 to 20)
#    0.000    2.000    0.000    4.000    0.000    5.333 
#    0.000    0.000    0.000    6.000    0.000    0.000 
#    0.000    0.000    0.000    0.000    0.000    0.000 
#
# Total GULP energy -133800.096015 kJ/mol
# GULP energy per Si atom -5575.004001 kJ/mol
# Density = 1.857422 g / cm^3
# Si number density = 18.616595 Si / 1000 Ang^3
#
#
#
# Elastic Constant Matrix: (Units=GPa)
#
#
# Indices 1 2 3 4 5 6 
#
# 1 52.5362 -3.4448 31.6777 0.0000 1.1028 0.0000
# 2 -3.4448 75.9370 -4.6878 0.0000 -3.7237 0.0000
# 3 31.6777 -4.6878 68.0636 0.0000 -3.3380 0.0000
# 4 0.0000 0.0000 0.0000 18.0830 0.0000 3.1635
# 5 1.1028 -3.7237 -3.3380 0.0000 17.6854 0.0000
# 6 0.0000 0.0000 0.0000 3.1635 0.0000 17.6309
#
#
#
# Elastic Compliance Matrix: (Units=1/GPa)
#
#
# Indices 1 2 3 4 5 6 
#
# 1 0.026749 0.000238 -0.012629 0.000000 -0.004002 0.000000
# 2 0.000238 0.013385 0.000958 0.000000 0.002984 0.000000
# 3 -0.012629 0.000958 0.020878 0.000000 0.004930 0.000000
# 4 0.000000 0.000000 0.000000 0.057093 0.000000 -0.010244
# 5 -0.004002 0.002984 0.004930 0.000000 0.058352 0.000000
# 6 0.000000 0.000000 0.000000 -0.010244 0.000000 0.058557
#
#
# Mechanical properties :
#
#
# Convention : Reuss Voigt Hill
#
# Bulk Modulus (GPa) = 26.21660 27.06967 26.64314
# Shear Modulus (GPa) = 18.47773 22.21264 20.34518
#
# Velocity S-wave (km/s) = 3.15388 3.45797 3.30942
# Velocity P-wave (km/s) = 5.23217 5.52409 5.38011
#
# Compressibility (1/GPa) = 0.03814377
#
# Stress axis : x y z
#
# Youngs Moduli (GPa) = 37.38435 74.71023 47.89799
#
# Poissons Ratio (x) = -0.01775 0.60492
# Poissons Ratio (y) = -0.00888 -0.04587
# Poissons Ratio (z) = 0.47214 -0.07155
#
# Static dielectric constant tensor:
#      x y z
#    x 1.661160 0.000000 0.016800 
#    y 0.000000 1.664520 0.000000 
#    z 0.016800 0.000000 1.652830 
# 
# From -- ./inp_files/89330.got.cif
#   From: 2010.05.17/outbox.cif.g08.bks.cpg/sg13_45_cif.got.tgz:89330.got - 2010.06.03 16:44:36.
