data_PCOD9227041
_publ_section_title
;
Structure prediction by ZEFSAII (Michael W. Deem and Ramdas Pophale) SiO2 
 PCOD9227041
Probable space group: P 2/C
;
_chemical_formula_sum "Si O2"
_cell_formula_units_Z 20
_cell_length_a 12.958388
_cell_length_b 6.884245
_cell_length_c 8.843006
_cell_angle_alpha 90.000000
_cell_angle_beta 98.894405
_cell_angle_gamma 90.000000
_cell_volume 779.387001
_symmetry_space_group_name_H-M "P 2/C"
_symmetry_group_IT_number 13
_symmetry_cell_setting 'monoclinic'
loop_
_space_group_symop_operation_xyz
x,y,z
-x,y,1/2-z
-x,-y,-z
x,-y,1/2+z
loop_
_atom_site_type_symbol
_atom_site_label
_atom_site_fract_x
_atom_site_fract_y
_atom_site_fract_z
Si Si1 0.512466 0.215752 0.933567
Si Si2 0.723789 0.872014 0.397861
Si Si3 0.291732 0.730019 0.453671
Si Si4 0.942542 0.379482 0.575482
Si Si5 0.952639 0.130046 0.074623
O O1 0.500000 0.203943 0.750000
O O2 0.636394 0.249924 0.969648
O O3 0.413870 0.338446 0.973146
O O4 0.500000 0.000000 0.000000
O O5 0.726251 0.817227 0.221046
O O6 0.832823 0.845495 0.502981
O O7 0.702651 0.101119 0.418100
O O8 0.185155 0.610899 0.458797
O O9 0.975404 0.622337 0.558673
O O10 0.000000 0.359085 0.750000
O O11 0.952494 0.124748 0.536480
O O12 0.000000 0.110033 0.250000
#
# Coordination Sequence:
#
# PCOD9227041 Si02
#       5
#     4   4   4   4   4
#     4   8  16  29  50  83 117 151 180 234 290 346
#     4  10  18  32  56  88 121 149 189 238 292 348
#     4  10  19  34  57  86 120 152 191 239 297 356
#     4  12  25  42  57  81 116 157 202 249 301 360
#     4  12  22  35  58  88 119 153 194 243 298 354
#
# _framework density 25.661193000000001
#
# number of rings (size 3 to 8) (size 9 to 14) (size 15 to 20)
#    0.000    1.600    4.000    2.400    0.000    0.000 
#    0.000    0.000    0.000    1.200    0.000    0.000 
#    0.000    0.000    0.000    0.000    0.000    0.000 
#
# Total GULP energy -111502.762545 kJ/mol
# GULP energy per Si atom -5575.138127 kJ/mol
# Density = 2.560279 g / cm^3
# Si number density = 25.661193 Si / 1000 Ang^3
#
#
#
# Elastic Constant Matrix: (Units=GPa)
#
#
# Indices 1 2 3 4 5 6 
#
# 1 246.4001 68.3165 70.7554 0.0000 21.5673 0.0000
# 2 68.3165 169.4804 28.6046 0.0000 -14.2590 0.0000
# 3 70.7554 28.6046 67.3803 0.0000 3.5325 0.0000
# 4 0.0000 0.0000 0.0000 13.4933 0.0000 -5.1251
# 5 21.5673 -14.2590 3.5325 0.0000 38.8466 0.0000
# 6 0.0000 0.0000 0.0000 -5.1251 0.0000 52.5921
#
#
#
# Elastic Compliance Matrix: (Units=1/GPa)
#
#
# Indices 1 2 3 4 5 6 
#
# 1 0.006662 -0.002011 -0.005938 0.000000 -0.003897 0.000000
# 2 -0.002011 0.007233 -0.001162 0.000000 0.003877 0.000000
# 3 -0.005938 -0.001162 0.021522 0.000000 0.000913 0.000000
# 4 0.000000 0.000000 0.000000 0.076959 0.000000 0.007500
# 5 -0.003897 0.003877 0.000913 0.000000 0.029246 0.000000
# 6 0.000000 0.000000 0.000000 0.007500 0.000000 0.019745
#
#
# Mechanical properties :
#
#
# Convention : Reuss Voigt Hill
#
# Bulk Modulus (GPa) = 58.15556 90.95711 74.55633
# Shear Modulus (GPa) = 26.98002 42.02536 34.50269
#
# Velocity S-wave (km/s) = 3.24604 4.05124 3.67079
# Velocity P-wave (km/s) = 6.06309 7.57666 6.86174
#
# Compressibility (1/GPa) = 0.01719526
#
# Stress axis : x y z
#
# Youngs Moduli (GPa) = 150.09894 138.24654 46.46432
#
# Poissons Ratio (x) = 0.27804 0.27590
# Poissons Ratio (y) = 0.30188 0.05400
# Poissons Ratio (z) = 0.89127 0.16066
#
# Static dielectric constant tensor:
#      x y z
#    x 2.038470 0.000000 -0.048200 
#    y 0.000000 2.315190 0.000000 
#    z -0.048200 0.000000 1.747260 
# 
# From -- ./inp_files/35491.got.cif
#   From: 2010.05.17/outbox.cif.g08.bks.cpg/sg13_18_cif.got.tgz:35491.got - 2010.06.03 16:44:36.
