data_PCOD9227701
_publ_section_title
;
Structure prediction by ZEFSAII (Michael W. Deem and Ramdas Pophale) SiO2 
 PCOD9227701
Probable space group: P 2/C
;
_chemical_formula_sum "Si O2"
_cell_formula_units_Z 22
_cell_length_a 21.315330
_cell_length_b 8.597384
_cell_length_c 14.076390
_cell_angle_alpha 90.000000
_cell_angle_beta 156.087841
_cell_angle_gamma 90.000000
_cell_volume 1045.597222
_symmetry_space_group_name_H-M "P 2/C"
_symmetry_group_IT_number 13
_symmetry_cell_setting 'monoclinic'
loop_
_space_group_symop_operation_xyz
x,y,z
-x,y,1/2-z
-x,-y,-z
x,-y,1/2+z
loop_
_atom_site_type_symbol
_atom_site_label
_atom_site_fract_x
_atom_site_fract_y
_atom_site_fract_z
Si Si1 0.500000 0.042448 0.250000
Si Si2 0.923020 0.829198 0.911051
Si Si3 0.326838 0.367551 0.550898
Si Si4 0.771263 0.278279 0.599477
Si Si5 0.260641 0.861678 0.649961
Si Si6 0.410562 0.160813 0.812688
O O1 0.645923 0.156190 0.466963
O O2 0.529774 0.938221 0.197675
O O3 0.794512 0.756037 0.662798
O O4 0.840930 0.824161 0.899874
O O5 0.073585 0.722976 0.125059
O O6 0.000000 0.000000 0.000000
O O7 0.500000 0.350029 0.750000
O O8 0.284662 0.545812 0.480176
O O9 0.340396 0.320099 0.679388
O O10 0.797443 0.212300 0.528483
O O11 0.279513 0.048451 0.671998
O O12 0.440027 0.812309 0.915685
#
# Coordination Sequence:
#
# PCOD9227701 Si02
#       6
#     2   4   4   4   4   4
#     4  10  18  38  62  94 122 174 214 254 304 390
#     4  12  24  44  68  93 127 168 220 265 311 375
#     4  12  23  43  64  93 131 170 210 253 325 390
#     4  11  24  38  63  94 133 164 209 261 325 373
#     4  10  21  39  63  95 126 162 213 267 311 367
#     4  10  19  37  66  93 124 164 222 254 306 375
#
# _framework density 21.040607000000001
#
# number of rings (size 3 to 8) (size 9 to 14) (size 15 to 20)
#    0.000    1.091    3.636    4.364    0.000    0.727 
#    0.000    3.636    0.000    0.000    0.000    0.000 
#    0.000    0.000    0.000    0.000    0.000    0.000 
#
# Total GULP energy -122823.810138 kJ/mol
# GULP energy per Si atom -5582.900461 kJ/mol
# Density = 2.099272 g / cm^3
# Si number density = 21.040607 Si / 1000 Ang^3
#
#
#
# Elastic Constant Matrix: (Units=GPa)
#
#
# Indices 1 2 3 4 5 6 
#
# 1 22.3614 -16.1453 -9.2935 0.0000 3.8896 0.0000
# 2 -16.1453 93.8987 29.8624 0.0000 8.1564 0.0000
# 3 -9.2935 29.8624 116.6548 0.0000 0.4920 0.0000
# 4 0.0000 0.0000 0.0000 41.0594 0.0000 -0.0337
# 5 3.8896 8.1564 0.4920 0.0000 23.0692 0.0000
# 6 0.0000 0.0000 0.0000 -0.0337 0.0000 9.6716
#
#
#
# Elastic Compliance Matrix: (Units=1/GPa)
#
#
# Indices 1 2 3 4 5 6 
#
# 1 0.054923 0.009959 0.001880 0.000000 -0.012822 0.000000
# 2 0.009959 0.013788 -0.002709 0.000000 -0.006496 0.000000
# 3 0.001880 -0.002709 0.009414 0.000000 0.000440 0.000000
# 4 0.000000 0.000000 0.000000 0.024355 0.000000 0.000085
# 5 -0.012822 -0.006496 0.000440 0.000000 0.047797 0.000000
# 6 0.000000 0.000000 0.000000 0.000085 0.000000 0.103396
#
#
# Mechanical properties :
#
#
# Convention : Reuss Voigt Hill
#
# Bulk Modulus (GPa) = 10.37500 26.86246 18.61873
# Shear Modulus (GPa) = 18.68882 29.99277 24.34079
#
# Velocity S-wave (km/s) = 2.98355 3.77964 3.40494
# Velocity P-wave (km/s) = 4.10005 5.64289 4.93217
#
# Compressibility (1/GPa) = 0.09638554
#
# Stress axis : x y z
#
# Youngs Moduli (GPa) = 18.20747 72.52686 106.22883
#
# Poissons Ratio (x) = -0.72232 -0.19972
# Poissons Ratio (y) = -0.18134 0.28775
# Poissons Ratio (z) = -0.03423 0.19646
#
# Static dielectric constant tensor:
#      x y z
#    x 1.789560 0.000000 0.007260 
#    y 0.000000 1.770210 0.000000 
#    z 0.007260 0.000000 1.797840 
# 
# From -- ./inp_files/58751.got.cif
#   From: 2010.05.17/outbox.cif.g08.bks.cpg/sg13_30_cif.got.tgz:58751.got - 2010.06.03 16:44:36.
