data_PCOD9227078
_publ_section_title
;
Structure prediction by ZEFSAII (Michael W. Deem and Ramdas Pophale) SiO2 
 PCOD9227078
Probable space group: P 2/C
;
_chemical_formula_sum "Si O2"
_cell_formula_units_Z 24
_cell_length_a 16.982480
_cell_length_b 7.793837
_cell_length_c 24.066153
_cell_angle_alpha 90.000000
_cell_angle_beta 18.481789
_cell_angle_gamma 90.000000
_cell_volume 1009.770740
_symmetry_space_group_name_H-M "P 2/C"
_symmetry_group_IT_number 13
_symmetry_cell_setting 'monoclinic'
loop_
_space_group_symop_operation_xyz
x,y,z
-x,y,1/2-z
-x,-y,-z
x,-y,1/2+z
loop_
_atom_site_type_symbol
_atom_site_label
_atom_site_fract_x
_atom_site_fract_y
_atom_site_fract_z
Si Si1 0.965761 0.206807 0.520076
Si Si2 0.938885 0.209052 0.415080
Si Si3 0.532760 0.805415 0.101873
Si Si4 0.494717 0.178892 0.320097
Si Si5 0.456915 0.699903 0.527411
Si Si6 0.008292 0.144464 0.808631
O O1 0.244787 0.274020 0.342330
O O2 0.854089 0.239398 0.534107
O O3 0.749545 0.264349 0.706210
O O4 0.000000 0.000000 0.500000
O O5 0.738425 0.275808 0.504965
O O6 0.974012 0.009013 0.375516
O O7 0.219675 0.272218 0.224365
O O8 0.616061 0.780197 0.983296
O O9 0.508087 0.001697 0.141318
O O10 0.500000 0.144053 0.250000
O O11 0.232701 0.261460 0.515031
O O12 0.500000 0.500000 0.500000
O O13 0.718205 0.782078 0.368381
O O14 0.000000 0.086882 0.750000
#
# Coordination Sequence:
#
# PCOD9227078 Si02
#       6
#     4   4   4   4   4   4
#     4  10  18  33  60  94 124 148 185 243 301 357
#     4  11  21  38  63  92 118 153 196 246 300 354
#     4  10  19  36  59  84 117 155 191 236 293 353
#     4  10  18  32  59  97 126 149 185 245 305 352
#     4  12  26  41  57  82 120 165 203 245 295 350
#     4  11  21  36  60  89 118 152 196 247 296 350
#
# _framework density 23.767769999999999
#
# number of rings (size 3 to 8) (size 9 to 14) (size 15 to 20)
#    0.000    1.333    0.000   11.500    0.000    1.333 
#    0.000    0.833    0.000    4.000    0.000    0.000 
#    0.000    0.000    0.000    0.000    0.000    0.000 
#
# Total GULP energy -134020.215251 kJ/mol
# GULP energy per Si atom -5584.175635 kJ/mol
# Density = 2.371367 g / cm^3
# Si number density = 23.767770 Si / 1000 Ang^3
#
#
#
# Elastic Constant Matrix: (Units=GPa)
#
#
# Indices 1 2 3 4 5 6 
#
# 1 112.8828 7.1728 -3.2242 0.0000 0.8021 0.0000
# 2 7.1728 24.9979 -4.3815 0.0000 -9.7975 0.0000
# 3 -3.2242 -4.3815 116.5919 0.0000 -25.5746 0.0000
# 4 0.0000 0.0000 0.0000 -22.3268 0.0000 3.4693
# 5 0.8021 -9.7975 -25.5746 0.0000 62.9845 0.0000
# 6 0.0000 0.0000 0.0000 3.4693 0.0000 -5.7797
#
#
#
# Elastic Compliance Matrix: (Units=1/GPa)
#
#
# Indices 1 2 3 4 5 6 
#
# 1 0.009041 -0.002801 0.000026 0.000000 -0.000540 0.000000
# 2 -0.002801 0.044697 0.003442 0.000000 0.008386 0.000000
# 3 0.000026 0.003442 0.009687 0.000000 0.004468 0.000000
# 4 0.000000 0.000000 0.000000 -0.049397 0.000000 -0.029651
# 5 -0.000540 0.008386 0.004468 0.000000 0.019003 0.000000
# 6 0.000000 0.000000 0.000000 -0.029651 0.000000 -0.190818
#
#
# Mechanical properties :
#
#
# Convention : Reuss Voigt Hill
#
# Bulk Modulus (GPa) = 15.44191 28.17853 21.81022
# Shear Modulus (GPa) = -36.35490 23.96930 -6.19280
#
# Velocity S-wave (km/s) = -3.91524 3.17910 -1.61592
# Velocity P-wave (km/s) = 3.73198 5.03558 2.39054
#
# Compressibility (1/GPa) = 0.06475882
#
# Stress axis : x y z
#
# Youngs Moduli (GPa) = 110.60301 22.37274 103.22948
#
# Poissons Ratio (x) = 0.06268 -0.00271
# Poissons Ratio (y) = 0.30985 -0.35529
# Poissons Ratio (z) = -0.00290 -0.07700
#
# Static dielectric constant tensor:
#      x y z
#    x 1.913210 0.000000 -0.135950 
#    y 0.000000 1.938590 0.000000 
#    z -0.135950 0.000000 2.091570 
# 
# From -- ./inp_files/87986.got.cif
#   From: 2010.05.17/outbox.cif.g08.bks.cpg/sg13_44_cif.got.tgz:87986.got - 2010.06.03 16:44:36.
