data_PCOD9227317
_publ_section_title
;
Structure prediction by ZEFSAII (Michael W. Deem and Ramdas Pophale) SiO2 
 PCOD9227317
Probable space group: P 2/C
;
_chemical_formula_sum "Si O2"
_cell_formula_units_Z 30
_cell_length_a 24.704123
_cell_length_b 12.540628
_cell_length_c 14.547558
_cell_angle_alpha 90.000000
_cell_angle_beta 16.202133
_cell_angle_gamma 90.000000
_cell_volume 1257.548746
_symmetry_space_group_name_H-M "P 2/C"
_symmetry_group_IT_number 13
_symmetry_cell_setting 'monoclinic'
loop_
_space_group_symop_operation_xyz
x,y,z
-x,y,1/2-z
-x,-y,-z
x,-y,1/2+z
loop_
_atom_site_type_symbol
_atom_site_label
_atom_site_fract_x
_atom_site_fract_y
_atom_site_fract_z
Si Si1 0.247933 0.393561 0.601948
Si Si2 0.292146 0.537868 0.375680
Si Si3 0.795319 0.038602 0.287384
Si Si4 0.721282 0.073550 0.076190
Si Si5 0.000000 0.382593 0.750000
Si Si6 0.296178 0.918093 0.247558
Si Si7 0.948946 0.752360 0.495618
Si Si8 0.339914 0.314692 0.642040
O O1 0.272948 0.509706 0.514573
O O2 0.053173 0.331972 0.891622
O O3 0.256976 0.391454 0.697098
O O4 0.429861 0.325896 0.260230
O O5 0.139245 0.456657 0.581304
O O6 0.277907 0.648777 0.345187
O O7 0.500000 0.500000 0.000000
O O8 0.660675 0.974788 0.576352
O O9 0.748966 0.000114 0.261242
O O10 0.796409 0.166414 0.288162
O O11 0.000000 0.000000 0.000000
O O12 0.505575 0.107968 0.456476
O O13 0.803774 0.977790 0.003873
O O14 0.876175 0.167291 0.820287
O O15 0.883206 0.308688 0.011727
O O16 0.255143 0.803374 0.269755
#
# Coordination Sequence:
#
# PCOD9227317 Si02
#       8
#     4   4   4   4   2   4   4   4
#     4   9  18  33  61  83 107 147 201 239 292 363
#     4   9  20  38  57  87 116 143 196 257 299 358
#     4  10  21  34  53  82 122 153 194 245 286 345
#     4  10  21  35  54  85 121 153 200 247 288 344
#     4  10  20  36  62  84 112 156 202 244 306 372
#     4  11  21  34  57  85 116 162 200 239 293 359
#     4  10  18  36  56  84 111 156 200 238 291 354
#     4  10  18  34  59  84 110 151 195 241 300 351
#
# _framework density 23.855933
#
# number of rings (size 3 to 8) (size 9 to 14) (size 15 to 20)
#    0.000    2.133    1.333    2.800    1.867    1.600 
#    0.000    8.000    0.000    0.000    0.000    0.000 
#    0.000    0.000    0.000    0.000    0.000    0.000 
#
# Total GULP energy -167106.109181 kJ/mol
# GULP energy per Si atom -5570.203639 kJ/mol
# Density = 2.380164 g / cm^3
# Si number density = 23.855933 Si / 1000 Ang^3
#
#
#
# Elastic Constant Matrix: (Units=GPa)
#
#
# Indices 1 2 3 4 5 6 
#
# 1 56.9326 -8.5850 -0.7290 0.0000 5.3231 0.0000
# 2 -8.5850 37.4947 14.7646 0.0000 2.1093 0.0000
# 3 -0.7290 14.7646 32.1493 0.0000 -8.6098 0.0000
# 4 0.0000 0.0000 0.0000 22.5175 0.0000 1.3945
# 5 5.3231 2.1093 -8.6098 0.0000 25.1097 0.0000
# 6 0.0000 0.0000 0.0000 1.3945 0.0000 20.3410
#
#
#
# Elastic Compliance Matrix: (Units=1/GPa)
#
#
# Indices 1 2 3 4 5 6 
#
# 1 0.019016 0.006282 -0.004046 0.000000 -0.005946 0.000000
# 2 0.006282 0.036437 -0.019564 0.000000 -0.011101 0.000000
# 3 -0.004046 -0.019564 0.044780 0.000000 0.017856 0.000000
# 4 0.000000 0.000000 0.000000 0.044599 0.000000 -0.003058
# 5 -0.005946 -0.011101 0.017856 0.000000 0.048141 0.000000
# 6 0.000000 0.000000 0.000000 -0.003058 0.000000 0.049371
#
#
# Mechanical properties :
#
#
# Convention : Reuss Voigt Hill
#
# Bulk Modulus (GPa) = 15.24951 15.27532 15.26241
# Shear Modulus (GPa) = 16.73020 21.66869 19.19945
#
# Velocity S-wave (km/s) = 2.65108 3.01710 2.83999
# Velocity P-wave (km/s) = 3.97205 4.30746 4.14315
#
# Compressibility (1/GPa) = 0.06557586
#
# Stress axis : x y z
#
# Youngs Moduli (GPa) = 52.58715 27.44445 22.33146
#
# Poissons Ratio (x) = -0.17240 0.09036
# Poissons Ratio (y) = -0.33035 0.43690
# Poissons Ratio (z) = 0.21278 0.53693
#
# Static dielectric constant tensor:
#      x y z
#    x 1.944660 0.000000 0.068670 
#    y 0.000000 1.971910 0.000000 
#    z 0.068670 0.000000 2.152960 
# 
# From -- ./inp_files/59626.got.cif
#   From: 2010.05.17/outbox.cif.g08.bks.cpg/sg13_30_cif.got.tgz:59626.got - 2010.06.03 16:44:36.
