data_PCOD9227254
_publ_section_title
;
Structure prediction by ZEFSAII (Michael W. Deem and Ramdas Pophale) SiO2 
 PCOD9227254
Probable space group: P 2/C
;
_chemical_formula_sum "Si O2"
_cell_formula_units_Z 28
_cell_length_a 18.266372
_cell_length_b 14.136739
_cell_length_c 9.090733
_cell_angle_alpha 90.000000
_cell_angle_beta 43.801225
_cell_angle_gamma 90.000000
_cell_volume 1624.823018
_symmetry_space_group_name_H-M "P 2/C"
_symmetry_group_IT_number 13
_symmetry_cell_setting 'monoclinic'
loop_
_space_group_symop_operation_xyz
x,y,z
-x,y,1/2-z
-x,-y,-z
x,-y,1/2+z
loop_
_atom_site_type_symbol
_atom_site_label
_atom_site_fract_x
_atom_site_fract_y
_atom_site_fract_z
Si Si1 0.889442 0.397081 0.987583
Si Si2 0.886228 0.404174 0.343642
Si Si3 0.500377 0.398073 0.424601
Si Si4 0.589879 0.087748 0.737292
Si Si5 0.685629 0.282277 0.277747
Si Si6 0.429940 0.879477 0.723349
Si Si7 0.320849 0.716796 0.367135
O O1 0.900150 0.413729 0.147228
O O2 0.806353 0.312974 0.085526
O O3 0.853679 0.495389 0.963046
O O4 0.000000 0.374291 0.750000
O O5 0.792135 0.329431 0.506058
O O6 0.000000 0.379221 0.250000
O O7 0.500000 0.406852 0.250000
O O8 0.500000 0.500000 0.500000
O O9 0.613036 0.353966 0.296378
O O10 0.410328 0.331268 0.633105
O O11 0.500000 0.118212 0.750000
O O12 0.676395 0.168741 0.636483
O O13 0.621060 0.979968 0.653553
O O14 0.525341 0.090404 0.980425
O O15 0.651044 0.182994 0.254123
O O16 0.657485 0.299143 0.490277
O O17 0.500000 0.829903 0.750000
#
# Coordination Sequence:
#
# PCOD9227254 Si02
#       7
#     4   4   4   4   4   4   4
#     4  10  21  37  57  77 104 141 181 226 269 315
#     4  10  21  37  57  79 103 139 184 222 269 320
#     4  12  24  35  50  77 110 143 175 214 267 326
#     4  10  18  34  56  76 114 147 177 220 263 326
#     4  11  21  36  54  79 110 142 179 222 270 323
#     4  10  20  33  52  84 110 144 185 216 264 323
#     4  11  21  36  56  78 108 145 175 222 273 319
#
# _framework density 17.232645000000002
#
# number of rings (size 3 to 8) (size 9 to 14) (size 15 to 20)
#    0.000    1.429    2.857    4.286    0.000    4.571 
#    0.000    0.000    0.000    0.857    0.000    4.000 
#    0.000    0.000    0.000    0.000    0.000    0.000 
#
# Total GULP energy -155885.337330 kJ/mol
# GULP energy per Si atom -5567.333476 kJ/mol
# Density = 1.719342 g / cm^3
# Si number density = 17.232645 Si / 1000 Ang^3
#
#
#
# Elastic Constant Matrix: (Units=GPa)
#
#
# Indices 1 2 3 4 5 6 
#
# 1 104.6239 49.8921 46.4102 0.0000 9.3832 0.0000
# 2 49.8921 98.5390 32.0072 0.0000 -0.9166 0.0000
# 3 46.4102 32.0072 71.7735 0.0000 13.6965 0.0000
# 4 0.0000 0.0000 0.0000 13.3107 0.0000 5.1711
# 5 9.3832 -0.9166 13.6965 0.0000 19.8741 0.0000
# 6 0.0000 0.0000 0.0000 5.1711 0.0000 11.2812
#
#
#
# Elastic Compliance Matrix: (Units=1/GPa)
#
#
# Indices 1 2 3 4 5 6 
#
# 1 0.015632 -0.005647 -0.007060 0.000000 -0.002775 0.000000
# 2 -0.005647 0.014324 -0.003882 0.000000 0.006002 0.000000
# 3 -0.007060 -0.003882 0.022599 0.000000 -0.012420 0.000000
# 4 0.000000 0.000000 0.000000 0.091405 0.000000 -0.041899
# 5 -0.002775 0.006002 -0.012420 0.000000 0.060464 0.000000
# 6 0.000000 0.000000 0.000000 -0.041899 0.000000 0.107849
#
#
# Mechanical properties :
#
#
# Convention : Reuss Voigt Hill
#
# Bulk Modulus (GPa) = 51.60613 59.06171 55.33392
# Shear Modulus (GPa) = 14.20825 18.66832 16.43829
#
# Velocity S-wave (km/s) = 2.87452 3.29494 3.09188
# Velocity P-wave (km/s) = 6.40538 6.98735 6.70268
#
# Compressibility (1/GPa) = 0.01937754
#
# Stress axis : x y z
#
# Youngs Moduli (GPa) = 63.97306 69.81192 44.25022
#
# Poissons Ratio (x) = 0.39425 0.31239
# Poissons Ratio (y) = 0.36127 0.17176
# Poissons Ratio (z) = 0.45163 0.27098
#
# Static dielectric constant tensor:
#      x y z
#    x 1.576740 0.000000 0.029150 
#    y 0.000000 1.629280 0.000000 
#    z 0.029150 0.000000 1.603830 
# 
# From -- ./inp_files/21949.got.cif
#   From: 2010.05.17/outbox.cif.g08.bks.cpg/sg13_11_cif.got.tgz:21949.got - 2010.06.03 16:44:36.
