data_PCOD9227232
_publ_section_title
;
Structure prediction by ZEFSAII (Michael W. Deem and Ramdas Pophale) SiO2 
 PCOD9227232
Probable space group: P 2/C
;
_chemical_formula_sum "Si O2"
_cell_formula_units_Z 26
_cell_length_a 9.503135
_cell_length_b 9.167889
_cell_length_c 24.948901
_cell_angle_alpha 90.000000
_cell_angle_beta 30.255892
_cell_angle_gamma 90.000000
_cell_volume 1095.216471
_symmetry_space_group_name_H-M "P 2/C"
_symmetry_group_IT_number 13
_symmetry_cell_setting 'monoclinic'
loop_
_space_group_symop_operation_xyz
x,y,z
-x,y,1/2-z
-x,-y,-z
x,-y,1/2+z
loop_
_atom_site_type_symbol
_atom_site_label
_atom_site_fract_x
_atom_site_fract_y
_atom_site_fract_z
Si Si1 0.500000 0.157563 0.250000
Si Si2 0.086037 0.768717 0.980178
Si Si3 0.304917 0.051385 0.958508
Si Si4 0.000000 0.678403 0.750000
Si Si5 0.873166 0.058906 0.218066
Si Si6 0.000000 0.821856 0.250000
Si Si7 0.482633 0.723637 0.468996
Si Si8 0.374733 0.583799 0.970217
O O1 0.678315 0.235958 0.144628
O O2 0.732842 0.068846 0.206351
O O3 0.162590 0.635581 0.993965
O O4 0.117404 0.912176 0.007447
O O5 0.800956 0.812545 0.043479
O O6 0.599580 0.981890 0.845239
O O7 0.321130 0.124437 0.011533
O O8 0.295540 0.595233 0.654496
O O9 0.014098 0.788584 0.795991
O O10 0.044729 0.921139 0.182276
O O11 0.278406 0.728219 0.155731
O O12 0.623679 0.693041 0.479552
O O13 0.307944 0.577303 0.513893
#
# Coordination Sequence:
#
# PCOD9227232 Si02
#       8
#     2   4   4   2   4   2   4   4
#     4  10  18  34  52  90 110 150 180 242 276 346
#     4  10  21  36  58  83 118 146 194 232 288 329
#     4   9  19  38  55  82 110 148 183 239 278 338
#     4  11  19  38  56  82 118 146 184 244 276 336
#     4   9  19  34  57  86 112 137 196 233 291 328
#     4   9  19  40  56  84 114 154 184 246 280 346
#     4  10  23  38  59  82 118 153 196 227 290 332
#     4  11  23  38  56  88 115 156 190 237 276 347
#
# _framework density 23.739598000000001
#
# number of rings (size 3 to 8) (size 9 to 14) (size 15 to 20)
#    0.000    2.154    3.077    0.462    2.154    4.923 
#    0.000    0.000    0.000    8.308    0.000    0.000 
#    0.000    0.000    0.000    0.000    0.000    0.000 
#
# Total GULP energy -144834.292421 kJ/mol
# GULP energy per Si atom -5570.549708 kJ/mol
# Density = 2.368557 g / cm^3
# Si number density = 23.739598 Si / 1000 Ang^3
#
#
#
# Elastic Constant Matrix: (Units=GPa)
#
#
# Indices 1 2 3 4 5 6 
#
# 1 124.1707 31.5112 -2.4057 0.0000 7.9649 0.0000
# 2 31.5112 63.9103 -1.7429 0.0000 10.9077 0.0000
# 3 -2.4057 -1.7429 20.9025 0.0000 1.2265 0.0000
# 4 0.0000 0.0000 0.0000 19.4482 0.0000 5.7099
# 5 7.9649 10.9077 1.2265 0.0000 46.8254 0.0000
# 6 0.0000 0.0000 0.0000 5.7099 0.0000 38.8696
#
#
#
# Elastic Compliance Matrix: (Units=1/GPa)
#
#
# Indices 1 2 3 4 5 6 
#
# 1 0.009229 -0.004436 0.000725 0.000000 -0.000556 0.000000
# 2 -0.004436 0.018479 0.001241 0.000000 -0.003583 0.000000
# 3 0.000725 0.001241 0.048126 0.000000 -0.001673 0.000000
# 4 0.000000 0.000000 0.000000 0.053736 0.000000 -0.007894
# 5 -0.000556 -0.003583 -0.001673 0.000000 0.022329 0.000000
# 6 0.000000 0.000000 0.000000 -0.007894 0.000000 0.026887
#
#
# Mechanical properties :
#
#
# Convention : Reuss Voigt Hill
#
# Bulk Modulus (GPa) = 14.10560 29.30096 21.70328
# Shear Modulus (GPa) = 24.11291 33.13669 28.62480
#
# Velocity S-wave (km/s) = 3.19050 3.74015 3.47621
# Velocity P-wave (km/s) = 4.41895 5.56965 5.02733
#
# Compressibility (1/GPa) = 0.07089381
#
# Stress axis : x y z
#
# Youngs Moduli (GPa) = 108.35688 54.11475 20.77866
#
# Poissons Ratio (x) = 0.24004 -0.01506
# Poissons Ratio (y) = 0.48064 -0.02578
# Poissons Ratio (z) = -0.07855 -0.06713
#
# Static dielectric constant tensor:
#      x y z
#    x 2.035980 0.000000 -0.026480 
#    y 0.000000 1.930730 0.000000 
#    z -0.026480 0.000000 2.102130 
# 
# From -- ./inp_files/63431.got.cif
#   From: 2010.05.17/outbox.cif.g08.bks.cpg/sg13_32_cif.got.tgz:63431.got - 2010.06.03 16:44:36.
