data_PCOD9227171
_publ_section_title
;
Structure prediction by ZEFSAII (Michael W. Deem and Ramdas Pophale) SiO2 
 PCOD9227171
Probable space group: P 2/C
;
_chemical_formula_sum "Si O2"
_cell_formula_units_Z 24
_cell_length_a 23.765035
_cell_length_b 8.174841
_cell_length_c 18.433949
_cell_angle_alpha 90.000000
_cell_angle_beta 161.228058
_cell_angle_gamma 90.000000
_cell_volume 1152.457713
_symmetry_space_group_name_H-M "P 2/C"
_symmetry_group_IT_number 13
_symmetry_cell_setting 'monoclinic'
loop_
_space_group_symop_operation_xyz
x,y,z
-x,y,1/2-z
-x,-y,-z
x,-y,1/2+z
loop_
_atom_site_type_symbol
_atom_site_label
_atom_site_fract_x
_atom_site_fract_y
_atom_site_fract_z
Si Si1 0.498913 0.907830 0.665091
Si Si2 0.515507 0.301543 0.849341
Si Si3 0.392790 0.347825 0.840020
Si Si4 0.828363 0.852443 0.337991
Si Si5 0.117418 0.344175 0.124598
Si Si6 0.286914 0.162666 0.212871
O O1 0.500000 0.847063 0.750000
O O2 0.316826 0.864937 0.402667
O O3 0.654449 0.849057 0.799748
O O4 0.503903 0.105174 0.675340
O O5 0.500000 0.366065 0.750000
O O6 0.369629 0.365399 0.726646
O O7 0.699678 0.352557 0.109321
O O8 0.224005 0.307078 0.679114
O O9 0.500000 0.500000 0.000000
O O10 0.526811 0.195995 0.019243
O O11 0.015255 0.814647 0.531765
O O12 0.800610 0.999838 0.361006
O O13 0.164129 0.305137 0.097261
O O14 0.000000 0.500000 0.000000
#
# Coordination Sequence:
#
# PCOD9227171 Si02
#       6
#     4   4   4   4   4   4
#     4  10  19  35  61  92 116 153 206 256 298 344
#     4  10  20  38  61  87 115 149 206 252 297 356
#     4  10  18  33  57  85 116 157 199 238 289 362
#     4  11  18  35  59  85 117 155 201 245 294 348
#     4  11  23  37  59  91 122 159 198 242 308 363
#     4  10  19  36  57  87 117 156 207 242 291 363
#
# _framework density 20.825057999999999
#
# number of rings (size 3 to 8) (size 9 to 14) (size 15 to 20)
#    0.000    1.667    5.000    3.500    0.000    0.000 
#    0.000    9.167    0.000    4.000    0.000    0.000 
#    0.000    0.000    0.000    0.000    0.000    0.000 
#
# Total GULP energy -133753.074584 kJ/mol
# GULP energy per Si atom -5573.044774 kJ/mol
# Density = 2.077766 g / cm^3
# Si number density = 20.825058 Si / 1000 Ang^3
#
#
#
# Elastic Constant Matrix: (Units=GPa)
#
#
# Indices 1 2 3 4 5 6 
#
# 1 212.6909 29.0534 42.8554 0.0000 -11.7949 0.0000
# 2 29.0534 69.6411 4.5875 0.0000 2.4915 0.0000
# 3 42.8554 4.5875 29.0276 0.0000 2.4783 0.0000
# 4 0.0000 0.0000 0.0000 24.7573 0.0000 14.8891
# 5 -11.7949 2.4915 2.4783 0.0000 39.9627 0.0000
# 6 0.0000 0.0000 0.0000 14.8891 0.0000 35.3410
#
#
#
# Elastic Compliance Matrix: (Units=1/GPa)
#
#
# Indices 1 2 3 4 5 6 
#
# 1 0.007371 -0.002474 -0.010748 0.000000 0.002996 0.000000
# 2 -0.002474 0.015364 0.001376 0.000000 -0.001774 0.000000
# 3 -0.010748 0.001376 0.050646 0.000000 -0.006399 0.000000
# 4 0.000000 0.000000 0.000000 0.054099 0.000000 -0.022792
# 5 0.002996 -0.001774 -0.006399 0.000000 0.026415 0.000000
# 6 0.000000 0.000000 0.000000 -0.022792 0.000000 0.037898
#
#
# Mechanical properties :
#
#
# Convention : Reuss Voigt Hill
#
# Bulk Modulus (GPa) = 20.12445 51.59467 35.85956
# Shear Modulus (GPa) = 21.54716 35.66976 28.60846
#
# Velocity S-wave (km/s) = 3.22013 4.14312 3.71044
# Velocity P-wave (km/s) = 4.84873 6.90770 5.96768
#
# Compressibility (1/GPa) = 0.04969080
#
# Stress axis : x y z
#
# Youngs Moduli (GPa) = 135.65941 65.08534 19.74477
#
# Poissons Ratio (x) = 0.16105 0.21221
# Poissons Ratio (y) = 0.33568 -0.02718
# Poissons Ratio (z) = 1.45802 -0.08959
#
# Static dielectric constant tensor:
#      x y z
#    x 1.818850 0.000000 0.025140 
#    y 0.000000 1.862470 0.000000 
#    z 0.025140 0.000000 1.699230 
# 
# From -- ./inp_files/69514.got.cif
#   From: 2010.05.17/outbox.cif.g08.bks.cpg/sg13_35_cif.got.tgz:69514.got - 2010.06.03 16:44:36.
