data_PCOD9227670
_publ_section_title
;
Structure prediction by ZEFSAII (Michael W. Deem and Ramdas Pophale) SiO2 
 PCOD9227670
Probable space group: P 2/C
;
_chemical_formula_sum "Si O2"
_cell_formula_units_Z 22
_cell_length_a 14.407457
_cell_length_b 7.731538
_cell_length_c 13.556327
_cell_angle_alpha 90.000000
_cell_angle_beta 49.188917
_cell_angle_gamma 90.000000
_cell_volume 1142.919857
_symmetry_space_group_name_H-M "P 2/C"
_symmetry_group_IT_number 13
_symmetry_cell_setting 'monoclinic'
loop_
_space_group_symop_operation_xyz
x,y,z
-x,y,1/2-z
-x,-y,-z
x,-y,1/2+z
loop_
_atom_site_type_symbol
_atom_site_label
_atom_site_fract_x
_atom_site_fract_y
_atom_site_fract_z
Si Si1 0.500000 0.556477 0.250000
Si Si2 0.720754 0.587283 0.964010
Si Si3 0.067079 0.319824 0.927668
Si Si4 0.164242 0.251164 0.513787
Si Si5 0.707971 0.559002 0.744370
Si Si6 0.897784 0.113061 0.402023
O O1 0.393907 0.643308 0.388613
O O2 0.419310 0.455603 0.225318
O O3 0.688675 0.591090 0.872081
O O4 0.827907 0.721104 0.909193
O O5 0.772852 0.399407 0.963073
O O6 0.207757 0.383572 0.819389
O O7 0.057491 0.178801 0.021235
O O8 0.000000 0.500000 0.000000
O O9 0.984799 0.262086 0.891896
O O10 0.216431 0.295386 0.368258
O O11 0.187558 0.055059 0.527661
O O12 0.000000 0.073506 0.250000
#
# Coordination Sequence:
#
# PCOD9227670 Si02
#       6
#     2   4   4   4   4   4
#     4  10  20  44  66  92 118 170 216 262 306 366
#     4  11  23  41  66  92 126 166 211 256 316 366
#     4  10  18  38  58  88 126 165 194 254 307 372
#     4  10  23  39  59  96 133 160 206 254 315 384
#     4  10  21  40  69  85 126 168 209 261 315 360
#     4  12  23  36  63  96 130 168 199 252 318 380
#
# _framework density 19.248944000000002
#
# number of rings (size 3 to 8) (size 9 to 14) (size 15 to 20)
#    0.000    1.455    5.455    3.273    2.545    0.000 
#    0.000    3.636    0.000    6.545    0.000    0.000 
#    0.000    0.000    0.000    0.000    0.000    0.000 
#
# Total GULP energy -122516.269578 kJ/mol
# GULP energy per Si atom -5568.921344 kJ/mol
# Density = 1.920513 g / cm^3
# Si number density = 19.248944 Si / 1000 Ang^3
#
#
#
# Elastic Constant Matrix: (Units=GPa)
#
#
# Indices 1 2 3 4 5 6 
#
# 1 97.4683 -6.0763 18.5021 0.0000 13.9353 0.0000
# 2 -6.0763 67.8387 17.8243 0.0000 15.0265 0.0000
# 3 18.5021 17.8243 105.9425 0.0000 21.5258 0.0000
# 4 0.0000 0.0000 0.0000 9.7329 0.0000 12.7938
# 5 13.9353 15.0265 21.5258 0.0000 30.6476 0.0000
# 6 0.0000 0.0000 0.0000 12.7938 0.0000 -7.7898
#
#
#
# Elastic Compliance Matrix: (Units=1/GPa)
#
#
# Indices 1 2 3 4 5 6 
#
# 1 0.011467 0.002605 -0.001309 0.000000 -0.005572 0.000000
# 2 0.002605 0.017289 -0.001634 0.000000 -0.008514 0.000000
# 3 -0.001309 -0.001634 0.011267 0.000000 -0.006517 0.000000
# 4 0.000000 0.000000 0.000000 0.032525 0.000000 0.053419
# 5 -0.005572 -0.008514 -0.006517 0.000000 0.043914 0.000000
# 6 0.000000 0.000000 0.000000 0.053419 0.000000 -0.040639
#
#
# Mechanical properties :
#
#
# Convention : Reuss Voigt Hill
#
# Bulk Modulus (GPa) = 25.41400 36.86107 31.13753
# Shear Modulus (GPa) = 55.79391 22.58478 39.18934
#
# Velocity S-wave (km/s) = 5.38965 3.42906 4.51701
# Velocity P-wave (km/s) = 7.20851 5.90501 6.58907
#
# Compressibility (1/GPa) = 0.03934839
#
# Stress axis : x y z
#
# Youngs Moduli (GPa) = 87.20459 57.83894 88.75690
#
# Poissons Ratio (x) = -0.15069 0.11617
# Poissons Ratio (y) = -0.22719 0.14502
# Poissons Ratio (z) = 0.11414 0.09451
#
# Static dielectric constant tensor:
#      x y z
#    x 1.727230 0.000000 0.001920 
#    y 0.000000 1.710470 0.000000 
#    z 0.001920 0.000000 1.746090 
# 
# From -- ./inp_files/35855.got.cif
#   From: 2010.05.17/outbox.cif.g08.bks.cpg/sg13_18_cif.got.tgz:35855.got - 2010.06.03 16:44:36.
