data_PCOD9227560
_publ_section_title
;
Structure prediction by ZEFSAII (Michael W. Deem and Ramdas Pophale) SiO2 
 PCOD9227560
Probable space group: P 2/C
;
_chemical_formula_sum "Si O2"
_cell_formula_units_Z 14
_cell_length_a 6.640335
_cell_length_b 4.828569
_cell_length_c 16.563800
_cell_angle_alpha 90.000000
_cell_angle_beta 70.908293
_cell_angle_gamma 90.000000
_cell_volume 501.878396
_symmetry_space_group_name_H-M "P 2/C"
_symmetry_group_IT_number 13
_symmetry_cell_setting 'monoclinic'
loop_
_space_group_symop_operation_xyz
x,y,z
-x,y,1/2-z
-x,-y,-z
x,-y,1/2+z
loop_
_atom_site_type_symbol
_atom_site_label
_atom_site_fract_x
_atom_site_fract_y
_atom_site_fract_z
Si Si1 0.951661 0.224723 0.669351
Si Si2 0.338024 0.938651 0.913507
Si Si3 0.219201 0.448734 0.021039
Si Si4 0.500000 0.243190 0.750000
O O1 0.725745 0.393288 0.708584
O O2 0.000000 0.103249 0.750000
O O3 0.296934 0.858107 0.494351
O O4 0.145118 0.415107 0.613966
O O5 0.125486 0.993965 0.885511
O O6 0.512353 0.048533 0.827960
O O7 0.376067 0.642367 0.947184
O O8 0.000000 0.500000 0.000000
#
# Coordination Sequence:
#
# PCOD9227560 Si02
#       4
#     4   4   4   2
#     4   9  18  36  57  83 112 147 188 234 277 333
#     4   9  20  37  58  80 113 152 184 228 284 335
#     4  10  18  36  61  77 112 157 182 222 291 336
#     4   8  20  34  58  82 118 136 196 228 286 316
#
# _framework density 27.895202000000001
#
# number of rings (size 3 to 8) (size 9 to 14) (size 15 to 20)
#    1.714    1.143    0.000    3.429    0.000    1.143 
#    0.000   15.714    0.000    0.000    0.000    0.000 
#    0.000    0.000    0.000    0.000    0.000    0.000 
#
# Total GULP energy -78131.552463 kJ/mol
# GULP energy per Si atom -5580.825176 kJ/mol
# Density = 2.783171 g / cm^3
# Si number density = 27.895202 Si / 1000 Ang^3
#
#
#
# Elastic Constant Matrix: (Units=GPa)
#
#
# Indices 1 2 3 4 5 6 
#
# 1 85.3125 -3.4893 32.3789 0.0000 -0.7613 0.0000
# 2 -3.4893 92.6025 32.4757 0.0000 -9.2721 0.0000
# 3 32.3789 32.4757 163.2060 0.0000 -23.3036 0.0000
# 4 0.0000 0.0000 0.0000 30.0962 0.0000 -12.3337
# 5 -0.7613 -9.2721 -23.3036 0.0000 57.8855 0.0000
# 6 0.0000 0.0000 0.0000 -12.3337 0.0000 24.4381
#
#
#
# Elastic Compliance Matrix: (Units=1/GPa)
#
#
# Indices 1 2 3 4 5 6 
#
# 1 0.012897 0.001444 -0.002959 0.000000 -0.000790 0.000000
# 2 0.001444 0.011824 -0.002511 0.000000 0.000902 0.000000
# 3 -0.002959 -0.002511 0.007587 0.000000 0.002613 0.000000
# 4 0.000000 0.000000 0.000000 0.041891 0.000000 0.021142
# 5 -0.000790 0.000902 0.002613 0.000000 0.018462 0.000000
# 6 0.000000 0.000000 0.000000 0.021142 0.000000 0.051590
#
#
# Mechanical properties :
#
#
# Convention : Reuss Voigt Hill
#
# Bulk Modulus (GPa) = 41.22389 51.53908 46.38148
# Shear Modulus (GPa) = 31.17480 41.13434 36.15457
#
# Velocity S-wave (km/s) = 3.34663 3.84422 3.60402
# Velocity P-wave (km/s) = 5.45376 6.18224 5.82939
#
# Compressibility (1/GPa) = 0.02425778
#
# Stress axis : x y z
#
# Youngs Moduli (GPa) = 77.53969 84.57321 131.80509
#
# Poissons Ratio (x) = -0.12217 0.38999
# Poissons Ratio (y) = -0.11201 0.33091
# Poissons Ratio (z) = 0.22943 0.21233
#
# Static dielectric constant tensor:
#      x y z
#    x 2.418880 0.000000 -0.061140 
#    y 0.000000 2.181630 0.000000 
#    z -0.061140 0.000000 2.195600 
# 
# From -- ./inp_files/31936.got.cif
#   From: 2010.05.17/outbox.cif.g08.bks.cpg/sg13_16_cif.got.tgz:31936.got - 2010.06.03 16:44:36.
