data_PCOD9227412
_publ_section_title
;
Structure prediction by ZEFSAII (Michael W. Deem and Ramdas Pophale) SiO2 
 PCOD9227412
Probable space group: P 2/C
;
_chemical_formula_sum "Si O2"
_cell_formula_units_Z 32
_cell_length_a 10.470322
_cell_length_b 9.874239
_cell_length_c 20.382682
_cell_angle_alpha 90.000000
_cell_angle_beta 122.543894
_cell_angle_gamma 90.000000
_cell_volume 1776.405275
_symmetry_space_group_name_H-M "P 2/C"
_symmetry_group_IT_number 13
_symmetry_cell_setting 'monoclinic'
loop_
_space_group_symop_operation_xyz
x,y,z
-x,y,1/2-z
-x,-y,-z
x,-y,1/2+z
loop_
_atom_site_type_symbol
_atom_site_label
_atom_site_fract_x
_atom_site_fract_y
_atom_site_fract_z
Si Si1 0.525311 0.987317 0.177449
Si Si2 0.194813 0.338915 0.921427
Si Si3 0.481852 0.743394 0.584788
Si Si4 0.600969 0.522134 0.716600
Si Si5 0.621626 0.705887 0.385233
Si Si6 0.830793 0.856268 0.210781
Si Si7 0.147452 0.359627 0.666609
Si Si8 0.353119 0.598058 0.965910
O O1 0.500000 0.995347 0.250000
O O2 0.425302 0.861324 0.124581
O O3 0.696845 0.952766 0.200303
O O4 0.477119 0.123266 0.126891
O O5 0.206521 0.226995 0.866636
O O6 0.230052 0.491831 0.905438
O O7 0.026182 0.354101 0.902585
O O8 0.317732 0.297596 0.010599
O O9 0.559299 0.625779 0.649057
O O10 0.597952 0.737508 0.555481
O O11 0.500000 0.567825 0.750000
O O12 0.529739 0.377112 0.676596
O O13 0.773936 0.497556 0.785118
O O14 0.743425 0.685370 0.361921
O O15 0.677276 0.638347 0.467700
O O16 0.847615 0.743231 0.271474
O O17 0.000000 0.919280 0.250000
O O18 0.500000 0.500000 0.000000
#
# Coordination Sequence:
#
# PCOD9227412 Si02
#       8
#     4   4   4   4   4   4   4   4
#     4  12  22  39  64  88 116 163 211 249 297 367
#     4  10  21  38  61  91 125 154 194 260 319 356
#     4  11  23  37  59  85 125 155 198 250 310 362
#     4  10  18  35  57  86 111 153 201 247 288 351
#     4  11  19  35  64  85 116 156 211 240 289 364
#     4  10  20  37  61  87 119 157 203 248 298 363
#     4  10  20  35  62  93 115 159 208 251 297 364
#     4  10  19  35  57  83 119 153 191 248 302 360
#
# _framework density 18.013907
#
# number of rings (size 3 to 8) (size 9 to 14) (size 15 to 20)
#    0.000    1.500    5.000    3.000    0.000    2.500 
#    0.000    1.875    2.750    0.000    0.000    0.000 
#    0.000    0.000    0.000    0.000    0.000    0.000 
#
# Total GULP energy -178151.412183 kJ/mol
# GULP energy per Si atom -5567.231631 kJ/mol
# Density = 1.797291 g / cm^3
# Si number density = 18.013907 Si / 1000 Ang^3
#
#
#
# Elastic Constant Matrix: (Units=GPa)
#
#
# Indices 1 2 3 4 5 6 
#
# 1 105.4382 38.9832 42.9435 0.0000 14.5176 0.0000
# 2 38.9832 82.7856 36.1281 0.0000 2.8899 0.0000
# 3 42.9435 36.1281 74.6484 0.0000 1.8225 0.0000
# 4 0.0000 0.0000 0.0000 22.0277 0.0000 -6.3659
# 5 14.5176 2.8899 1.8225 0.0000 29.6872 0.0000
# 6 0.0000 0.0000 0.0000 -6.3659 0.0000 16.7216
#
#
#
# Elastic Compliance Matrix: (Units=1/GPa)
#
#
# Indices 1 2 3 4 5 6 
#
# 1 0.014280 -0.003788 -0.006229 0.000000 -0.006232 0.000000
# 2 -0.003788 0.016351 -0.005749 0.000000 0.000614 0.000000
# 3 -0.006229 -0.005749 0.019704 0.000000 0.002396 0.000000
# 4 0.000000 0.000000 0.000000 0.051009 0.000000 0.019419
# 5 -0.006232 0.000614 0.002396 0.000000 0.036525 0.000000
# 6 0.000000 0.000000 0.000000 0.019419 0.000000 0.067196
#
#
# Mechanical properties :
#
#
# Convention : Reuss Voigt Hill
#
# Bulk Modulus (GPa) = 53.18865 55.44242 54.31553
# Shear Modulus (GPa) = 20.58752 23.34178 21.96465
#
# Velocity S-wave (km/s) = 3.38430 3.60358 3.49566
# Velocity P-wave (km/s) = 6.69790 6.93965 6.81985
#
# Compressibility (1/GPa) = 0.01880100
#
# Stress axis : x y z
#
# Youngs Moduli (GPa) = 70.02766 61.15911 50.75201
#
# Poissons Ratio (x) = 0.23169 0.31615
# Poissons Ratio (y) = 0.26529 0.29178
# Poissons Ratio (z) = 0.43623 0.35161
#
# Static dielectric constant tensor:
#      x y z
#    x 1.687420 0.000000 -0.021550 
#    y 0.000000 1.618170 0.000000 
#    z -0.021550 0.000000 1.685290 
# 
# From -- ./inp_files/78068.got.cif
#   From: 2010.05.17/outbox.cif.g08.bks.cpg/sg13_40_cif.got.tgz:78068.got - 2010.06.03 16:44:36.
