data_PCOD9227272
_publ_section_title
;
Structure prediction by ZEFSAII (Michael W. Deem and Ramdas Pophale) SiO2 
 PCOD9227272
Probable space group: P 2/C
;
_chemical_formula_sum "Si O2"
_cell_formula_units_Z 28
_cell_length_a 13.437843
_cell_length_b 11.691380
_cell_length_c 13.769586
_cell_angle_alpha 90.000000
_cell_angle_beta 42.969390
_cell_angle_gamma 90.000000
_cell_volume 1474.519799
_symmetry_space_group_name_H-M "P 2/C"
_symmetry_group_IT_number 13
_symmetry_cell_setting 'monoclinic'
loop_
_space_group_symop_operation_xyz
x,y,z
-x,y,1/2-z
-x,-y,-z
x,-y,1/2+z
loop_
_atom_site_type_symbol
_atom_site_label
_atom_site_fract_x
_atom_site_fract_y
_atom_site_fract_z
Si Si1 0.632760 0.574173 0.360700
Si Si2 0.664866 0.353227 0.632066
Si Si3 0.654651 0.033504 0.505459
Si Si4 0.176791 0.879398 0.431525
Si Si5 0.159900 0.422578 0.180141
Si Si6 0.624767 0.153150 0.878148
Si Si7 0.102003 0.174981 0.273229
O O1 0.500000 0.500000 0.500000
O O2 0.655188 0.560014 0.228938
O O3 0.780375 0.529138 0.303633
O O4 0.611473 0.709936 0.392847
O O5 0.500000 0.306533 0.750000
O O6 0.773767 0.249652 0.575484
O O7 0.723203 0.402188 0.489832
O O8 0.732646 0.043346 0.555028
O O9 0.504617 0.102593 0.597146
O O10 0.762809 0.098415 0.353928
O O11 0.625189 0.908180 0.482356
O O12 0.230911 0.886175 0.283165
O O13 0.003383 0.879871 0.571353
O O14 0.151982 0.306304 0.250039
O O15 0.000000 0.441021 0.250000
O O16 0.000000 0.178942 0.250000
#
# Coordination Sequence:
#
# PCOD9227272 Si02
#       7
#     4   4   4   4   4   4   4
#     4  11  22  36  60  84 118 154 190 235 286 344
#     4  11  19  34  60  86 107 151 197 232 276 338
#     4  10  18  35  58  78 110 137 185 241 276 313
#     4  10  18  34  57  84 106 140 190 228 273 337
#     4  11  20  37  57  85 119 146 192 239 286 334
#     4  10  22  34  56  85 106 145 192 224 281 344
#     4   9  17  32  56  82 104 141 181 234 274 320
#
# _framework density 18.989234
#
# number of rings (size 3 to 8) (size 9 to 14) (size 15 to 20)
#    0.000    1.714    5.714    3.000    0.000    1.143 
#    0.000    2.143   15.714    0.000    0.000    0.000 
#    0.000    0.000    0.000    0.000    0.000    0.000 
#
# Total GULP energy -156040.592774 kJ/mol
# GULP energy per Si atom -5572.878313 kJ/mol
# Density = 1.894601 g / cm^3
# Si number density = 18.989234 Si / 1000 Ang^3
#
#
#
# Elastic Constant Matrix: (Units=GPa)
#
#
# Indices 1 2 3 4 5 6 
#
# 1 23.4984 22.8718 6.6717 0.0000 2.0862 0.0000
# 2 22.8718 91.5532 23.1153 0.0000 7.5936 0.0000
# 3 6.6717 23.1153 99.7844 0.0000 -10.3152 0.0000
# 4 0.0000 0.0000 0.0000 25.0016 0.0000 3.2455
# 5 2.0862 7.5936 -10.3152 0.0000 30.5636 0.0000
# 6 0.0000 0.0000 0.0000 3.2455 0.0000 28.2754
#
#
#
# Elastic Compliance Matrix: (Units=1/GPa)
#
#
# Indices 1 2 3 4 5 6 
#
# 1 0.056266 -0.013850 -0.000616 0.000000 -0.000607 0.000000
# 2 -0.013850 0.015484 -0.003068 0.000000 -0.003937 0.000000
# 3 -0.000616 -0.003068 0.011249 0.000000 0.004601 0.000000
# 4 0.000000 0.000000 0.000000 0.040602 0.000000 -0.004660
# 5 -0.000607 -0.003937 0.004601 0.000000 0.035291 0.000000
# 6 0.000000 0.000000 0.000000 -0.004660 0.000000 0.035901
#
#
# Mechanical properties :
#
#
# Convention : Reuss Voigt Hill
#
# Bulk Modulus (GPa) = 20.86378 35.57261 28.21820
# Shear Modulus (GPa) = 20.33848 27.57993 23.95920
#
# Velocity S-wave (km/s) = 3.27625 3.81517 3.55593
# Velocity P-wave (km/s) = 5.03217 6.17908 5.63488
#
# Compressibility (1/GPa) = 0.04792995
#
# Stress axis : x y z
#
# Youngs Moduli (GPa) = 17.77271 64.58356 88.89613
#
# Poissons Ratio (x) = 0.89451 0.05479
# Poissons Ratio (y) = 0.24616 0.27272
# Poissons Ratio (z) = 0.01095 0.19813
#
# Static dielectric constant tensor:
#      x y z
#    x 1.699920 0.000000 0.017240 
#    y 0.000000 1.659360 0.000000 
#    z 0.017240 0.000000 1.743780 
# 
# From -- ./inp_files/53503.got.cif
#   From: 2010.05.17/outbox.cif.g08.bks.cpg/sg13_27_cif.got.tgz:53503.got - 2010.06.03 16:44:36.
