data_PCOD9227141
_publ_section_title
;
Structure prediction by ZEFSAII (Michael W. Deem and Ramdas Pophale) SiO2 
 PCOD9227141
Probable space group: P 2/C
;
_chemical_formula_sum "Si O2"
_cell_formula_units_Z 30
_cell_length_a 10.056924
_cell_length_b 23.719568
_cell_length_c 5.425511
_cell_angle_alpha 90.000000
_cell_angle_beta 78.164021
_cell_angle_gamma 90.000000
_cell_volume 1266.716387
_symmetry_space_group_name_H-M "P 2/C"
_symmetry_group_IT_number 13
_symmetry_cell_setting 'monoclinic'
loop_
_space_group_symop_operation_xyz
x,y,z
-x,y,1/2-z
-x,-y,-z
x,-y,1/2+z
loop_
_atom_site_type_symbol
_atom_site_label
_atom_site_fract_x
_atom_site_fract_y
_atom_site_fract_z
Si Si1 0.500000 0.963565 0.750000
Si Si2 0.202446 0.650343 0.040188
Si Si3 0.337467 0.189069 0.829516
Si Si4 0.751735 0.687736 0.981809
Si Si5 0.500445 0.601968 0.000609
Si Si6 0.147673 0.979182 0.764028
Si Si7 0.258557 0.127210 0.360040
Si Si8 0.154239 0.522947 0.942144
O O1 0.625132 0.920564 0.684512
O O2 0.500000 0.000000 0.500000
O O3 0.184127 0.692491 0.816639
O O4 0.364780 0.640531 0.028825
O O5 0.151847 0.665230 0.334380
O O6 0.150660 0.589671 0.973147
O O7 0.500000 0.179721 0.750000
O O8 0.307783 0.255016 0.882556
O O9 0.270985 0.163403 0.605219
O O10 0.281769 0.161868 0.102179
O O11 0.630015 0.643234 0.975601
O O12 0.500000 0.568630 0.750000
O O13 0.500000 0.568232 0.250000
O O14 0.133517 0.915263 0.867202
O O15 0.000000 0.002567 0.750000
O O16 0.211734 0.983671 0.462451
O O17 0.219024 0.495915 0.160877
O O18 0.000000 0.500000 0.000000
#
# Coordination Sequence:
#
# PCOD9227141 Si02
#       8
#     2   4   4   4   4   4   4   4
#     4  12  22  36  54  76 122 170 204 238 300 370
#     4  10  18  33  55  82 109 144 196 224 282 338
#     4  12  22  37  54  86 131 157 204 238 304 369
#     4  10  20  33  56  82 113 158 192 241 271 344
#     4   8  15  27  46  72 103 137 181 216 265 308
#     4  10  21  40  64  87 108 146 210 263 308 362
#     4  12  23  37  55  89 121 163 200 255 308 369
#     4  10  21  37  58  86 112 143 185 236 295 340
#
# _framework density 23.683278999999999
#
# number of rings (size 3 to 8) (size 9 to 14) (size 15 to 20)
#    0.000    1.600    1.333    5.200    0.000    2.133 
#    0.000    0.000    0.000   21.600   34.667    0.000 
#    0.000    0.000    0.000    0.000    0.000    0.000 
#
# Total GULP energy -167344.779805 kJ/mol
# GULP energy per Si atom -5578.159327 kJ/mol
# Density = 2.362937 g / cm^3
# Si number density = 23.683279 Si / 1000 Ang^3
#
#
#
# Elastic Constant Matrix: (Units=GPa)
#
#
# Indices 1 2 3 4 5 6 
#
# 1 42.7983 21.5862 22.6394 0.0000 11.8607 0.0000
# 2 21.5862 100.7689 58.3183 0.0000 11.3399 0.0000
# 3 22.6394 58.3183 284.1648 0.0000 41.6519 0.0000
# 4 0.0000 0.0000 0.0000 41.1613 0.0000 3.0626
# 5 11.8607 11.3399 41.6519 0.0000 21.6943 0.0000
# 6 0.0000 0.0000 0.0000 3.0626 0.0000 21.1294
#
#
#
# Elastic Compliance Matrix: (Units=1/GPa)
#
#
# Indices 1 2 3 4 5 6 
#
# 1 0.029740 -0.005190 0.000948 0.000000 -0.015367 0.000000
# 2 -0.005190 0.012231 -0.002192 0.000000 0.000654 0.000000
# 3 0.000948 -0.002192 0.005290 0.000000 -0.009529 0.000000
# 4 0.000000 0.000000 0.000000 0.024560 0.000000 -0.003560
# 5 -0.015367 0.000654 -0.009529 0.000000 0.072451 0.000000
# 6 0.000000 0.000000 0.000000 -0.003560 0.000000 0.047843
#
#
# Mechanical properties :
#
#
# Convention : Reuss Voigt Hill
#
# Bulk Modulus (GPa) = 29.07613 70.31329 49.69471
# Shear Modulus (GPa) = 23.10023 38.47621 30.78822
#
# Velocity S-wave (km/s) = 3.12650 4.03502 3.60946
# Velocity P-wave (km/s) = 5.03359 7.17370 6.19674
#
# Compressibility (1/GPa) = 0.03439247
#
# Stress axis : x y z
#
# Youngs Moduli (GPa) = 33.62441 81.76098 189.02631
#
# Poissons Ratio (x) = 0.42436 -0.17924
# Poissons Ratio (y) = 0.17452 0.41442
# Poissons Ratio (z) = -0.03188 0.17925
#
# Static dielectric constant tensor:
#      x y z
#    x 2.398210 0.000000 -0.095330 
#    y 0.000000 1.860720 0.000000 
#    z -0.095330 0.000000 2.125400 
# 
# From -- ./inp_files/4136.got.cif
#   From: 2010.05.17/outbox.cif.g08.bks.cpg/sg13_3_cif.got.tgz:4136.got - 2010.06.03 16:44:36.
