data_PCOD9227680
_publ_section_title
;
Structure prediction by ZEFSAII (Michael W. Deem and Ramdas Pophale) SiO2 
 PCOD9227680
Probable space group: P 2/C
;
_chemical_formula_sum "Si O2"
_cell_formula_units_Z 16
_cell_length_a 5.983170
_cell_length_b 8.212446
_cell_length_c 13.438612
_cell_angle_alpha 90.000000
_cell_angle_beta 117.587980
_cell_angle_gamma 90.000000
_cell_volume 585.247279
_symmetry_space_group_name_H-M "P 2/C"
_symmetry_group_IT_number 13
_symmetry_cell_setting 'monoclinic'
loop_
_space_group_symop_operation_xyz
x,y,z
-x,y,1/2-z
-x,-y,-z
x,-y,1/2+z
loop_
_atom_site_type_symbol
_atom_site_label
_atom_site_fract_x
_atom_site_fract_y
_atom_site_fract_z
Si Si1 0.500000 0.505381 0.250000
Si Si2 0.511277 0.748471 0.432091
Si Si3 0.000000 0.834939 0.250000
Si Si4 0.722972 0.046726 0.360647
Si Si5 0.999948 0.365045 0.414092
O O1 0.558969 0.627385 0.351295
O O2 0.774357 0.418441 0.293443
O O3 0.208326 0.745775 0.361988
O O4 0.707868 0.678891 0.554618
O O5 0.603311 0.929709 0.419539
O O6 0.139423 0.941523 0.195531
O O7 0.500000 0.123626 0.250000
O O8 0.895171 0.191963 0.434475
O O9 0.000000 0.500000 0.500000
#
# Coordination Sequence:
#
# PCOD9227680 Si02
#       5
#     2   4   2   4   4
#     4  10  18  38  60  86 122 154 196 238 302 346
#     4  10  20  38  63  85 115 163 197 242 290 347
#     4  10  20  36  64  86 120 148 210 240 280 346
#     4  10  19  38  64  85 115 159 198 243 289 347
#     4  10  21  35  64  89 116 158 195 240 304 350
#
# _framework density 27.338871999999999
#
# number of rings (size 3 to 8) (size 9 to 14) (size 15 to 20)
#    0.000    2.000    5.000    0.750    0.000    1.000 
#    0.000    2.500    0.000    0.000    0.000    0.000 
#    0.000    0.000    0.000    0.000    0.000    0.000 
#
# Total GULP energy -89224.964223 kJ/mol
# GULP energy per Si atom -5576.560264 kJ/mol
# Density = 2.727665 g / cm^3
# Si number density = 27.338872 Si / 1000 Ang^3
#
#
#
# Elastic Constant Matrix: (Units=GPa)
#
#
# Indices 1 2 3 4 5 6 
#
# 1 73.3804 19.8914 52.5819 0.0000 19.3828 0.0000
# 2 19.8914 77.5440 62.3175 0.0000 21.8774 0.0000
# 3 52.5819 62.3175 171.8649 0.0000 42.3849 0.0000
# 4 0.0000 0.0000 0.0000 52.4423 0.0000 28.0897
# 5 19.3828 21.8774 42.3849 0.0000 67.1217 0.0000
# 6 0.0000 0.0000 0.0000 28.0897 0.0000 24.2019
#
#
#
# Elastic Compliance Matrix: (Units=1/GPa)
#
#
# Indices 1 2 3 4 5 6 
#
# 1 0.017678 -0.000029 -0.004905 0.000000 -0.001998 0.000000
# 2 -0.000029 0.018450 -0.006159 0.000000 -0.002116 0.000000
# 3 -0.004905 -0.006159 0.010315 0.000000 -0.003089 0.000000
# 4 0.000000 0.000000 0.000000 0.050403 0.000000 -0.058500
# 5 -0.001998 -0.002116 -0.003089 0.000000 0.018116 0.000000
# 6 0.000000 0.000000 0.000000 -0.058500 0.000000 0.109216
#
#
# Mechanical properties :
#
#
# Convention : Reuss Voigt Hill
#
# Bulk Modulus (GPa) = 41.22756 65.81899 53.52328
# Shear Modulus (GPa) = 19.65022 41.28641 30.46831
#
# Velocity S-wave (km/s) = 2.68389 3.89031 3.34199
# Velocity P-wave (km/s) = 4.97165 6.65634 5.87470
#
# Compressibility (1/GPa) = 0.02425562
#
# Stress axis : x y z
#
# Youngs Moduli (GPa) = 56.56671 54.20018 96.95082
#
# Poissons Ratio (x) = 0.00157 0.47559
# Poissons Ratio (y) = 0.00164 0.59715
# Poissons Ratio (z) = 0.27748 0.33383
#
# Static dielectric constant tensor:
#      x y z
#    x 2.276890 0.000000 0.192390 
#    y 0.000000 2.123340 0.000000 
#    z 0.192390 0.000000 2.224800 
# 
# From -- ./inp_files/43120.got.cif
#   From: 2010.05.17/outbox.cif.g08.bks.cpg/sg13_22_cif.got.tgz:43120.got - 2010.06.03 16:44:36.
