data_PCOD9227075
_publ_section_title
;
Structure prediction by ZEFSAII (Michael W. Deem and Ramdas Pophale) SiO2 
 PCOD9227075
Probable space group: P 2/C
;
_chemical_formula_sum "Si O2"
_cell_formula_units_Z 30
_cell_length_a 21.384895
_cell_length_b 13.294993
_cell_length_c 14.669308
_cell_angle_alpha 90.000000
_cell_angle_beta 160.596209
_cell_angle_gamma 90.000000
_cell_volume 1385.591670
_symmetry_space_group_name_H-M "P 2/C"
_symmetry_group_IT_number 13
_symmetry_cell_setting 'monoclinic'
loop_
_space_group_symop_operation_xyz
x,y,z
-x,y,1/2-z
-x,-y,-z
x,-y,1/2+z
loop_
_atom_site_type_symbol
_atom_site_label
_atom_site_fract_x
_atom_site_fract_y
_atom_site_fract_z
Si Si1 0.910744 0.260735 0.843727
Si Si2 0.730161 0.009217 0.709912
Si Si3 0.128899 0.954952 0.289208
Si Si4 0.500000 0.347625 0.250000
Si Si5 0.104526 0.660748 0.986806
Si Si6 0.541516 0.360698 0.106451
Si Si7 0.611301 0.130745 0.198016
Si Si8 0.900371 0.568052 0.015813
O O1 0.948390 0.153100 0.852317
O O2 0.687813 0.282933 0.524341
O O3 0.024186 0.348763 0.949303
O O4 0.947146 0.267670 0.000919
O O5 0.641546 0.912602 0.638604
O O6 0.746614 0.004213 0.623450
O O7 0.595942 0.100660 0.553159
O O8 0.941703 0.020779 0.039068
O O9 0.246535 0.930137 0.540571
O O10 0.532984 0.402580 0.198740
O O11 0.052811 0.546299 0.945852
O O12 0.000000 0.684376 0.750000
O O13 0.329635 0.657375 0.282269
O O14 0.636253 0.249450 0.241495
O O15 0.677460 0.423190 0.228302
O O16 0.000000 0.587283 0.250000
#
# Coordination Sequence:
#
# PCOD9227075 Si02
#       8
#     4   4   4   2   4   4   4   4
#     4  11  21  38  65  92 117 159 208 253 298 352
#     4  10  23  35  54  92 116 153 181 248 307 361
#     4  11  21  39  62  86 121 148 202 250 300 343
#     4  10  18  32  58  98 106 144 194 258 292 342
#     4  10  24  40  57  84 133 168 197 240 305 370
#     4  11  21  38  65  92 117 159 208 253 298 352
#     4  11  21  39  62  86 121 148 202 250 300 343
#     4  11  20  37  62  96 127 150 203 257 313 338
#
# _framework density 21.651399999999999
#
# number of rings (size 3 to 8) (size 9 to 14) (size 15 to 20)
#    0.000    1.333    2.667    4.000    0.000    0.000 
#    0.000   14.000    0.000    0.000    0.000    0.000 
#    0.000    0.000    0.000    0.000    0.000    0.000 
#
# Total GULP energy -167724.328860 kJ/mol
# GULP energy per Si atom -5590.810962 kJ/mol
# Density = 2.160212 g / cm^3
# Si number density = 21.651400 Si / 1000 Ang^3
#
#
#
# Elastic Constant Matrix: (Units=GPa)
#
#
# Indices 1 2 3 4 5 6 
#
# 1 63.9019 17.1933 10.1256 0.0000 -5.4243 0.0000
# 2 17.1933 48.4662 -0.2102 0.0000 -5.1557 0.0000
# 3 10.1256 -0.2102 77.1499 0.0000 -7.3631 0.0000
# 4 0.0000 0.0000 0.0000 23.3553 0.0000 1.3326
# 5 -5.4243 -5.1557 -7.3631 0.0000 38.9455 0.0000
# 6 0.0000 0.0000 0.0000 1.3326 0.0000 22.7457
#
#
#
# Elastic Compliance Matrix: (Units=1/GPa)
#
#
# Indices 1 2 3 4 5 6 
#
# 1 0.017771 -0.006182 -0.002231 0.000000 0.001235 0.000000
# 2 -0.006182 0.023087 0.001104 0.000000 0.002404 0.000000
# 3 -0.002231 0.001104 0.013485 0.000000 0.002385 0.000000
# 4 0.000000 0.000000 0.000000 0.042960 0.000000 -0.002517
# 5 0.001235 0.002404 0.002385 0.000000 0.026618 0.000000
# 6 0.000000 0.000000 0.000000 -0.002517 0.000000 0.044112
#
#
# Mechanical properties :
#
#
# Convention : Reuss Voigt Hill
#
# Bulk Modulus (GPa) = 25.17463 27.08173 26.12818
# Shear Modulus (GPa) = 25.52400 27.83658 26.68029
#
# Velocity S-wave (km/s) = 3.43718 3.58952 3.51417
# Velocity P-wave (km/s) = 5.23496 5.45112 5.34413
#
# Compressibility (1/GPa) = 0.03972253
#
# Stress axis : x y z
#
# Youngs Moduli (GPa) = 56.27198 43.31509 74.15510
#
# Poissons Ratio (x) = 0.26780 0.16547
# Poissons Ratio (y) = 0.34790 -0.08185
# Poissons Ratio (z) = 0.12556 -0.04781
#
# Static dielectric constant tensor:
#      x y z
#    x 1.797360 0.000000 0.022880 
#    y 0.000000 1.794190 0.000000 
#    z 0.022880 0.000000 1.799870 
# 
# From -- ./inp_files/57819.got.cif
#   From: 2010.05.17/outbox.cif.g08.bks.cpg/sg13_29_cif.got.tgz:57819.got - 2010.06.03 16:44:36.
