data_PCOD9227839
_publ_section_title
;
Structure prediction by ZEFSAII (Michael W. Deem and Ramdas Pophale) SiO2 
 PCOD9227839
Probable space group: P 2/C
;
_chemical_formula_sum "Si O2"
_cell_formula_units_Z 28
_cell_length_a 5.235147
_cell_length_b 12.167331
_cell_length_c 19.189556
_cell_angle_alpha 90.000000
_cell_angle_beta 70.356503
_cell_angle_gamma 90.000000
_cell_volume 1151.195219
_symmetry_space_group_name_H-M "P 2/C"
_symmetry_group_IT_number 13
_symmetry_cell_setting 'monoclinic'
loop_
_space_group_symop_operation_xyz
x,y,z
-x,y,1/2-z
-x,-y,-z
x,-y,1/2+z
loop_
_atom_site_type_symbol
_atom_site_label
_atom_site_fract_x
_atom_site_fract_y
_atom_site_fract_z
Si Si1 0.751475 0.561718 0.323378
Si Si2 0.640683 0.919600 0.833040
Si Si3 0.785291 0.129850 0.721800
Si Si4 0.133720 0.340280 0.439750
Si Si5 0.042454 0.006123 0.413682
Si Si6 0.725761 0.307704 0.354243
Si Si7 0.155327 0.597319 0.407726
O O1 0.717424 0.428338 0.321407
O O2 0.451080 0.613394 0.346214
O O3 0.000000 0.585431 0.250000
O O4 0.888127 0.593850 0.384341
O O5 0.727600 0.014643 0.770491
O O6 0.794533 0.943995 0.891977
O O7 0.721894 0.797079 0.803996
O O8 0.320881 0.929103 0.874057
O O9 0.500000 0.186817 0.750000
O O10 0.000000 0.188247 0.750000
O O11 0.894685 0.106405 0.634944
O O12 0.436190 0.294319 0.420728
O O13 0.180641 0.471600 0.432125
O O14 0.980392 0.306187 0.383130
O O15 0.921720 0.323112 0.521714
O O16 0.000000 0.000000 0.500000
#
# Coordination Sequence:
#
# PCOD9227839 Si02
#       7
#     4   4   4   4   4   4   4
#     4  10  19  29  43  67  98 127 161 198 237 286
#     4  10  19  32  48  71 102 128 157 196 244 299
#     4   8  16  29  45  65  92 126 155 183 222 279
#     4   9  17  30  47  65  88 124 167 201 236 279
#     4  10  19  32  49  69  96 131 167 200 229 272
#     4  10  19  30  46  69  96 128 158 190 237 297
#     4   9  17  30  45  62  90 126 163 206 238 270
#
# _framework density 24.322547
#
# number of rings (size 3 to 8) (size 9 to 14) (size 15 to 20)
#    0.000    2.571    0.000    2.571    0.000    5.143 
#    0.000    7.143    0.000    0.000    0.000    0.000 
#    0.000  120.000    0.000    0.000    0.000    0.000 
#
# Total GULP energy -156273.963936 kJ/mol
# GULP energy per Si atom -5581.212998 kJ/mol
# Density = 2.426719 g / cm^3
# Si number density = 24.322547 Si / 1000 Ang^3
#
#
#
# Elastic Constant Matrix: (Units=GPa)
#
#
# Indices 1 2 3 4 5 6 
#
# 1 162.3699 19.1002 24.0649 0.0000 -22.7463 0.0000
# 2 19.1002 84.9868 41.0392 0.0000 -1.9198 0.0000
# 3 24.0649 41.0392 109.8426 0.0000 -8.0687 0.0000
# 4 0.0000 0.0000 0.0000 4.7519 0.0000 12.0292
# 5 -22.7463 -1.9198 -8.0687 0.0000 42.5981 0.0000
# 6 0.0000 0.0000 0.0000 12.0292 0.0000 -23.2325
#
#
#
# Elastic Compliance Matrix: (Units=1/GPa)
#
#
# Indices 1 2 3 4 5 6 
#
# 1 0.006897 -0.001056 -0.000862 0.000000 0.003472 0.000000
# 2 -0.001056 0.014524 -0.005262 0.000000 -0.000906 0.000000
# 3 -0.000862 -0.005262 0.011366 0.000000 0.001456 0.000000
# 4 0.000000 0.000000 0.000000 0.091072 0.000000 0.047155
# 5 0.003472 -0.000906 0.001456 0.000000 0.025564 0.000000
# 6 0.000000 0.000000 0.000000 0.047155 0.000000 -0.018628
#
#
# Mechanical properties :
#
#
# Convention : Reuss Voigt Hill
#
# Bulk Modulus (GPa) = 54.26280 58.40086 56.33183
# Shear Modulus (GPa) = 33.04781 23.02317 28.03549
#
# Velocity S-wave (km/s) = 3.69010 3.07999 3.39876
# Velocity P-wave (km/s) = 6.36505 6.05901 6.21391
#
# Compressibility (1/GPa) = 0.01842883
#
# Stress axis : x y z
#
# Youngs Moduli (GPa) = 144.98962 68.85079 87.98542
#
# Poissons Ratio (x) = 0.07268 0.07581
# Poissons Ratio (y) = 0.15305 0.46296
# Poissons Ratio (z) = 0.12492 0.36228
#
# Static dielectric constant tensor:
#      x y z
#    x 1.978810 0.000000 0.027390 
#    y 0.000000 2.007730 0.000000 
#    z 0.027390 0.000000 2.018380 
# 
# From -- ./inp_files/61497.got.cif
#   From: 2010.05.17/outbox.cif.g08.bks.cpg/sg13_31_cif.got.tgz:61497.got - 2010.06.03 16:44:36.
