data_PCOD9227749
_publ_section_title
;
Structure prediction by ZEFSAII (Michael W. Deem and Ramdas Pophale) SiO2 
 PCOD9227749
Probable space group: P 2/C
;
_chemical_formula_sum "Si O2"
_cell_formula_units_Z 24
_cell_length_a 12.321114
_cell_length_b 10.495109
_cell_length_c 14.534749
_cell_angle_alpha 90.000000
_cell_angle_beta 139.219968
_cell_angle_gamma 90.000000
_cell_volume 1227.614141
_symmetry_space_group_name_H-M "P 2/C"
_symmetry_group_IT_number 13
_symmetry_cell_setting 'monoclinic'
loop_
_space_group_symop_operation_xyz
x,y,z
-x,y,1/2-z
-x,-y,-z
x,-y,1/2+z
loop_
_atom_site_type_symbol
_atom_site_label
_atom_site_fract_x
_atom_site_fract_y
_atom_site_fract_z
Si Si1 0.814842 0.025554 0.845081
Si Si2 0.000000 0.585203 0.250000
Si Si3 0.120887 0.602406 0.988030
Si Si4 0.774834 0.680229 0.258321
Si Si5 0.873882 0.192965 0.249437
Si Si6 0.405808 0.285654 0.558235
Si Si7 0.500000 0.060172 0.750000
O O1 0.801247 0.173870 0.808665
O O2 0.668649 0.993855 0.824080
O O3 0.797810 0.928503 0.750104
O O4 0.000000 0.000000 0.000000
O O5 0.924130 0.500366 0.118846
O O6 0.858174 0.662687 0.212694
O O7 0.987209 0.716077 0.885829
O O8 0.140238 0.588254 0.110219
O O9 0.305998 0.645642 0.075737
O O10 0.577854 0.656012 0.134487
O O11 0.000000 0.151219 0.250000
O O12 0.726664 0.272476 0.108336
O O13 0.446567 0.148641 0.629600
#
# Coordination Sequence:
#
# PCOD9227749 Si02
#       7
#     4   2   4   4   4   4   2
#     4  11  20  39  63  89 127 162 196 250 307 373
#     4  12  26  40  60  92 120 156 212 260 298 364
#     4  11  19  43  65  82 118 165 207 245 303 369
#     4  11  24  39  62  91 121 159 205 252 309 358
#     4  10  20  35  64  92 117 164 203 236 305 374
#     4  10  18  39  62  88 118 158 209 245 297 370
#     4  10  20  34  60  90 122 158 200 246 302 374
#
# _framework density 19.550118000000001
#
# number of rings (size 3 to 8) (size 9 to 14) (size 15 to 20)
#    0.000    1.333    7.500    1.500    1.167    3.333 
#    3.000    0.000    0.000    0.000    0.000    0.000 
#    0.000    0.000    0.000    0.000    0.000    0.000 
#
# Total GULP energy -133788.920275 kJ/mol
# GULP energy per Si atom -5574.538345 kJ/mol
# Density = 1.950562 g / cm^3
# Si number density = 19.550118 Si / 1000 Ang^3
#
#
#
# Elastic Constant Matrix: (Units=GPa)
#
#
# Indices 1 2 3 4 5 6 
#
# 1 151.1831 24.8646 72.5739 0.0000 10.5204 0.0000
# 2 24.8646 30.9892 10.8589 0.0000 4.0429 0.0000
# 3 72.5739 10.8589 80.1807 0.0000 16.9203 0.0000
# 4 0.0000 0.0000 0.0000 17.0977 0.0000 -5.3539
# 5 10.5204 4.0429 16.9203 0.0000 35.2715 0.0000
# 6 0.0000 0.0000 0.0000 -5.3539 0.0000 24.0599
#
#
#
# Elastic Compliance Matrix: (Units=1/GPa)
#
#
# Indices 1 2 3 4 5 6 
#
# 1 0.013019 -0.006770 -0.011361 0.000000 0.002343 0.000000
# 2 -0.006770 0.037509 0.001702 0.000000 -0.003096 0.000000
# 3 -0.011361 0.001702 0.024312 0.000000 -0.008469 0.000000
# 4 0.000000 0.000000 0.000000 0.062868 0.000000 0.013990
# 5 0.002343 -0.003096 -0.008469 0.000000 0.032070 0.000000
# 6 0.000000 0.000000 0.000000 0.013990 0.000000 0.044676
#
#
# Mechanical properties :
#
#
# Convention : Reuss Voigt Hill
#
# Bulk Modulus (GPa) = 23.82090 53.21642 38.51866
# Shear Modulus (GPa) = 19.13452 25.55618 22.34535
#
# Velocity S-wave (km/s) = 3.13188 3.61946 3.38446
# Velocity P-wave (km/s) = 5.02884 6.68932 5.91761
#
# Compressibility (1/GPa) = 0.04197995
#
# Stress axis : x y z
#
# Youngs Moduli (GPa) = 76.81223 26.66005 41.13205
#
# Poissons Ratio (x) = 0.18050 0.46731
# Poissons Ratio (y) = 0.52005 -0.06999
# Poissons Ratio (z) = 0.87268 -0.04536
#
# Static dielectric constant tensor:
#      x y z
#    x 1.750850 0.000000 0.011650 
#    y 0.000000 1.719680 0.000000 
#    z 0.011650 0.000000 1.712210 
# 
# From -- ./inp_files/50948.got.cif
#   From: 2010.05.17/outbox.cif.g08.bks.cpg/sg13_26_cif.got.tgz:50948.got - 2010.06.03 16:44:36.
