data_PCOD9227330
_publ_section_title
;
Structure prediction by ZEFSAII (Michael W. Deem and Ramdas Pophale) SiO2 
 PCOD9227330
Probable space group: P 2/C
;
_chemical_formula_sum "Si O2"
_cell_formula_units_Z 28
_cell_length_a 18.070694
_cell_length_b 6.197289
_cell_length_c 13.747558
_cell_angle_alpha 90.000000
_cell_angle_beta 117.793876
_cell_angle_gamma 90.000000
_cell_volume 1361.959544
_symmetry_space_group_name_H-M "P 2/C"
_symmetry_group_IT_number 13
_symmetry_cell_setting 'monoclinic'
loop_
_space_group_symop_operation_xyz
x,y,z
-x,y,1/2-z
-x,-y,-z
x,-y,1/2+z
loop_
_atom_site_type_symbol
_atom_site_label
_atom_site_fract_x
_atom_site_fract_y
_atom_site_fract_z
Si Si1 0.480443 0.313999 0.066268
Si Si2 0.500000 0.393898 0.750000
Si Si3 0.099433 0.978999 0.573530
Si Si4 0.402675 0.918413 0.341501
Si Si5 0.226064 0.209385 0.784284
Si Si6 0.872054 0.610997 0.771617
Si Si7 0.146236 0.008295 0.393452
Si Si8 0.000000 0.684162 0.250000
O O1 0.452718 0.443810 0.145742
O O2 0.558427 0.157986 0.142281
O O3 0.500000 0.500000 0.000000
O O4 0.422030 0.160295 0.964660
O O5 0.554055 0.237430 0.712480
O O6 0.118016 0.737704 0.621794
O O7 0.140537 0.120852 0.683617
O O8 0.148197 0.052458 0.507777
O O9 0.000000 0.000000 0.500000
O O10 0.303667 0.885550 0.273916
O O11 0.211073 0.464201 0.778106
O O12 0.223817 0.114037 0.891769
O O13 0.867852 0.779836 0.679791
O O14 0.953534 0.469248 0.798134
O O15 0.069135 0.840221 0.338270
#
# Coordination Sequence:
#
# PCOD9227330 Si02
#       8
#     4   2   4   4   4   4   4   2
#     4   9  20  39  67  93 127 173 208 257 324 388
#     4  10  20  38  66 100 122 172 216 254 326 396
#     4  11  22  38  59  89 123 169 224 272 321 381
#     4  10  21  43  62  97 135 164 217 270 318 404
#     4  10  24  41  58  91 129 168 207 273 324 378
#     4  10  21  38  59  82 123 165 208 273 322 386
#     4  10  21  37  54  86 117 159 210 262 326 379
#     4  10  18  34  60  80 110 160 210 262 324 376
#
# _framework density 20.558612
#
# number of rings (size 3 to 8) (size 9 to 14) (size 15 to 20)
#    0.000    2.000    0.000    4.286    0.000    9.143 
#   15.429    0.000    0.000    0.000    0.000    0.000 
#    0.000    0.000    0.000    0.000    0.000    0.000 
#
# Total GULP energy -155959.979550 kJ/mol
# GULP energy per Si atom -5569.999270 kJ/mol
# Density = 2.051182 g / cm^3
# Si number density = 20.558612 Si / 1000 Ang^3
#
#
#
# Elastic Constant Matrix: (Units=GPa)
#
#
# Indices 1 2 3 4 5 6 
#
# 1 97.7905 36.9788 30.7932 0.0000 -5.1504 0.0000
# 2 36.9788 111.2589 21.9988 0.0000 1.9559 0.0000
# 3 30.7932 21.9988 66.7628 0.0000 -17.9601 0.0000
# 4 0.0000 0.0000 0.0000 28.0838 0.0000 -12.4880
# 5 -5.1504 1.9559 -17.9601 0.0000 30.4519 0.0000
# 6 0.0000 0.0000 0.0000 -12.4880 0.0000 8.1350
#
#
#
# Elastic Compliance Matrix: (Units=1/GPa)
#
#
# Indices 1 2 3 4 5 6 
#
# 1 0.013052 -0.003324 -0.005079 0.000000 -0.000575 0.000000
# 2 -0.003324 0.010690 -0.002764 0.000000 -0.002879 0.000000
# 3 -0.005079 -0.002764 0.021452 0.000000 0.011971 0.000000
# 4 0.000000 0.000000 0.000000 0.112189 0.000000 0.172221
# 5 -0.000575 -0.002879 0.011971 0.000000 0.039986 0.000000
# 6 0.000000 0.000000 0.000000 0.172221 0.000000 0.387302
#
#
# Mechanical properties :
#
#
# Convention : Reuss Voigt Hill
#
# Bulk Modulus (GPa) = 43.74432 50.59486 47.16959
# Shear Modulus (GPa) = 8.13503 25.73689 16.93596
#
# Velocity S-wave (km/s) = 1.99138 3.54203 2.87329
# Velocity P-wave (km/s) = 5.15863 6.43362 5.83108
#
# Compressibility (1/GPa) = 0.02286011
#
# Stress axis : x y z
#
# Youngs Moduli (GPa) = 76.61708 93.54720 46.61527
#
# Poissons Ratio (x) = 0.31091 0.23678
# Poissons Ratio (y) = 0.25464 0.12884
# Poissons Ratio (z) = 0.38917 0.25855
#
# Static dielectric constant tensor:
#      x y z
#    x 1.756920 0.000000 0.004040 
#    y 0.000000 1.796900 0.000000 
#    z 0.004040 0.000000 1.766580 
# 
# From -- ./inp_files/54745.got.cif
#   From: 2010.05.17/outbox.cif.g08.bks.cpg/sg13_28_cif.got.tgz:54745.got - 2010.06.03 16:44:36.
