data_PCOD9227421
_publ_section_title
;
Structure prediction by ZEFSAII (Michael W. Deem and Ramdas Pophale) SiO2 
 PCOD9227421
Probable space group: P 2/C
;
_chemical_formula_sum "Si O2"
_cell_formula_units_Z 24
_cell_length_a 21.493782
_cell_length_b 8.303067
_cell_length_c 16.027187
_cell_angle_alpha 90.000000
_cell_angle_beta 24.352199
_cell_angle_gamma 90.000000
_cell_volume 1179.421146
_symmetry_space_group_name_H-M "P 2/C"
_symmetry_group_IT_number 13
_symmetry_cell_setting 'monoclinic'
loop_
_space_group_symop_operation_xyz
x,y,z
-x,y,1/2-z
-x,-y,-z
x,-y,1/2+z
loop_
_atom_site_type_symbol
_atom_site_label
_atom_site_fract_x
_atom_site_fract_y
_atom_site_fract_z
Si Si1 0.550950 0.258414 0.397808
Si Si2 0.845117 0.140640 0.831731
Si Si3 0.340676 0.556158 0.896756
Si Si4 0.178992 0.047129 0.443515
Si Si5 0.423559 0.018240 0.425509
Si Si6 0.349122 0.747078 0.291188
O O1 0.620746 0.366923 0.240372
O O2 0.688447 0.147763 0.262814
O O3 0.445992 0.134177 0.475683
O O4 0.451143 0.330191 0.593164
O O5 0.020193 0.105615 0.601691
O O6 0.775894 0.323454 0.913050
O O7 0.821456 0.096330 0.957832
O O8 0.748843 0.020353 0.891280
O O9 0.500000 0.537682 0.750000
O O10 0.285397 0.378344 0.936395
O O11 0.224892 0.859839 0.397419
O O12 0.500000 0.098789 0.250000
O O13 0.527913 0.863879 0.314166
#
# Coordination Sequence:
#
# PCOD9227421 Si02
#       6
#     4   4   4   4   4   4
#     4  10  19  37  55  84 116 154 184 227 293 343
#     4  10  18  35  58  81 110 152 191 228 280 347
#     4  11  20  36  62  85 108 154 196 235 280 336
#     4   9  19  34  56  84 113 148 188 231 285 331
#     4  11  16  34  58  82 110 149 203 232 263 336
#     4  11  22  33  58  89 117 140 194 245 278 326
#
# _framework density 20.348965
#
# number of rings (size 3 to 8) (size 9 to 14) (size 15 to 20)
#    0.000    1.667    6.667    3.000    0.000    0.000 
#    0.000   10.000    0.000    1.000    0.000    0.000 
#    0.000    0.000    0.000    0.000    0.000    0.000 
#
# Total GULP energy -133607.585455 kJ/mol
# GULP energy per Si atom -5566.982727 kJ/mol
# Density = 2.030265 g / cm^3
# Si number density = 20.348965 Si / 1000 Ang^3
#
#
#
# Elastic Constant Matrix: (Units=GPa)
#
#
# Indices 1 2 3 4 5 6 
#
# 1 43.7454 17.6610 34.4218 0.0000 -22.0639 0.0000
# 2 17.6610 88.2927 25.4967 0.0000 -10.0191 0.0000
# 3 34.4218 25.4967 89.0813 0.0000 -26.4577 0.0000
# 4 0.0000 0.0000 0.0000 10.3758 0.0000 7.8368
# 5 -22.0639 -10.0191 -26.4577 0.0000 36.4636 0.0000
# 6 0.0000 0.0000 0.0000 7.8368 0.0000 18.9686
#
#
#
# Elastic Compliance Matrix: (Units=1/GPa)
#
#
# Indices 1 2 3 4 5 6 
#
# 1 0.040045 -0.003369 -0.009672 0.000000 0.016287 0.000000
# 2 -0.003369 0.012662 -0.002415 0.000000 -0.000312 0.000000
# 3 -0.009672 -0.002415 0.017488 0.000000 0.006173 0.000000
# 4 0.000000 0.000000 0.000000 0.140094 0.000000 -0.057879
# 5 0.016287 -0.000312 0.006173 0.000000 0.041673 0.000000
# 6 0.000000 0.000000 0.000000 -0.057879 0.000000 0.076631
#
#
# Mechanical properties :
#
#
# Convention : Reuss Voigt Hill
#
# Bulk Modulus (GPa) = 25.45629 41.80871 33.63250
# Shear Modulus (GPa) = 13.41925 22.73092 18.07509
#
# Velocity S-wave (km/s) = 2.57077 3.34586 2.98360
# Velocity P-wave (km/s) = 4.62048 5.95960 5.33225
#
# Compressibility (1/GPa) = 0.03928302
#
# Stress axis : x y z
#
# Youngs Moduli (GPa) = 24.97178 78.97763 57.18325
#
# Poissons Ratio (x) = 0.26606 0.55308
# Poissons Ratio (y) = 0.08413 0.13809
# Poissons Ratio (z) = 0.24153 0.19072
#
# Static dielectric constant tensor:
#      x y z
#    x 1.748770 0.000000 -0.011220 
#    y 0.000000 1.827800 0.000000 
#    z -0.011220 0.000000 1.764560 
# 
# From -- ./inp_files/82367.got.cif
#   From: 2010.05.17/outbox.cif.g08.bks.cpg/sg13_42_cif.got.tgz:82367.got - 2010.06.03 16:44:36.
