data_PCOD9227855
_publ_section_title
;
Structure prediction by ZEFSAII (Michael W. Deem and Ramdas Pophale) SiO2 
 PCOD9227855
Probable space group: P 2/C
;
_chemical_formula_sum "Si O2"
_cell_formula_units_Z 28
_cell_length_a 8.313738
_cell_length_b 34.521619
_cell_length_c 5.320155
_cell_angle_alpha 90.000000
_cell_angle_beta 121.161781
_cell_angle_gamma 90.000000
_cell_volume 1306.586565
_symmetry_space_group_name_H-M "P 2/C"
_symmetry_group_IT_number 13
_symmetry_cell_setting 'monoclinic'
loop_
_space_group_symop_operation_xyz
x,y,z
-x,y,1/2-z
-x,-y,-z
x,-y,1/2+z
loop_
_atom_site_type_symbol
_atom_site_label
_atom_site_fract_x
_atom_site_fract_y
_atom_site_fract_z
Si Si1 0.722060 0.745250 0.939575
Si Si2 0.272462 0.786775 0.054997
Si Si3 0.230341 0.388023 0.431537
Si Si4 0.770555 0.522436 0.567317
Si Si5 0.223860 0.654636 0.426976
Si Si6 0.000000 0.907625 0.250000
Si Si7 0.274654 0.023111 0.064042
Si Si8 0.000000 0.855952 0.750000
O O1 0.500000 0.752442 0.750000
O O2 0.786929 0.757045 0.714144
O O3 0.795466 0.771321 0.228818
O O4 0.747175 0.700393 0.025798
O O5 0.500000 0.789391 0.250000
O O6 0.179206 0.827377 0.907960
O O7 0.287029 0.432819 0.484082
O O8 0.293580 0.364114 0.725776
O O9 0.000000 0.387602 0.250000
O O10 0.295904 0.367253 0.231210
O O11 0.710644 0.499407 0.271170
O O12 0.000000 0.522292 0.750000
O O13 0.000000 0.648476 0.250000
O O14 0.176376 0.936506 0.422616
O O15 0.994483 0.881719 0.495249
O O16 0.500000 0.027179 0.250000
O O17 0.221417 0.006128 0.294040
#
# Coordination Sequence:
#
# PCOD9227855 Si02
#       8
#     4   4   4   4   4   2   4   2
#     4  10  21  38  58  79 104 138 181 228 278 335
#     4  10  23  41  59  81 112 148 191 243 283 338
#     4   9  17  28  39  65 101 124 160 207 257 314
#     4   9  15  23  37  55  84 130 165 191 238 305
#     4  10  19  29  48  73  98 129 157 210 273 322
#     4  12  24  39  60  94 124 160 202 254 294 345
#     4  10  21  39  64  92 125 166 206 249 302 354
#     4  12  26  39  62  88 120 162 202 240 300 351
#
# _framework density 21.429886
#
# number of rings (size 3 to 8) (size 9 to 14) (size 15 to 20)
#    0.000    2.000    0.000    3.857    2.000    4.571 
#    0.000    0.000    0.000    0.000    0.000    0.000 
#    0.000   11.429    0.000    0.000    0.000    0.000 
#
# Total GULP energy -156596.194052 kJ/mol
# GULP energy per Si atom -5592.721216 kJ/mol
# Density = 2.138111 g / cm^3
# Si number density = 21.429886 Si / 1000 Ang^3
#
#
#
# Elastic Constant Matrix: (Units=GPa)
#
#
# Indices 1 2 3 4 5 6 
#
# 1 47.5293 23.5143 62.1654 0.0000 -10.9686 0.0000
# 2 23.5143 164.4916 96.3782 0.0000 -29.0297 0.0000
# 3 62.1654 96.3782 189.4722 0.0000 -33.7456 0.0000
# 4 0.0000 0.0000 0.0000 -122.2204 0.0000 -158.7808
# 5 -10.9686 -29.0297 -33.7456 0.0000 48.5596 0.0000
# 6 0.0000 0.0000 0.0000 -158.7808 0.0000 -96.4654
#
#
#
# Elastic Compliance Matrix: (Units=1/GPa)
#
#
# Indices 1 2 3 4 5 6 
#
# 1 0.037664 0.002713 -0.013619 0.000000 0.000665 0.000000
# 2 0.002713 0.009111 -0.005073 0.000000 0.002534 0.000000
# 3 -0.013619 -0.005073 0.012826 0.000000 0.002804 0.000000
# 4 0.000000 0.000000 0.000000 0.007187 0.000000 -0.011830
# 5 0.000665 0.002534 0.002804 0.000000 0.024207 0.000000
# 6 0.000000 0.000000 0.000000 -0.011830 0.000000 0.009106
#
#
# Mechanical properties :
#
#
# Convention : Reuss Voigt Hill
#
# Bulk Modulus (GPa) = 36.17643 85.06766 60.62205
# Shear Modulus (GPa) = 35.39197 -19.39622 7.99787
#
# Velocity S-wave (km/s) = 4.06830 -3.01175 1.93396
# Velocity P-wave (km/s) = 6.24388 5.26192 5.77381
#
# Compressibility (1/GPa) = 0.02764231
#
# Stress axis : x y z
#
# Youngs Moduli (GPa) = 26.55084 109.75375 77.96537
#
# Poissons Ratio (x) = -0.29774 1.06180
# Poissons Ratio (y) = -0.07203 0.39555
# Poissons Ratio (z) = 0.36159 0.55682
#
# Static dielectric constant tensor:
#      x y z
#    x 1.886100 0.000000 0.091820 
#    y 0.000000 1.716620 0.000000 
#    z 0.091820 0.000000 1.818150 
# 
# From -- ./inp_files/2764.got.cif
#   From: 2010.05.17/outbox.cif.g08.bks.cpg/sg13_2_cif.got.tgz:2764.got - 2010.06.03 16:44:36.
