data_PCOD9227497
_publ_section_title
;
Structure prediction by ZEFSAII (Michael W. Deem and Ramdas Pophale) SiO2 
 PCOD9227497
Probable space group: P 2/C
;
_chemical_formula_sum "Si O2"
_cell_formula_units_Z 22
_cell_length_a 6.497416
_cell_length_b 7.872333
_cell_length_c 19.990411
_cell_angle_alpha 90.000000
_cell_angle_beta 84.365392
_cell_angle_gamma 90.000000
_cell_volume 1017.565506
_symmetry_space_group_name_H-M "P 2/C"
_symmetry_group_IT_number 13
_symmetry_cell_setting 'monoclinic'
loop_
_space_group_symop_operation_xyz
x,y,z
-x,y,1/2-z
-x,-y,-z
x,-y,1/2+z
loop_
_atom_site_type_symbol
_atom_site_label
_atom_site_fract_x
_atom_site_fract_y
_atom_site_fract_z
Si Si1 0.171399 0.621310 0.963075
Si Si2 0.000000 0.741993 0.750000
Si Si3 0.841857 0.544250 0.168487
Si Si4 0.765426 0.735556 0.401711
Si Si5 0.593076 0.871915 0.180809
Si Si6 0.972294 0.069056 0.117294
O O1 0.264436 0.523347 0.896385
O O2 0.051312 0.781550 0.935052
O O3 0.306139 0.672922 0.022768
O O4 0.000000 0.500000 0.000000
O O5 0.841568 0.609041 0.720948
O O6 0.061724 0.858336 0.684898
O O7 0.734681 0.712579 0.198739
O O8 0.075583 0.602267 0.139058
O O9 0.580670 0.792953 0.360610
O O10 0.899383 0.906453 0.409395
O O11 0.500000 0.953258 0.250000
O O12 0.741365 0.002606 0.139217
#
# Coordination Sequence:
#
# PCOD9227497 Si02
#       6
#     4   2   4   4   4   4
#     4   9  19  38  60  82 110 147 186 228 278 326
#     4  10  18  36  56  74 112 146 172 228 276 308
#     4   9  20  37  57  81 109 143 187 229 272 332
#     4  10  20  37  59  80 111 148 180 229 283 322
#     4  11  22  36  56  84 113 146 186 225 275 332
#     4  10  21  37  58  84 112 145 188 227 269 335
#
# _framework density 21.620229999999999
#
# number of rings (size 3 to 8) (size 9 to 14) (size 15 to 20)
#    0.000    2.182    0.000    2.727    0.000    4.364 
#    0.000   23.636    0.000    0.000    0.000    0.000 
#    0.000    0.000    0.000    0.000    0.000    0.000 
#
# Total GULP energy -122779.917150 kJ/mol
# GULP energy per Si atom -5580.905325 kJ/mol
# Density = 2.157102 g / cm^3
# Si number density = 21.620230 Si / 1000 Ang^3
#
#
#
# Elastic Constant Matrix: (Units=GPa)
#
#
# Indices 1 2 3 4 5 6 
#
# 1 51.4107 12.0235 29.6051 0.0000 6.4384 0.0000
# 2 12.0235 83.4062 24.2548 0.0000 -4.3636 0.0000
# 3 29.6051 24.2548 123.0329 0.0000 17.1574 0.0000
# 4 0.0000 0.0000 0.0000 46.2227 0.0000 5.0872
# 5 6.4384 -4.3636 17.1574 0.0000 18.8908 0.0000
# 6 0.0000 0.0000 0.0000 5.0872 0.0000 7.1706
#
#
#
# Elastic Compliance Matrix: (Units=1/GPa)
#
#
# Indices 1 2 3 4 5 6 
#
# 1 0.023117 -0.002242 -0.004523 0.000000 -0.004289 0.000000
# 2 -0.002242 0.013553 -0.003064 0.000000 0.006677 0.000000
# 3 -0.004523 -0.003064 0.011111 0.000000 -0.009258 0.000000
# 4 0.000000 0.000000 0.000000 0.023467 0.000000 -0.016648
# 5 -0.004289 0.006677 -0.009258 0.000000 0.064348 0.000000
# 6 0.000000 0.000000 0.000000 -0.016648 0.000000 0.151269
#
#
# Mechanical properties :
#
#
# Convention : Reuss Voigt Hill
#
# Bulk Modulus (GPa) = 35.55497 43.29075 39.42286
# Shear Modulus (GPa) = 15.82803 27.25458 21.54131
#
# Velocity S-wave (km/s) = 2.70866 3.55435 3.15993
# Velocity P-wave (km/s) = 5.12478 6.07547 5.62026
#
# Compressibility (1/GPa) = 0.02812546
#
# Stress axis : x y z
#
# Youngs Moduli (GPa) = 43.25828 73.78504 89.99972
#
# Poissons Ratio (x) = 0.16540 0.40703
# Poissons Ratio (y) = 0.09697 0.27572
# Poissons Ratio (z) = 0.19564 0.22604
#
# Static dielectric constant tensor:
#      x y z
#    x 1.760080 0.000000 0.016070 
#    y 0.000000 1.770180 0.000000 
#    z 0.016070 0.000000 1.826090 
# 
# From -- ./inp_files/73092.got.cif
#   From: 2010.05.17/outbox.cif.g08.bks.cpg/sg13_37_cif.got.tgz:73092.got - 2010.06.03 16:44:36.
