data_PCOD9227006
_publ_section_title
;
Structure prediction by ZEFSAII (Michael W. Deem and Ramdas Pophale) SiO2 
 PCOD9227006
Probable space group: P 2/C
;
_chemical_formula_sum "Si O2"
_cell_formula_units_Z 28
_cell_length_a 14.798191
_cell_length_b 9.236371
_cell_length_c 10.880771
_cell_angle_alpha 90.000000
_cell_angle_beta 64.810741
_cell_angle_gamma 90.000000
_cell_volume 1345.778377
_symmetry_space_group_name_H-M "P 2/C"
_symmetry_group_IT_number 13
_symmetry_cell_setting 'monoclinic'
loop_
_space_group_symop_operation_xyz
x,y,z
-x,y,1/2-z
-x,-y,-z
x,-y,1/2+z
loop_
_atom_site_type_symbol
_atom_site_label
_atom_site_fract_x
_atom_site_fract_y
_atom_site_fract_z
Si Si1 0.810389 0.901775 0.079186
Si Si2 0.599527 0.712398 0.942534
Si Si3 0.413620 0.404334 0.651753
Si Si4 0.386356 0.927146 0.775455
Si Si5 0.728538 0.696956 0.485125
Si Si6 0.748059 0.611882 0.047687
Si Si7 0.116241 0.074696 0.699352
O O1 0.822031 0.728931 0.062338
O O2 0.861937 0.966594 0.171312
O O3 0.692578 0.942698 0.163181
O O4 0.850879 0.964767 0.927691
O O5 0.567173 0.577105 0.873397
O O6 0.607075 0.861704 0.865750
O O7 0.509590 0.698603 0.091406
O O8 0.704683 0.674165 0.944498
O O9 0.348401 0.359903 0.571716
O O10 0.346617 0.390730 0.808501
O O11 0.500000 0.955677 0.750000
O O12 0.333749 0.798863 0.885995
O O13 0.777412 0.554832 0.517401
O O14 0.812933 0.789520 0.369911
O O15 0.000000 0.105365 0.750000
#
# Coordination Sequence:
#
# PCOD9227006 Si02
#       7
#     4   4   4   4   4   4   4
#     4  11  25  43  66  98 130 168 212 267 326 389
#     4  10  20  30  55  86 121 173 214 245 295 362
#     4  10  18  32  54  84 123 164 211 252 293 357
#     4  11  21  37  57  90 132 172 209 252 308 380
#     4  10  21  38  63  89 123 166 209 260 315 372
#     4  11  21  37  58  90 128 165 208 261 313 374
#     4  11  24  48  72  93 121 166 216 273 333 390
#
# _framework density 20.805803999999998
#
# number of rings (size 3 to 8) (size 9 to 14) (size 15 to 20)
#    0.000    1.429    4.286    1.714    0.000    1.143 
#    0.000    4.286    0.000    0.000    0.000    0.000 
#    0.000    0.000    0.000    0.000    0.000    0.000 
#
# Total GULP energy -156311.722169 kJ/mol
# GULP energy per Si atom -5582.561506 kJ/mol
# Density = 2.075845 g / cm^3
# Si number density = 20.805804 Si / 1000 Ang^3
#
#
#
# Elastic Constant Matrix: (Units=GPa)
#
#
# Indices 1 2 3 4 5 6 
#
# 1 60.6582 1.7727 7.1111 0.0000 -0.2817 0.0000
# 2 1.7727 69.0238 9.5685 0.0000 1.2033 0.0000
# 3 7.1111 9.5685 50.2421 0.0000 11.2076 0.0000
# 4 0.0000 0.0000 0.0000 224.3514 0.0000 -49.0320
# 5 -0.2817 1.2033 11.2076 0.0000 31.2277 0.0000
# 6 0.0000 0.0000 0.0000 -49.0320 0.0000 28.7757
#
#
#
# Elastic Compliance Matrix: (Units=1/GPa)
#
#
# Indices 1 2 3 4 5 6 
#
# 1 0.016799 -0.000090 -0.002604 0.000000 0.001089 0.000000
# 2 -0.000090 0.014888 -0.002929 0.000000 0.000477 0.000000
# 3 -0.002604 -0.002929 0.022621 0.000000 -0.008029 0.000000
# 4 0.000000 0.000000 0.000000 0.007102 0.000000 0.012101
# 5 0.001089 0.000477 -0.008029 0.000000 0.034896 0.000000
# 6 0.000000 0.000000 0.000000 0.012101 0.000000 0.055372
#
#
# Mechanical properties :
#
#
# Convention : Reuss Voigt Hill
#
# Bulk Modulus (GPa) = 23.22164 24.09209 23.65687
# Shear Modulus (GPa) = 28.20459 67.63574 47.92017
#
# Velocity S-wave (km/s) = 3.68586 5.70777 4.80439
# Velocity P-wave (km/s) = 5.41289 7.41909 6.49393
#
# Compressibility (1/GPa) = 0.04306328
#
# Stress axis : x y z
#
# Youngs Moduli (GPa) = 59.52834 67.16912 44.20655
#
# Poissons Ratio (x) = 0.00601 0.11510
# Poissons Ratio (y) = 0.00533 0.12948
# Poissons Ratio (z) = 0.15499 0.19674
#
# Static dielectric constant tensor:
#      x y z
#    x 1.759920 0.000000 0.048390 
#    y 0.000000 1.793830 0.000000 
#    z 0.048390 0.000000 1.778740 
# 
# From -- ./inp_files/36246.got.cif
#   From: 2010.05.17/outbox.cif.g08.bks.cpg/sg13_19_cif.got.tgz:36246.got - 2010.06.03 16:44:36.
