data_PCOD9227931
_publ_section_title
;
Structure prediction by ZEFSAII (Michael W. Deem and Ramdas Pophale) SiO2 
 PCOD9227931
Probable space group: P 2/C
;
_chemical_formula_sum "Si O2"
_cell_formula_units_Z 20
_cell_length_a 11.394191
_cell_length_b 5.171406
_cell_length_c 14.402073
_cell_angle_alpha 90.000000
_cell_angle_beta 79.728205
_cell_angle_gamma 90.000000
_cell_volume 835.026565
_symmetry_space_group_name_H-M "P 2/C"
_symmetry_group_IT_number 13
_symmetry_cell_setting 'monoclinic'
loop_
_space_group_symop_operation_xyz
x,y,z
-x,y,1/2-z
-x,-y,-z
x,-y,1/2+z
loop_
_atom_site_type_symbol
_atom_site_label
_atom_site_fract_x
_atom_site_fract_y
_atom_site_fract_z
Si Si1 0.125945 0.885991 0.956605
Si Si2 0.557293 0.797699 0.105116
Si Si3 0.741767 0.153356 0.724956
Si Si4 0.649258 0.703851 0.486814
Si Si5 0.867668 0.345600 0.231898
O O1 0.213395 0.786363 0.024293
O O2 0.116815 0.659634 0.881833
O O3 0.190555 0.099835 0.883771
O O4 0.000000 0.000000 0.000000
O O5 0.613641 0.782262 0.199395
O O6 0.622807 0.579770 0.031760
O O7 0.584368 0.087539 0.064386
O O8 0.418143 0.742743 0.101290
O O9 0.809904 0.383943 0.765287
O O10 0.772481 0.880459 0.769291
O O11 0.000000 0.295475 0.250000
#
# Coordination Sequence:
#
# PCOD9227931 Si02
#       5
#     4   4   4   4   4
#     4   9  19  31  45  70 101 121 151 187 245 289
#     4   9  14  27  42  63  91 111 152 187 233 264
#     4   9  17  30  46  66  90 119 150 195 228 270
#     4   9  16  25  42  64  91 120 139 190 232 273
#     4  10  19  31  45  66  93 121 160 188 228 279
#
# _framework density 23.951332000000001
#
# number of rings (size 3 to 8) (size 9 to 14) (size 15 to 20)
#    1.200    1.600    2.000    0.600    0.000    0.800 
#    0.000    0.000    0.000    0.000    0.000    1.400 
#    0.000    0.000    0.000    0.000    0.000    0.000 
#
# Total GULP energy -111474.056166 kJ/mol
# GULP energy per Si atom -5573.702808 kJ/mol
# Density = 2.389682 g / cm^3
# Si number density = 23.951332 Si / 1000 Ang^3
#
#
#
# Elastic Constant Matrix: (Units=GPa)
#
#
# Indices 1 2 3 4 5 6 
#
# 1 145.1376 5.3247 26.5238 0.0000 33.2773 0.0000
# 2 5.3247 123.1676 19.0931 0.0000 11.2265 0.0000
# 3 26.5238 19.0931 99.6834 0.0000 37.5499 0.0000
# 4 0.0000 0.0000 0.0000 11.4358 0.0000 17.5060
# 5 33.2773 11.2265 37.5499 0.0000 50.4913 0.0000
# 6 0.0000 0.0000 0.0000 17.5060 0.0000 24.3850
#
#
#
# Elastic Compliance Matrix: (Units=1/GPa)
#
#
# Indices 1 2 3 4 5 6 
#
# 1 0.008122 0.000160 -0.000225 0.000000 -0.005222 0.000000
# 2 0.000160 0.008402 -0.001262 0.000000 -0.001035 0.000000
# 3 -0.000225 -0.001262 0.014130 0.000000 -0.010080 0.000000
# 4 0.000000 0.000000 0.000000 -0.883599 0.000000 0.634335
# 5 -0.005222 -0.001035 -0.010080 0.000000 0.030973 0.000000
# 6 0.000000 0.000000 0.000000 0.634335 0.000000 -0.414380
#
#
# Mechanical properties :
#
#
# Convention : Reuss Voigt Hill
#
# Bulk Modulus (GPa) = 35.71388 52.20800 43.96094
# Shear Modulus (GPa) = -4.08376 38.39888 17.15756
#
# Velocity S-wave (km/s) = -1.30718 4.00835 2.67938
# Velocity P-wave (km/s) = 3.55881 6.57779 5.28831
#
# Compressibility (1/GPa) = 0.02800032
#
# Stress axis : x y z
#
# Youngs Moduli (GPa) = 123.11559 119.01833 70.77014
#
# Poissons Ratio (x) = -0.01900 0.01592
# Poissons Ratio (y) = -0.01966 0.08931
# Poissons Ratio (z) = 0.02769 0.15020
#
# Static dielectric constant tensor:
#      x y z
#    x 1.940750 0.000000 0.003290 
#    y 0.000000 1.884060 0.000000 
#    z 0.003290 0.000000 1.970870 
# 
# From -- ./inp_files/76939.got.cif
#   From: 2010.05.17/outbox.cif.g08.bks.cpg/sg13_39_cif.got.tgz:76939.got - 2010.06.03 16:44:36.
