data_PCOD9227542
_publ_section_title
;
Structure prediction by ZEFSAII (Michael W. Deem and Ramdas Pophale) SiO2 
 PCOD9227542
Probable space group: P 2/C
;
_chemical_formula_sum "Si O2"
_cell_formula_units_Z 30
_cell_length_a 18.426729
_cell_length_b 9.521371
_cell_length_c 15.604728
_cell_angle_alpha 90.000000
_cell_angle_beta 34.772252
_cell_angle_gamma 90.000000
_cell_volume 1561.418644
_symmetry_space_group_name_H-M "P 2/C"
_symmetry_group_IT_number 13
_symmetry_cell_setting 'monoclinic'
loop_
_space_group_symop_operation_xyz
x,y,z
-x,y,1/2-z
-x,-y,-z
x,-y,1/2+z
loop_
_atom_site_type_symbol
_atom_site_label
_atom_site_fract_x
_atom_site_fract_y
_atom_site_fract_z
Si Si1 0.188046 0.211522 0.601538
Si Si2 0.144746 0.827852 0.331552
Si Si3 0.639151 0.274030 0.472171
Si Si4 0.000000 0.999302 0.250000
Si Si5 0.096951 0.855693 0.826865
Si Si6 0.428382 0.259003 0.541140
Si Si7 0.565429 0.035149 0.095995
Si Si8 0.373432 0.557363 0.927837
O O1 0.119576 0.233883 0.760039
O O2 0.298753 0.107009 0.524183
O O3 0.254791 0.353252 0.505482
O O4 0.107309 0.113579 0.617203
O O5 0.026847 0.790563 0.507120
O O6 0.138350 0.998059 0.332467
O O7 0.289316 0.781777 0.215313
O O8 0.778827 0.241356 0.299154
O O9 0.532796 0.314448 0.505420
O O10 0.651207 0.394520 0.531483
O O11 0.584331 0.127845 0.561469
O O12 0.052998 0.093158 0.275027
O O13 0.486890 0.122159 0.434593
O O14 0.398773 0.370930 0.495517
O O15 0.500000 0.060436 0.250000
O O16 0.500000 0.577316 0.750000
#
# Coordination Sequence:
#
# PCOD9227542 Si02
#       8
#     4   4   4   2   4   4   4   4
#     4   9  18  38  57  79 111 152 197 237 277 349
#     4   8  17  36  55  80 118 145 184 234 290 341
#     4  12  21  36  59  90 121 151 186 253 300 341
#     4  10  18  36  60  80 116 150 194 236 298 346
#     4  10  19  35  55  89 119 145 180 247 299 337
#     4  10  20  38  60  84 115 157 205 235 282 360
#     4  10  19  34  56  90 116 146 193 245 289 341
#     4  10  22  42  57  80 121 159 197 245 293 343
#
# _framework density 19.213297000000001
#
# number of rings (size 3 to 8) (size 9 to 14) (size 15 to 20)
#    0.000    2.400    4.000    2.800    0.000    1.067 
#   14.400    3.333    0.000    0.000    0.000    0.000 
#    0.000    0.000    0.000    0.000    0.000    0.000 
#
# Total GULP energy -167009.141324 kJ/mol
# GULP energy per Si atom -5566.971377 kJ/mol
# Density = 1.916957 g / cm^3
# Si number density = 19.213297 Si / 1000 Ang^3
#
#
#
# Elastic Constant Matrix: (Units=GPa)
#
#
# Indices 1 2 3 4 5 6 
#
# 1 40.3685 -15.4978 18.3096 0.0000 -20.7423 0.0000
# 2 -15.4978 53.9830 1.9304 0.0000 -1.7327 0.0000
# 3 18.3096 1.9304 127.8691 0.0000 -4.2286 0.0000
# 4 0.0000 0.0000 0.0000 21.4104 0.0000 0.4351
# 5 -20.7423 -1.7327 -4.2286 0.0000 17.0150 0.0000
# 6 0.0000 0.0000 0.0000 0.4351 0.0000 -2.9548
#
#
#
# Elastic Compliance Matrix: (Units=1/GPa)
#
#
# Indices 1 2 3 4 5 6 
#
# 1 0.127386 0.042074 -0.013711 0.000000 0.156167 0.000000
# 2 0.042074 0.032488 -0.004748 0.000000 0.053418 0.000000
# 3 -0.013711 -0.004748 0.009364 0.000000 -0.014871 0.000000
# 4 0.000000 0.000000 0.000000 0.046567 0.000000 0.006856
# 5 0.156167 0.053418 -0.014871 0.000000 0.250893 0.000000
# 6 0.000000 0.000000 0.000000 0.006856 0.000000 -0.337423
#
#
# Mechanical properties :
#
#
# Convention : Reuss Voigt Hill
#
# Bulk Modulus (GPa) = 4.61968 25.74499 15.18234
# Shear Modulus (GPa) = 32.42535 21.59268 27.00902
#
# Velocity S-wave (km/s) = 4.11256 3.35601 3.75340
# Velocity P-wave (km/s) = 4.99605 5.33345 5.16751
#
# Compressibility (1/GPa) = 0.21646514
#
# Stress axis : x y z
#
# Youngs Moduli (GPa) = 7.85018 30.78101 106.79550
#
# Poissons Ratio (x) = -1.29507 1.46428
# Poissons Ratio (y) = -0.33029 0.50711
# Poissons Ratio (z) = 0.10763 0.14616
#
# Static dielectric constant tensor:
#      x y z
#    x 1.866560 0.000000 -0.027330 
#    y 0.000000 1.692820 0.000000 
#    z -0.027330 0.000000 1.805250 
# 
# From -- ./inp_files/70577.got.cif
#   From: 2010.05.17/outbox.cif.g08.bks.cpg/sg13_36_cif.got.tgz:70577.got - 2010.06.03 16:44:36.
