data_PCOD9227063
_publ_section_title
;
Structure prediction by ZEFSAII (Michael W. Deem and Ramdas Pophale) SiO2 
 PCOD9227063
Probable space group: P 2/C
;
_chemical_formula_sum "Si O2"
_cell_formula_units_Z 28
_cell_length_a 21.482313
_cell_length_b 9.596419
_cell_length_c 18.134607
_cell_angle_alpha 90.000000
_cell_angle_beta 160.141947
_cell_angle_gamma 90.000000
_cell_volume 1269.937974
_symmetry_space_group_name_H-M "P 2/C"
_symmetry_group_IT_number 13
_symmetry_cell_setting 'monoclinic'
loop_
_space_group_symop_operation_xyz
x,y,z
-x,y,1/2-z
-x,-y,-z
x,-y,1/2+z
loop_
_atom_site_type_symbol
_atom_site_label
_atom_site_fract_x
_atom_site_fract_y
_atom_site_fract_z
Si Si1 0.665119 0.704576 0.526860
Si Si2 0.859654 0.016228 0.234333
Si Si3 0.820137 0.560430 0.000762
Si Si4 0.095110 0.363835 0.071100
Si Si5 0.185050 0.866080 0.185929
Si Si6 0.500000 0.466968 0.250000
Si Si7 0.270057 0.762427 0.128609
Si Si8 0.000000 0.021154 0.250000
O O1 0.799080 0.825691 0.648762
O O2 0.733845 0.666983 0.684926
O O3 0.644051 0.566614 0.454530
O O4 0.464346 0.767906 0.305965
O O5 0.053547 0.031259 0.492400
O O6 0.892218 0.939642 0.193741
O O7 0.727224 0.950659 0.148606
O O8 0.000000 0.587669 0.250000
O O9 0.846307 0.623984 0.948350
O O10 0.633217 0.602400 0.837061
O O11 0.805629 0.393069 0.969404
O O12 0.000000 0.500000 0.000000
O O13 0.945034 0.244692 0.918243
O O14 0.294690 0.789557 0.243627
O O15 0.141232 0.878493 0.949622
#
# Coordination Sequence:
#
# PCOD9227063 Si02
#       8
#     4   4   4   4   4   2   4   2
#     4  10  21  35  56  90 114 143 193 251 293 352
#     4   9  18  34  55  77 111 141 184 235 282 340
#     4  11  21  37  57  84 118 159 196 250 299 354
#     4  11  21  37  59  83 115 155 200 239 295 355
#     4   9  19  35  54  81 106 148 187 227 288 353
#     4  10  22  34  56  92 122 146 200 250 308 346
#     4  10  19  33  59  86 111 146 192 244 298 340
#     4  10  18  32  58  82 112 144 190 238 286 346
#
# _framework density 22.048321999999999
#
# number of rings (size 3 to 8) (size 9 to 14) (size 15 to 20)
#    0.000    2.000    2.143    2.571    2.000    2.857 
#    3.857    0.000    0.000    0.000    0.000    0.000 
#    0.000    0.000    0.000    0.000    0.000    0.000 
#
# Total GULP energy -156145.084673 kJ/mol
# GULP energy per Si atom -5576.610167 kJ/mol
# Density = 2.199814 g / cm^3
# Si number density = 22.048322 Si / 1000 Ang^3
#
#
#
# Elastic Constant Matrix: (Units=GPa)
#
#
# Indices 1 2 3 4 5 6 
#
# 1 201.6506 9.1916 19.2084 0.0000 -7.5346 0.0000
# 2 9.1916 32.1309 -5.1911 0.0000 -0.4353 0.0000
# 3 19.2084 -5.1911 43.1749 0.0000 -5.9894 0.0000
# 4 0.0000 0.0000 0.0000 5.0525 0.0000 -1.5991
# 5 -7.5346 -0.4353 -5.9894 0.0000 31.4057 0.0000
# 6 0.0000 0.0000 0.0000 -1.5991 0.0000 26.6743
#
#
#
# Elastic Compliance Matrix: (Units=1/GPa)
#
#
# Indices 1 2 3 4 5 6 
#
# 1 0.005312 -0.001911 -0.002486 0.000000 0.000774 0.000000
# 2 -0.001911 0.032470 0.004882 0.000000 0.000923 0.000000
# 3 -0.002486 0.004882 0.025455 0.000000 0.004326 0.000000
# 4 0.000000 0.000000 0.000000 0.201750 0.000000 0.012094
# 5 0.000774 0.000923 0.004326 0.000000 0.032865 0.000000
# 6 0.000000 0.000000 0.000000 0.012094 0.000000 0.038214
#
#
# Mechanical properties :
#
#
# Convention : Reuss Voigt Hill
#
# Bulk Modulus (GPa) = 15.57425 35.93047 25.75236
# Shear Modulus (GPa) = 14.02537 29.54300 21.78419
#
# Velocity S-wave (km/s) = 2.52488 3.66446 3.14669
# Velocity P-wave (km/s) = 3.94703 5.85115 4.99074
#
# Compressibility (1/GPa) = 0.06420854
#
# Stress axis : x y z
#
# Youngs Moduli (GPa) = 188.25848 30.79720 39.28578
#
# Poissons Ratio (x) = 0.05884 0.09765
# Poissons Ratio (y) = 0.35969 -0.19180
# Poissons Ratio (z) = 0.46793 -0.15035
#
# Static dielectric constant tensor:
#      x y z
#    x 1.970760 0.000000 -0.007750 
#    y 0.000000 1.880270 0.000000 
#    z -0.007750 0.000000 1.807760 
# 
# From -- ./inp_files/70744.got.cif
#   From: 2010.05.17/outbox.cif.g08.bks.cpg/sg13_36_cif.got.tgz:70744.got - 2010.06.03 16:44:36.
