data_PCOD9227804
_publ_section_title
;
Structure prediction by ZEFSAII (Michael W. Deem and Ramdas Pophale) SiO2 
 PCOD9227804
Probable space group: P 2/C
;
_chemical_formula_sum "Si O2"
_cell_formula_units_Z 22
_cell_length_a 11.277393
_cell_length_b 6.211923
_cell_length_c 15.006564
_cell_angle_alpha 90.000000
_cell_angle_beta 88.814897
_cell_angle_gamma 90.000000
_cell_volume 1051.049418
_symmetry_space_group_name_H-M "P 2/C"
_symmetry_group_IT_number 13
_symmetry_cell_setting 'monoclinic'
loop_
_space_group_symop_operation_xyz
x,y,z
-x,y,1/2-z
-x,-y,-z
x,-y,1/2+z
loop_
_atom_site_type_symbol
_atom_site_label
_atom_site_fract_x
_atom_site_fract_y
_atom_site_fract_z
Si Si1 0.395825 0.739512 0.422267
Si Si2 0.000000 0.590344 0.250000
Si Si3 0.349042 0.419153 0.582580
Si Si4 0.188713 0.265218 0.171377
Si Si5 0.184009 0.085678 0.826396
Si Si6 0.224889 0.033747 0.514038
O O1 0.366674 0.536702 0.486606
O O2 0.530974 0.704475 0.393567
O O3 0.303670 0.775197 0.343092
O O4 0.356880 0.943988 0.484019
O O5 0.086207 0.432457 0.195068
O O6 0.080004 0.748336 0.307994
O O7 0.308388 0.597568 0.653596
O O8 0.244071 0.250232 0.567522
O O9 0.198481 0.086438 0.247884
O O10 0.167538 0.141706 0.079034
O O11 0.162319 0.959330 0.919615
#
# Coordination Sequence:
#
# PCOD9227804 Si02
#       6
#     4   2   4   4   4   4
#     4   8  20  38  71  98 131 172 208 266 339 402
#     4  12  26  46  64  86 140 176 238 286 324 398
#     4  10  18  41  72 101 131 168 218 270 336 412
#     4  11  24  42  67  98 131 176 227 281 329 400
#     4  10  24  44  66  97 136 177 220 281 337 389
#     4   9  21  41  69  98 132 170 217 274 339 396
#
# _framework density 20.931460999999999
#
# number of rings (size 3 to 8) (size 9 to 14) (size 15 to 20)
#    1.091    1.091    0.000    2.182    2.545    0.727 
#    0.000   10.000    0.000    0.000    0.000    0.000 
#    0.000    0.000    0.000    0.000    0.000    0.000 
#
# Total GULP energy -122637.764269 kJ/mol
# GULP energy per Si atom -5574.443830 kJ/mol
# Density = 2.088382 g / cm^3
# Si number density = 20.931461 Si / 1000 Ang^3
#
#
#
# Elastic Constant Matrix: (Units=GPa)
#
#
# Indices 1 2 3 4 5 6 
#
# 1 103.7245 45.1661 48.7155 0.0000 19.1451 0.0000
# 2 45.1661 68.6920 34.1017 0.0000 8.7491 0.0000
# 3 48.7155 34.1017 101.9676 0.0000 -5.3350 0.0000
# 4 0.0000 0.0000 0.0000 13.4006 0.0000 -1.9861
# 5 19.1451 8.7491 -5.3350 0.0000 39.4131 0.0000
# 6 0.0000 0.0000 0.0000 -1.9861 0.0000 28.6416
#
#
#
# Elastic Compliance Matrix: (Units=1/GPa)
#
#
# Indices 1 2 3 4 5 6 
#
# 1 0.017042 -0.007209 -0.006123 0.000000 -0.007507 0.000000
# 2 -0.007209 0.021414 -0.003810 0.000000 -0.001768 0.000000
# 3 -0.006123 -0.003810 0.014308 0.000000 0.005757 0.000000
# 4 0.000000 0.000000 0.000000 0.075399 0.000000 0.005228
# 5 -0.007507 -0.001768 0.005757 0.000000 0.030190 0.000000
# 6 0.000000 0.000000 0.000000 0.005228 0.000000 0.035277
#
#
# Mechanical properties :
#
#
# Convention : Reuss Voigt Hill
#
# Bulk Modulus (GPa) = 54.11616 58.92785 56.52201
# Shear Modulus (GPa) = 21.36073 26.05113 23.70593
#
# Velocity S-wave (km/s) = 3.19801 3.53170 3.36899
# Velocity P-wave (km/s) = 6.28859 6.69660 6.49580
#
# Compressibility (1/GPa) = 0.01847877
#
# Stress axis : x y z
#
# Youngs Moduli (GPa) = 58.68000 46.69755 69.89102
#
# Poissons Ratio (x) = 0.33665 0.42798
# Poissons Ratio (y) = 0.42303 0.26629
# Poissons Ratio (z) = 0.35933 0.17792
#
# Static dielectric constant tensor:
#      x y z
#    x 1.776210 0.000000 -0.016520 
#    y 0.000000 1.739390 0.000000 
#    z -0.016520 0.000000 1.739460 
# 
# From -- ./inp_files/48941.got.cif
#   From: 2010.05.17/outbox.cif.g08.bks.cpg/sg13_25_cif.got.tgz:48941.got - 2010.06.03 16:44:36.
