data_PCOD9227204
_publ_section_title
;
Structure prediction by ZEFSAII (Michael W. Deem and Ramdas Pophale) SiO2 
 PCOD9227204
Probable space group: P 2/C
;
_chemical_formula_sum "Si O2"
_cell_formula_units_Z 28
_cell_length_a 8.775321
_cell_length_b 17.644587
_cell_length_c 12.214354
_cell_angle_alpha 90.000000
_cell_angle_beta 37.507267
_cell_angle_gamma 90.000000
_cell_volume 1151.499930
_symmetry_space_group_name_H-M "P 2/C"
_symmetry_group_IT_number 13
_symmetry_cell_setting 'monoclinic'
loop_
_space_group_symop_operation_xyz
x,y,z
-x,y,1/2-z
-x,-y,-z
x,-y,1/2+z
loop_
_atom_site_type_symbol
_atom_site_label
_atom_site_fract_x
_atom_site_fract_y
_atom_site_fract_z
Si Si1 0.667529 0.061676 0.260896
Si Si2 0.070591 0.823617 0.582985
Si Si3 0.361964 0.415741 0.715193
Si Si4 0.654007 0.290816 0.269262
Si Si5 0.754076 0.907303 0.321291
Si Si6 0.782835 0.440042 0.292462
Si Si7 0.588694 0.754076 0.358739
O O1 0.500000 0.074798 0.250000
O O2 0.937186 0.102855 0.105330
O O3 0.492464 0.092071 0.460301
O O4 0.704117 0.972914 0.262601
O O5 0.908325 0.755245 0.629145
O O6 0.000000 0.834852 0.750000
O O7 0.354073 0.793106 0.428763
O O8 0.500000 0.434798 0.750000
O O9 0.552613 0.431738 0.507370
O O10 0.158691 0.478792 0.796129
O O11 0.311652 0.325856 0.744336
O O12 0.500000 0.271333 0.250000
O O13 0.724236 0.379062 0.233113
O O14 0.506588 0.268116 0.464441
O O15 0.782636 0.822956 0.257738
O O16 0.000000 0.928028 0.250000
O O17 0.000000 0.414243 0.250000
#
# Coordination Sequence:
#
# PCOD9227204 Si02
#       7
#     4   4   4   4   4   4   4
#     4  11  24  43  67  95 122 165 219 263 314 383
#     4  10  18  37  66  88 120 164 214 263 307 367
#     4  10  22  41  61  90 131 166 206 262 319 377
#     4  10  18  33  62  96 120 160 222 267 299 367
#     4  11  25  43  63  91 135 166 202 268 328 380
#     4  10  21  39  63  91 126 172 215 260 311 373
#     4  10  22  41  61  89 132 169 207 261 327 382
#
# _framework density 24.316109000000001
#
# number of rings (size 3 to 8) (size 9 to 14) (size 15 to 20)
#    0.000    1.714    2.857    3.429    2.000    2.286 
#    2.571    5.714    0.000    0.000    0.000    0.000 
#    0.000    0.000    0.000    0.000    0.000    0.000 
#
# Total GULP energy -156492.057220 kJ/mol
# GULP energy per Si atom -5589.002044 kJ/mol
# Density = 2.426076 g / cm^3
# Si number density = 24.316109 Si / 1000 Ang^3
#
#
#
# Elastic Constant Matrix: (Units=GPa)
#
#
# Indices 1 2 3 4 5 6 
#
# 1 143.5399 39.9779 16.3772 0.0000 1.5021 0.0000
# 2 39.9779 147.2569 22.5964 0.0000 20.0279 0.0000
# 3 16.3772 22.5964 61.9056 0.0000 12.7710 0.0000
# 4 0.0000 0.0000 0.0000 12.1919 0.0000 -4.3933
# 5 1.5021 20.0279 12.7710 0.0000 17.8740 0.0000
# 6 0.0000 0.0000 0.0000 -4.3933 0.0000 29.3181
#
#
#
# Elastic Compliance Matrix: (Units=1/GPa)
#
#
# Indices 1 2 3 4 5 6 
#
# 1 0.007779 -0.002261 -0.001901 0.000000 0.003237 0.000000
# 2 -0.002261 0.008753 -0.000719 0.000000 -0.009104 0.000000
# 3 -0.001901 -0.000719 0.019610 0.000000 -0.013046 0.000000
# 4 0.000000 0.000000 0.000000 0.086704 0.000000 0.012993
# 5 0.003237 -0.009104 -0.013046 0.000000 0.075198 0.000000
# 6 0.000000 0.000000 0.000000 0.012993 0.000000 0.036056
#
#
# Mechanical properties :
#
#
# Convention : Reuss Voigt Hill
#
# Bulk Modulus (GPa) = 37.90386 56.73394 47.31890
# Shear Modulus (GPa) = 19.78984 30.12683 24.95834
#
# Velocity S-wave (km/s) = 2.85591 3.52371 3.20724
# Velocity P-wave (km/s) = 5.14750 6.31964 5.76345
#
# Compressibility (1/GPa) = 0.02638254
#
# Stress axis : x y z
#
# Youngs Moduli (GPa) = 128.54628 114.24500 50.99373
#
# Poissons Ratio (x) = 0.25826 0.09693
# Poissons Ratio (y) = 0.29059 0.03665
# Poissons Ratio (z) = 0.24433 0.08211
#
# Static dielectric constant tensor:
#      x y z
#    x 1.825360 0.000000 0.105870 
#    y 0.000000 1.989230 0.000000 
#    z 0.105870 0.000000 1.985140 
# 
# From -- ./inp_files/48081.got.cif
#   From: 2010.05.17/outbox.cif.g08.bks.cpg/sg13_25_cif.got.tgz:48081.got - 2010.06.03 16:44:36.
