data_PCOD9227267
_publ_section_title
;
Structure prediction by ZEFSAII (Michael W. Deem and Ramdas Pophale) SiO2 
 PCOD9227267
Probable space group: P 2/C
;
_chemical_formula_sum "Si O2"
_cell_formula_units_Z 30
_cell_length_a 9.171267
_cell_length_b 11.633895
_cell_length_c 17.041703
_cell_angle_alpha 90.000000
_cell_angle_beta 59.599161
_cell_angle_gamma 90.000000
_cell_volume 1568.302102
_symmetry_space_group_name_H-M "P 2/C"
_symmetry_group_IT_number 13
_symmetry_cell_setting 'monoclinic'
loop_
_space_group_symop_operation_xyz
x,y,z
-x,y,1/2-z
-x,-y,-z
x,-y,1/2+z
loop_
_atom_site_type_symbol
_atom_site_label
_atom_site_fract_x
_atom_site_fract_y
_atom_site_fract_z
Si Si1 0.709363 0.279459 0.904529
Si Si2 0.973325 0.608394 0.894376
Si Si3 0.413700 0.569973 0.452447
Si Si4 0.008111 0.872385 0.656906
Si Si5 0.711280 0.634406 0.584654
Si Si6 0.664648 0.116324 0.158126
Si Si7 0.000000 0.573265 0.250000
Si Si8 0.688893 0.968078 0.473526
O O1 0.526036 0.315386 0.919674
O O2 0.843463 0.345252 0.814164
O O3 0.736225 0.144309 0.908949
O O4 0.725727 0.327911 0.989464
O O5 0.981563 0.734727 0.854181
O O6 0.022979 0.511185 0.817991
O O7 0.106356 0.606206 0.929067
O O8 0.780940 0.592633 0.974391
O O9 0.500000 0.500000 0.500000
O O10 0.407176 0.478491 0.383000
O O11 0.000000 0.903582 0.750000
O O12 0.836176 0.906882 0.659213
O O13 0.173322 0.933148 0.576871
O O14 0.647106 0.746049 0.648282
O O15 0.500000 0.075829 0.250000
O O16 0.682225 0.063984 0.066992
O O17 0.500000 0.000000 0.500000
#
# Coordination Sequence:
#
# PCOD9227267 Si02
#       8
#     4   4   4   4   4   4   2   4
#     4  10  23  39  60  88 121 168 203 257 313 371
#     4  11  21  37  62  90 122 160 205 253 310 370
#     4  10  18  34  57  80 116 158 203 239 299 368
#     4  11  23  38  64  96 122 165 211 259 311 377
#     4   9  20  36  61  87 119 163 201 250 309 377
#     4  10  22  40  62  95 125 155 210 267 316 374
#     4  12  22  36  58  90 132 152 198 252 312 366
#     4  11  23  43  66  88 123 172 214 262 318 372
#
# _framework density 19.128966999999999
#
# number of rings (size 3 to 8) (size 9 to 14) (size 15 to 20)
#    0.000    1.600    3.333    2.400    0.933    4.267 
#    0.000    0.000    0.000    1.600    0.000    0.000 
#    0.000    0.000    0.000    0.000    0.000    0.000 
#
# Total GULP energy -167379.908204 kJ/mol
# GULP energy per Si atom -5579.330273 kJ/mol
# Density = 1.908543 g / cm^3
# Si number density = 19.128967 Si / 1000 Ang^3
#
#
#
# Elastic Constant Matrix: (Units=GPa)
#
#
# Indices 1 2 3 4 5 6 
#
# 1 145.6527 40.9261 54.7638 0.0000 3.3582 0.0000
# 2 40.9261 75.6055 37.2439 0.0000 -1.5480 0.0000
# 3 54.7638 37.2439 88.7967 0.0000 -8.7826 0.0000
# 4 0.0000 0.0000 0.0000 24.8310 0.0000 -6.8207
# 5 3.3582 -1.5480 -8.7826 0.0000 22.6333 0.0000
# 6 0.0000 0.0000 0.0000 -6.8207 0.0000 29.8838
#
#
#
# Elastic Compliance Matrix: (Units=1/GPa)
#
#
# Indices 1 2 3 4 5 6 
#
# 1 0.009666 -0.002765 -0.005161 0.000000 -0.003626 0.000000
# 2 -0.002765 0.017520 -0.005703 0.000000 -0.000605 0.000000
# 3 -0.005161 -0.005703 0.017547 0.000000 0.007185 0.000000
# 4 0.000000 0.000000 0.000000 0.042966 0.000000 0.009806
# 5 -0.003626 -0.000605 0.007185 0.000000 0.047467 0.000000
# 6 0.000000 0.000000 0.000000 0.009806 0.000000 0.035701
#
#
# Mechanical properties :
#
#
# Convention : Reuss Voigt Hill
#
# Bulk Modulus (GPa) = 57.21901 63.99137 60.60519
# Shear Modulus (GPa) = 24.51577 27.27771 25.89674
#
# Velocity S-wave (km/s) = 3.58383 3.78032 3.68339
# Velocity P-wave (km/s) = 6.86311 7.25119 7.05982
#
# Compressibility (1/GPa) = 0.01747671
#
# Stress axis : x y z
#
# Youngs Moduli (GPa) = 103.45112 57.07713 56.98937
#
# Poissons Ratio (x) = 0.15780 0.29410
# Poissons Ratio (y) = 0.28600 0.32502
# Poissons Ratio (z) = 0.53388 0.32552
#
# Static dielectric constant tensor:
#      x y z
#    x 1.654060 0.000000 0.000850 
#    y 0.000000 1.712180 0.000000 
#    z 0.000850 0.000000 1.656690 
# 
# From -- ./inp_files/64427.got.cif
#   From: 2010.05.17/outbox.cif.g08.bks.cpg/sg13_33_cif.got.tgz:64427.got - 2010.06.03 16:44:36.
