data_PCOD9227233
_publ_section_title
;
Structure prediction by ZEFSAII (Michael W. Deem and Ramdas Pophale) SiO2 
 PCOD9227233
Probable space group: P 2/C
;
_chemical_formula_sum "Si O2"
_cell_formula_units_Z 32
_cell_length_a 21.100496
_cell_length_b 15.244112
_cell_length_c 9.383150
_cell_angle_alpha 90.000000
_cell_angle_beta 140.941804
_cell_angle_gamma 90.000000
_cell_volume 1901.776288
_symmetry_space_group_name_H-M "P 2/C"
_symmetry_group_IT_number 13
_symmetry_cell_setting 'monoclinic'
loop_
_space_group_symop_operation_xyz
x,y,z
-x,y,1/2-z
-x,-y,-z
x,-y,1/2+z
loop_
_atom_site_type_symbol
_atom_site_label
_atom_site_fract_x
_atom_site_fract_y
_atom_site_fract_z
Si Si1 0.714321 0.856371 0.335680
Si Si2 0.548125 0.287090 0.486667
Si Si3 0.101828 0.088675 0.849750
Si Si4 0.712868 0.836833 0.660146
Si Si5 0.401373 0.663818 0.977722
Si Si6 0.426246 0.006051 0.502133
Si Si7 0.100472 0.897579 0.000263
Si Si8 0.422912 0.474981 0.987883
O O1 0.621392 0.789316 0.164871
O O2 0.746328 0.859938 0.557092
O O3 0.805433 0.839070 0.386406
O O4 0.668777 0.947792 0.202175
O O5 0.451734 0.304558 0.418511
O O6 0.615200 0.377031 0.605704
O O7 0.500000 0.267194 0.250000
O O8 0.094519 0.089184 0.662589
O O9 0.000000 0.122786 0.750000
O O10 0.198626 0.142046 0.074015
O O11 0.112965 0.991118 0.938483
O O12 0.675956 0.736761 0.605264
O O13 0.617127 0.899383 0.528937
O O14 0.500000 0.660072 0.250000
O O15 0.359703 0.563820 0.899129
O O16 0.500000 0.000000 0.500000
O O17 0.500000 0.968847 0.750000
O O18 0.000000 0.860742 0.750000
O O19 0.500000 0.461654 0.250000
O O20 0.500000 0.500000 0.000000
#
# Coordination Sequence:
#
# PCOD9227233 Si02
#       8
#     4   4   4   4   4   4   4   4
#     4  12  23  36  53  76 106 143 182 220 265 312
#     4  10  20  33  50  78 112 142 181 223 262 314
#     4  11  23  40  60  78 101 132 178 227 271 316
#     4  12  23  36  53  77 104 144 184 218 264 314
#     4  10  18  34  53  75 108 148 182 217 260 315
#     4  12  24  35  47  70 108 148 181 211 246 305
#     4  11  23  40  60  78 101 133 176 228 272 315
#     4   8  16  30  51  73 101 141 181 220 262 304
#
# _framework density 16.826373
#
# number of rings (size 3 to 8) (size 9 to 14) (size 15 to 20)
#    0.000    1.250    3.750    4.500    3.500    0.000 
#    0.000    0.000    0.000    0.000    0.000    0.875 
#    0.000    4.000    0.000    0.000    0.000    0.000 
#
# Total GULP energy -178188.770247 kJ/mol
# GULP energy per Si atom -5568.399070 kJ/mol
# Density = 1.678808 g / cm^3
# Si number density = 16.826373 Si / 1000 Ang^3
#
#
#
# Elastic Constant Matrix: (Units=GPa)
#
#
# Indices 1 2 3 4 5 6 
#
# 1 88.7436 -7.7539 34.2062 0.0000 -18.2746 0.0000
# 2 -7.7539 60.5248 -4.8578 0.0000 6.1587 0.0000
# 3 34.2062 -4.8578 80.9003 0.0000 -16.7575 0.0000
# 4 0.0000 0.0000 0.0000 24.7591 0.0000 18.8938
# 5 -18.2746 6.1587 -16.7575 0.0000 41.8837 0.0000
# 6 0.0000 0.0000 0.0000 18.8938 0.0000 32.9277
#
#
#
# Elastic Compliance Matrix: (Units=1/GPa)
#
#
# Indices 1 2 3 4 5 6 
#
# 1 0.014139 0.000997 -0.005093 0.000000 0.003985 0.000000
# 2 0.000997 0.016865 0.000183 0.000000 -0.001972 0.000000
# 3 -0.005093 0.000183 0.015330 0.000000 0.003884 0.000000
# 4 0.000000 0.000000 0.000000 0.071850 0.000000 -0.041227
# 5 0.003985 -0.001972 0.003884 0.000000 0.027458 0.000000
# 6 0.000000 0.000000 0.000000 -0.041227 0.000000 0.054026
#
#
# Mechanical properties :
#
#
# Convention : Reuss Voigt Hill
#
# Bulk Modulus (GPa) = 25.96872 30.37307 28.17090
# Shear Modulus (GPa) = 22.69313 33.81906 28.25609
#
# Velocity S-wave (km/s) = 3.67640 4.48804 4.10234
# Velocity P-wave (km/s) = 5.78689 6.70423 6.26238
#
# Compressibility (1/GPa) = 0.03850787
#
# Stress axis : x y z
#
# Youngs Moduli (GPa) = 70.72508 59.29369 65.23199
#
# Poissons Ratio (x) = -0.05912 0.33223
# Poissons Ratio (y) = -0.07052 -0.01192
# Poissons Ratio (z) = 0.36021 -0.01083
#
# Static dielectric constant tensor:
#      x y z
#    x 1.600680 0.000000 -0.021430 
#    y 0.000000 1.637900 0.000000 
#    z -0.021430 0.000000 1.565320 
# 
# From -- ./inp_files/23585.got.cif
#   From: 2010.05.17/outbox.cif.g08.bks.cpg/sg13_12_cif.got.tgz:23585.got - 2010.06.03 16:44:36.
