data_PCOD9227070
_publ_section_title
;
Structure prediction by ZEFSAII (Michael W. Deem and Ramdas Pophale) SiO2 
 PCOD9227070
Probable space group: P 2/C
;
_chemical_formula_sum "Si O2"
_cell_formula_units_Z 30
_cell_length_a 9.823067
_cell_length_b 14.263239
_cell_length_c 9.754816
_cell_angle_alpha 90.000000
_cell_angle_beta 119.824094
_cell_angle_gamma 90.000000
_cell_volume 1185.719768
_symmetry_space_group_name_H-M "P 2/C"
_symmetry_group_IT_number 13
_symmetry_cell_setting 'monoclinic'
loop_
_space_group_symop_operation_xyz
x,y,z
-x,y,1/2-z
-x,-y,-z
x,-y,1/2+z
loop_
_atom_site_type_symbol
_atom_site_label
_atom_site_fract_x
_atom_site_fract_y
_atom_site_fract_z
Si Si1 0.200685 0.119893 0.756068
Si Si2 0.327541 0.625184 0.935101
Si Si3 0.078792 0.599554 0.586627
Si Si4 0.228579 0.986882 0.017852
Si Si5 0.551783 0.825057 0.476076
Si Si6 0.865609 0.333047 0.782294
Si Si7 0.500000 0.879327 0.750000
Si Si8 0.646491 0.578068 0.977134
O O1 0.135339 0.070678 0.586731
O O2 0.151925 0.225089 0.761210
O O3 0.389520 0.137591 0.828809
O O4 0.166526 0.054705 0.868691
O O5 0.160206 0.614089 0.774061
O O6 0.374653 0.724551 0.025301
O O7 0.341589 0.533395 0.036063
O O8 0.466520 0.606768 0.892574
O O9 0.227976 0.622163 0.562874
O O10 0.000000 0.500000 0.500000
O O11 0.934075 0.664734 0.469703
O O12 0.349392 0.053859 0.160098
O O13 0.324323 0.906801 0.985657
O O14 0.513524 0.820380 0.618807
O O15 0.713041 0.390994 0.661670
O O16 0.000000 0.374691 0.750000
#
# Coordination Sequence:
#
# PCOD9227070 Si02
#       8
#     4   4   4   4   4   4   2   4
#     4  11  21  40  66  96 129 176 220 282 334 404
#     4  11  23  39  64  99 130 166 225 284 334 390
#     4  11  23  40  65  91 131 184 218 263 341 411
#     4  11  20  39  62  96 136 168 218 273 348 394
#     4  11  21  34  61 101 128 165 216 281 334 397
#     4  10  22  42  65  93 127 177 224 268 338 414
#     4  10  18  32  58  88 134 166 206 266 340 398
#     4  10  22  42  62  95 133 167 222 281 329 398
#
# _framework density 25.301089000000001
#
# number of rings (size 3 to 8) (size 9 to 14) (size 15 to 20)
#    0.000    1.333    5.333    1.200    1.867    2.133 
#    0.000    2.000    0.000    0.000    0.000    0.000 
#    0.000    0.000    0.000    0.000    0.000    0.000 
#
# Total GULP energy -167654.562032 kJ/mol
# GULP energy per Si atom -5588.485401 kJ/mol
# Density = 2.524350 g / cm^3
# Si number density = 25.301089 Si / 1000 Ang^3
#
#
#
# Elastic Constant Matrix: (Units=GPa)
#
#
# Indices 1 2 3 4 5 6 
#
# 1 81.1953 4.3681 22.6978 0.0000 9.6104 0.0000
# 2 4.3681 147.7501 32.7431 0.0000 10.2695 0.0000
# 3 22.6978 32.7431 117.8613 0.0000 18.2857 0.0000
# 4 0.0000 0.0000 0.0000 24.3801 0.0000 8.7250
# 5 9.6104 10.2695 18.2857 0.0000 41.0350 0.0000
# 6 0.0000 0.0000 0.0000 8.7250 0.0000 14.4083
#
#
#
# Elastic Compliance Matrix: (Units=1/GPa)
#
#
# Indices 1 2 3 4 5 6 
#
# 1 0.013193 0.000264 -0.002282 0.000000 -0.002139 0.000000
# 2 0.000264 0.007254 -0.001907 0.000000 -0.001028 0.000000
# 3 -0.002282 -0.001907 0.009987 0.000000 -0.003439 0.000000
# 4 0.000000 0.000000 0.000000 0.052365 0.000000 -0.031710
# 5 -0.002139 -0.001028 -0.003439 0.000000 0.026660 0.000000
# 6 0.000000 0.000000 0.000000 -0.031710 0.000000 0.088607
#
#
# Mechanical properties :
#
#
# Convention : Reuss Voigt Hill
#
# Bulk Modulus (GPa) = 44.27676 51.82497 48.05087
# Shear Modulus (GPa) = 23.42533 35.09786 29.26160
#
# Velocity S-wave (km/s) = 3.04610 3.72856 3.40448
# Velocity P-wave (km/s) = 5.46896 6.25012 5.87255
#
# Compressibility (1/GPa) = 0.02258521
#
# Stress axis : x y z
#
# Youngs Moduli (GPa) = 75.79811 137.84784 100.12688
#
# Poissons Ratio (x) = -0.03645 0.22852
# Poissons Ratio (y) = -0.02004 0.19092
# Poissons Ratio (z) = 0.17300 0.26285
#
# Static dielectric constant tensor:
#      x y z
#    x 2.469560 0.000000 0.282670 
#    y 0.000000 1.948170 0.000000 
#    z 0.282670 0.000000 2.342580 
# 
# From -- ./inp_files/34614.got.cif
#   From: 2010.05.17/outbox.cif.g08.bks.cpg/sg13_18_cif.got.tgz:34614.got - 2010.06.03 16:44:36.
