data_PCOD9227548
_publ_section_title
;
Structure prediction by ZEFSAII (Michael W. Deem and Ramdas Pophale) SiO2 
 PCOD9227548
Probable space group: P 2/C
;
_chemical_formula_sum "Si O2"
_cell_formula_units_Z 30
_cell_length_a 12.932381
_cell_length_b 8.485016
_cell_length_c 16.511952
_cell_angle_alpha 90.000000
_cell_angle_beta 37.200382
_cell_angle_gamma 90.000000
_cell_volume 1095.471026
_symmetry_space_group_name_H-M "P 2/C"
_symmetry_group_IT_number 13
_symmetry_cell_setting 'monoclinic'
loop_
_space_group_symop_operation_xyz
x,y,z
-x,y,1/2-z
-x,-y,-z
x,-y,1/2+z
loop_
_atom_site_type_symbol
_atom_site_label
_atom_site_fract_x
_atom_site_fract_y
_atom_site_fract_z
Si Si1 0.000000 0.807908 0.250000
Si Si2 0.755559 0.059173 0.442007
Si Si3 0.553611 0.500704 0.580392
Si Si4 0.346896 0.213448 0.778201
Si Si5 0.979264 0.277025 0.411706
Si Si6 0.317540 0.882599 0.842505
Si Si7 0.131503 0.609682 0.018271
Si Si8 0.653850 0.724542 0.885451
O O1 0.947159 0.703756 0.357875
O O2 0.153806 0.929041 0.169783
O O3 0.870628 0.206142 0.402357
O O4 0.724188 0.971003 0.546130
O O5 0.611149 0.140638 0.477779
O O6 0.407169 0.368598 0.690200
O O7 0.689016 0.527232 0.567333
O O8 0.477324 0.668787 0.600907
O O9 0.659841 0.432468 0.437720
O O10 0.500000 0.213541 0.750000
O O11 0.335361 0.023965 0.766385
O O12 0.155271 0.236214 0.932320
O O13 0.992292 0.464233 0.415709
O O14 0.168742 0.227918 0.266033
O O15 0.500000 0.811188 0.750000
O O16 0.180705 0.742165 0.921838
#
# Coordination Sequence:
#
# PCOD9227548 Si02
#       8
#     2   4   4   4   4   4   4   4
#     4  10  20  32  56  86 122 144 204 242 298 342
#     4  10  18  36  60  85 111 157 204 240 281 368
#     4  11  23  36  58  91 127 149 198 250 304 347
#     4  10  19  38  60  87 111 157 200 247 287 366
#     4  11  20  34  66  82 112 153 213 245 284 345
#     4   9  20  33  56  87 115 148 194 248 302 343
#     4  11  21  34  57  94 114 148 193 266 291 339
#     4  11  21  36  59  89 120 160 196 243 298 356
#
# _framework density 27.385480000000001
#
# number of rings (size 3 to 8) (size 9 to 14) (size 15 to 20)
#    0.000    1.600    4.000    2.400    1.867    0.533 
#    0.000    2.667    0.000    4.000    0.000    0.000 
#    0.000    0.000    0.000    0.000    0.000    0.000 
#
# Total GULP energy -167459.869568 kJ/mol
# GULP energy per Si atom -5581.995652 kJ/mol
# Density = 2.732315 g / cm^3
# Si number density = 27.385480 Si / 1000 Ang^3
#
#
#
# Elastic Constant Matrix: (Units=GPa)
#
#
# Indices 1 2 3 4 5 6 
#
# 1 59.7317 25.5291 22.7890 0.0000 -0.1905 0.0000
# 2 25.5291 142.4510 39.2025 0.0000 9.7485 0.0000
# 3 22.7890 39.2025 125.5236 0.0000 -1.1522 0.0000
# 4 0.0000 0.0000 0.0000 66.5778 0.0000 3.0586
# 5 -0.1905 9.7485 -1.1522 0.0000 35.5289 0.0000
# 6 0.0000 0.0000 0.0000 3.0586 0.0000 32.1776
#
#
#
# Elastic Compliance Matrix: (Units=1/GPa)
#
#
# Indices 1 2 3 4 5 6 
#
# 1 0.018892 -0.002731 -0.002570 0.000000 0.000767 0.000000
# 2 -0.002731 0.008248 -0.002102 0.000000 -0.002346 0.000000
# 3 -0.002570 -0.002102 0.009097 0.000000 0.000858 0.000000
# 4 0.000000 0.000000 0.000000 0.015086 0.000000 -0.001434
# 5 0.000767 -0.002346 0.000858 0.000000 0.028822 0.000000
# 6 0.000000 0.000000 0.000000 -0.001434 0.000000 0.031214
#
#
# Mechanical properties :
#
#
# Convention : Reuss Voigt Hill
#
# Bulk Modulus (GPa) = 46.65853 55.86084 51.25969
# Shear Modulus (GPa) = 37.50709 42.86924 40.18817
#
# Velocity S-wave (km/s) = 3.70482 3.96081 3.83495
# Velocity P-wave (km/s) = 5.94774 6.43114 6.19416
#
# Compressibility (1/GPa) = 0.02143231
#
# Stress axis : x y z
#
# Youngs Moduli (GPa) = 52.93354 121.23662 109.92053
#
# Poissons Ratio (x) = 0.33109 0.28248
# Poissons Ratio (y) = 0.14456 0.23103
# Poissons Ratio (z) = 0.13603 0.25481
#
# Static dielectric constant tensor:
#      x y z
#    x 2.211430 0.000000 0.053850 
#    y 0.000000 2.162270 0.000000 
#    z 0.053850 0.000000 2.217270 
# 
# From -- ./inp_files/80915.got.cif
#   From: 2010.05.17/outbox.cif.g08.bks.cpg/sg13_41_cif.got.tgz:80915.got - 2010.06.03 16:44:36.
