data_PCOD9227094
_publ_section_title
;
Structure prediction by ZEFSAII (Michael W. Deem and Ramdas Pophale) SiO2 
 PCOD9227094
Probable space group: P 2/C
;
_chemical_formula_sum "Si O2"
_cell_formula_units_Z 28
_cell_length_a 14.611451
_cell_length_b 6.101997
_cell_length_c 20.592240
_cell_angle_alpha 90.000000
_cell_angle_beta 126.607737
_cell_angle_gamma 90.000000
_cell_volume 1473.812326
_symmetry_space_group_name_H-M "P 2/C"
_symmetry_group_IT_number 13
_symmetry_cell_setting 'monoclinic'
loop_
_space_group_symop_operation_xyz
x,y,z
-x,y,1/2-z
-x,-y,-z
x,-y,1/2+z
loop_
_atom_site_type_symbol
_atom_site_label
_atom_site_fract_x
_atom_site_fract_y
_atom_site_fract_z
Si Si1 0.825782 0.541402 0.248287
Si Si2 0.369091 0.341891 0.134727
Si Si3 0.000000 0.183584 0.750000
Si Si4 0.141334 0.527250 0.993921
Si Si5 0.987489 0.835495 0.855643
Si Si6 0.073282 0.787119 0.084620
Si Si7 0.603049 0.431845 0.717518
Si Si8 0.500000 0.044541 0.750000
O O1 0.891232 0.663385 0.218169
O O2 0.882253 0.303919 0.282744
O O3 0.860666 0.682863 0.326483
O O4 0.689971 0.544590 0.195219
O O5 0.348694 0.437307 0.199046
O O6 0.479383 0.464744 0.152907
O O7 0.414148 0.099567 0.169863
O O8 0.260355 0.400315 0.045620
O O9 0.979335 0.025620 0.680094
O O10 0.089144 0.663561 0.911731
O O11 0.045969 0.344177 0.968863
O O12 0.142170 0.713095 0.050596
O O13 0.949234 0.960849 0.905668
O O14 0.575899 0.192073 0.734041
#
# Coordination Sequence:
#
# PCOD9227094 Si02
#       8
#     4   4   2   4   4   4   4   2
#     4  10  19  36  53  76 111 132 184 232 260 320
#     4   9  18  30  49  76 109 145 177 213 258 313
#     4  10  22  36  54  80  98 140 184 230 280 318
#     4  10  18  33  48  80 116 138 176 221 258 334
#     4  10  21  35  55  77 103 147 178 220 281 319
#     4   9  19  30  49  80 108 146 173 208 276 325
#     4   9  18  33  49  76 106 146 178 219 256 312
#     4   8  18  32  48  74 106 148 184 200 266 324
#
# _framework density 18.998348
#
# number of rings (size 3 to 8) (size 9 to 14) (size 15 to 20)
#    0.000    2.857    1.429    0.857    0.000    6.857 
#    0.000    0.000    0.000    0.857    0.000   15.000 
#    0.000    0.000    0.000    0.000    0.000    0.000 
#
# Total GULP energy -156003.631013 kJ/mol
# GULP energy per Si atom -5571.558250 kJ/mol
# Density = 1.895511 g / cm^3
# Si number density = 18.998348 Si / 1000 Ang^3
#
#
#
# Elastic Constant Matrix: (Units=GPa)
#
#
# Indices 1 2 3 4 5 6 
#
# 1 100.4876 32.5660 14.7325 0.0000 12.6681 0.0000
# 2 32.5660 102.4043 10.0537 0.0000 0.5598 0.0000
# 3 14.7325 10.0537 33.0247 0.0000 13.0513 0.0000
# 4 0.0000 0.0000 0.0000 21.8003 0.0000 -7.7540
# 5 12.6681 0.5598 13.0513 0.0000 26.5798 0.0000
# 6 0.0000 0.0000 0.0000 -7.7540 0.0000 12.6080
#
#
#
# Elastic Compliance Matrix: (Units=1/GPa)
#
#
# Indices 1 2 3 4 5 6 
#
# 1 0.012032 -0.003552 -0.002543 0.000000 -0.004411 0.000000
# 2 -0.003552 0.011170 -0.002968 0.000000 0.002915 0.000000
# 3 -0.002543 -0.002968 0.039475 0.000000 -0.018109 0.000000
# 4 0.000000 0.000000 0.000000 0.058714 0.000000 0.036110
# 5 -0.004411 0.002915 -0.018109 0.000000 0.048555 0.000000
# 6 0.000000 0.000000 0.000000 0.036110 0.000000 0.101523
#
#
# Mechanical properties :
#
#
# Convention : Reuss Voigt Hill
#
# Bulk Modulus (GPa) = 22.44639 38.95787 30.70213
# Shear Modulus (GPa) = 16.42332 24.10191 20.26261
#
# Velocity S-wave (km/s) = 2.94336 3.56565 3.26934
# Velocity P-wave (km/s) = 4.83650 6.12391 5.51788
#
# Compressibility (1/GPa) = 0.04455060
#
# Stress axis : x y z
#
# Youngs Moduli (GPa) = 83.11434 89.52229 25.33269
#
# Poissons Ratio (x) = 0.31803 0.06441
# Poissons Ratio (y) = 0.29526 0.07519
# Poissons Ratio (z) = 0.21133 0.26569
#
# Static dielectric constant tensor:
#      x y z
#    x 1.706500 0.000000 -0.012640 
#    y 0.000000 1.704700 0.000000 
#    z -0.012640 0.000000 1.688440 
# 
# From -- ./inp_files/79300.got.cif
#   From: 2010.05.17/outbox.cif.g08.bks.cpg/sg13_40_cif.got.tgz:79300.got - 2010.06.03 16:44:36.
