data_PCOD9227189
_publ_section_title
;
Structure prediction by ZEFSAII (Michael W. Deem and Ramdas Pophale) SiO2 
 PCOD9227189
Probable space group: P 2/C
;
_chemical_formula_sum "Si O2"
_cell_formula_units_Z 16
_cell_length_a 11.580644
_cell_length_b 8.083998
_cell_length_c 13.244687
_cell_angle_alpha 90.000000
_cell_angle_beta 32.164903
_cell_angle_gamma 90.000000
_cell_volume 660.091677
_symmetry_space_group_name_H-M "P 2/C"
_symmetry_group_IT_number 13
_symmetry_cell_setting 'monoclinic'
loop_
_space_group_symop_operation_xyz
x,y,z
-x,y,1/2-z
-x,-y,-z
x,-y,1/2+z
loop_
_atom_site_type_symbol
_atom_site_label
_atom_site_fract_x
_atom_site_fract_y
_atom_site_fract_z
Si Si1 0.769412 0.112703 0.382590
Si Si2 0.307119 0.973397 0.288004
Si Si3 0.037674 0.271986 0.523882
Si Si4 0.753651 0.464300 0.308668
O O1 0.559835 0.070549 0.604925
O O2 0.785518 0.310706 0.359318
O O3 0.000000 0.051542 0.250000
O O4 0.726020 0.038160 0.303683
O O5 0.150009 0.813747 0.407060
O O6 0.202678 0.124238 0.427841
O O7 0.180067 0.395571 0.350845
O O8 0.905120 0.373930 0.705889
O O9 0.500000 0.500000 0.500000
#
# Coordination Sequence:
#
# PCOD9227189 Si02
#       4
#     4   4   4   4
#     4  10  20  35  60  85 112 153 195 234 286 348
#     4   9  18  36  58  83 114 153 187 241 287 331
#     4   9  18  33  59  83 110 150 192 227 291 344
#     4  10  18  33  59  84 110 151 186 235 291 345
#
# _framework density 24.239058
#
# number of rings (size 3 to 8) (size 9 to 14) (size 15 to 20)
#    0.000    2.500    2.500    0.000    0.000    0.000 
#    0.000   12.500    5.500    0.000    0.000    0.000 
#    0.000    0.000    0.000    0.000    0.000    0.000 
#
# Total GULP energy -89389.304980 kJ/mol
# GULP energy per Si atom -5586.831561 kJ/mol
# Density = 2.418389 g / cm^3
# Si number density = 24.239058 Si / 1000 Ang^3
#
#
#
# Elastic Constant Matrix: (Units=GPa)
#
#
# Indices 1 2 3 4 5 6 
#
# 1 40.1318 30.5255 52.7790 0.0000 0.0906 0.0000
# 2 30.5255 125.3440 89.9282 0.0000 8.5686 0.0000
# 3 52.7790 89.9282 271.8097 0.0000 4.5025 0.0000
# 4 0.0000 0.0000 0.0000 53.8635 0.0000 3.6932
# 5 0.0906 8.5686 4.5025 0.0000 35.9337 0.0000
# 6 0.0000 0.0000 0.0000 3.6932 0.0000 19.8702
#
#
#
# Elastic Compliance Matrix: (Units=1/GPa)
#
#
# Indices 1 2 3 4 5 6 
#
# 1 0.035700 -0.005010 -0.005304 0.000000 0.001769 0.000000
# 2 -0.005010 0.011319 -0.002733 0.000000 -0.002344 0.000000
# 3 -0.005304 -0.002733 0.005614 0.000000 -0.000038 0.000000
# 4 0.000000 0.000000 0.000000 0.018805 0.000000 -0.003495
# 5 0.001769 -0.002344 -0.000038 0.000000 0.028388 0.000000
# 6 0.000000 0.000000 0.000000 -0.003495 0.000000 0.050976
#
#
# Mechanical properties :
#
#
# Convention : Reuss Voigt Hill
#
# Bulk Modulus (GPa) = 37.68040 87.08343 62.38191
# Shear Modulus (GPa) = 26.91887 39.53701 33.22794
#
# Velocity S-wave (km/s) = 3.33612 4.04310 3.70651
# Velocity P-wave (km/s) = 5.51531 7.60266 6.64150
#
# Compressibility (1/GPa) = 0.02653900
#
# Stress axis : x y z
#
# Youngs Moduli (GPa) = 28.01134 88.34362 178.12880
#
# Poissons Ratio (x) = 0.44258 0.94477
# Poissons Ratio (y) = 0.14033 0.48690
# Poissons Ratio (z) = 0.14857 0.24148
#
# Static dielectric constant tensor:
#      x y z
#    x 2.013140 0.000000 0.044850 
#    y 0.000000 1.994880 0.000000 
#    z 0.044850 0.000000 1.906240 
# 
# From -- ./inp_files/27361.got.cif
#   From: 2010.05.17/outbox.cif.g08.bks.cpg/sg13_14_cif.got.tgz:27361.got - 2010.06.03 16:44:36.
