data_PCOD9227030
_publ_section_title
;
Structure prediction by ZEFSAII (Michael W. Deem and Ramdas Pophale) SiO2 
 PCOD9227030
Probable space group: P 2/C
;
_chemical_formula_sum "Si O2"
_cell_formula_units_Z 26
_cell_length_a 12.816646
_cell_length_b 21.843807
_cell_length_c 5.278590
_cell_angle_alpha 90.000000
_cell_angle_beta 123.029563
_cell_angle_gamma 90.000000
_cell_volume 1238.986142
_symmetry_space_group_name_H-M "P 2/C"
_symmetry_group_IT_number 13
_symmetry_cell_setting 'monoclinic'
loop_
_space_group_symop_operation_xyz
x,y,z
-x,y,1/2-z
-x,-y,-z
x,-y,1/2+z
loop_
_atom_site_type_symbol
_atom_site_label
_atom_site_fract_x
_atom_site_fract_y
_atom_site_fract_z
Si Si1 0.578312 0.081461 0.615184
Si Si2 0.652092 0.536306 0.442414
Si Si3 0.500000 0.283069 0.250000
Si Si4 0.845837 0.034902 0.877764
Si Si5 0.356961 0.670018 0.953590
Si Si6 0.678264 0.212026 0.810221
Si Si7 0.922470 0.825747 0.395827
O O1 0.500000 0.055611 0.750000
O O2 0.696121 0.041779 0.686924
O O3 0.643343 0.142417 0.829330
O O4 0.500000 0.094376 0.250000
O O5 0.500000 0.538391 0.250000
O O6 0.689324 0.494226 0.728249
O O7 0.699501 0.605758 0.540981
O O8 0.386756 0.324513 0.195060
O O9 0.551947 0.237143 0.524115
O O10 0.897011 0.101315 0.869061
O O11 0.879731 0.986364 0.705620
O O12 0.500000 0.667468 0.250000
O O13 0.292840 0.733327 0.954703
O O14 0.788988 0.206179 0.754022
O O15 0.000000 0.809976 0.250000
O O16 0.000000 0.810869 0.750000
#
# Coordination Sequence:
#
# PCOD9227030 Si02
#       7
#     4   4   2   4   4   4   4
#     4  11  22  36  56  83 118 151 182 226 283 340
#     4   9  18  28  43  67 109 156 195 225 264 321
#     4  10  18  32  56  82 114 152 190 230 284 348
#     4  11  24  41  61  86 111 147 190 230 279 339
#     4   9  19  30  49  80 111 155 193 232 276 337
#     4  10  22  36  58  83 117 149 193 234 291 345
#     4  11  26  44  64  86 113 149 190 242 291 338
#
# _framework density 20.984902000000002
#
# number of rings (size 3 to 8) (size 9 to 14) (size 15 to 20)
#    0.000    1.846    0.769    3.231    9.692    6.154 
#    0.000    0.000    0.000    0.000    0.000    0.000 
#    0.000    3.692    0.000    0.000    0.000    0.000 
#
# Total GULP energy -144982.657020 kJ/mol
# GULP energy per Si atom -5576.256039 kJ/mol
# Density = 2.093714 g / cm^3
# Si number density = 20.984902 Si / 1000 Ang^3
#
#
#
# Elastic Constant Matrix: (Units=GPa)
#
#
# Indices 1 2 3 4 5 6 
#
# 1 100.6808 27.9799 17.8937 0.0000 -21.9517 0.0000
# 2 27.9799 104.5062 15.4995 0.0000 -15.1063 0.0000
# 3 17.8937 15.4995 57.4527 0.0000 -22.6009 0.0000
# 4 0.0000 0.0000 0.0000 4.7342 0.0000 -5.4672
# 5 -21.9517 -15.1063 -22.6009 0.0000 30.0151 0.0000
# 6 0.0000 0.0000 0.0000 -5.4672 0.0000 16.4502
#
#
#
# Elastic Compliance Matrix: (Units=1/GPa)
#
#
# Indices 1 2 3 4 5 6 
#
# 1 0.012246 -0.002131 -0.000196 0.000000 0.007736 0.000000
# 2 -0.002131 0.010736 -0.001023 0.000000 0.003074 0.000000
# 3 -0.000196 -0.001023 0.024842 0.000000 0.018048 0.000000
# 4 0.000000 0.000000 0.000000 0.342797 0.000000 0.113928
# 5 0.007736 0.003074 0.018048 0.000000 0.054111 0.000000
# 6 0.000000 0.000000 0.000000 0.113928 0.000000 0.098654
#
#
# Mechanical properties :
#
#
# Convention : Reuss Voigt Hill
#
# Bulk Modulus (GPa) = 24.31717 42.82066 33.56891
# Shear Modulus (GPa) = 8.86848 23.65768 16.26308
#
# Velocity S-wave (km/s) = 2.05798 3.36127 2.78688
# Velocity P-wave (km/s) = 4.15453 5.95936 5.13683
#
# Compressibility (1/GPa) = 0.04112321
#
# Stress axis : x y z
#
# Youngs Moduli (GPa) = 81.65756 93.14857 40.25392
#
# Poissons Ratio (x) = 0.19854 0.00788
# Poissons Ratio (y) = 0.17405 0.04119
# Poissons Ratio (z) = 0.01599 0.09531
#
# Static dielectric constant tensor:
#      x y z
#    x 1.869610 0.000000 -0.094900 
#    y 0.000000 1.782230 0.000000 
#    z -0.094900 0.000000 1.930760 
# 
# From -- ./inp_files/3975.got.cif
#   From: 2010.05.17/outbox.cif.g08.bks.cpg/sg13_2_cif.got.tgz:3975.got - 2010.06.03 16:44:36.
