data_PCOD9227334
_publ_section_title
;
Structure prediction by ZEFSAII (Michael W. Deem and Ramdas Pophale) SiO2 
 PCOD9227334
Probable space group: P 2/C
;
_chemical_formula_sum "Si O2"
_cell_formula_units_Z 26
_cell_length_a 8.744867
_cell_length_b 9.080053
_cell_length_c 26.822497
_cell_angle_alpha 90.000000
_cell_angle_beta 41.510167
_cell_angle_gamma 90.000000
_cell_volume 1411.537627
_symmetry_space_group_name_H-M "P 2/C"
_symmetry_group_IT_number 13
_symmetry_cell_setting 'monoclinic'
loop_
_space_group_symop_operation_xyz
x,y,z
-x,y,1/2-z
-x,-y,-z
x,-y,1/2+z
loop_
_atom_site_type_symbol
_atom_site_label
_atom_site_fract_x
_atom_site_fract_y
_atom_site_fract_z
Si Si1 0.432988 0.743517 0.687187
Si Si2 0.500000 0.502030 0.750000
Si Si3 0.000000 0.890442 0.750000
Si Si4 0.795250 0.907655 0.385872
Si Si5 0.500000 0.002829 0.750000
Si Si6 0.272275 0.924740 0.492638
Si Si7 0.868424 0.742929 0.136581
Si Si8 0.885943 0.207134 0.027237
O O1 0.396350 0.609019 0.733412
O O2 0.665246 0.705976 0.600412
O O3 0.218264 0.785902 0.705798
O O4 0.467117 0.891722 0.711948
O O5 0.296426 0.395736 0.817763
O O6 0.936701 0.997096 0.811468
O O7 0.538571 0.876102 0.427775
O O8 0.933002 0.763579 0.370293
O O9 0.770831 0.005278 0.442397
O O10 0.289758 0.111155 0.815882
O O11 0.074366 0.810430 0.525066
O O12 0.229474 0.051854 0.461895
O O13 0.984699 0.740969 0.053954
#
# Coordination Sequence:
#
# PCOD9227334 Si02
#       8
#     4   2   2   4   2   4   4   4
#     4  11  22  38  59  86 118 159 201 244 288 358
#     4  10  26  42  58  80 124 166 202 238 296 356
#     4  12  22  34  58  94 116 154 196 244 298 346
#     4  10  19  32  56  87 126 142 186 248 304 345
#     4  10  18  34  60  86 114 150 194 246 296 336
#     4   9  18  32  53  97 118 142 180 257 306 344
#     4  10  21  39  59  87 118 151 196 251 297 351
#     4  10  19  33  61  85 119 151 203 239 295 354
#
# _framework density 18.419630000000002
#
# number of rings (size 3 to 8) (size 9 to 14) (size 15 to 20)
#    0.000    1.846    3.077    2.769    2.154    0.615 
#    0.000    2.308    0.000    1.846    0.000    0.000 
#    0.000    0.000    0.000    0.000    0.000    0.000 
#
# Total GULP energy -144970.885540 kJ/mol
# GULP energy per Si atom -5575.803290 kJ/mol
# Density = 1.837771 g / cm^3
# Si number density = 18.419630 Si / 1000 Ang^3
#
#
#
# Elastic Constant Matrix: (Units=GPa)
#
#
# Indices 1 2 3 4 5 6 
#
# 1 111.2229 14.9765 30.9454 0.0000 -14.4600 0.0000
# 2 14.9765 50.4934 13.7887 0.0000 2.3368 0.0000
# 3 30.9454 13.7887 93.7605 0.0000 -5.9144 0.0000
# 4 0.0000 0.0000 0.0000 2.1516 0.0000 -3.7945
# 5 -14.4600 2.3368 -5.9144 0.0000 27.4274 0.0000
# 6 0.0000 0.0000 0.0000 -3.7945 0.0000 9.0390
#
#
#
# Elastic Compliance Matrix: (Units=1/GPa)
#
#
# Indices 1 2 3 4 5 6 
#
# 1 0.010837 -0.002684 -0.002846 0.000000 0.005328 0.000000
# 2 -0.002684 0.021461 -0.002509 0.000000 -0.003784 0.000000
# 3 -0.002846 -0.002509 0.012057 0.000000 0.001313 0.000000
# 4 0.000000 0.000000 0.000000 1.789874 0.000000 0.751378
# 5 0.005328 -0.003784 0.001313 0.000000 0.039875 0.000000
# 6 0.000000 0.000000 0.000000 0.751378 0.000000 0.426056
#
#
# Mechanical properties :
#
#
# Convention : Reuss Voigt Hill
#
# Bulk Modulus (GPa) = 35.36444 41.65534 38.50989
# Shear Modulus (GPa) = 2.14993 20.77466 11.46229
#
# Velocity S-wave (km/s) = 1.08154 3.36200 2.49727
# Velocity P-wave (km/s) = 4.56077 6.14284 5.40995
#
# Compressibility (1/GPa) = 0.02827699
#
# Stress axis : x y z
#
# Youngs Moduli (GPa) = 92.27769 46.59648 82.94222
#
# Poissons Ratio (x) = 0.12505 0.23605
# Poissons Ratio (y) = 0.24764 0.20811
# Poissons Ratio (z) = 0.26261 0.11691
#
# Static dielectric constant tensor:
#      x y z
#    x 1.660350 0.000000 -0.019410 
#    y 0.000000 1.609670 0.000000 
#    z -0.019410 0.000000 1.660440 
# 
# From -- ./inp_files/63430.got.cif
#   From: 2010.05.17/outbox.cif.g08.bks.cpg/sg13_32_cif.got.tgz:63430.got - 2010.06.03 16:44:36.
