data_PCOD9227914
_publ_section_title
;
Structure prediction by ZEFSAII (Michael W. Deem and Ramdas Pophale) SiO2 
 PCOD9227914
Probable space group: P 2/C
;
_chemical_formula_sum "Si O2"
_cell_formula_units_Z 22
_cell_length_a 20.328933
_cell_length_b 4.711595
_cell_length_c 8.669231
_cell_angle_alpha 90.000000
_cell_angle_beta 110.355274
_cell_angle_gamma 90.000000
_cell_volume 778.501247
_symmetry_space_group_name_H-M "P 2/C"
_symmetry_group_IT_number 13
_symmetry_cell_setting 'monoclinic'
loop_
_space_group_symop_operation_xyz
x,y,z
-x,y,1/2-z
-x,-y,-z
x,-y,1/2+z
loop_
_atom_site_type_symbol
_atom_site_label
_atom_site_fract_x
_atom_site_fract_y
_atom_site_fract_z
Si Si1 0.500000 0.439341 0.750000
Si Si2 0.000000 0.567454 0.250000
Si Si3 0.689464 0.283272 0.159953
Si Si4 0.866500 0.308341 0.759204
Si Si5 0.408536 0.216835 0.945203
Si Si6 0.220016 0.911960 0.041315
Si Si7 0.000000 0.000000 0.000000
O O1 0.464430 0.252156 0.854067
O O2 0.442493 0.644002 0.623990
O O3 0.924669 0.442694 0.248943
O O4 0.029792 0.758722 0.408147
O O5 0.658150 0.591693 0.157838
O O6 0.621806 0.094162 0.057327
O O7 0.724649 0.120844 0.331080
O O8 0.745079 0.270616 0.066462
O O9 0.810616 0.306863 0.854278
O O10 0.831194 0.129473 0.593170
O O11 0.923483 0.114529 0.891723
#
# Coordination Sequence:
#
# PCOD9227914 Si02
#       7
#     2   2   4   4   4   4   2
#     4  10  24  40  72  88 120 152 194 244 278 356
#     4   8  12  20  40  68 110 156 182 272 276 356
#     4  11  24  39  61  85 128 156 189 244 283 350
#     4   9  13  26  42  75 118 151 209 236 307 339
#     4  11  24  44  62  94 118 154 195 234 297 332
#     4  10  19  30  51  81 116 164 196 238 288 360
#     4   8  12  20  40  68 110 156 182 272 276 356
#
# _framework density 28.259426000000001
#
# number of rings (size 3 to 8) (size 9 to 14) (size 15 to 20)
#    1.091    1.091    1.818    2.182    0.000    4.364 
#    0.000    0.000    0.000    0.000    0.000    0.000 
#    0.000  366.545    0.000    0.000    0.000   45.818 
#
# Total GULP energy -122575.623753 kJ/mol
# GULP energy per Si atom -5571.619262 kJ/mol
# Density = 2.819511 g / cm^3
# Si number density = 28.259426 Si / 1000 Ang^3
#
#
#
# Elastic Constant Matrix: (Units=GPa)
#
#
# Indices 1 2 3 4 5 6 
#
# 1 136.5995 2.1886 3.3300 0.0000 -9.9138 0.0000
# 2 2.1886 80.8576 -7.1670 0.0000 -11.0167 0.0000
# 3 3.3300 -7.1670 84.5269 0.0000 -11.0819 0.0000
# 4 0.0000 0.0000 0.0000 83.4211 0.0000 35.8933
# 5 -9.9138 -11.0167 -11.0819 0.0000 51.0678 0.0000
# 6 0.0000 0.0000 0.0000 35.8933 0.0000 -9.2071
#
#
#
# Elastic Compliance Matrix: (Units=1/GPa)
#
#
# Indices 1 2 3 4 5 6 
#
# 1 0.007426 -0.000018 -0.000109 0.000000 0.001414 0.000000
# 2 -0.000018 0.012925 0.001505 0.000000 0.003111 0.000000
# 3 -0.000109 0.001505 0.012354 0.000000 0.002984 0.000000
# 4 0.000000 0.000000 0.000000 0.004477 0.000000 0.017454
# 5 0.001414 0.003111 0.002984 0.000000 0.021175 0.000000
# 6 0.000000 0.000000 0.000000 0.017454 0.000000 -0.040567
#
#
# Mechanical properties :
#
#
# Convention : Reuss Voigt Hill
#
# Bulk Modulus (GPa) = 28.20010 33.18746 30.69378
# Shear Modulus (GPa) = 186.18242 45.29851 115.74046
#
# Velocity S-wave (km/s) = 8.12566 4.00803 6.40666
# Velocity P-wave (km/s) = 9.90130 5.76094 8.10013
#
# Compressibility (1/GPa) = 0.03546087
#
# Stress axis : x y z
#
# Youngs Moduli (GPa) = 134.65758 77.36842 80.94773
#
# Poissons Ratio (x) = 0.00139 0.00880
# Poissons Ratio (y) = 0.00242 -0.12179
# Poissons Ratio (z) = 0.01463 -0.11640
#
# Static dielectric constant tensor:
#      x y z
#    x 2.443230 0.000000 -0.167000 
#    y 0.000000 2.171740 0.000000 
#    z -0.167000 0.000000 2.276930 
# 
# From -- ./inp_files/22282.got.cif
#   From: 2010.05.17/outbox.cif.g08.bks.cpg/sg13_12_cif.got.tgz:22282.got - 2010.06.03 16:44:36.
