data_PCOD9227822
_publ_section_title
;
Structure prediction by ZEFSAII (Michael W. Deem and Ramdas Pophale) SiO2 
 PCOD9227822
Probable space group: P 2/C
;
_chemical_formula_sum "Si O2"
_cell_formula_units_Z 18
_cell_length_a 8.799011
_cell_length_b 17.359798
_cell_length_c 5.190494
_cell_angle_alpha 90.000000
_cell_angle_beta 99.012808
_cell_angle_gamma 90.000000
_cell_volume 783.054087
_symmetry_space_group_name_H-M "P 2/C"
_symmetry_group_IT_number 13
_symmetry_cell_setting 'monoclinic'
loop_
_space_group_symop_operation_xyz
x,y,z
-x,y,1/2-z
-x,-y,-z
x,-y,1/2+z
loop_
_atom_site_type_symbol
_atom_site_label
_atom_site_fract_x
_atom_site_fract_y
_atom_site_fract_z
Si Si1 0.314846 0.546456 0.212388
Si Si2 0.500000 0.251665 0.250000
Si Si3 0.790029 0.697908 0.554017
Si Si4 0.805686 0.211228 0.549584
Si Si5 0.170782 0.034757 0.033451
O O1 0.500000 0.562063 0.250000
O O2 0.285764 0.522410 0.499798
O O3 0.206202 0.615442 0.082786
O O4 0.391219 0.298301 0.413456
O O5 0.621769 0.206350 0.452830
O O6 0.857866 0.725131 0.849161
O O7 0.831755 0.759918 0.345207
O O8 0.856233 0.125380 0.503418
O O9 0.250182 0.993498 0.814149
O O10 0.000000 0.000000 0.000000
#
# Coordination Sequence:
#
# PCOD9227822 Si02
#       5
#     4   2   4   4   4
#     4  10  19  26  40  65  98 138 183 221 250 281
#     4   8  20  28  50  66 100 134 186 204 240 292
#     4  10  19  31  47  68 100 141 184 214 243 299
#     4  10  19  32  52  71  96 137 175 208 257 307
#     4  10  21  38  57  77 100 126 157 211 282 318
#
# _framework density 22.986917999999999
#
# number of rings (size 3 to 8) (size 9 to 14) (size 15 to 20)
#    1.333    0.889    0.000    4.667    4.667    0.000 
#    0.000    1.111    0.000    0.000    0.000    0.000 
#    0.000    0.000    0.000  280.000    0.000   17.778 
#
# Total GULP energy -100248.128296 kJ/mol
# GULP energy per Si atom -5569.340461 kJ/mol
# Density = 2.293460 g / cm^3
# Si number density = 22.986918 Si / 1000 Ang^3
#
#
#
# Elastic Constant Matrix: (Units=GPa)
#
#
# Indices 1 2 3 4 5 6 
#
# 1 29.3422 -5.5589 4.1482 0.0000 11.1308 0.0000
# 2 -5.5589 103.6072 26.4078 0.0000 6.9376 0.0000
# 3 4.1482 26.4078 171.3230 0.0000 9.0299 0.0000
# 4 0.0000 0.0000 0.0000 6.7099 0.0000 -5.3084
# 5 11.1308 6.9376 9.0299 0.0000 28.7257 0.0000
# 6 0.0000 0.0000 0.0000 -5.3084 0.0000 20.1813
#
#
#
# Elastic Compliance Matrix: (Units=1/GPa)
#
#
# Indices 1 2 3 4 5 6 
#
# 1 0.041118 0.003484 -0.000659 0.000000 -0.016567 0.000000
# 2 0.003484 0.010453 -0.001516 0.000000 -0.003398 0.000000
# 3 -0.000659 -0.001516 0.006156 0.000000 -0.001313 0.000000
# 4 0.000000 0.000000 0.000000 0.188197 0.000000 0.049503
# 5 -0.016567 -0.003398 -0.001313 0.000000 0.042465 0.000000
# 6 0.000000 0.000000 0.000000 0.049503 0.000000 0.062572
#
#
# Mechanical properties :
#
#
# Convention : Reuss Voigt Hill
#
# Bulk Modulus (GPa) = 16.57208 39.36296 27.96752
# Shear Modulus (GPa) = 13.56999 29.74172 21.65586
#
# Velocity S-wave (km/s) = 2.43232 3.60092 3.07269
# Velocity P-wave (km/s) = 3.88757 5.86942 4.97812
#
# Compressibility (1/GPa) = 0.06034246
#
# Stress axis : x y z
#
# Youngs Moduli (GPa) = 24.32001 95.66845 162.44677
#
# Poissons Ratio (x) = -0.33326 0.10711
# Poissons Ratio (y) = -0.08472 0.24634
# Poissons Ratio (z) = 0.01604 0.14508
#
# Static dielectric constant tensor:
#      x y z
#    x 1.899900 0.000000 0.007190 
#    y 0.000000 1.883730 0.000000 
#    z 0.007190 0.000000 1.805250 
# 
# From -- ./inp_files/1295.got.cif
#   From: 2010.05.17/outbox.cif.g08.bks.cpg/sg13_1_cif.got.tgz:1295.got - 2010.06.03 16:44:36.
