data_PCOD9227989
_publ_section_title
;
Structure prediction by ZEFSAII (Michael W. Deem and Ramdas Pophale) SiO2 
 PCOD9227989
Probable space group: P 2/C
;
_chemical_formula_sum "Si O2"
_cell_formula_units_Z 22
_cell_length_a 7.115192
_cell_length_b 25.607906
_cell_length_c 7.591502
_cell_angle_alpha 90.000000
_cell_angle_beta 139.729053
_cell_angle_gamma 90.000000
_cell_volume 894.111631
_symmetry_space_group_name_H-M "P 2/C"
_symmetry_group_IT_number 13
_symmetry_cell_setting 'monoclinic'
loop_
_space_group_symop_operation_xyz
x,y,z
-x,y,1/2-z
-x,-y,-z
x,-y,1/2+z
loop_
_atom_site_type_symbol
_atom_site_label
_atom_site_fract_x
_atom_site_fract_y
_atom_site_fract_z
Si Si1 0.653387 0.206324 0.167094
Si Si2 0.365707 0.444863 0.345761
Si Si3 0.855222 0.612542 0.344400
Si Si4 0.500000 0.127355 0.750000
Si Si5 0.784642 0.962715 0.246482
Si Si6 0.152191 0.728686 0.167659
O O1 0.500000 0.195362 0.250000
O O2 0.975842 0.226690 0.439137
O O3 0.620242 0.160294 0.001968
O O4 0.476609 0.253620 0.946717
O O5 0.500000 0.437161 0.250000
O O6 0.500000 0.500000 0.500000
O O7 0.521206 0.402052 0.576808
O O8 0.026904 0.432164 0.076020
O O9 0.882854 0.671037 0.435279
O O10 0.000000 0.612356 0.250000
O O11 0.279690 0.086953 0.680331
O O12 0.000000 0.942310 0.250000
O O13 0.000000 0.000000 0.500000
O O14 0.500000 0.000000 0.000000
O O15 0.000000 0.726233 0.250000
#
# Coordination Sequence:
#
# PCOD9227989 Si02
#       6
#     4   4   4   2   4   4
#     4  10  23  41  67 101 136 182 230 291 357 428
#     4  10  19  31  51  78 113 153 206 266 331 406
#     4   9  17  31  56  82 107 160 213 264 331 406
#     4  12  28  48  80 108 158 194 244 306 374 430
#     4  12  26  50  78 111 149 197 250 303 367 437
#     4   9  18  37  63  92 126 165 229 286 339 423
#
# _framework density 24.605428
#
# number of rings (size 3 to 8) (size 9 to 14) (size 15 to 20)
#    0.000    1.818    1.818    1.636    0.000   11.636 
#    0.000    0.000   12.000    0.000    0.000    0.000 
#    0.000    0.000    0.000    0.000    0.000    0.000 
#
# Total GULP energy -122951.496988 kJ/mol
# GULP energy per Si atom -5588.704409 kJ/mol
# Density = 2.454943 g / cm^3
# Si number density = 24.605428 Si / 1000 Ang^3
#
#
#
# Elastic Constant Matrix: (Units=GPa)
#
#
# Indices 1 2 3 4 5 6 
#
# 1 108.7478 31.8222 28.4699 0.0000 -19.9036 0.0000
# 2 31.8222 153.3081 62.5502 0.0000 -16.7957 0.0000
# 3 28.4699 62.5502 160.0952 0.0000 3.3635 0.0000
# 4 0.0000 0.0000 0.0000 39.0549 0.0000 -3.8625
# 5 -19.9036 -16.7957 3.3635 0.0000 46.5000 0.0000
# 6 0.0000 0.0000 0.0000 -3.8625 0.0000 24.0284
#
#
#
# Elastic Compliance Matrix: (Units=1/GPa)
#
#
# Indices 1 2 3 4 5 6 
#
# 1 0.010717 -0.001118 -0.001559 0.000000 0.004296 0.000000
# 2 -0.001118 0.008326 -0.003112 0.000000 0.002754 0.000000
# 3 -0.001559 -0.003112 0.007789 0.000000 -0.002355 0.000000
# 4 0.000000 0.000000 0.000000 0.026019 0.000000 0.004182
# 5 0.004296 0.002754 -0.002355 0.000000 0.024510 0.000000
# 6 0.000000 0.000000 0.000000 0.004182 0.000000 0.042290
#
#
# Mechanical properties :
#
#
# Convention : Reuss Voigt Hill
#
# Bulk Modulus (GPa) = 65.55673 74.20396 69.88034
# Shear Modulus (GPa) = 36.68001 41.87058 39.27530
#
# Velocity S-wave (km/s) = 3.86518 4.12962 3.99959
# Velocity P-wave (km/s) = 6.82793 7.27746 7.05627
#
# Compressibility (1/GPa) = 0.01525396
#
# Stress axis : x y z
#
# Youngs Moduli (GPa) = 93.30752 120.10069 128.38510
#
# Poissons Ratio (x) = 0.13423 0.20021
# Poissons Ratio (y) = 0.10428 0.39957
# Poissons Ratio (z) = 0.14551 0.37379
#
# Static dielectric constant tensor:
#      x y z
#    x 1.146550 0.000000 0.055490 
#    y 0.000000 1.949810 0.000000 
#    z 0.055490 0.000000 1.903880 
# 
# From -- ./inp_files/13969.got.cif
#   From: 2010.05.17/outbox.cif.g08.bks.cpg/sg13_7_cif.got.tgz:13969.got - 2010.06.03 16:44:36.
