data_PCOD9227035
_publ_section_title
;
Structure prediction by ZEFSAII (Michael W. Deem and Ramdas Pophale) SiO2 
 PCOD9227035
Probable space group: P 2/C
;
_chemical_formula_sum "Si O2"
_cell_formula_units_Z 26
_cell_length_a 17.445272
_cell_length_b 10.948878
_cell_length_c 14.517864
_cell_angle_alpha 90.000000
_cell_angle_beta 151.208983
_cell_angle_gamma 90.000000
_cell_volume 1335.522604
_symmetry_space_group_name_H-M "P 2/C"
_symmetry_group_IT_number 13
_symmetry_cell_setting 'monoclinic'
loop_
_space_group_symop_operation_xyz
x,y,z
-x,y,1/2-z
-x,-y,-z
x,-y,1/2+z
loop_
_atom_site_type_symbol
_atom_site_label
_atom_site_fract_x
_atom_site_fract_y
_atom_site_fract_z
Si Si1 0.704206 0.178370 0.680578
Si Si2 0.014565 0.662304 0.929962
Si Si3 0.000000 0.836084 0.750000
Si Si4 0.579109 0.251735 0.235797
Si Si5 0.879435 0.394951 0.477846
Si Si6 0.043017 0.159542 0.690353
Si Si7 0.761373 0.008140 0.390785
O O1 0.550939 0.247699 0.482201
O O2 0.791244 0.125996 0.680458
O O3 0.672864 0.073319 0.721878
O O4 0.837820 0.265337 0.867474
O O5 0.950454 0.750023 0.782881
O O6 0.888167 0.627283 0.876432
O O7 0.081909 0.534814 0.962461
O O8 0.851813 0.916621 0.556357
O O9 0.500000 0.283130 0.250000
O O10 0.720579 0.343022 0.356707
O O11 0.652667 0.114443 0.318533
O O12 0.018679 0.304454 0.658605
O O13 0.000000 0.131694 0.750000
O O14 0.904468 0.085074 0.491994
#
# Coordination Sequence:
#
# PCOD9227035 Si02
#       7
#     4   4   2   4   4   4   4
#     4  10  20  35  57  82 116 155 191 236 294 346
#     4   9  20  39  62  86 112 150 198 248 287 337
#     4  10  20  36  62  88 114 148 196 246 288 340
#     4  11  23  39  56  88 119 155 194 232 291 355
#     4   9  20  38  58  87 112 151 199 242 292 335
#     4  10  18  32  56  85 111 151 201 241 283 332
#     4  10  20  36  54  83 118 154 193 240 284 342
#
# _framework density 19.468033999999999
#
# number of rings (size 3 to 8) (size 9 to 14) (size 15 to 20)
#    0.000    2.154    0.769    2.769    1.077    1.846 
#    5.538    0.000    0.000    0.000    0.000    0.000 
#    0.000    0.000    0.000    0.000    0.000    0.000 
#
# Total GULP energy -144884.818849 kJ/mol
# GULP energy per Si atom -5572.493033 kJ/mol
# Density = 1.942372 g / cm^3
# Si number density = 19.468034 Si / 1000 Ang^3
#
#
#
# Elastic Constant Matrix: (Units=GPa)
#
#
# Indices 1 2 3 4 5 6 
#
# 1 101.0079 46.2319 24.8140 0.0000 3.9629 0.0000
# 2 46.2319 99.6303 13.7259 0.0000 -6.3686 0.0000
# 3 24.8140 13.7259 54.1469 0.0000 -6.2297 0.0000
# 4 0.0000 0.0000 0.0000 14.3127 0.0000 -0.7699
# 5 3.9629 -6.3686 -6.2297 0.0000 27.2020 0.0000
# 6 0.0000 0.0000 0.0000 -0.7699 0.0000 19.0163
#
#
#
# Elastic Compliance Matrix: (Units=1/GPa)
#
#
# Indices 1 2 3 4 5 6 
#
# 1 0.014268 -0.006165 -0.005526 0.000000 -0.004788 0.000000
# 2 -0.006165 0.013159 -0.000054 0.000000 0.003967 0.000000
# 3 -0.005526 -0.000054 0.021677 0.000000 0.005757 0.000000
# 4 0.000000 0.000000 0.000000 0.070020 0.000000 0.002835
# 5 -0.004788 0.003967 0.005757 0.000000 0.039707 0.000000
# 6 0.000000 0.000000 0.000000 0.002835 0.000000 0.052701
#
#
# Mechanical properties :
#
#
# Convention : Reuss Voigt Hill
#
# Bulk Modulus (GPa) = 39.04398 47.14761 43.09579
# Shear Modulus (GPa) = 20.52879 23.44043 21.98461
#
# Velocity S-wave (km/s) = 3.25081 3.47370 3.36410
# Velocity P-wave (km/s) = 5.84716 6.35290 6.10527
#
# Compressibility (1/GPa) = 0.02561214
#
# Stress axis : x y z
#
# Youngs Moduli (GPa) = 70.08886 75.99343 46.13211
#
# Poissons Ratio (x) = 0.46853 0.25494
# Poissons Ratio (y) = 0.43212 0.00249
# Poissons Ratio (z) = 0.38734 0.00410
#
# Static dielectric constant tensor:
#      x y z
#    x 1.719290 0.000000 -0.058320 
#    y 0.000000 1.685660 0.000000 
#    z -0.058320 0.000000 1.752050 
# 
# From -- ./inp_files/55552.got.cif
#   From: 2010.05.17/outbox.cif.g08.bks.cpg/sg13_28_cif.got.tgz:55552.got - 2010.06.03 16:44:36.
