data_PCOD9227761
_publ_section_title
;
Structure prediction by ZEFSAII (Michael W. Deem and Ramdas Pophale) SiO2 
 PCOD9227761
Probable space group: P 2/C
;
_chemical_formula_sum "Si O2"
_cell_formula_units_Z 30
_cell_length_a 12.782835
_cell_length_b 9.743934
_cell_length_c 16.036221
_cell_angle_alpha 90.000000
_cell_angle_beta 38.571151
_cell_angle_gamma 90.000000
_cell_volume 1245.346675
_symmetry_space_group_name_H-M "P 2/C"
_symmetry_group_IT_number 13
_symmetry_cell_setting 'monoclinic'
loop_
_space_group_symop_operation_xyz
x,y,z
-x,y,1/2-z
-x,-y,-z
x,-y,1/2+z
loop_
_atom_site_type_symbol
_atom_site_label
_atom_site_fract_x
_atom_site_fract_y
_atom_site_fract_z
Si Si1 0.103532 0.853315 0.105278
Si Si2 0.899222 0.500034 0.186943
Si Si3 0.411266 0.664563 0.666000
Si Si4 0.249108 0.435709 0.537385
Si Si5 0.514839 0.848060 0.447773
Si Si6 0.741661 0.894538 0.026336
Si Si7 0.153800 0.215769 0.863834
Si Si8 0.500000 0.126931 0.250000
O O1 0.231865 0.725432 0.021720
O O2 0.000000 0.803439 0.250000
O O3 0.005753 0.855843 0.078955
O O4 0.138065 0.011635 0.103367
O O5 0.780258 0.380235 0.227945
O O6 0.809044 0.540107 0.331106
O O7 0.874449 0.625092 0.138683
O O8 0.099222 0.487195 0.080098
O O9 0.549835 0.544136 0.598746
O O10 0.484861 0.736975 0.537716
O O11 0.414797 0.777701 0.735171
O O12 0.376572 0.816133 0.463290
O O13 0.690121 0.835301 0.290191
O O14 0.500000 0.000000 0.500000
O O15 0.814283 0.816189 0.059826
O O16 0.633341 0.022171 0.129036
#
# Coordination Sequence:
#
# PCOD9227761 Si02
#       8
#     4   4   4   4   4   4   4   2
#     4  11  19  37  68  96 128 181 226 268 341 412
#     4  10  22  39  68  97 130 177 232 276 333 409
#     4  12  23  42  68  98 132 183 229 280 342 407
#     4  10  18  39  69  94 129 173 230 280 331 406
#     4  12  21  38  68  93 129 174 226 274 339 407
#     4  12  23  40  64 100 140 168 220 284 338 407
#     4  11  21  38  63  98 128 176 220 276 336 404
#     4  12  24  40  64  98 136 174 224 276 346 412
#
# _framework density 24.089679
#
# number of rings (size 3 to 8) (size 9 to 14) (size 15 to 20)
#    0.000    0.800    8.000    1.600    0.000    0.000 
#    2.400    0.667   20.533    0.000    0.000    0.000 
#    0.000    0.000    0.000    0.000    0.000    0.000 
#
# Total GULP energy -167600.613137 kJ/mol
# GULP energy per Si atom -5586.687105 kJ/mol
# Density = 2.403485 g / cm^3
# Si number density = 24.089679 Si / 1000 Ang^3
#
#
#
# Elastic Constant Matrix: (Units=GPa)
#
#
# Indices 1 2 3 4 5 6 
#
# 1 172.6312 34.1861 12.9477 0.0000 2.5553 0.0000
# 2 34.1861 45.5302 4.9549 0.0000 -2.4815 0.0000
# 3 12.9477 4.9549 53.7601 0.0000 -2.4730 0.0000
# 4 0.0000 0.0000 0.0000 5.1962 0.0000 -0.5741
# 5 2.5553 -2.4815 -2.4730 0.0000 21.7412 0.0000
# 6 0.0000 0.0000 0.0000 -0.5741 0.0000 37.7892
#
#
#
# Elastic Compliance Matrix: (Units=1/GPa)
#
#
# Indices 1 2 3 4 5 6 
#
# 1 0.006930 -0.005150 -0.001266 0.000000 -0.001546 0.000000
# 2 -0.005150 0.026129 -0.001008 0.000000 0.003473 0.000000
# 3 -0.001266 -0.001008 0.019100 0.000000 0.002206 0.000000
# 4 0.000000 0.000000 0.000000 0.192774 0.000000 0.002929
# 5 -0.001546 0.003473 0.002206 0.000000 0.046825 0.000000
# 6 0.000000 0.000000 0.000000 0.002929 0.000000 0.026507
#
#
# Mechanical properties :
#
#
# Convention : Reuss Voigt Hill
#
# Bulk Modulus (GPa) = 26.80072 41.78874 34.29473
# Shear Modulus (GPa) = 14.46965 27.60083 21.03524
#
# Velocity S-wave (km/s) = 2.45349 3.38857 2.95821
# Velocity P-wave (km/s) = 4.37901 5.71793 5.09266
#
# Compressibility (1/GPa) = 0.03731243
#
# Stress axis : x y z
#
# Youngs Moduli (GPa) = 144.29188 38.27097 52.35501
#
# Poissons Ratio (x) = 0.19710 0.06626
# Poissons Ratio (y) = 0.74313 0.05278
# Poissons Ratio (z) = 0.18261 0.03858
#
# Static dielectric constant tensor:
#      x y z
#    x 1.948900 0.000000 -0.027150 
#    y 0.000000 1.937230 0.000000 
#    z -0.027150 0.000000 1.822620 
# 
# From -- ./inp_files/51174.got.cif
#   From: 2010.05.17/outbox.cif.g08.bks.cpg/sg13_26_cif.got.tgz:51174.got - 2010.06.03 16:44:36.
