data_PCOD9227924
_publ_section_title
;
Structure prediction by ZEFSAII (Michael W. Deem and Ramdas Pophale) SiO2 
 PCOD9227924
Probable space group: P 2/C
;
_chemical_formula_sum "Si O2"
_cell_formula_units_Z 24
_cell_length_a 21.176074
_cell_length_b 9.619123
_cell_length_c 9.140573
_cell_angle_alpha 90.000000
_cell_angle_beta 146.728738
_cell_angle_gamma 90.000000
_cell_volume 1021.440195
_symmetry_space_group_name_H-M "P 2/C"
_symmetry_group_IT_number 13
_symmetry_cell_setting 'monoclinic'
loop_
_space_group_symop_operation_xyz
x,y,z
-x,y,1/2-z
-x,-y,-z
x,-y,1/2+z
loop_
_atom_site_type_symbol
_atom_site_label
_atom_site_fract_x
_atom_site_fract_y
_atom_site_fract_z
Si Si1 0.343135 0.073837 0.321522
Si Si2 0.000000 0.795725 0.250000
Si Si3 0.399250 0.181317 0.142865
Si Si4 0.785601 0.666308 0.801705
Si Si5 0.201068 0.601164 0.332046
Si Si6 0.000000 0.288019 0.250000
Si Si7 0.887332 0.965356 0.686615
O O1 0.429437 0.133095 0.366294
O O2 0.376690 0.951576 0.495653
O O3 0.301934 0.207193 0.338057
O O4 0.242853 0.998736 0.024359
O O5 0.913800 0.704726 0.987140
O O6 0.903207 0.904536 0.109822
O O7 0.500000 0.259531 0.250000
O O8 0.286685 0.275729 0.947801
O O9 0.811402 0.610892 0.017065
O O10 0.745651 0.543075 0.620331
O O11 0.079237 0.627646 0.015431
O O12 0.087075 0.181423 0.336062
O O13 0.000000 0.000000 0.000000
#
# Coordination Sequence:
#
# PCOD9227924 Si02
#       7
#     4   2   4   4   4   2   4
#     4  10  22  40  63  92 120 158 205 251 310 361
#     4   9  19  32  52  82 124 164 192 244 286 358
#     4  11  23  44  66  92 120 155 208 263 307 361
#     4  10  23  39  57  86 131 159 210 241 306 365
#     4  11  24  41  59  92 122 170 200 255 300 371
#     4  11  19  34  58  86 128 158 206 232 310 362
#     4  10  19  30  55  90 126 161 194 243 302 370
#
# _framework density 23.496237000000001
#
# number of rings (size 3 to 8) (size 9 to 14) (size 15 to 20)
#    0.000    1.667    1.667    4.000    4.667    5.333 
#    0.000    4.167    0.000    0.000    0.000    0.000 
#    0.000    0.000    0.000    0.000    0.000    0.000 
#
# Total GULP energy -133661.949189 kJ/mol
# GULP energy per Si atom -5569.247883 kJ/mol
# Density = 2.344276 g / cm^3
# Si number density = 23.496237 Si / 1000 Ang^3
#
#
#
# Elastic Constant Matrix: (Units=GPa)
#
#
# Indices 1 2 3 4 5 6 
#
# 1 99.7587 13.3802 5.9081 0.0000 12.8781 0.0000
# 2 13.3802 70.0909 2.3892 0.0000 -3.8218 0.0000
# 3 5.9081 2.3892 32.0880 0.0000 -0.9312 0.0000
# 4 0.0000 0.0000 0.0000 19.2725 0.0000 -4.1100
# 5 12.8781 -3.8218 -0.9312 0.0000 24.3720 0.0000
# 6 0.0000 0.0000 0.0000 -4.1100 0.0000 71.0974
#
#
#
# Elastic Compliance Matrix: (Units=1/GPa)
#
#
# Indices 1 2 3 4 5 6 
#
# 1 0.011306 -0.002438 -0.002087 0.000000 -0.006436 0.000000
# 2 -0.002438 0.014949 -0.000559 0.000000 0.003611 0.000000
# 3 -0.002087 -0.000559 0.031655 0.000000 0.002224 0.000000
# 4 0.000000 0.000000 0.000000 0.052535 0.000000 0.003037
# 5 -0.006436 0.003611 0.002224 0.000000 0.045083 0.000000
# 6 0.000000 0.000000 0.000000 0.003037 0.000000 0.014241
#
#
# Mechanical properties :
#
#
# Convention : Reuss Voigt Hill
#
# Bulk Modulus (GPa) = 20.94657 27.25472 24.10064
# Shear Modulus (GPa) = 25.52981 34.96570 30.24776
#
# Velocity S-wave (km/s) = 3.29986 3.86183 3.59185
# Velocity P-wave (km/s) = 4.84283 5.61335 5.24227
#
# Compressibility (1/GPa) = 0.04774051
#
# Stress axis : x y z
#
# Youngs Moduli (GPa) = 88.45163 66.89613 31.59082
#
# Poissons Ratio (x) = 0.16309 0.06593
# Poissons Ratio (y) = 0.21565 0.01767
# Poissons Ratio (z) = 0.18459 0.03742
#
# Static dielectric constant tensor:
#      x y z
#    x 1.969150 0.000000 0.026590 
#    y 0.000000 1.660830 0.000000 
#    z 0.026590 0.000000 2.041620 
# 
# From -- ./inp_files/41692.got.cif
#   From: 2010.05.17/outbox.cif.g08.bks.cpg/sg13_21_cif.got.tgz:41692.got - 2010.06.03 16:44:36.
