data_PCOD9227957
_publ_section_title
;
Structure prediction by ZEFSAII (Michael W. Deem and Ramdas Pophale) SiO2 
 PCOD9227957
Probable space group: P 2/C
;
_chemical_formula_sum "Si O2"
_cell_formula_units_Z 28
_cell_length_a 16.766898
_cell_length_b 14.103597
_cell_length_c 9.160886
_cell_angle_alpha 90.000000
_cell_angle_beta 132.598743
_cell_angle_gamma 90.000000
_cell_volume 1594.644764
_symmetry_space_group_name_H-M "P 2/C"
_symmetry_group_IT_number 13
_symmetry_cell_setting 'monoclinic'
loop_
_space_group_symop_operation_xyz
x,y,z
-x,y,1/2-z
-x,-y,-z
x,-y,1/2+z
loop_
_atom_site_type_symbol
_atom_site_label
_atom_site_fract_x
_atom_site_fract_y
_atom_site_fract_z
Si Si1 0.602656 0.634087 0.062930
Si Si2 0.407488 0.574518 0.007399
Si Si3 0.610584 0.060489 0.245183
Si Si4 0.234379 0.018825 0.798087
Si Si5 0.500000 0.776691 0.750000
Si Si6 0.126827 0.119600 0.388987
Si Si7 0.307163 0.736848 0.040920
Si Si8 0.500000 0.113397 0.750000
O O1 0.478794 0.610338 0.959785
O O2 0.661247 0.686549 0.267690
O O3 0.643380 0.528950 0.077119
O O4 0.594406 0.708119 0.922360
O O5 0.500000 0.568453 0.250000
O O6 0.320456 0.653220 0.941140
O O7 0.689390 0.049068 0.206282
O O8 0.537744 0.153855 0.166740
O O9 0.685601 0.066346 0.484617
O O10 0.541953 0.963274 0.181992
O O11 0.151367 0.960305 0.796150
O O12 0.178201 0.085008 0.607390
O O13 0.194183 0.210420 0.418937
O O14 0.000000 0.134932 0.250000
O O15 0.398767 0.815127 0.115913
#
# Coordination Sequence:
#
# PCOD9227957 Si02
#       8
#     4   4   4   4   2   4   4   2
#     4  10  19  31  48  75 110 136 173 215 266 323
#     4   9  18  32  49  75 104 139 173 214 266 327
#     4  10  23  30  50  80 117 143 181 212 263 324
#     4  10  20  38  52  76 109 146 182 226 264 298
#     4  11  22  25  46  78 114 149 170 207 260 330
#     4  11  23  39  58  78 104 146 195 231 265 314
#     4  11  20  34  57  75 106 149 177 218 273 326
#     4  11  18  33  50  78 116 145 176 207 258 332
#
# _framework density 17.558769999999999
#
# number of rings (size 3 to 8) (size 9 to 14) (size 15 to 20)
#    0.000    1.714    5.714    1.286    4.000    1.143 
#    0.000    0.000    0.000    0.857    0.000    0.000 
#    0.000    0.000    0.000    0.000    0.000    0.000 
#
# Total GULP energy -156176.259040 kJ/mol
# GULP energy per Si atom -5577.723537 kJ/mol
# Density = 1.751881 g / cm^3
# Si number density = 17.558770 Si / 1000 Ang^3
#
#
#
# Elastic Constant Matrix: (Units=GPa)
#
#
# Indices 1 2 3 4 5 6 
#
# 1 98.1221 44.0173 26.1106 0.0000 12.8098 0.0000
# 2 44.0173 129.3670 26.1390 0.0000 4.7828 0.0000
# 3 26.1106 26.1390 48.2085 0.0000 -4.8754 0.0000
# 4 0.0000 0.0000 0.0000 19.2921 0.0000 -13.1269
# 5 12.8098 4.7828 -4.8754 0.0000 29.3275 0.0000
# 6 0.0000 0.0000 0.0000 -13.1269 0.0000 26.5281
#
#
#
# Elastic Compliance Matrix: (Units=1/GPa)
#
#
# Indices 1 2 3 4 5 6 
#
# 1 0.014329 -0.003274 -0.006677 0.000000 -0.006835 0.000000
# 2 -0.003274 0.009575 -0.003491 0.000000 -0.000712 0.000000
# 3 -0.006677 -0.003491 0.027060 0.000000 0.007984 0.000000
# 4 0.000000 0.000000 0.000000 0.078146 0.000000 0.038669
# 5 -0.006835 -0.000712 0.007984 0.000000 0.038526 0.000000
# 6 0.000000 0.000000 0.000000 0.038669 0.000000 0.056830
#
#
# Mechanical properties :
#
#
# Convention : Reuss Voigt Hill
#
# Bulk Modulus (GPa) = 41.52614 52.02572 46.77593
# Shear Modulus (GPa) = 19.27694 26.99160 23.13427
#
# Velocity S-wave (km/s) = 3.31698 3.92499 3.63372
# Velocity P-wave (km/s) = 6.19443 7.08763 6.65603
#
# Compressibility (1/GPa) = 0.02408122
#
# Stress axis : x y z
#
# Youngs Moduli (GPa) = 69.78850 104.43359 36.95514
#
# Poissons Ratio (x) = 0.34188 0.24675
# Poissons Ratio (y) = 0.22846 0.12900
# Poissons Ratio (z) = 0.46598 0.36456
#
# Static dielectric constant tensor:
#      x y z
#    x 1.604800 0.000000 -0.061350 
#    y 0.000000 1.619610 0.000000 
#    z -0.061350 0.000000 1.670680 
# 
# From -- ./inp_files/19452.got.cif
#   From: 2010.05.17/outbox.cif.g08.bks.cpg/sg13_10_cif.got.tgz:19452.got - 2010.06.03 16:44:36.
