data_PCOD9227991
_publ_section_title
;
Structure prediction by ZEFSAII (Michael W. Deem and Ramdas Pophale) SiO2 
 PCOD9227991
Probable space group: P 2/C
;
_chemical_formula_sum "Si O2"
_cell_formula_units_Z 28
_cell_length_a 13.928915
_cell_length_b 5.315349
_cell_length_c 25.230325
_cell_angle_alpha 90.000000
_cell_angle_beta 38.419637
_cell_angle_gamma 90.000000
_cell_volume 1160.792481
_symmetry_space_group_name_H-M "P 2/C"
_symmetry_group_IT_number 13
_symmetry_cell_setting 'monoclinic'
loop_
_space_group_symop_operation_xyz
x,y,z
-x,y,1/2-z
-x,-y,-z
x,-y,1/2+z
loop_
_atom_site_type_symbol
_atom_site_label
_atom_site_fract_x
_atom_site_fract_y
_atom_site_fract_z
Si Si1 0.264263 0.224332 0.811929
Si Si2 0.725832 0.856019 0.776920
Si Si3 0.478861 0.108116 0.950198
Si Si4 0.304980 0.619170 0.992210
Si Si5 0.915820 0.751613 0.014644
Si Si6 0.474391 0.554440 0.821698
Si Si7 0.987485 0.582512 0.635545
O O1 0.243607 0.232109 0.883379
O O2 0.438861 0.287927 0.720679
O O3 0.142824 0.418423 0.838578
O O4 0.223473 0.969718 0.801356
O O5 0.645261 0.059909 0.849554
O O6 0.587236 0.680875 0.817009
O O7 0.884068 0.719561 0.724983
O O8 0.360254 0.902349 0.978324
O O9 0.410272 0.389926 0.971829
O O10 0.500000 0.000000 0.000000
O O11 0.316409 0.585092 0.922790
O O12 0.132739 0.584957 0.089588
O O13 0.928033 0.750887 0.946193
O O14 0.000000 0.500000 0.000000
O O15 0.000000 0.000000 0.000000
O O16 0.500000 0.658224 0.750000
#
# Coordination Sequence:
#
# PCOD9227991 Si02
#       7
#     4   4   4   4   4   4   4
#     4  10  19  36  57  85 126 177 213 256 315 379
#     4  10  21  40  65  89 128 176 218 266 329 385
#     4  11  25  48  73  93 126 173 225 273 338 396
#     4  11  24  43  68 102 128 171 216 276 329 391
#     4  10  19  31  51  83 123 173 206 236 300 375
#     4  10  21  38  57  93 135 174 221 259 309 391
#     4  10  22  37  61  93 135 163 212 273 324 383
#
# _framework density 24.121451
#
# number of rings (size 3 to 8) (size 9 to 14) (size 15 to 20)
#    0.000    1.714    2.857    1.286    2.000    1.714 
#    5.143    0.714    0.000    0.000    0.000    0.000 
#    0.000    0.000    0.000    0.000    0.000    0.000 
#
# Total GULP energy -155913.873709 kJ/mol
# GULP energy per Si atom -5568.352632 kJ/mol
# Density = 2.406655 g / cm^3
# Si number density = 24.121451 Si / 1000 Ang^3
#
#
#
# Elastic Constant Matrix: (Units=GPa)
#
#
# Indices 1 2 3 4 5 6 
#
# 1 35.7014 0.1883 23.9607 0.0000 1.4015 0.0000
# 2 0.1883 80.4928 -2.0749 0.0000 -4.0899 0.0000
# 3 23.9607 -2.0749 102.2430 0.0000 -30.4165 0.0000
# 4 0.0000 0.0000 0.0000 23.5929 0.0000 -0.4086
# 5 1.4015 -4.0899 -30.4165 0.0000 38.4899 0.0000
# 6 0.0000 0.0000 0.0000 -0.4086 0.0000 18.6791
#
#
#
# Elastic Compliance Matrix: (Units=1/GPa)
#
#
# Indices 1 2 3 4 5 6 
#
# 1 0.036281 -0.000928 -0.011692 0.000000 -0.010659 0.000000
# 2 -0.000928 0.012571 0.001150 0.000000 0.002279 0.000000
# 3 -0.011692 0.001150 0.016613 0.000000 0.013676 0.000000
# 4 0.000000 0.000000 0.000000 0.042402 0.000000 0.000927
# 5 -0.010659 0.002279 0.013676 0.000000 0.037419 0.000000
# 6 0.000000 0.000000 0.000000 0.000927 0.000000 0.053556
#
#
# Mechanical properties :
#
#
# Convention : Reuss Voigt Hill
#
# Bulk Modulus (GPa) = 23.51565 29.17614 26.34590
# Shear Modulus (GPa) = 21.19047 29.24326 25.21687
#
# Velocity S-wave (km/s) = 2.96715 3.48564 3.23679
# Velocity P-wave (km/s) = 4.63774 5.32178 4.99149
#
# Compressibility (1/GPa) = 0.04252487
#
# Stress axis : x y z
#
# Youngs Moduli (GPa) = 27.56286 79.54770 60.19532
#
# Poissons Ratio (x) = 0.07381 0.70382
# Poissons Ratio (y) = 0.02557 -0.06925
# Poissons Ratio (z) = 0.32227 -0.09152
#
# Static dielectric constant tensor:
#      x y z
#    x 2.091680 0.000000 -0.118280 
#    y 0.000000 2.024490 0.000000 
#    z -0.118280 0.000000 2.119180 
# 
# From -- ./inp_files/92647.got.cif
#   From: 2010.05.17/outbox.cif.g08.bks.cpg/sg13_47_cif.got.tgz:92647.got - 2010.06.03 16:44:36.
