data_PCOD9227248
_publ_section_title
;
Structure prediction by ZEFSAII (Michael W. Deem and Ramdas Pophale) SiO2 
 PCOD9227248
Probable space group: P 2/C
;
_chemical_formula_sum "Si O2"
_cell_formula_units_Z 28
_cell_length_a 10.717197
_cell_length_b 18.273841
_cell_length_c 15.127363
_cell_angle_alpha 90.000000
_cell_angle_beta 24.384966
_cell_angle_gamma 90.000000
_cell_volume 1223.158773
_symmetry_space_group_name_H-M "P 2/C"
_symmetry_group_IT_number 13
_symmetry_cell_setting 'monoclinic'
loop_
_space_group_symop_operation_xyz
x,y,z
-x,y,1/2-z
-x,-y,-z
x,-y,1/2+z
loop_
_atom_site_type_symbol
_atom_site_label
_atom_site_fract_x
_atom_site_fract_y
_atom_site_fract_z
Si Si1 0.846702 0.518118 0.253508
Si Si2 0.765831 0.327118 0.823018
Si Si3 0.344919 0.921373 0.712115
Si Si4 0.087869 0.362433 0.297512
Si Si5 0.059004 0.200289 0.073065
Si Si6 0.027845 0.946971 0.109281
Si Si7 0.617701 0.820796 0.319163
O O1 0.500000 0.500000 0.500000
O O2 0.864850 0.600135 0.203926
O O3 0.978340 0.444396 0.124125
O O4 0.000000 0.525893 0.250000
O O5 0.707990 0.256889 0.801351
O O6 0.000000 0.311173 0.750000
O O7 0.445213 0.348255 0.072912
O O8 0.697878 0.939354 0.498572
O O9 0.264077 0.839850 0.729138
O O10 0.198380 0.935178 0.904353
O O11 0.150289 0.976684 0.777641
O O12 0.000000 0.364693 0.250000
O O13 0.944429 0.288434 0.426776
O O14 0.228681 0.174287 0.875958
O O15 0.263930 0.177207 0.024181
O O16 0.771298 0.884677 0.275636
#
# Coordination Sequence:
#
# PCOD9227248 Si02
#       7
#     4   4   4   4   4   4   4
#     4   8  16  30  51  74  98 130 176 216 247 297
#     4  10  20  34  53  78 105 136 173 217 260 308
#     4   9  17  30  50  75 101 136 174 211 253 302
#     4  10  18  34  55  77 101 138 180 213 253 309
#     4  10  20  33  53  78 106 137 173 215 259 307
#     4   9  17  30  50  74 103 135 173 213 251 303
#     4  10  20  34  51  78 109 136 170 216 263 304
#
# _framework density 22.891551
#
# number of rings (size 3 to 8) (size 9 to 14) (size 15 to 20)
#    0.000    2.571    1.429    0.857    2.000    3.429 
#    0.000    0.714    0.000    1.714    0.000    0.000 
#    0.000    0.000    0.000    0.000    0.000    0.000 
#
# Total GULP energy -156241.005762 kJ/mol
# GULP energy per Si atom -5580.035920 kJ/mol
# Density = 2.283945 g / cm^3
# Si number density = 22.891551 Si / 1000 Ang^3
#
#
#
# Elastic Constant Matrix: (Units=GPa)
#
#
# Indices 1 2 3 4 5 6 
#
# 1 87.1263 30.8835 37.6182 0.0000 -28.4956 0.0000
# 2 30.8835 148.4063 13.0670 0.0000 -22.3169 0.0000
# 3 37.6182 13.0670 101.4840 0.0000 -39.1645 0.0000
# 4 0.0000 0.0000 0.0000 21.7733 0.0000 29.9184
# 5 -28.4956 -22.3169 -39.1645 0.0000 41.8826 0.0000
# 6 0.0000 0.0000 0.0000 29.9184 0.0000 -76.6334
#
#
#
# Elastic Compliance Matrix: (Units=1/GPa)
#
#
# Indices 1 2 3 4 5 6 
#
# 1 0.015687 -0.001969 -0.002891 0.000000 0.006921 0.000000
# 2 -0.001969 0.007623 0.001250 0.000000 0.003891 0.000000
# 3 -0.002891 0.001250 0.016057 0.000000 0.013714 0.000000
# 4 0.000000 0.000000 0.000000 0.029892 0.000000 0.011670
# 5 0.006921 0.003891 0.013714 0.000000 0.043482 0.000000
# 6 0.000000 0.000000 0.000000 0.011670 0.000000 -0.008493
#
#
# Mechanical properties :
#
#
# Convention : Reuss Voigt Hill
#
# Bulk Modulus (GPa) = 31.10646 55.57266 43.33956
# Shear Modulus (GPa) = 40.92187 14.43436 27.67812
#
# Velocity S-wave (km/s) = 4.23264 2.51381 3.48098
# Velocity P-wave (km/s) = 6.12414 5.72318 5.92705
#
# Compressibility (1/GPa) = 0.03214766
#
# Stress axis : x y z
#
# Youngs Moduli (GPa) = 63.74628 131.17978 62.27871
#
# Poissons Ratio (x) = 0.25833 0.18002
# Poissons Ratio (y) = 0.12553 -0.07785
# Poissons Ratio (z) = 0.18426 -0.16398
#
# Static dielectric constant tensor:
#      x y z
#    x 1.751200 0.000000 0.015120 
#    y 0.000000 1.929560 0.000000 
#    z 0.015120 0.000000 1.868290 
# 
# From -- ./inp_files/78765.got.cif
#   From: 2010.05.17/outbox.cif.g08.bks.cpg/sg13_40_cif.got.tgz:78765.got - 2010.06.03 16:44:36.
