data_PCOD9227089
_publ_section_title
;
Structure prediction by ZEFSAII (Michael W. Deem and Ramdas Pophale) SiO2 
 PCOD9227089
Probable space group: P 2/C
;
_chemical_formula_sum "Si O2"
_cell_formula_units_Z 26
_cell_length_a 15.255120
_cell_length_b 9.109011
_cell_length_c 14.689985
_cell_angle_alpha 90.000000
_cell_angle_beta 39.119295
_cell_angle_gamma 90.000000
_cell_volume 1287.935998
_symmetry_space_group_name_H-M "P 2/C"
_symmetry_group_IT_number 13
_symmetry_cell_setting 'monoclinic'
loop_
_space_group_symop_operation_xyz
x,y,z
-x,y,1/2-z
-x,-y,-z
x,-y,1/2+z
loop_
_atom_site_type_symbol
_atom_site_label
_atom_site_fract_x
_atom_site_fract_y
_atom_site_fract_z
Si Si1 0.500000 0.255804 0.250000
Si Si2 0.192244 0.278763 0.967853
Si Si3 0.758864 0.301255 0.940192
Si Si4 0.500000 0.232433 0.750000
Si Si5 0.000000 0.468682 0.250000
Si Si6 0.566925 0.008284 0.345845
Si Si7 0.913060 0.956030 0.411301
Si Si8 0.820157 0.848447 0.206216
O O1 0.380861 0.348825 0.396471
O O2 0.546672 0.148117 0.296181
O O3 0.350813 0.313520 0.868988
O O4 0.177063 0.279918 0.871073
O O5 0.072049 0.369520 0.114632
O O6 0.168052 0.106598 0.009747
O O7 0.872880 0.424165 0.826090
O O8 0.819743 0.183556 0.962942
O O9 0.744859 0.211257 0.857658
O O10 0.490720 0.127104 0.668530
O O11 0.728016 0.979314 0.239165
O O12 0.500000 0.000000 0.500000
O O13 0.000000 0.982689 0.250000
O O14 0.027936 0.906867 0.391499
#
# Coordination Sequence:
#
# PCOD9227089 Si02
#       8
#     2   4   4   2   2   4   4   4
#     4  11  22  37  64  94 136 164 204 264 322 370
#     4  11  23  40  65  92 121 166 210 262 314 370
#     4  11  22  42  62  90 129 166 202 258 317 376
#     4   9  22  37  56  90 130 154 200 262 308 364
#     4  12  26  42  64  86 122 176 210 254 316 374
#     4  10  18  32  63 100 126 158 199 256 320 373
#     4  10  19  37  63  94 124 158 200 262 313 364
#     4  10  20  36  65  93 130 151 212 257 313 371
#
# _framework density 20.187336999999999
#
# number of rings (size 3 to 8) (size 9 to 14) (size 15 to 20)
#    0.000    1.538    4.615    3.231    2.154    1.231 
#    0.000    0.000    0.000    2.769    0.000    0.000 
#    0.000    0.000    0.000    0.000    0.000    0.000 
#
# Total GULP energy -144877.967818 kJ/mol
# GULP energy per Si atom -5572.229531 kJ/mol
# Density = 2.014139 g / cm^3
# Si number density = 20.187337 Si / 1000 Ang^3
#
#
#
# Elastic Constant Matrix: (Units=GPa)
#
#
# Indices 1 2 3 4 5 6 
#
# 1 119.8415 35.5622 46.4755 0.0000 2.7244 0.0000
# 2 35.5622 70.5592 35.9677 0.0000 -8.2743 0.0000
# 3 46.4755 35.9677 151.4121 0.0000 -5.2080 0.0000
# 4 0.0000 0.0000 0.0000 12.1091 0.0000 3.4493
# 5 2.7244 -8.2743 -5.2080 0.0000 30.3202 0.0000
# 6 0.0000 0.0000 0.0000 3.4493 0.0000 -5.6878
#
#
#
# Elastic Compliance Matrix: (Units=1/GPa)
#
#
# Indices 1 2 3 4 5 6 
#
# 1 0.010620 -0.004491 -0.002281 0.000000 -0.002572 0.000000
# 2 -0.004491 0.018463 -0.002837 0.000000 0.004955 0.000000
# 3 -0.002281 -0.002837 0.008006 0.000000 0.000806 0.000000
# 4 0.000000 0.000000 0.000000 0.070418 0.000000 0.042705
# 5 -0.002572 0.004955 0.000806 0.000000 0.034703 0.000000
# 6 0.000000 0.000000 0.000000 0.042705 0.000000 -0.149917
#
#
# Mechanical properties :
#
#
# Convention : Reuss Voigt Hill
#
# Bulk Modulus (GPa) = 55.95748 64.20264 60.08006
# Shear Modulus (GPa) = 286.20527 22.26879 154.23703
#
# Velocity S-wave (km/s) = 11.91983 3.32491 8.75036
# Velocity P-wave (km/s) = 14.73847 6.82733 11.48553
#
# Compressibility (1/GPa) = 0.01787071
#
# Stress axis : x y z
#
# Youngs Moduli (GPa) = 94.15881 54.16149 124.90013
#
# Poissons Ratio (x) = 0.24326 0.28495
# Poissons Ratio (y) = 0.42290 0.35433
# Poissons Ratio (z) = 0.21482 0.15365
#
# Static dielectric constant tensor:
#      x y z
#    x 1.756830 0.000000 -0.039180 
#    y 0.000000 1.751710 0.000000 
#    z -0.039180 0.000000 1.837570 
# 
# From -- ./inp_files/49624.got.cif
#   From: 2010.05.17/outbox.cif.g08.bks.cpg/sg13_25_cif.got.tgz:49624.got - 2010.06.03 16:44:36.
