data_PCOD9227361
_publ_section_title
;
Structure prediction by ZEFSAII (Michael W. Deem and Ramdas Pophale) SiO2 
 PCOD9227361
Probable space group: P 2/C
;
_chemical_formula_sum "Si O2"
_cell_formula_units_Z 28
_cell_length_a 11.943822
_cell_length_b 8.365140
_cell_length_c 15.229728
_cell_angle_alpha 90.000000
_cell_angle_beta 56.967136
_cell_angle_gamma 90.000000
_cell_volume 1275.669621
_symmetry_space_group_name_H-M "P 2/C"
_symmetry_group_IT_number 13
_symmetry_cell_setting 'monoclinic'
loop_
_space_group_symop_operation_xyz
x,y,z
-x,y,1/2-z
-x,-y,-z
x,-y,1/2+z
loop_
_atom_site_type_symbol
_atom_site_label
_atom_site_fract_x
_atom_site_fract_y
_atom_site_fract_z
Si Si1 0.728410 0.777766 0.570269
Si Si2 0.765759 0.042330 0.235014
Si Si3 0.764042 0.249989 0.499928
Si Si4 0.521567 0.013798 0.592898
Si Si5 0.843533 0.628172 0.794357
Si Si6 0.041468 0.963341 0.083276
Si Si7 0.151358 0.524321 0.396583
O O1 0.757046 0.892669 0.640311
O O2 0.749476 0.603102 0.599139
O O3 0.588909 0.845852 0.594833
O O4 0.853377 0.819725 0.453608
O O5 0.783244 0.204516 0.283932
O O6 0.901405 0.944730 0.192113
O O7 0.625430 0.957844 0.307959
O O8 0.626278 0.154852 0.564537
O O9 0.770507 0.385670 0.420827
O O10 0.877180 0.121060 0.423877
O O11 0.803610 0.310645 0.579464
O O12 0.500000 0.000000 0.500000
O O13 0.836676 0.508009 0.712900
O O14 0.000000 0.635714 0.750000
O O15 0.000000 0.000000 0.000000
O O16 0.000000 0.500000 0.500000
#
# Coordination Sequence:
#
# PCOD9227361 Si02
#       7
#     4   4   4   4   4   4   4
#     4   9  21  37  59  89 122 159 209 260 321 382
#     4  10  18  34  62  88 120 161 210 258 316 379
#     4  11  21  38  63  94 134 164 217 267 314 386
#     4  11  22  37  65  93 123 166 211 266 318 371
#     4  11  19  34  63  97 123 168 214 253 320 386
#     4   9  17  33  61  91 118 155 203 268 319 370
#     4  11  21  37  67  89 125 174 208 262 322 381
#
# _framework density 21.949258
#
# number of rings (size 3 to 8) (size 9 to 14) (size 15 to 20)
#    0.000    1.714    4.286    2.143    0.000    0.000 
#    0.000    0.714   18.857   20.571    0.000    0.000 
#    0.000    0.000    0.000    0.000    0.000    0.000 
#
# Total GULP energy -156096.106147 kJ/mol
# GULP energy per Si atom -5574.860934 kJ/mol
# Density = 2.189930 g / cm^3
# Si number density = 21.949258 Si / 1000 Ang^3
#
#
#
# Elastic Constant Matrix: (Units=GPa)
#
#
# Indices 1 2 3 4 5 6 
#
# 1 120.8468 32.7718 46.2952 0.0000 -10.6183 0.0000
# 2 32.7718 44.0720 17.7553 0.0000 -2.4190 0.0000
# 3 46.2952 17.7553 82.9010 0.0000 -17.2066 0.0000
# 4 0.0000 0.0000 0.0000 22.7392 0.0000 10.5655
# 5 -10.6183 -2.4190 -17.2066 0.0000 51.5596 0.0000
# 6 0.0000 0.0000 0.0000 10.5655 0.0000 36.4470
#
#
#
# Elastic Compliance Matrix: (Units=1/GPa)
#
#
# Indices 1 2 3 4 5 6 
#
# 1 0.012201 -0.006939 -0.005236 0.000000 0.000440 0.000000
# 2 -0.006939 0.028800 -0.002481 0.000000 -0.000906 0.000000
# 3 -0.005236 -0.002481 0.016407 0.000000 0.004280 0.000000
# 4 0.000000 0.000000 0.000000 0.050822 0.000000 -0.014733
# 5 0.000440 -0.000906 0.004280 0.000000 0.020872 0.000000
# 6 0.000000 0.000000 0.000000 -0.014733 0.000000 0.031708
#
#
# Mechanical properties :
#
#
# Convention : Reuss Voigt Hill
#
# Bulk Modulus (GPa) = 35.59387 49.05160 42.32274
# Shear Modulus (GPa) = 25.06420 32.21566 28.63993
#
# Velocity S-wave (km/s) = 3.38289 3.83526 3.61615
# Velocity P-wave (km/s) = 5.61340 6.48140 6.06295
#
# Compressibility (1/GPa) = 0.02809472
#
# Stress axis : x y z
#
# Youngs Moduli (GPa) = 81.95814 34.72220 60.95137
#
# Poissons Ratio (x) = 0.24095 0.31916
# Poissons Ratio (y) = 0.56873 0.15123
# Poissons Ratio (z) = 0.42915 0.08615
#
# Static dielectric constant tensor:
#      x y z
#    x 1.732840 0.000000 0.086790 
#    y 0.000000 2.030450 0.000000 
#    z 0.086790 0.000000 1.833260 
# 
# From -- ./inp_files/50240.got.cif
#   From: 2010.05.17/outbox.cif.g08.bks.cpg/sg13_26_cif.got.tgz:50240.got - 2010.06.03 16:44:36.
