data_PCOD9227779
_publ_section_title
;
Structure prediction by ZEFSAII (Michael W. Deem and Ramdas Pophale) SiO2 
 PCOD9227779
Probable space group: P 2/C
;
_chemical_formula_sum "Si O2"
_cell_formula_units_Z 18
_cell_length_a 7.469864
_cell_length_b 8.799240
_cell_length_c 20.398169
_cell_angle_alpha 90.000000
_cell_angle_beta 146.300344
_cell_angle_gamma 90.000000
_cell_volume 743.903090
_symmetry_space_group_name_H-M "P 2/C"
_symmetry_group_IT_number 13
_symmetry_cell_setting 'monoclinic'
loop_
_space_group_symop_operation_xyz
x,y,z
-x,y,1/2-z
-x,-y,-z
x,-y,1/2+z
loop_
_atom_site_type_symbol
_atom_site_label
_atom_site_fract_x
_atom_site_fract_y
_atom_site_fract_z
Si Si1 0.000000 0.093391 0.750000
Si Si2 0.161607 0.819664 0.952682
Si Si3 0.443255 0.301460 0.807763
Si Si4 0.284937 0.348882 0.281648
Si Si5 0.407187 0.869574 0.536428
O O1 0.867036 0.205936 0.764409
O O2 0.709128 0.978716 0.647573
O O3 0.279049 0.746842 0.056179
O O4 0.128429 0.003055 0.949712
O O5 0.862851 0.739719 0.825830
O O6 0.461435 0.800474 0.991921
O O7 0.500000 0.264465 0.750000
O O8 0.378049 0.480240 0.793905
O O9 0.000000 0.352006 0.250000
O O10 0.582685 0.259209 0.405711
#
# Coordination Sequence:
#
# PCOD9227779 Si02
#       5
#     2   4   4   4   4
#     4  10  18  40  64  86 122 160 194 262 288 352
#     4   9  19  36  62  88 119 162 200 246 309 351
#     4  11  24  39  59  92 129 159 202 244 299 370
#     4  10  19  38  62  90 120 157 204 249 300 361
#     4   9  17  35  65  91 115 155 211 250 296 359
#
# _framework density 24.196702999999999
#
# number of rings (size 3 to 8) (size 9 to 14) (size 15 to 20)
#    0.000    2.222    4.444    0.000    0.000    4.444 
#    4.000    5.556    0.000    0.000    0.000    0.000 
#    0.000    0.000    0.000    0.000    0.000    0.000 
#
# Total GULP energy -100621.628593 kJ/mol
# GULP energy per Si atom -5590.090477 kJ/mol
# Density = 2.414163 g / cm^3
# Si number density = 24.196703 Si / 1000 Ang^3
#
#
#
# Elastic Constant Matrix: (Units=GPa)
#
#
# Indices 1 2 3 4 5 6 
#
# 1 93.2717 69.4004 50.0017 0.0000 -22.3173 0.0000
# 2 69.4004 121.7446 61.7057 0.0000 -23.3445 0.0000
# 3 50.0017 61.7057 130.4381 0.0000 -43.1586 0.0000
# 4 0.0000 0.0000 0.0000 39.2012 0.0000 -17.1494
# 5 -22.3173 -23.3445 -43.1586 0.0000 34.9187 0.0000
# 6 0.0000 0.0000 0.0000 -17.1494 0.0000 -31.4067
#
#
#
# Elastic Compliance Matrix: (Units=1/GPa)
#
#
# Indices 1 2 3 4 5 6 
#
# 1 0.019770 -0.009640 -0.001641 0.000000 0.004162 0.000000
# 2 -0.009640 0.015554 -0.003825 0.000000 -0.000490 0.000000
# 3 -0.001641 -0.003825 0.015078 0.000000 0.015030 0.000000
# 4 0.000000 0.000000 0.000000 0.020591 0.000000 -0.011243
# 5 0.004162 -0.000490 0.015030 0.000000 0.049548 0.000000
# 6 0.000000 0.000000 0.000000 -0.011243 0.000000 -0.025701
#
#
# Mechanical properties :
#
#
# Convention : Reuss Voigt Hill
#
# Bulk Modulus (GPa) = 49.52870 78.62999 64.07934
# Shear Modulus (GPa) = 37.94205 19.49910 28.72057
#
# Velocity S-wave (km/s) = 3.96418 2.84184 3.44897
# Velocity P-wave (km/s) = 6.43945 6.58292 6.51158
#
# Compressibility (1/GPa) = 0.02019032
#
# Stress axis : x y z
#
# Youngs Moduli (GPa) = 50.58242 64.29340 66.32185
#
# Poissons Ratio (x) = 0.61978 0.10883
# Poissons Ratio (y) = 0.48761 0.25367
# Poissons Ratio (z) = 0.08300 0.24591
#
# Static dielectric constant tensor:
#      x y z
#    x 1.971460 0.000000 0.021890 
#    y 0.000000 1.873420 0.000000 
#    z 0.021890 0.000000 2.085840 
# 
# From -- ./inp_files/63099.got.cif
#   From: 2010.05.17/outbox.cif.g08.bks.cpg/sg13_32_cif.got.tgz:63099.got - 2010.06.03 16:44:36.
