data_PCOD9227494
_publ_section_title
;
Structure prediction by ZEFSAII (Michael W. Deem and Ramdas Pophale) SiO2 
 PCOD9227494
Probable space group: P 2/C
;
_chemical_formula_sum "Si O2"
_cell_formula_units_Z 28
_cell_length_a 9.996109
_cell_length_b 5.227175
_cell_length_c 23.945288
_cell_angle_alpha 90.000000
_cell_angle_beta 96.466324
_cell_angle_gamma 90.000000
_cell_volume 1243.215386
_symmetry_space_group_name_H-M "P 2/C"
_symmetry_group_IT_number 13
_symmetry_cell_setting 'monoclinic'
loop_
_space_group_symop_operation_xyz
x,y,z
-x,y,1/2-z
-x,-y,-z
x,-y,1/2+z
loop_
_atom_site_type_symbol
_atom_site_label
_atom_site_fract_x
_atom_site_fract_y
_atom_site_fract_z
Si Si1 0.791644 0.100666 0.642721
Si Si2 0.852828 0.647529 0.259750
Si Si3 0.284055 0.116282 0.520547
Si Si4 0.583800 0.269103 0.557288
Si Si5 0.192289 0.394052 0.415416
Si Si6 0.277976 0.858590 0.145277
Si Si7 0.623034 0.636467 0.797818
O O1 0.846917 0.824130 0.629840
O O2 0.755117 0.589023 0.766063
O O3 0.797785 0.182691 0.706408
O O4 0.637682 0.103962 0.612298
O O5 0.858447 0.669386 0.108372
O O6 0.842942 0.808469 0.316612
O O7 0.000000 0.567327 0.250000
O O8 0.428089 0.257262 0.537119
O O9 0.180316 0.271906 0.476381
O O10 0.231193 0.085912 0.580578
O O11 0.331266 0.858903 0.490159
O O12 0.646364 0.543079 0.575428
O O13 0.365340 0.598570 0.157772
O O14 0.364131 0.095852 0.171183
O O15 0.500000 0.615533 0.750000
#
# Coordination Sequence:
#
# PCOD9227494 Si02
#       7
#     4   4   4   4   4   4   4
#     4   9  20  34  57  86 116 157 211 261 311 373
#     4  10  25  46  68  96 128 173 225 271 328 394
#     4  10  18  36  54  90 130 160 219 249 334 377
#     4   8  19  31  54  86 120 172 198 263 303 387
#     4   9  19  35  55  87 120 165 204 261 313 377
#     4  10  25  38  63  94 130 174 204 274 323 392
#     4  10  24  43  61  96 129 171 212 263 336 379
#
# _framework density 22.522245000000002
#
# number of rings (size 3 to 8) (size 9 to 14) (size 15 to 20)
#    1.714    0.857    0.000    0.857    6.000    0.571 
#    5.143    0.000    0.000    4.286    0.000    0.000 
#    0.000    0.000    0.000    0.000    0.000    0.000 
#
# Total GULP energy -155889.960289 kJ/mol
# GULP energy per Si atom -5567.498582 kJ/mol
# Density = 2.247098 g / cm^3
# Si number density = 22.522245 Si / 1000 Ang^3
#
#
#
# Elastic Constant Matrix: (Units=GPa)
#
#
# Indices 1 2 3 4 5 6 
#
# 1 32.4597 16.6155 25.7476 0.0000 -10.3652 0.0000
# 2 16.6155 108.5610 12.5136 0.0000 -1.4098 0.0000
# 3 25.7476 12.5136 130.9561 0.0000 -14.5866 0.0000
# 4 0.0000 0.0000 0.0000 -5.2158 0.0000 -31.8066
# 5 -10.3652 -1.4098 -14.5866 0.0000 15.7836 0.0000
# 6 0.0000 0.0000 0.0000 -31.8066 0.0000 -54.1837
#
#
#
# Elastic Compliance Matrix: (Units=1/GPa)
#
#
# Indices 1 2 3 4 5 6 
#
# 1 0.046375 -0.006110 -0.005800 0.000000 0.024549 0.000000
# 2 -0.006110 0.010119 -0.000125 0.000000 -0.003224 0.000000
# 3 -0.005800 -0.000125 0.009323 0.000000 0.004796 0.000000
# 4 0.000000 0.000000 0.000000 0.074322 0.000000 -0.043628
# 5 0.024549 -0.003224 0.004796 0.000000 0.083622 0.000000
# 6 0.000000 0.000000 0.000000 -0.043628 0.000000 0.007154
#
#
# Mechanical properties :
#
#
# Convention : Reuss Voigt Hill
#
# Bulk Modulus (GPa) = 23.95386 42.41447 33.18417
# Shear Modulus (GPa) = 18.59432 5.75015 12.17223
#
# Velocity S-wave (km/s) = 2.87644 1.59958 2.32729
# Velocity P-wave (km/s) = 4.65732 4.72066 4.68910
#
# Compressibility (1/GPa) = 0.04174692
#
# Stress axis : x y z
#
# Youngs Moduli (GPa) = 21.56351 98.82270 107.26732
#
# Poissons Ratio (x) = 0.60385 0.62210
# Poissons Ratio (y) = 0.13176 0.01337
# Poissons Ratio (z) = 0.12506 0.01232
#
# Static dielectric constant tensor:
#      x y z
#    x 1.865600 0.000000 0.000400 
#    y 0.000000 1.880580 0.000000 
#    z 0.000400 0.000000 1.922300 
# 
# From -- ./inp_files/77243.got.cif
#   From: 2010.05.17/outbox.cif.g08.bks.cpg/sg13_39_cif.got.tgz:77243.got - 2010.06.03 16:44:36.
