data_PCOD9227188
_publ_section_title
;
Structure prediction by ZEFSAII (Michael W. Deem and Ramdas Pophale) SiO2 
 PCOD9227188
Probable space group: P 2/C
;
_chemical_formula_sum "Si O2"
_cell_formula_units_Z 20
_cell_length_a 10.215035
_cell_length_b 6.383213
_cell_length_c 19.088568
_cell_angle_alpha 90.000000
_cell_angle_beta 52.190768
_cell_angle_gamma 90.000000
_cell_volume 983.355509
_symmetry_space_group_name_H-M "P 2/C"
_symmetry_group_IT_number 13
_symmetry_cell_setting 'monoclinic'
loop_
_space_group_symop_operation_xyz
x,y,z
-x,y,1/2-z
-x,-y,-z
x,-y,1/2+z
loop_
_atom_site_type_symbol
_atom_site_label
_atom_site_fract_x
_atom_site_fract_y
_atom_site_fract_z
Si Si1 0.756800 0.537748 0.493118
Si Si2 0.853185 0.226766 0.338517
Si Si3 0.744686 0.844100 0.085198
Si Si4 0.004502 0.918321 0.100052
Si Si5 0.490886 0.100466 0.081086
O O1 0.771979 0.375042 0.424195
O O2 0.743704 0.401448 0.568061
O O3 0.914999 0.689762 0.435981
O O4 0.599353 0.689059 0.541053
O O5 0.700147 0.149504 0.342397
O O6 0.000000 0.343781 0.250000
O O7 0.945631 0.028127 0.343981
O O8 0.813786 0.904020 0.138818
O O9 0.579568 0.952557 0.109368
O O10 0.889838 0.935559 0.987536
O O11 0.500000 0.000000 0.000000
#
# Coordination Sequence:
#
# PCOD9227188 Si02
#       5
#     4   4   4   4   4
#     4  10  18  33  59  81 111 138 194 225 273 321
#     4  11  23  36  54  81 115 148 180 227 282 329
#     4   9  18  31  57  83 106 138 184 229 269 317
#     4   9  18  34  53  81 111 141 179 227 273 321
#     4  11  19  36  57  83 108 142 184 231 270 323
#
# _framework density 20.338524
#
# number of rings (size 3 to 8) (size 9 to 14) (size 15 to 20)
#    0.000    2.000    6.000    1.200    0.000    2.400 
#    0.000    1.000    0.000    0.000    0.000    0.000 
#    0.000    0.000    0.000    0.000    0.000    0.000 
#
# Total GULP energy -111427.842888 kJ/mol
# GULP energy per Si atom -5571.392144 kJ/mol
# Density = 2.029223 g / cm^3
# Si number density = 20.338524 Si / 1000 Ang^3
#
#
#
# Elastic Constant Matrix: (Units=GPa)
#
#
# Indices 1 2 3 4 5 6 
#
# 1 165.2495 48.4936 18.6767 0.0000 -11.1950 0.0000
# 2 48.4936 105.2762 -0.2565 0.0000 3.0072 0.0000
# 3 18.6767 -0.2565 30.9428 0.0000 -12.7707 0.0000
# 4 0.0000 0.0000 0.0000 6.4077 0.0000 -0.8782
# 5 -11.1950 3.0072 -12.7707 0.0000 18.2171 0.0000
# 6 0.0000 0.0000 0.0000 -0.8782 0.0000 2.8215
#
#
#
# Elastic Compliance Matrix: (Units=1/GPa)
#
#
# Indices 1 2 3 4 5 6 
#
# 1 0.007711 -0.003643 -0.003490 0.000000 0.002893 0.000000
# 2 -0.003643 0.011279 0.000844 0.000000 -0.003509 0.000000
# 3 -0.003490 0.000844 0.047122 0.000000 0.030750 0.000000
# 4 0.000000 0.000000 0.000000 0.163016 0.000000 0.050740
# 5 0.002893 -0.003509 0.030750 0.000000 0.078807 0.000000
# 6 0.000000 0.000000 0.000000 0.050740 0.000000 0.370217
#
#
# Mechanical properties :
#
#
# Convention : Reuss Voigt Hill
#
# Bulk Modulus (GPa) = 18.67964 48.36625 33.52295
# Shear Modulus (GPa) = 7.05639 21.12623 14.09131
#
# Velocity S-wave (km/s) = 1.86467 3.22643 2.63504
# Velocity P-wave (km/s) = 3.72026 6.14101 5.07702
#
# Compressibility (1/GPa) = 0.05353421
#
# Stress axis : x y z
#
# Youngs Moduli (GPa) = 129.68416 88.65848 21.22129
#
# Poissons Ratio (x) = 0.32299 0.07407
# Poissons Ratio (y) = 0.47245 -0.01792
# Poissons Ratio (z) = 0.45265 -0.07485
#
# Static dielectric constant tensor:
#      x y z
#    x 1.805670 0.000000 0.049500 
#    y 0.000000 1.742700 0.000000 
#    z 0.049500 0.000000 1.834240 
# 
# From -- ./inp_files/74409.got.cif
#   From: 2010.05.17/outbox.cif.g08.bks.cpg/sg13_38_cif.got.tgz:74409.got - 2010.06.03 16:44:36.
