data_PCOD9227500
_publ_section_title
;
Structure prediction by ZEFSAII (Michael W. Deem and Ramdas Pophale) SiO2 
 PCOD9227500
Probable space group: P 2/C
;
_chemical_formula_sum "Si O2"
_cell_formula_units_Z 26
_cell_length_a 22.887321
_cell_length_b 6.701404
_cell_length_c 17.093440
_cell_angle_alpha 90.000000
_cell_angle_beta 28.080860
_cell_angle_gamma 90.000000
_cell_volume 1234.099789
_symmetry_space_group_name_H-M "P 2/C"
_symmetry_group_IT_number 13
_symmetry_cell_setting 'monoclinic'
loop_
_space_group_symop_operation_xyz
x,y,z
-x,y,1/2-z
-x,-y,-z
x,-y,1/2+z
loop_
_atom_site_type_symbol
_atom_site_label
_atom_site_fract_x
_atom_site_fract_y
_atom_site_fract_z
Si Si1 0.500000 0.211910 0.750000
Si Si2 0.827228 0.722831 0.183766
Si Si3 0.085819 0.272181 0.082131
Si Si4 0.287342 0.340266 0.108746
Si Si5 0.890743 0.009441 0.743112
Si Si6 0.642837 0.936104 0.835575
Si Si7 0.713455 0.999981 0.086257
O O1 0.599552 0.340448 0.585351
O O2 0.418438 0.069885 0.790771
O O3 0.767103 0.552001 0.306275
O O4 0.911966 0.847122 0.144420
O O5 0.725195 0.880369 0.272179
O O6 0.889358 0.632137 0.031847
O O7 0.000000 0.372291 0.250000
O O8 0.012962 0.069503 0.141687
O O9 0.210534 0.198978 0.977090
O O10 0.182825 0.187790 0.200036
O O11 0.339485 0.243682 0.126228
O O12 0.796675 0.097079 0.919754
O O13 0.692187 0.882134 0.691137
O O14 0.500000 0.000000 0.000000
#
# Coordination Sequence:
#
# PCOD9227500 Si02
#       7
#     2   4   4   4   4   4   4
#     4  10  18  36  56  80 122 150 184 238 282 338
#     4  10  21  36  57  88 112 147 192 228 289 339
#     4   9  18  36  60  82 111 153 190 235 287 336
#     4  10  21  36  56  86 116 150 188 231 282 339
#     4   9  19  37  59  82 114 149 187 238 281 334
#     4  10  19  37  56  79 116 153 184 230 279 333
#     4   9  18  34  59  82 111 152 191 227 286 337
#
# _framework density 21.067986999999999
#
# number of rings (size 3 to 8) (size 9 to 14) (size 15 to 20)
#    0.000    2.462    1.538    0.462    0.000    1.231 
#    2.769    4.615    0.000   16.615    0.000    0.000 
#    0.000    0.000    0.000    0.000    0.000    0.000 
#
# Total GULP energy -145083.994262 kJ/mol
# GULP energy per Si atom -5580.153625 kJ/mol
# Density = 2.102004 g / cm^3
# Si number density = 21.067987 Si / 1000 Ang^3
#
#
#
# Elastic Constant Matrix: (Units=GPa)
#
#
# Indices 1 2 3 4 5 6 
#
# 1 110.8643 17.0768 25.5702 0.0000 8.3145 0.0000
# 2 17.0768 40.9366 17.8126 0.0000 10.7052 0.0000
# 3 25.5702 17.8126 76.1523 0.0000 20.7648 0.0000
# 4 0.0000 0.0000 0.0000 14.4247 0.0000 -0.2029
# 5 8.3145 10.7052 20.7648 0.0000 52.3954 0.0000
# 6 0.0000 0.0000 0.0000 -0.2029 0.0000 6.0828
#
#
#
# Elastic Compliance Matrix: (Units=1/GPa)
#
#
# Indices 1 2 3 4 5 6 
#
# 1 0.010109 -0.003065 -0.002703 0.000000 0.000093 0.000000
# 2 -0.003065 0.028678 -0.004724 0.000000 -0.003501 0.000000
# 3 -0.002703 -0.004724 0.016553 0.000000 -0.005166 0.000000
# 4 0.000000 0.000000 0.000000 0.069358 0.000000 0.002313
# 5 0.000093 -0.003501 -0.005166 0.000000 0.021833 0.000000
# 6 0.000000 0.000000 0.000000 0.002313 0.000000 0.164474
#
#
# Mechanical properties :
#
#
# Convention : Reuss Voigt Hill
#
# Bulk Modulus (GPa) = 29.10791 38.76360 33.93575
# Shear Modulus (GPa) = 14.55859 25.74683 20.15271
#
# Velocity S-wave (km/s) = 2.63159 3.49962 3.09618
# Velocity P-wave (km/s) = 4.80415 5.89653 5.37815
#
# Compressibility (1/GPa) = 0.03435492
#
# Stress axis : x y z
#
# Youngs Moduli (GPa) = 98.92620 34.87024 60.41313
#
# Poissons Ratio (x) = 0.10688 0.16328
# Poissons Ratio (y) = 0.30323 0.28540
# Poissons Ratio (z) = 0.26737 0.16473
#
# Static dielectric constant tensor:
#      x y z
#    x 1.777500 0.000000 0.033780 
#    y 0.000000 1.697650 0.000000 
#    z 0.033780 0.000000 1.823950 
# 
# From -- ./inp_files/70903.got.cif
#   From: 2010.05.17/outbox.cif.g08.bks.cpg/sg13_36_cif.got.tgz:70903.got - 2010.06.03 16:44:36.
