data_PCOD9227252
_publ_section_title
;
Structure prediction by ZEFSAII (Michael W. Deem and Ramdas Pophale) SiO2 
 PCOD9227252
Probable space group: P 2/C
;
_chemical_formula_sum "Si O2"
_cell_formula_units_Z 28
_cell_length_a 15.276127
_cell_length_b 9.126194
_cell_length_c 10.794971
_cell_angle_alpha 90.000000
_cell_angle_beta 118.702209
_cell_angle_gamma 90.000000
_cell_volume 1320.040444
_symmetry_space_group_name_H-M "P 2/C"
_symmetry_group_IT_number 13
_symmetry_cell_setting 'monoclinic'
loop_
_space_group_symop_operation_xyz
x,y,z
-x,y,1/2-z
-x,-y,-z
x,-y,1/2+z
loop_
_atom_site_type_symbol
_atom_site_label
_atom_site_fract_x
_atom_site_fract_y
_atom_site_fract_z
Si Si1 0.000000 0.972236 0.250000
Si Si2 0.867935 0.237658 0.224276
Si Si3 0.291028 0.382947 0.054978
Si Si4 0.619477 0.068242 0.346604
Si Si5 0.399554 0.902361 0.933531
Si Si6 0.664596 0.391653 0.134203
Si Si7 0.064512 0.292818 0.956869
Si Si8 0.000000 0.526066 0.750000
O O1 0.030110 0.862609 0.379857
O O2 0.093441 0.079597 0.288484
O O3 0.754400 0.275876 0.170361
O O4 0.922989 0.275159 0.390033
O O5 0.909194 0.364086 0.162526
O O6 0.343574 0.225172 0.081756
O O7 0.322103 0.442762 0.214113
O O8 0.324902 0.486406 0.964556
O O9 0.172540 0.345566 0.977720
O O10 0.500000 0.072011 0.250000
O O11 0.657376 0.048960 0.231357
O O12 0.647264 0.946726 0.466111
O O13 0.423990 0.728004 0.939173
O O14 0.500000 0.000000 0.000000
O O15 0.987358 0.414785 0.855728
#
# Coordination Sequence:
#
# PCOD9227252 Si02
#       8
#     2   4   4   4   4   4   4   2
#     4  10  22  34  52  80 110 144 198 224 292 322
#     4  10  20  35  53  78 111 147 188 237 276 332
#     4  10  21  38  57  83 114 148 188 234 284 335
#     4   9  19  37  59  84 113 146 181 230 281 338
#     4   9  19  37  60  84 113 146 184 228 280 339
#     4  10  21  38  58  84 115 149 192 233 283 336
#     4  10  20  35  53  77 110 148 186 233 281 331
#     4  10  18  34  56  76 106 146 194 218 290 324
#
# _framework density 21.211471
#
# number of rings (size 3 to 8) (size 9 to 14) (size 15 to 20)
#    0.000    2.286    1.429    0.857    2.000    1.143 
#    0.000   10.000    0.000    0.000    0.000    0.000 
#    0.000    0.000    0.000    0.000    0.000    0.000 
#
# Total GULP energy -155969.845805 kJ/mol
# GULP energy per Si atom -5570.351636 kJ/mol
# Density = 2.116319 g / cm^3
# Si number density = 21.211471 Si / 1000 Ang^3
#
#
#
# Elastic Constant Matrix: (Units=GPa)
#
#
# Indices 1 2 3 4 5 6 
#
# 1 18.1339 -0.4407 5.9556 0.0000 -3.6606 0.0000
# 2 -0.4407 108.8534 54.4903 0.0000 -11.0765 0.0000
# 3 5.9556 54.4903 94.7515 0.0000 -21.0648 0.0000
# 4 0.0000 0.0000 0.0000 39.0877 0.0000 -8.9910
# 5 -3.6606 -11.0765 -21.0648 0.0000 24.2679 0.0000
# 6 0.0000 0.0000 0.0000 -8.9910 0.0000 32.4106
#
#
#
# Elastic Compliance Matrix: (Units=1/GPa)
#
#
# Indices 1 2 3 4 5 6 
#
# 1 0.057803 0.002792 -0.003739 0.000000 0.006748 0.000000
# 2 0.002792 0.013044 -0.007757 0.000000 -0.000358 0.000000
# 3 -0.003739 -0.007757 0.017766 0.000000 0.011316 0.000000
# 4 0.000000 0.000000 0.000000 0.027327 0.000000 0.007581
# 5 0.006748 -0.000358 0.011316 0.000000 0.051884 0.000000
# 6 0.000000 0.000000 0.000000 0.007581 0.000000 0.032957
#
#
# Mechanical properties :
#
#
# Convention : Reuss Voigt Hill
#
# Bulk Modulus (GPa) = 14.04360 37.97213 26.00786
# Shear Modulus (GPa) = 20.66766 29.93548 25.30157
#
# Velocity S-wave (km/s) = 3.12486 3.76079 3.45748
# Velocity P-wave (km/s) = 4.43338 6.06618 5.31288
#
# Compressibility (1/GPa) = 0.07120682
#
# Stress axis : x y z
#
# Youngs Moduli (GPa) = 17.30004 76.66086 56.28876
#
# Poissons Ratio (x) = -0.21406 0.21045
# Poissons Ratio (y) = -0.04831 0.43662
# Poissons Ratio (z) = 0.06468 0.59464
#
# Static dielectric constant tensor:
#      x y z
#    x 1.957010 0.000000 0.030390 
#    y 0.000000 1.781160 0.000000 
#    z 0.030390 0.000000 1.815090 
# 
# From -- ./inp_files/36320.got.cif
#   From: 2010.05.17/outbox.cif.g08.bks.cpg/sg13_19_cif.got.tgz:36320.got - 2010.06.03 16:44:36.
