data_PCOD9227795
_publ_section_title
;
Structure prediction by ZEFSAII (Michael W. Deem and Ramdas Pophale) SiO2 
 PCOD9227795
Probable space group: P 2/C
;
_chemical_formula_sum "Si O2"
_cell_formula_units_Z 26
_cell_length_a 12.097538
_cell_length_b 11.599092
_cell_length_c 7.902926
_cell_angle_alpha 90.000000
_cell_angle_beta 107.277134
_cell_angle_gamma 90.000000
_cell_volume 1058.906047
_symmetry_space_group_name_H-M "P 2/C"
_symmetry_group_IT_number 13
_symmetry_cell_setting 'monoclinic'
loop_
_space_group_symop_operation_xyz
x,y,z
-x,y,1/2-z
-x,-y,-z
x,-y,1/2+z
loop_
_atom_site_type_symbol
_atom_site_label
_atom_site_fract_x
_atom_site_fract_y
_atom_site_fract_z
Si Si1 0.877367 0.326767 0.600932
Si Si2 0.574032 0.384365 0.042031
Si Si3 0.500000 0.805640 0.750000
Si Si4 0.910981 0.918867 0.358363
Si Si5 0.811748 0.459949 0.251994
Si Si6 0.247072 0.131950 0.176982
Si Si7 0.219629 0.280979 0.507530
O O1 0.883910 0.405041 0.434877
O O2 0.817183 0.209628 0.498565
O O3 0.000000 0.327926 0.750000
O O4 0.854612 0.198092 0.905455
O O5 0.503786 0.280014 0.091015
O O6 0.649249 0.334479 0.916786
O O7 0.500000 0.500000 0.000000
O O8 0.320613 0.417370 0.281058
O O9 0.618399 0.875743 0.806679
O O10 0.804988 0.007718 0.301518
O O11 0.000000 0.892802 0.250000
O O12 0.000000 0.000000 0.500000
O O13 0.848405 0.391036 0.098007
O O14 0.804906 0.594100 0.200826
O O15 0.233017 0.200766 0.345745
#
# Coordination Sequence:
#
# PCOD9227795 Si02
#       7
#     4   4   2   4   4   4   4
#     4  11  21  42  64 103 149 198 245 315 387 473
#     4   9  18  34  71 103 146 199 251 308 384 465
#     4  10  18  40  72  96 146 192 254 306 386 466
#     4  12  24  46  78 100 149 209 260 320 389 463
#     4   9  21  40  65  99 155 190 254 307 393 463
#     4  10  22  43  70 107 139 202 260 312 395 459
#     4   8  20  42  65 105 147 191 266 311 377 472
#
# _framework density 24.553643999999998
#
# number of rings (size 3 to 8) (size 9 to 14) (size 15 to 20)
#    0.923    1.231    3.077    1.385    0.000    0.615 
#   11.077    3.077    3.385    0.923    0.000    0.000 
#    0.000    0.000    0.000    2.462    0.000    1.385 
#
# Total GULP energy -144805.057341 kJ/mol
# GULP energy per Si atom -5569.425282 kJ/mol
# Density = 2.449776 g / cm^3
# Si number density = 24.553644 Si / 1000 Ang^3
#
#
#
# Elastic Constant Matrix: (Units=GPa)
#
#
# Indices 1 2 3 4 5 6 
#
# 1 210.6365 88.4134 56.3673 0.0000 -8.0523 0.0000
# 2 88.4134 177.5742 29.1753 0.0000 -0.2348 0.0000
# 3 56.3673 29.1753 56.1751 0.0000 2.5940 0.0000
# 4 0.0000 0.0000 0.0000 26.2850 0.0000 -8.0658
# 5 -8.0523 -0.2348 2.5940 0.0000 35.8212 0.0000
# 6 0.0000 0.0000 0.0000 -8.0658 0.0000 61.6736
#
#
#
# Elastic Compliance Matrix: (Units=1/GPa)
#
#
# Indices 1 2 3 4 5 6 
#
# 1 0.007710 -0.002786 -0.006390 0.000000 0.002178 0.000000
# 2 -0.002786 0.007166 -0.000902 0.000000 -0.000514 0.000000
# 3 -0.006390 -0.000902 0.024832 0.000000 -0.003241 0.000000
# 4 0.000000 0.000000 0.000000 0.039635 0.000000 0.005184
# 5 0.002178 -0.000514 -0.003241 0.000000 0.028637 0.000000
# 6 0.000000 0.000000 0.000000 0.005184 0.000000 0.016892
#
#
# Mechanical properties :
#
#
# Convention : Reuss Voigt Hill
#
# Bulk Modulus (GPa) = 51.14885 88.03309 69.59097
# Shear Modulus (GPa) = 32.99292 42.78461 37.88877
#
# Velocity S-wave (km/s) = 3.66964 4.17885 3.93249
# Velocity P-wave (km/s) = 6.23151 7.69512 7.00166
#
# Compressibility (1/GPa) = 0.01955078
#
# Stress axis : x y z
#
# Youngs Moduli (GPa) = 129.69720 139.54298 40.27080
#
# Poissons Ratio (x) = 0.38878 0.25734
# Poissons Ratio (y) = 0.36135 0.03634
# Poissons Ratio (z) = 0.82879 0.12594
#
# Static dielectric constant tensor:
#      x y z
#    x 1.857330 0.000000 -0.021500 
#    y 0.000000 2.074540 0.000000 
#    z -0.021500 0.000000 2.074890 
# 
# From -- ./inp_files/18893.got.cif
#   From: 2010.05.17/outbox.cif.g08.bks.cpg/sg13_10_cif.got.tgz:18893.got - 2010.06.03 16:44:36.
