data_PCOD9227811
_publ_section_title
;
Structure prediction by ZEFSAII (Michael W. Deem and Ramdas Pophale) SiO2 
 PCOD9227811
Probable space group: P 2/C
;
_chemical_formula_sum "Si O2"
_cell_formula_units_Z 26
_cell_length_a 5.075166
_cell_length_b 7.954632
_cell_length_c 28.236146
_cell_angle_alpha 90.000000
_cell_angle_beta 93.641999
_cell_angle_gamma 90.000000
_cell_volume 1137.621497
_symmetry_space_group_name_H-M "P 2/C"
_symmetry_group_IT_number 13
_symmetry_cell_setting 'monoclinic'
loop_
_space_group_symop_operation_xyz
x,y,z
-x,y,1/2-z
-x,-y,-z
x,-y,1/2+z
loop_
_atom_site_type_symbol
_atom_site_label
_atom_site_fract_x
_atom_site_fract_y
_atom_site_fract_z
Si Si1 0.590547 0.313420 0.705376
Si Si2 0.992280 0.807627 0.978721
Si Si3 0.527042 0.800877 0.585655
Si Si4 0.667181 0.830583 0.110863
Si Si5 0.227273 0.579231 0.654816
Si Si6 0.855181 0.661458 0.424595
Si Si7 0.000000 0.415633 0.250000
O O1 0.500000 0.212057 0.750000
O O2 0.713664 0.203707 0.666362
O O3 0.348314 0.410008 0.678621
O O4 0.775680 0.462226 0.726257
O O5 0.194069 0.787540 0.937483
O O6 0.698662 0.775401 0.956418
O O7 0.081983 0.674094 0.019424
O O8 0.000000 0.000000 0.000000
O O9 0.448098 0.689031 0.630244
O O10 0.528384 0.993115 0.601992
O O11 0.455934 0.698788 0.086293
O O12 0.952500 0.809807 0.091389
O O13 0.067476 0.496103 0.608535
O O14 0.103393 0.666428 0.700979
#
# Coordination Sequence:
#
# PCOD9227811 Si02
#       7
#     4   4   4   4   4   4   2
#     4   9  20  38  65  90 120 164 221 260 325 393
#     4  12  23  41  64  93 128 179 216 267 324 395
#     4  12  25  39  66  94 135 167 217 267 339 383
#     4  11  20  39  63  93 122 168 213 270 302 395
#     4  10  24  39  64  98 128 171 212 280 331 404
#     4  11  22  39  66  90 128 168 224 256 317 384
#     4  10  18  42  68  88 124 170 214 264 342 402
#
# _framework density 22.854700999999999
#
# number of rings (size 3 to 8) (size 9 to 14) (size 15 to 20)
#    0.000    1.231    4.615    1.385    2.154    1.231 
#    0.000    2.308    0.000    0.923    0.000    0.000 
#    0.000    0.000    0.000    0.000    0.000    0.000 
#
# Total GULP energy -144900.945751 kJ/mol
# GULP energy per Si atom -5573.113298 kJ/mol
# Density = 2.280268 g / cm^3
# Si number density = 22.854701 Si / 1000 Ang^3
#
#
#
# Elastic Constant Matrix: (Units=GPa)
#
#
# Indices 1 2 3 4 5 6 
#
# 1 74.9587 13.9450 5.9103 0.0000 -5.1289 0.0000
# 2 13.9450 44.3992 48.3891 0.0000 -5.5681 0.0000
# 3 5.9103 48.3891 107.0695 0.0000 -29.2457 0.0000
# 4 0.0000 0.0000 0.0000 23.6498 0.0000 -2.0375
# 5 -5.1289 -5.5681 -29.2457 0.0000 45.2131 0.0000
# 6 0.0000 0.0000 0.0000 -2.0375 0.0000 17.2909
#
#
#
# Elastic Compliance Matrix: (Units=1/GPa)
#
#
# Indices 1 2 3 4 5 6 
#
# 1 0.014829 -0.008488 0.003876 0.000000 0.003144 0.000000
# 2 -0.008488 0.052572 -0.026460 0.000000 -0.011604 0.000000
# 3 0.003876 -0.026460 0.024674 0.000000 0.013141 0.000000
# 4 0.000000 0.000000 0.000000 0.042717 0.000000 0.005034
# 5 0.003144 -0.011604 0.013141 0.000000 0.029545 0.000000
# 6 0.000000 0.000000 0.000000 0.005034 0.000000 0.058427
#
#
# Mechanical properties :
#
#
# Convention : Reuss Voigt Hill
#
# Bulk Modulus (GPa) = 33.41059 40.32403 36.86731
# Shear Modulus (GPa) = 16.95574 27.77631 22.36602
#
# Velocity S-wave (km/s) = 2.72673 3.48996 3.13168
# Velocity P-wave (km/s) = 4.95619 5.82423 5.40766
#
# Compressibility (1/GPa) = 0.02993063
#
# Stress axis : x y z
#
# Youngs Moduli (GPa) = 67.43431 19.02157 40.52889
#
# Poissons Ratio (x) = 0.16145 -0.15710
# Poissons Ratio (y) = 0.57238 1.07241
# Poissons Ratio (z) = -0.26140 0.50332
#
# Static dielectric constant tensor:
#      x y z
#    x 1.885490 0.000000 -0.031740 
#    y 0.000000 1.866050 0.000000 
#    z -0.031740 0.000000 2.080260 
# 
# From -- ./inp_files/90278.got.cif
#   From: 2010.05.17/outbox.cif.g08.bks.cpg/sg13_46_cif.got.tgz:90278.got - 2010.06.03 16:44:36.
