data_PCOD9227403
_publ_section_title
;
Structure prediction by ZEFSAII (Michael W. Deem and Ramdas Pophale) SiO2 
 PCOD9227403
Probable space group: P 2/C
;
_chemical_formula_sum "Si O2"
_cell_formula_units_Z 26
_cell_length_a 11.409512
_cell_length_b 8.605123
_cell_length_c 21.479333
_cell_angle_alpha 90.000000
_cell_angle_beta 141.941185
_cell_angle_gamma 90.000000
_cell_volume 1300.040641
_symmetry_space_group_name_H-M "P 2/C"
_symmetry_group_IT_number 13
_symmetry_cell_setting 'monoclinic'
loop_
_space_group_symop_operation_xyz
x,y,z
-x,y,1/2-z
-x,-y,-z
x,-y,1/2+z
loop_
_atom_site_type_symbol
_atom_site_label
_atom_site_fract_x
_atom_site_fract_y
_atom_site_fract_z
Si Si1 0.045003 0.455575 0.841665
Si Si2 0.215051 0.234914 0.418328
Si Si3 0.290784 0.041290 0.043115
Si Si4 0.874670 0.174154 0.843510
Si Si5 0.417653 0.742552 0.488907
Si Si6 0.190880 0.959674 0.309990
Si Si7 0.500000 0.919814 0.250000
O O1 0.060499 0.634902 0.869676
O O2 0.250386 0.374883 0.933645
O O3 0.000000 0.465920 0.750000
O O4 0.908701 0.339259 0.823187
O O5 0.389642 0.324514 0.457730
O O6 0.259277 0.125580 0.495930
O O7 0.178010 0.111611 0.347190
O O8 0.405058 0.019285 0.154516
O O9 0.419125 0.145615 0.049871
O O10 0.078173 0.119390 0.957886
O O11 0.823612 0.043269 0.769660
O O12 0.684071 0.178116 0.804418
O O13 0.357156 0.856535 0.407074
O O14 0.000000 0.868615 0.250000
#
# Coordination Sequence:
#
# PCOD9227403 Si02
#       7
#     4   4   4   4   4   4   2
#     4  11  21  35  57  91 126 154 185 241 314 374
#     4  11  21  32  59  95 120 154 193 241 310 376
#     4  10  22  38  62  88 121 158 204 257 296 344
#     4  11  21  40  62  87 125 162 198 253 304 349
#     4  10  18  35  56  89 124 153 182 245 310 366
#     4  11  16  35  60  87 122 145 184 242 318 361
#     4  12  24  40  64  86 112 168 228 244 280 356
#
# _framework density 19.999376000000002
#
# number of rings (size 3 to 8) (size 9 to 14) (size 15 to 20)
#    0.000    1.231    6.154    5.077    0.000    0.000 
#    0.000    0.769    0.000    4.615    0.000    0.000 
#    0.000    0.000    0.000    0.000    0.000    0.000 
#
# Total GULP energy -144759.309777 kJ/mol
# GULP energy per Si atom -5567.665761 kJ/mol
# Density = 1.995386 g / cm^3
# Si number density = 19.999376 Si / 1000 Ang^3
#
#
#
# Elastic Constant Matrix: (Units=GPa)
#
#
# Indices 1 2 3 4 5 6 
#
# 1 102.1910 21.4150 36.6243 0.0000 17.3605 0.0000
# 2 21.4150 101.7689 37.9301 0.0000 -10.5998 0.0000
# 3 36.6243 37.9301 105.8141 0.0000 -19.4947 0.0000
# 4 0.0000 0.0000 0.0000 10.6324 0.0000 10.4272
# 5 17.3605 -10.5998 -19.4947 0.0000 23.2443 0.0000
# 6 0.0000 0.0000 0.0000 10.4272 0.0000 18.7938
#
#
#
# Elastic Compliance Matrix: (Units=1/GPa)
#
#
# Indices 1 2 3 4 5 6 
#
# 1 0.017214 -0.002502 -0.009036 0.000000 -0.021576 0.000000
# 2 -0.002502 0.011791 -0.002396 0.000000 0.005236 0.000000
# 3 -0.009036 -0.002396 0.017125 0.000000 0.020019 0.000000
# 4 0.000000 0.000000 0.000000 0.206308 0.000000 -0.114464
# 5 -0.021576 0.005236 0.020019 0.000000 0.078313 0.000000
# 6 0.000000 0.000000 0.000000 -0.114464 0.000000 0.116716
#
#
# Mechanical properties :
#
#
# Convention : Reuss Voigt Hill
#
# Bulk Modulus (GPa) = 54.75880 55.74588 55.25234
# Shear Modulus (GPa) = 10.38589 24.78774 17.58681
#
# Velocity S-wave (km/s) = 2.28131 3.52437 2.96863
# Velocity P-wave (km/s) = 5.86335 6.67052 6.27992
#
# Compressibility (1/GPa) = 0.01826191
#
# Stress axis : x y z
#
# Youngs Moduli (GPa) = 58.09315 84.81068 58.39292
#
# Poissons Ratio (x) = 0.21216 0.52766
# Poissons Ratio (y) = 0.14532 0.13992
# Poissons Ratio (z) = 0.52495 0.20322
#
# Static dielectric constant tensor:
#      x y z
#    x 1.767670 0.000000 0.051460 
#    y 0.000000 1.770900 0.000000 
#    z 0.051460 0.000000 1.852970 
# 
# From -- ./inp_files/78344.got.cif
#   From: 2010.05.17/outbox.cif.g08.bks.cpg/sg13_40_cif.got.tgz:78344.got - 2010.06.03 16:44:36.
