data_PCOD9227577
_publ_section_title
;
Structure prediction by ZEFSAII (Michael W. Deem and Ramdas Pophale) SiO2 
 PCOD9227577
Probable space group: P 2/C
;
_chemical_formula_sum "Si O2"
_cell_formula_units_Z 28
_cell_length_a 13.740743
_cell_length_b 10.896682
_cell_length_c 13.362965
_cell_angle_alpha 90.000000
_cell_angle_beta 47.124340
_cell_angle_gamma 90.000000
_cell_volume 1466.262599
_symmetry_space_group_name_H-M "P 2/C"
_symmetry_group_IT_number 13
_symmetry_cell_setting 'monoclinic'
loop_
_space_group_symop_operation_xyz
x,y,z
-x,y,1/2-z
-x,-y,-z
x,-y,1/2+z
loop_
_atom_site_type_symbol
_atom_site_label
_atom_site_fract_x
_atom_site_fract_y
_atom_site_fract_z
Si Si1 0.259679 0.027870 0.484644
Si Si2 0.460519 0.845261 0.442661
Si Si3 0.430993 0.590895 0.126908
Si Si4 0.970439 0.028095 0.636634
Si Si5 0.711456 0.703969 0.454812
Si Si6 0.000000 0.739778 0.250000
Si Si7 0.500000 0.575604 0.750000
Si Si8 0.685367 0.043780 0.282760
O O1 0.287517 0.148903 0.530527
O O2 0.285119 0.071871 0.352870
O O3 0.106075 0.983986 0.595908
O O4 0.360238 0.920815 0.443031
O O5 0.476670 0.704503 0.405139
O O6 0.402681 0.858374 0.595649
O O7 0.598059 0.919906 0.342694
O O8 0.409905 0.509142 0.239712
O O9 0.500000 0.500000 0.000000
O O10 0.321149 0.657302 0.134382
O O11 0.969507 0.168813 0.676972
O O12 0.822787 0.973228 0.746532
O O13 0.000000 0.000000 0.500000
O O14 0.864960 0.668485 0.368396
O O15 0.601193 0.651236 0.608461
#
# Coordination Sequence:
#
# PCOD9227577 Si02
#       8
#     4   4   4   4   4   2   2   4
#     4  10  21  33  57  89 117 149 186 238 296 359
#     4  11  21  32  53  87 113 147 190 246 285 340
#     4  10  23  40  56  81 116 157 197 243 292 346
#     4   9  18  34  51  82 126 161 181 219 300 373
#     4  10  21  39  64  86 117 152 202 241 299 361
#     4  10  18  36  62  88 112 160 198 240 288 364
#     4  10  24  40  62  84 114 156 202 252 300 342
#     4  10  20  32  54  84 121 148 186 233 296 353
#
# _framework density 19.096169
#
# number of rings (size 3 to 8) (size 9 to 14) (size 15 to 20)
#    0.000    2.000    0.000    4.714    8.000    0.000 
#    0.000    0.714    0.000    6.857    0.000    0.000 
#    0.000    0.000    0.000    0.000    0.000    0.000 
#
# Total GULP energy -155973.870688 kJ/mol
# GULP energy per Si atom -5570.495382 kJ/mol
# Density = 1.905271 g / cm^3
# Si number density = 19.096169 Si / 1000 Ang^3
#
#
#
# Elastic Constant Matrix: (Units=GPa)
#
#
# Indices 1 2 3 4 5 6 
#
# 1 129.8578 28.8216 33.9692 0.0000 -7.1093 0.0000
# 2 28.8216 68.3045 12.7339 0.0000 -6.5040 0.0000
# 3 33.9692 12.7339 90.1163 0.0000 -7.0230 0.0000
# 4 0.0000 0.0000 0.0000 11.9102 0.0000 3.1606
# 5 -7.1093 -6.5040 -7.0230 0.0000 39.3953 0.0000
# 6 0.0000 0.0000 0.0000 3.1606 0.0000 25.9119
#
#
#
# Elastic Compliance Matrix: (Units=1/GPa)
#
#
# Indices 1 2 3 4 5 6 
#
# 1 0.009241 -0.003288 -0.002972 0.000000 0.000595 0.000000
# 2 -0.003288 0.016386 -0.000924 0.000000 0.001947 0.000000
# 3 -0.002972 -0.000924 0.012467 0.000000 0.001534 0.000000
# 4 0.000000 0.000000 0.000000 0.086770 0.000000 -0.010584
# 5 0.000595 0.001947 0.001534 0.000000 0.026086 0.000000
# 6 0.000000 0.000000 0.000000 -0.010584 0.000000 0.039883
#
#
# Mechanical properties :
#
#
# Convention : Reuss Voigt Hill
#
# Bulk Modulus (GPa) = 42.15133 48.81424 45.48278
# Shear Modulus (GPa) = 23.46206 29.62708 26.54457
#
# Velocity S-wave (km/s) = 3.50898 3.94314 3.73238
# Velocity P-wave (km/s) = 6.20793 6.80801 6.51488
#
# Compressibility (1/GPa) = 0.02372405
#
# Stress axis : x y z
#
# Youngs Moduli (GPa) = 108.21746 61.02927 80.21024
#
# Poissons Ratio (x) = 0.20069 0.23840
# Poissons Ratio (y) = 0.35587 0.07412
# Poissons Ratio (z) = 0.32165 0.05639
#
# Static dielectric constant tensor:
#      x y z
#    x 1.739730 0.000000 0.021510 
#    y 0.000000 1.636390 0.000000 
#    z 0.021510 0.000000 1.758770 
# 
# From -- ./inp_files/53523.got.cif
#   From: 2010.05.17/outbox.cif.g08.bks.cpg/sg13_27_cif.got.tgz:53523.got - 2010.06.03 16:44:36.
