data_PCOD9227068
_publ_section_title
;
Structure prediction by ZEFSAII (Michael W. Deem and Ramdas Pophale) SiO2 
 PCOD9227068
Probable space group: P 2/C
;
_chemical_formula_sum "Si O2"
_cell_formula_units_Z 26
_cell_length_a 8.849692
_cell_length_b 11.272338
_cell_length_c 13.234181
_cell_angle_alpha 90.000000
_cell_angle_beta 87.626945
_cell_angle_gamma 90.000000
_cell_volume 1319.066296
_symmetry_space_group_name_H-M "P 2/C"
_symmetry_group_IT_number 13
_symmetry_cell_setting 'monoclinic'
loop_
_space_group_symop_operation_xyz
x,y,z
-x,y,1/2-z
-x,-y,-z
x,-y,1/2+z
loop_
_atom_site_type_symbol
_atom_site_label
_atom_site_fract_x
_atom_site_fract_y
_atom_site_fract_z
Si Si1 0.525014 0.787036 0.898147
Si Si2 0.052801 0.704465 0.447551
Si Si3 0.798184 0.362771 0.354679
Si Si4 0.000000 0.161297 0.250000
Si Si5 0.309478 0.103415 0.924682
Si Si6 0.500000 0.010936 0.250000
Si Si7 0.805453 0.144252 0.068352
Si Si8 0.000000 0.448638 0.750000
O O1 0.621851 0.671067 0.867732
O O2 0.575125 0.897486 0.826547
O O3 0.344197 0.783690 0.893029
O O4 0.570217 0.828721 0.008753
O O5 0.128923 0.626367 0.535303
O O6 0.169460 0.809465 0.419918
O O7 0.904782 0.770090 0.496134
O O8 0.025961 0.629189 0.348490
O O9 0.856609 0.467562 0.281648
O O10 0.879543 0.245773 0.308764
O O11 0.091993 0.102577 0.338882
O O12 0.384614 0.066823 0.817204
O O13 0.256072 0.978770 0.975892
#
# Coordination Sequence:
#
# PCOD9227068 Si02
#       8
#     4   4   4   2   4   2   4   2
#     4  10  20  35  58  83 112 154 192 235 288 340
#     4  10  22  36  56  83 113 152 192 233 290 346
#     4   9  19  38  56  76 107 145 195 241 283 330
#     4   9  18  31  56  82 108 145 182 231 282 338
#     4  10  21  35  55  84 120 154 185 233 288 347
#     4  10  18  32  58  88 116 148 186 232 286 340
#     4  10  19  35  57  87 118 147 187 235 285 351
#     4  11  22  37  60  82 110 157 196 245 290 328
#
# _framework density 19.710913000000001
#
# number of rings (size 3 to 8) (size 9 to 14) (size 15 to 20)
#    0.000    2.154    0.000    4.615    0.000    3.077 
#    0.000    2.308    0.000   19.385    0.000    3.231 
#    0.000    0.000    0.000    0.000    0.000    0.000 
#
# Total GULP energy -144993.785739 kJ/mol
# GULP energy per Si atom -5576.684067 kJ/mol
# Density = 1.966605 g / cm^3
# Si number density = 19.710913 Si / 1000 Ang^3
#
#
#
# Elastic Constant Matrix: (Units=GPa)
#
#
# Indices 1 2 3 4 5 6 
#
# 1 127.0647 44.7447 43.5247 0.0000 -15.0465 0.0000
# 2 44.7447 57.7132 33.2151 0.0000 -13.3383 0.0000
# 3 43.5247 33.2151 98.8530 0.0000 -19.5440 0.0000
# 4 0.0000 0.0000 0.0000 17.0103 0.0000 5.1117
# 5 -15.0465 -13.3383 -19.5440 0.0000 21.4755 0.0000
# 6 0.0000 0.0000 0.0000 5.1117 0.0000 11.0937
#
#
#
# Elastic Compliance Matrix: (Units=1/GPa)
#
#
# Indices 1 2 3 4 5 6 
#
# 1 0.011343 -0.007135 -0.002319 0.000000 0.001405 0.000000
# 2 -0.007135 0.027241 -0.004457 0.000000 0.007864 0.000000
# 3 -0.002319 -0.004457 0.014348 0.000000 0.008664 0.000000
# 4 0.000000 0.000000 0.000000 0.068236 0.000000 -0.031442
# 5 0.001405 0.007864 0.008664 0.000000 0.060319 0.000000
# 6 0.000000 0.000000 0.000000 -0.031442 0.000000 0.104628
#
#
# Mechanical properties :
#
#
# Convention : Reuss Voigt Hill
#
# Bulk Modulus (GPa) = 39.82416 58.51108 49.16762
# Shear Modulus (GPa) = 15.51312 20.72568 18.11940
#
# Velocity S-wave (km/s) = 2.80845 3.24617 3.03521
# Velocity P-wave (km/s) = 5.54658 6.61810 6.10589
#
# Compressibility (1/GPa) = 0.02511039
#
# Stress axis : x y z
#
# Youngs Moduli (GPa) = 88.15757 36.70908 69.69770
#
# Poissons Ratio (x) = 0.26191 0.16164
# Poissons Ratio (y) = 0.62899 0.31063
# Poissons Ratio (z) = 0.20446 0.16361
#
# Static dielectric constant tensor:
#      x y z
#    x 1.721330 0.000000 0.008020 
#    y 0.000000 1.678250 0.000000 
#    z 0.008020 0.000000 1.743210 
# 
# From -- ./inp_files/29524.got.cif
#   From: 2010.05.17/outbox.cif.g08.bks.cpg/sg13_15_cif.got.tgz:29524.got - 2010.06.03 16:44:36.
