data_PCOD9227092
_publ_section_title
;
Structure prediction by ZEFSAII (Michael W. Deem and Ramdas Pophale) SiO2 
 PCOD9227092
Probable space group: P 2/C
;
_chemical_formula_sum "Si O2"
_cell_formula_units_Z 26
_cell_length_a 20.541804
_cell_length_b 15.133959
_cell_length_c 8.768924
_cell_angle_alpha 90.000000
_cell_angle_beta 149.165476
_cell_angle_gamma 90.000000
_cell_volume 1397.276784
_symmetry_space_group_name_H-M "P 2/C"
_symmetry_group_IT_number 13
_symmetry_cell_setting 'monoclinic'
loop_
_space_group_symop_operation_xyz
x,y,z
-x,y,1/2-z
-x,-y,-z
x,-y,1/2+z
loop_
_atom_site_type_symbol
_atom_site_label
_atom_site_fract_x
_atom_site_fract_y
_atom_site_fract_z
Si Si1 0.000000 0.230181 0.750000
Si Si2 0.528270 0.405739 0.985968
Si Si3 0.618057 0.233550 0.783544
Si Si4 0.737104 0.721802 0.844174
Si Si5 0.626045 0.880137 0.775033
Si Si6 0.739858 0.008318 0.758990
Si Si7 0.148908 0.120686 0.276373
O O1 0.875943 0.284893 0.550111
O O2 0.968291 0.168628 0.539907
O O3 0.670757 0.365250 0.278321
O O4 0.500000 0.413520 0.750000
O O5 0.500000 0.500000 0.000000
O O6 0.437796 0.328927 0.873891
O O7 0.511514 0.161680 0.529229
O O8 0.647893 0.244247 0.024219
O O9 0.749414 0.197770 0.981028
O O10 0.724844 0.800469 0.940749
O O11 0.654940 0.955511 0.709020
O O12 0.655483 0.922120 0.996721
O O13 0.793874 0.939068 0.745507
O O14 0.851914 0.057242 0.079034
#
# Coordination Sequence:
#
# PCOD9227092 Si02
#       7
#     2   4   4   4   4   4   4
#     4  10  18  36  58  70 102 152 188 216 256 316
#     4   9  18  35  59  85 106 132 165 217 274 344
#     4   9  18  33  54  71 109 134 174 213 281 333
#     4   9  18  35  55  76 104 145 182 211 269 323
#     4  10  18  33  46  73 103 140 174 230 270 318
#     4  10  21  31  47  75 104 141 191 226 269 303
#     4  10  21  34  47  75 101 146 188 227 261 304
#
# _framework density 18.607624000000001
#
# number of rings (size 3 to 8) (size 9 to 14) (size 15 to 20)
#    0.000    2.462    3.077    1.385    0.000    4.923 
#    5.538    0.000    0.000    8.308    0.000    0.000 
#    0.000    0.000    0.000    0.000    0.000    0.000 
#
# Total GULP energy -144944.302983 kJ/mol
# GULP energy per Si atom -5574.780884 kJ/mol
# Density = 1.856527 g / cm^3
# Si number density = 18.607624 Si / 1000 Ang^3
#
#
#
# Elastic Constant Matrix: (Units=GPa)
#
#
# Indices 1 2 3 4 5 6 
#
# 1 45.1410 43.2873 30.3872 0.0000 -1.1889 0.0000
# 2 43.2873 118.7811 37.5559 0.0000 1.5466 0.0000
# 3 30.3872 37.5559 80.9508 0.0000 10.1105 0.0000
# 4 0.0000 0.0000 0.0000 13.8640 0.0000 -2.4553
# 5 -1.1889 1.5466 10.1105 0.0000 26.0083 0.0000
# 6 0.0000 0.0000 0.0000 -2.4553 0.0000 24.8232
#
#
#
# Elastic Compliance Matrix: (Units=1/GPa)
#
#
# Indices 1 2 3 4 5 6 
#
# 1 0.040563 -0.011473 -0.010742 0.000000 0.006712 0.000000
# 2 -0.011473 0.013150 -0.001714 0.000000 -0.000640 0.000000
# 3 -0.010742 -0.001714 0.018109 0.000000 -0.007429 0.000000
# 4 0.000000 0.000000 0.000000 0.073415 0.000000 0.007262
# 5 0.006712 -0.000640 -0.007429 0.000000 0.041682 0.000000
# 6 0.000000 0.000000 0.000000 0.007262 0.000000 0.041003
#
#
# Mechanical properties :
#
#
# Convention : Reuss Voigt Hill
#
# Bulk Modulus (GPa) = 41.73094 51.92596 46.82845
# Shear Modulus (GPa) = 17.62001 21.84861 19.73431
#
# Velocity S-wave (km/s) = 3.08055 3.43034 3.26014
# Velocity P-wave (km/s) = 5.92693 6.60727 6.27633
#
# Compressibility (1/GPa) = 0.02396304
#
# Stress axis : x y z
#
# Youngs Moduli (GPa) = 24.65308 76.04349 55.22268
#
# Poissons Ratio (x) = 0.87247 0.59320
# Poissons Ratio (y) = 0.28285 0.09466
# Poissons Ratio (z) = 0.26482 0.13035
#
# Static dielectric constant tensor:
#      x y z
#    x 1.677340 0.000000 0.007540 
#    y 0.000000 1.649450 0.000000 
#    z 0.007540 0.000000 1.686420 
# 
# From -- ./inp_files/19930.got.cif
#   From: 2010.05.17/outbox.cif.g08.bks.cpg/sg13_10_cif.got.tgz:19930.got - 2010.06.03 16:44:36.
