data_PCOD9227974
_publ_section_title
;
Structure prediction by ZEFSAII (Michael W. Deem and Ramdas Pophale) SiO2 
 PCOD9227974
Probable space group: P 2/C
;
_chemical_formula_sum "Si O2"
_cell_formula_units_Z 26
_cell_length_a 22.836181
_cell_length_b 9.316730
_cell_length_c 5.706014
_cell_angle_alpha 90.000000
_cell_angle_beta 125.718679
_cell_angle_gamma 90.000000
_cell_volume 985.640968
_symmetry_space_group_name_H-M "P 2/C"
_symmetry_group_IT_number 13
_symmetry_cell_setting 'monoclinic'
loop_
_space_group_symop_operation_xyz
x,y,z
-x,y,1/2-z
-x,-y,-z
x,-y,1/2+z
loop_
_atom_site_type_symbol
_atom_site_label
_atom_site_fract_x
_atom_site_fract_y
_atom_site_fract_z
Si Si1 0.924209 0.579897 0.578619
Si Si2 0.500000 0.639848 0.250000
Si Si3 0.698959 0.866803 0.861284
Si Si4 0.158651 0.048083 0.311111
Si Si5 0.639857 0.648219 0.338647
Si Si6 0.433911 0.854364 0.713170
Si Si7 0.776341 0.669593 0.414243
O O1 0.928658 0.497844 0.341900
O O2 0.840017 0.618106 0.393988
O O3 0.000000 0.670926 0.750000
O O4 0.572043 0.565053 0.304682
O O5 0.533505 0.745239 0.520923
O O6 0.673784 0.760474 0.601181
O O7 0.628984 0.943110 0.808469
O O8 0.764566 0.970598 0.962084
O O9 0.728856 0.766170 0.134063
O O10 0.177528 0.216409 0.317707
O O11 0.124151 0.981435 0.991534
O O12 0.713740 0.578753 0.402647
O O13 0.600597 0.747700 0.057265
O O14 0.500000 0.937369 0.750000
#
# Coordination Sequence:
#
# PCOD9227974 Si02
#       7
#     4   2   4   4   4   4   4
#     4  10  24  45  69  96 123 147 182 240 305 361
#     4   8  14  24  42  68 110 150 202 246 284 324
#     4   9  17  28  47  77 115 152 200 242 281 335
#     4  10  19  31  49  79 116 155 195 235 276 332
#     4   9  15  27  46  76 108 154 200 241 284 337
#     4   8  14  24  41  64 102 155 205 245 284 325
#     4  10  20  33  59  83 115 154 197 236 295 352
#
# _framework density 26.378772999999999
#
# number of rings (size 3 to 8) (size 9 to 14) (size 15 to 20)
#    0.000    2.769    1.538    0.000    2.154    0.000 
#    0.000    0.000    1.692    8.308    0.000    1.077 
#    0.000    0.000    0.000    0.000    0.000    0.000 
#
# Total GULP energy -144924.085683 kJ/mol
# GULP energy per Si atom -5574.003296 kJ/mol
# Density = 2.631873 g / cm^3
# Si number density = 26.378773 Si / 1000 Ang^3
#
#
#
# Elastic Constant Matrix: (Units=GPa)
#
#
# Indices 1 2 3 4 5 6 
#
# 1 241.4991 34.3279 4.4551 0.0000 12.0335 0.0000
# 2 34.3279 47.9239 -1.1604 0.0000 -3.6835 0.0000
# 3 4.4551 -1.1604 83.6631 0.0000 -26.5705 0.0000
# 4 0.0000 0.0000 0.0000 12.3712 0.0000 -4.2128
# 5 12.0335 -3.6835 -26.5705 0.0000 50.8150 0.0000
# 6 0.0000 0.0000 0.0000 -4.2128 0.0000 19.0297
#
#
#
# Elastic Compliance Matrix: (Units=1/GPa)
#
#
# Indices 1 2 3 4 5 6 
#
# 1 0.004757 -0.003571 -0.000891 0.000000 -0.001851 0.000000
# 2 -0.003571 0.023725 0.001600 0.000000 0.003402 0.000000
# 3 -0.000891 0.001600 0.014541 0.000000 0.007930 0.000000
# 4 0.000000 0.000000 0.000000 0.087424 0.000000 0.019354
# 5 -0.001851 0.003402 0.007930 0.000000 0.024511 0.000000
# 6 0.000000 0.000000 0.000000 0.019354 0.000000 0.056834
#
#
# Mechanical properties :
#
#
# Convention : Reuss Voigt Hill
#
# Bulk Modulus (GPa) = 26.81124 49.81459 38.31291
# Shear Modulus (GPa) = 21.74398 38.80741 30.27569
#
# Velocity S-wave (km/s) = 2.87417 3.83973 3.39149
# Velocity P-wave (km/s) = 4.60440 6.21155 5.46735
#
# Compressibility (1/GPa) = 0.03729780
#
# Stress axis : x y z
#
# Youngs Moduli (GPa) = 210.21065 42.14996 68.77175
#
# Poissons Ratio (x) = 0.15053 0.06126
# Poissons Ratio (y) = 0.75074 -0.11001
# Poissons Ratio (z) = 0.18725 -0.06743
#
# Static dielectric constant tensor:
#      x y z
#    x 2.556720 0.000000 0.011090 
#    y 0.000000 2.112510 0.000000 
#    z 0.011090 0.000000 2.117310 
# 
# From -- ./inp_files/6924.got.cif
#   From: 2010.05.17/outbox.cif.g08.bks.cpg/sg13_4_cif.got.tgz:6924.got - 2010.06.03 16:44:36.
