data_PCOD9227266
_publ_section_title
;
Structure prediction by ZEFSAII (Michael W. Deem and Ramdas Pophale) SiO2 
 PCOD9227266
Probable space group: P 2/C
;
_chemical_formula_sum "Si O2"
_cell_formula_units_Z 26
_cell_length_a 14.737008
_cell_length_b 8.732888
_cell_length_c 20.372759
_cell_angle_alpha 90.000000
_cell_angle_beta 31.174201
_cell_angle_gamma 90.000000
_cell_volume 1357.207968
_symmetry_space_group_name_H-M "P 2/C"
_symmetry_group_IT_number 13
_symmetry_cell_setting 'monoclinic'
loop_
_space_group_symop_operation_xyz
x,y,z
-x,y,1/2-z
-x,-y,-z
x,-y,1/2+z
loop_
_atom_site_type_symbol
_atom_site_label
_atom_site_fract_x
_atom_site_fract_y
_atom_site_fract_z
Si Si1 0.073807 0.063550 0.385330
Si Si2 0.000000 0.385912 0.250000
Si Si3 0.321693 0.205928 0.004992
Si Si4 0.288450 0.213854 0.749877
Si Si5 0.866157 0.911049 0.393552
Si Si6 0.047724 0.613778 0.100474
Si Si7 0.166915 0.328673 0.964181
O O1 0.023728 0.242311 0.417744
O O2 0.254796 0.970304 0.267742
O O3 0.000000 0.000000 0.500000
O O4 0.963794 0.001329 0.391697
O O5 0.172643 0.280947 0.142622
O O6 0.995937 0.493639 0.315620
O O7 0.291766 0.023335 0.026839
O O8 0.520813 0.248576 0.896064
O O9 0.272904 0.269379 0.962395
O O10 0.127963 0.298630 0.812856
O O11 0.268382 0.272879 0.836976
O O12 0.000000 0.893575 0.250000
O O13 0.826776 0.744107 0.446943
O O14 0.134164 0.509678 0.990700
#
# Coordination Sequence:
#
# PCOD9227266 Si02
#       7
#     4   2   4   4   4   4   4
#     4   8  17  33  54  79 108 145 189 228 279 336
#     4  10  20  36  54  74 110 158 178 222 286 346
#     4  10  20  34  57  79 109 146 193 233 279 332
#     4  10  19  34  56  86 108 141 190 241 275 327
#     4  10  18  34  57  78 108 152 190 229 282 348
#     4  10  20  34  57  79 110 147 185 228 288 344
#     4   9  18  35  58  80 113 150 179 227 292 349
#
# _framework density 19.156977000000001
#
# number of rings (size 3 to 8) (size 9 to 14) (size 15 to 20)
#    0.000    2.462    1.538    0.923    0.000    0.615 
#    0.000    6.154    0.000   18.462    0.000    0.000 
#    0.000    0.000    0.000    0.000    0.000    0.000 
#
# Total GULP energy -144757.439745 kJ/mol
# GULP energy per Si atom -5567.593836 kJ/mol
# Density = 1.911337 g / cm^3
# Si number density = 19.156977 Si / 1000 Ang^3
#
#
#
# Elastic Constant Matrix: (Units=GPa)
#
#
# Indices 1 2 3 4 5 6 
#
# 1 13.7139 -5.1084 -14.8802 0.0000 7.1593 0.0000
# 2 -5.1084 110.8970 18.2999 0.0000 -8.0597 0.0000
# 3 -14.8802 18.2999 50.4244 0.0000 -13.0013 0.0000
# 4 0.0000 0.0000 0.0000 15.3993 0.0000 6.2901
# 5 7.1593 -8.0597 -13.0013 0.0000 26.1467 0.0000
# 6 0.0000 0.0000 0.0000 6.2901 0.0000 25.3609
#
#
#
# Elastic Compliance Matrix: (Units=1/GPa)
#
#
# Indices 1 2 3 4 5 6 
#
# 1 0.113217 -0.000850 0.029432 0.000000 -0.016628 0.000000
# 2 -0.000850 0.009643 -0.003354 0.000000 0.001537 0.000000
# 3 0.029432 -0.003354 0.031418 0.000000 0.006530 0.000000
# 4 0.000000 0.000000 0.000000 0.072258 0.000000 -0.017922
# 5 -0.016628 0.001537 0.006530 0.000000 0.046519 0.000000
# 6 0.000000 0.000000 0.000000 -0.017922 0.000000 0.043876
#
#
# Mechanical properties :
#
#
# Convention : Reuss Voigt Hill
#
# Bulk Modulus (GPa) = 4.88440 19.07309 11.97875
# Shear Modulus (GPa) = 14.93780 25.16300 20.05040
#
# Velocity S-wave (km/s) = 2.79544 3.62818 3.23869
# Velocity P-wave (km/s) = 3.60202 5.24685 4.50022
#
# Compressibility (1/GPa) = 0.20473347
#
# Stress axis : x y z
#
# Youngs Moduli (GPa) = 8.83258 103.69723 31.82916
#
# Poissons Ratio (x) = 0.08813 -0.93678
# Poissons Ratio (y) = 0.00751 0.10676
# Poissons Ratio (z) = -0.25996 0.34782
#
# Static dielectric constant tensor:
#      x y z
#    x 1.684160 0.000000 0.009630 
#    y 0.000000 1.728820 0.000000 
#    z 0.009630 0.000000 1.661870 
# 
# From -- ./inp_files/49776.got.cif
#   From: 2010.05.17/outbox.cif.g08.bks.cpg/sg13_25_cif.got.tgz:49776.got - 2010.06.03 16:44:36.
