data_PCOD9227028
_publ_section_title
;
Structure prediction by ZEFSAII (Michael W. Deem and Ramdas Pophale) SiO2 
 PCOD9227028
Probable space group: P 2/C
;
_chemical_formula_sum "Si O2"
_cell_formula_units_Z 26
_cell_length_a 7.691396
_cell_length_b 9.717540
_cell_length_c 16.831135
_cell_angle_alpha 90.000000
_cell_angle_beta 71.440295
_cell_angle_gamma 90.000000
_cell_volume 1192.558826
_symmetry_space_group_name_H-M "P 2/C"
_symmetry_group_IT_number 13
_symmetry_cell_setting 'monoclinic'
loop_
_space_group_symop_operation_xyz
x,y,z
-x,y,1/2-z
-x,-y,-z
x,-y,1/2+z
loop_
_atom_site_type_symbol
_atom_site_label
_atom_site_fract_x
_atom_site_fract_y
_atom_site_fract_z
Si Si1 0.964151 0.752428 0.126838
Si Si2 0.291370 0.200276 0.694090
Si Si3 0.809930 0.080760 0.495998
Si Si4 0.500000 0.959811 0.750000
Si Si5 0.184231 0.167759 0.398779
Si Si6 0.776580 0.424059 0.011353
Si Si7 0.560526 0.312548 0.534842
O O1 0.130263 0.822397 0.152894
O O2 0.065018 0.619648 0.073994
O O3 0.805788 0.732706 0.215071
O O4 0.875477 0.844746 0.069846
O O5 0.393965 0.061512 0.704965
O O6 0.443819 0.296224 0.631920
O O7 0.632854 0.164298 0.497948
O O8 0.977188 0.114683 0.412210
O O9 0.775311 0.924673 0.527440
O O10 0.658354 0.872124 0.684953
O O11 0.181085 0.328910 0.419112
O O12 0.581460 0.367497 0.008701
O O13 0.731536 0.584675 0.022526
#
# Coordination Sequence:
#
# PCOD9227028 Si02
#       7
#     4   4   4   2   4   4   4
#     4   9  18  33  52  84 108 139 183 234 270 323
#     4  10  18  32  56  82 108 144 187 227 270 331
#     4  10  19  36  56  81 110 141 185 222 271 332
#     4  12  20  38  54  82 114 146 180 234 276 328
#     4  10  21  35  53  81 115 137 182 227 273 325
#     4   9  21  37  55  83 113 143 185 232 273 325
#     4  10  19  37  59  80 110 150 188 222 272 332
#
# _framework density 21.801856999999998
#
# number of rings (size 3 to 8) (size 9 to 14) (size 15 to 20)
#    0.000    2.154    3.077    0.000    0.000    3.077 
#    5.538    3.846    0.000    1.846    0.000    0.000 
#    0.000    0.000    0.000    0.000    0.000    0.000 
#
# Total GULP energy -145038.927156 kJ/mol
# GULP energy per Si atom -5578.420275 kJ/mol
# Density = 2.175224 g / cm^3
# Si number density = 21.801857 Si / 1000 Ang^3
#
#
#
# Elastic Constant Matrix: (Units=GPa)
#
#
# Indices 1 2 3 4 5 6 
#
# 1 82.4689 0.7011 5.1627 0.0000 -8.7857 0.0000
# 2 0.7011 46.9683 -10.3729 0.0000 1.6506 0.0000
# 3 5.1627 -10.3729 95.5218 0.0000 -24.5065 0.0000
# 4 0.0000 0.0000 0.0000 14.4125 0.0000 -11.6913
# 5 -8.7857 1.6506 -24.5065 0.0000 27.2896 0.0000
# 6 0.0000 0.0000 0.0000 -11.6913 0.0000 39.2296
#
#
#
# Elastic Compliance Matrix: (Units=1/GPa)
#
#
# Indices 1 2 3 4 5 6 
#
# 1 0.012575 -0.000248 0.000436 0.000000 0.004455 0.000000
# 2 -0.000248 0.021842 0.002632 0.000000 0.000963 0.000000
# 3 0.000436 0.002632 0.013937 0.000000 0.012497 0.000000
# 4 0.000000 0.000000 0.000000 0.091506 0.000000 0.027271
# 5 0.004455 0.000963 0.012497 0.000000 0.049243 0.000000
# 6 0.000000 0.000000 0.000000 0.027271 0.000000 0.033618
#
#
# Mechanical properties :
#
#
# Convention : Reuss Voigt Hill
#
# Bulk Modulus (GPa) = 18.51970 23.99341 21.25655
# Shear Modulus (GPa) = 21.26943 31.48419 26.37681
#
# Velocity S-wave (km/s) = 3.12681 3.80426 3.48205
# Velocity P-wave (km/s) = 4.64208 5.50687 5.09287
#
# Compressibility (1/GPa) = 0.05399656
#
# Stress axis : x y z
#
# Youngs Moduli (GPa) = 79.52144 45.78299 71.75001
#
# Poissons Ratio (x) = 0.01135 -0.03132
# Poissons Ratio (y) = 0.01971 -0.18887
# Poissons Ratio (z) = -0.03471 -0.12052
#
# Static dielectric constant tensor:
#      x y z
#    x 1.864200 0.000000 -0.003630 
#    y 0.000000 1.829790 0.000000 
#    z -0.003630 0.000000 1.809720 
# 
# From -- ./inp_files/75215.got.cif
#   From: 2010.05.17/outbox.cif.g08.bks.cpg/sg13_38_cif.got.tgz:75215.got - 2010.06.03 16:44:36.
