data_PCOD9227276
_publ_section_title
;
Structure prediction by ZEFSAII (Michael W. Deem and Ramdas Pophale) SiO2 
 PCOD9227276
Probable space group: P 2/C
;
_chemical_formula_sum "Si O2"
_cell_formula_units_Z 28
_cell_length_a 20.393968
_cell_length_b 9.140071
_cell_length_c 17.988003
_cell_angle_alpha 90.000000
_cell_angle_beta 156.526470
_cell_angle_gamma 90.000000
_cell_volume 1335.587070
_symmetry_space_group_name_H-M "P 2/C"
_symmetry_group_IT_number 13
_symmetry_cell_setting 'monoclinic'
loop_
_space_group_symop_operation_xyz
x,y,z
-x,y,1/2-z
-x,-y,-z
x,-y,1/2+z
loop_
_atom_site_type_symbol
_atom_site_label
_atom_site_fract_x
_atom_site_fract_y
_atom_site_fract_z
Si Si1 0.939878 0.518012 0.103574
Si Si2 0.123386 0.788763 0.571587
Si Si3 0.628604 0.957110 0.197884
Si Si4 0.432192 0.492480 0.264505
Si Si5 0.773016 0.747194 0.246411
Si Si6 0.237658 0.578309 0.812273
Si Si7 0.480367 0.169807 0.141766
O O1 0.000000 0.547015 0.250000
O O2 0.083950 0.426162 0.210840
O O3 0.922260 0.669441 0.039203
O O4 0.754631 0.453243 0.919161
O O5 0.217975 0.931393 0.644030
O O6 0.227941 0.708996 0.744340
O O7 0.949511 0.821290 0.428417
O O8 0.540142 0.008825 0.180183
O O9 0.682728 0.799564 0.226821
O O10 0.500000 0.000000 0.000000
O O11 0.500000 0.495156 0.250000
O O12 0.581868 0.567327 0.464209
O O13 0.424561 0.320463 0.281754
O O14 0.786056 0.573130 0.257678
O O15 0.684455 0.799559 0.077577
O O16 0.500000 0.173237 0.250000
#
# Coordination Sequence:
#
# PCOD9227276 Si02
#       7
#     4   4   4   4   4   4   4
#     4  11  20  34  58  89 122 147 192 246 298 336
#     4  11  22  37  57  88 116 151 194 242 291 346
#     4  10  20  37  56  81 110 154 188 230 289 348
#     4  10  18  34  57  85 121 153 186 242 297 335
#     4   9  19  35  58  80 116 150 186 240 293 338
#     4  10  22  38  57  90 121 148 195 244 288 351
#     4   9  18  33  55  84 113 144 193 241 286 342
#
# _framework density 20.964565
#
# number of rings (size 3 to 8) (size 9 to 14) (size 15 to 20)
#    0.000    2.000    2.857    2.143    2.000    0.571 
#    5.143    0.000    0.000   10.286    0.000    2.000 
#    0.000    0.000    0.000    0.000    0.000    0.000 
#
# Total GULP energy -155984.366296 kJ/mol
# GULP energy per Si atom -5570.870225 kJ/mol
# Density = 2.091685 g / cm^3
# Si number density = 20.964565 Si / 1000 Ang^3
#
#
#
# Elastic Constant Matrix: (Units=GPa)
#
#
# Indices 1 2 3 4 5 6 
#
# 1 66.7151 20.9226 28.3578 0.0000 -8.4693 0.0000
# 2 20.9226 15.2108 13.5090 0.0000 -4.1686 0.0000
# 3 28.3578 13.5090 110.4454 0.0000 2.9674 0.0000
# 4 0.0000 0.0000 0.0000 12.3827 0.0000 -2.2771
# 5 -8.4693 -4.1686 2.9674 0.0000 39.2353 0.0000
# 6 0.0000 0.0000 0.0000 -2.2771 0.0000 14.8990
#
#
#
# Elastic Compliance Matrix: (Units=1/GPa)
#
#
# Indices 1 2 3 4 5 6 
#
# 1 0.027279 -0.034294 -0.002876 0.000000 0.002462 0.000000
# 2 -0.034294 0.119835 -0.006008 0.000000 0.005784 0.000000
# 3 -0.002876 -0.006008 0.010583 0.000000 -0.002059 0.000000
# 4 0.000000 0.000000 0.000000 0.083093 0.000000 0.012700
# 5 0.002462 0.005784 -0.002059 0.000000 0.026789 0.000000
# 6 0.000000 0.000000 0.000000 0.012700 0.000000 0.069059
#
#
# Mechanical properties :
#
#
# Convention : Reuss Voigt Hill
#
# Bulk Modulus (GPa) = 14.01690 35.32777 24.67233
# Shear Modulus (GPa) = 11.19137 21.94220 16.56679
#
# Velocity S-wave (km/s) = 2.31297 3.23868 2.81415
# Velocity P-wave (km/s) = 3.71936 5.55636 4.72794
#
# Compressibility (1/GPa) = 0.07134247
#
# Stress axis : x y z
#
# Youngs Moduli (GPa) = 36.65843 8.34483 94.49339
#
# Poissons Ratio (x) = 0.28617 0.27173
# Poissons Ratio (y) = 1.25715 0.56768
# Poissons Ratio (z) = 0.10542 0.05013
#
# Static dielectric constant tensor:
#      x y z
#    x 1.812300 0.000000 0.053840 
#    y 0.000000 1.783740 0.000000 
#    z 0.053840 0.000000 1.777680 
# 
# From -- ./inp_files/82227.got.cif
#   From: 2010.05.17/outbox.cif.g08.bks.cpg/sg13_42_cif.got.tgz:82227.got - 2010.06.03 16:44:36.
