data_PCOD9227458
_publ_section_title
;
Structure prediction by ZEFSAII (Michael W. Deem and Ramdas Pophale) SiO2 
 PCOD9227458
Probable space group: P 2/C
;
_chemical_formula_sum "Si O2"
_cell_formula_units_Z 32
_cell_length_a 14.528954
_cell_length_b 9.559300
_cell_length_c 24.179434
_cell_angle_alpha 90.000000
_cell_angle_beta 151.823895
_cell_angle_gamma 90.000000
_cell_volume 1585.685601
_symmetry_space_group_name_H-M "P 2/C"
_symmetry_group_IT_number 13
_symmetry_cell_setting 'monoclinic'
loop_
_space_group_symop_operation_xyz
x,y,z
-x,y,1/2-z
-x,-y,-z
x,-y,1/2+z
loop_
_atom_site_type_symbol
_atom_site_label
_atom_site_fract_x
_atom_site_fract_y
_atom_site_fract_z
Si Si1 0.216022 0.570681 0.379974
Si Si2 0.284008 0.033898 0.843680
Si Si3 0.409836 0.212893 0.812451
Si Si4 0.593165 0.489587 0.637234
Si Si5 0.775048 0.212917 0.266547
Si Si6 0.820865 0.109806 0.598902
Si Si7 0.712924 0.015154 0.333698
Si Si8 0.810431 0.090740 0.997563
O O1 0.304949 0.968817 0.420487
O O2 0.361219 0.497974 0.500824
O O3 0.318799 0.559910 0.374823
O O4 0.196920 0.727785 0.394536
O O5 0.391850 0.150442 0.864761
O O6 0.051993 0.075088 0.719503
O O7 0.311802 0.889704 0.826293
O O8 0.361153 0.374072 0.792568
O O9 0.276953 0.114468 0.703991
O O10 0.623958 0.190083 0.901589
O O11 0.688892 0.635712 0.707082
O O12 0.006700 0.182019 0.385034
O O13 0.729300 0.151586 0.303483
O O14 0.000000 0.483692 0.750000
O O15 0.757075 0.043232 0.507374
O O16 0.500000 0.020521 0.250000
O O17 0.846764 0.974214 0.456606
#
# Coordination Sequence:
#
# PCOD9227458 Si02
#       8
#     4   4   4   4   4   4   4   4
#     4  11  23  40  60  86 135 167 204 250 313 384
#     4   9  18  36  59  88 121 158 202 259 301 368
#     4  10  20  39  60  85 122 168 207 250 314 370
#     4  11  25  39  60  93 124 175 205 245 316 376
#     4  10  22  40  62  96 126 156 213 263 305 372
#     4  10  18  35  61  90 119 160 211 247 318 360
#     4   9  20  40  66  90 121 160 208 268 315 349
#     4  10  22  36  66  93 122 162 214 267 312 357
#
# _framework density 20.180544000000001
#
# number of rings (size 3 to 8) (size 9 to 14) (size 15 to 20)
#    0.000    2.000    2.500    0.375    7.000    2.500 
#    2.250    2.500    0.000    0.000    0.000    0.000 
#    0.000    0.000    0.000    0.000    0.000    0.000 
#
# Total GULP energy -178317.112261 kJ/mol
# GULP energy per Si atom -5572.409758 kJ/mol
# Density = 2.013461 g / cm^3
# Si number density = 20.180544 Si / 1000 Ang^3
#
#
#
# Elastic Constant Matrix: (Units=GPa)
#
#
# Indices 1 2 3 4 5 6 
#
# 1 99.3201 35.9349 13.1172 0.0000 -10.8362 0.0000
# 2 35.9349 116.1242 18.7654 0.0000 -7.2213 0.0000
# 3 13.1172 18.7654 71.9390 0.0000 -6.2338 0.0000
# 4 0.0000 0.0000 0.0000 16.1227 0.0000 4.9594
# 5 -10.8362 -7.2213 -6.2338 0.0000 33.8717 0.0000
# 6 0.0000 0.0000 0.0000 4.9594 0.0000 19.8120
#
#
#
# Elastic Compliance Matrix: (Units=1/GPa)
#
#
# Indices 1 2 3 4 5 6 
#
# 1 0.011702 -0.003277 -0.001031 0.000000 0.002855 0.000000
# 2 -0.003277 0.009985 -0.001944 0.000000 0.000722 0.000000
# 3 -0.001031 -0.001944 0.014767 0.000000 0.001973 0.000000
# 4 0.000000 0.000000 0.000000 0.067199 0.000000 -0.016821
# 5 0.002855 0.000722 0.001973 0.000000 0.030954 0.000000
# 6 0.000000 0.000000 0.000000 -0.016821 0.000000 0.054685
#
#
# Mechanical properties :
#
#
# Convention : Reuss Voigt Hill
#
# Bulk Modulus (GPa) = 41.75748 47.00202 44.37975
# Shear Modulus (GPa) = 23.83459 28.59901 26.21680
#
# Velocity S-wave (km/s) = 3.44039 3.76860 3.60823
# Velocity P-wave (km/s) = 6.04306 6.50214 6.27680
#
# Compressibility (1/GPa) = 0.02394780
#
# Stress axis : x y z
#
# Youngs Moduli (GPa) = 85.45682 100.15364 67.71892
#
# Poissons Ratio (x) = 0.32820 0.06985
# Poissons Ratio (y) = 0.28003 0.13167
# Poissons Ratio (z) = 0.08815 0.19474
#
# Static dielectric constant tensor:
#      x y z
#    x 1.721160 0.000000 0.019230 
#    y 0.000000 1.691590 0.000000 
#    z 0.019230 0.000000 1.862890 
# 
# From -- ./inp_files/87443.got.cif
#   From: 2010.05.17/outbox.cif.g08.bks.cpg/sg13_44_cif.got.tgz:87443.got - 2010.06.03 16:44:36.
