data_PCOD9227190
_publ_section_title
;
Structure prediction by ZEFSAII (Michael W. Deem and Ramdas Pophale) SiO2 
 PCOD9227190
Probable space group: P 2/C
;
_chemical_formula_sum "Si O2"
_cell_formula_units_Z 30
_cell_length_a 21.493537
_cell_length_b 7.198572
_cell_length_c 18.739936
_cell_angle_alpha 90.000000
_cell_angle_beta 151.802522
_cell_angle_gamma 90.000000
_cell_volume 1370.046041
_symmetry_space_group_name_H-M "P 2/C"
_symmetry_group_IT_number 13
_symmetry_cell_setting 'monoclinic'
loop_
_space_group_symop_operation_xyz
x,y,z
-x,y,1/2-z
-x,-y,-z
x,-y,1/2+z
loop_
_atom_site_type_symbol
_atom_site_label
_atom_site_fract_x
_atom_site_fract_y
_atom_site_fract_z
Si Si1 0.720779 0.549241 0.071086
Si Si2 0.604323 0.357596 0.704655
Si Si3 0.360436 0.670756 0.873482
Si Si4 0.097094 0.232259 0.057316
Si Si5 0.049838 0.174213 0.724686
Si Si6 0.105721 0.676720 0.044452
Si Si7 0.500000 0.504560 0.250000
Si Si8 0.095894 0.245540 0.283403
O O1 0.680885 0.487876 0.110085
O O2 0.841703 0.687807 0.195639
O O3 0.771154 0.359019 0.085275
O O4 0.607298 0.614281 0.902608
O O5 0.608566 0.561137 0.668843
O O6 0.491338 0.251998 0.544614
O O7 0.564524 0.382730 0.747623
O O8 0.750332 0.275829 0.839915
O O9 0.236977 0.809157 0.736176
O O10 0.957581 0.201801 0.956268
O O11 0.109237 0.457504 0.065327
O O12 0.072183 0.156602 0.953183
O O13 0.000000 0.247443 0.750000
O O14 0.112888 0.973950 0.801291
O O15 0.989216 0.699148 0.870586
O O16 0.000000 0.299110 0.250000
#
# Coordination Sequence:
#
# PCOD9227190 Si02
#       8
#     4   4   4   4   4   4   2   4
#     4  11  20  40  57  85 114 156 194 245 292 348
#     4   9  18  31  52  90 115 150 195 241 281 356
#     4   9  18  33  57  84 117 150 195 239 292 341
#     4  10  18  34  58  86 112 152 196 239 289 343
#     4  11  24  35  56  88 119 151 194 245 293 347
#     4  10  18  33  59  85 112 152 191 242 285 342
#     4  10  22  32  60  88 112 158 204 224 306 358
#     4  11  22  36  56  87 120 153 195 243 292 347
#
# _framework density 21.897072999999999
#
# number of rings (size 3 to 8) (size 9 to 14) (size 15 to 20)
#    0.000    1.867    2.667    2.800    3.733    0.533 
#    0.000    0.667    0.000    0.800    0.000    0.000 
#    0.000    0.000    0.000    0.000    0.000    0.000 
#
# Total GULP energy -167241.888582 kJ/mol
# GULP energy per Si atom -5574.729619 kJ/mol
# Density = 2.184723 g / cm^3
# Si number density = 21.897073 Si / 1000 Ang^3
#
#
#
# Elastic Constant Matrix: (Units=GPa)
#
#
# Indices 1 2 3 4 5 6 
#
# 1 122.4437 -0.3440 35.8937 0.0000 1.5027 0.0000
# 2 -0.3440 37.0731 -9.4473 0.0000 10.0395 0.0000
# 3 35.8937 -9.4473 113.8636 0.0000 -0.3321 0.0000
# 4 0.0000 0.0000 0.0000 13.8881 0.0000 2.5454
# 5 1.5027 10.0395 -0.3321 0.0000 44.6926 0.0000
# 6 0.0000 0.0000 0.0000 2.5454 0.0000 14.0922
#
#
#
# Elastic Compliance Matrix: (Units=1/GPa)
#
#
# Indices 1 2 3 4 5 6 
#
# 1 0.009016 -0.000602 -0.002893 0.000000 -0.000189 0.000000
# 2 -0.000602 0.029412 0.002611 0.000000 -0.006567 0.000000
# 3 -0.002893 0.002611 0.009910 0.000000 -0.000416 0.000000
# 4 0.000000 0.000000 0.000000 0.074469 0.000000 -0.013451
# 5 -0.000189 -0.006567 -0.000416 0.000000 0.023854 0.000000
# 6 0.000000 0.000000 0.000000 -0.013451 0.000000 0.073391
#
#
# Mechanical properties :
#
#
# Convention : Reuss Voigt Hill
#
# Bulk Modulus (GPa) = 21.47317 36.17614 28.82466
# Shear Modulus (GPa) = 21.06669 31.01978 26.04324
#
# Velocity S-wave (km/s) = 3.10510 3.76788 3.45243
# Velocity P-wave (km/s) = 4.76269 5.95702 5.39302
#
# Compressibility (1/GPa) = 0.04656974
#
# Stress axis : x y z
#
# Youngs Moduli (GPa) = 110.91903 33.99982 100.91134
#
# Poissons Ratio (x) = 0.02047 0.29189
# Poissons Ratio (y) = 0.06679 -0.26348
# Poissons Ratio (z) = 0.32084 -0.08877
#
# Static dielectric constant tensor:
#      x y z
#    x 1.908980 0.000000 0.006690 
#    y 0.000000 1.792780 0.000000 
#    z 0.006690 0.000000 1.869820 
# 
# From -- ./inp_files/70596.got.cif
#   From: 2010.05.17/outbox.cif.g08.bks.cpg/sg13_36_cif.got.tgz:70596.got - 2010.06.03 16:44:36.
