data_PCOD9227206
_publ_section_title
;
Structure prediction by ZEFSAII (Michael W. Deem and Ramdas Pophale) SiO2 
 PCOD9227206
Probable space group: P 2/C
;
_chemical_formula_sum "Si O2"
_cell_formula_units_Z 28
_cell_length_a 7.708246
_cell_length_b 16.038562
_cell_length_c 16.544724
_cell_angle_alpha 90.000000
_cell_angle_beta 34.692006
_cell_angle_gamma 90.000000
_cell_volume 1164.175786
_symmetry_space_group_name_H-M "P 2/C"
_symmetry_group_IT_number 13
_symmetry_cell_setting 'monoclinic'
loop_
_space_group_symop_operation_xyz
x,y,z
-x,y,1/2-z
-x,-y,-z
x,-y,1/2+z
loop_
_atom_site_type_symbol
_atom_site_label
_atom_site_fract_x
_atom_site_fract_y
_atom_site_fract_z
Si Si1 0.578912 0.843913 0.087110
Si Si2 0.648907 0.018112 0.357650
Si Si3 0.916943 0.715165 0.185487
Si Si4 0.154323 0.751392 0.855078
Si Si5 0.035677 0.433179 0.058045
Si Si6 0.469527 0.799953 0.587235
Si Si7 0.276826 0.540650 0.206659
O O1 0.354870 0.780423 0.217399
O O2 0.449340 0.936066 0.153487
O O3 0.561147 0.819542 0.997264
O O4 0.930488 0.824915 0.969582
O O5 0.531890 0.107295 0.373055
O O6 0.000000 0.023971 0.250000
O O7 0.500000 0.000000 0.500000
O O8 0.800158 0.622910 0.210702
O O9 0.000000 0.713226 0.250000
O O10 0.219335 0.747475 0.026040
O O11 0.500000 0.759009 0.750000
O O12 0.205018 0.753789 0.738329
O O13 0.007140 0.664512 0.939938
O O14 0.770114 0.459077 0.221989
O O15 0.382707 0.447636 0.956839
O O16 0.000000 0.500000 0.000000
O O17 0.000000 0.536697 0.250000
#
# Coordination Sequence:
#
# PCOD9227206 Si02
#       7
#     4   4   4   4   4   4   4
#     4  10  19  40  64  94 130 168 213 267 323 386
#     4  10  18  33  63 101 131 164 211 264 322 384
#     4   9  19  36  61  93 126 157 205 263 320 382
#     4  12  26  42  59  93 130 174 224 267 326 392
#     4  12  27  48  68  95 133 177 218 275 343 411
#     4  10  21  37  66  98 130 169 212 268 325 388
#     4  11  24  44  70 100 126 163 219 277 336 399
#
# _framework density 24.051349999999999
#
# number of rings (size 3 to 8) (size 9 to 14) (size 15 to 20)
#    0.000    1.429    1.429    6.000    4.000    1.143 
#    0.000    1.429    0.000    0.000    0.000    0.000 
#    0.000    0.000    0.000    0.000    0.000    0.000 
#
# Total GULP energy -156407.101758 kJ/mol
# GULP energy per Si atom -5585.967920 kJ/mol
# Density = 2.399661 g / cm^3
# Si number density = 24.051350 Si / 1000 Ang^3
#
#
#
# Elastic Constant Matrix: (Units=GPa)
#
#
# Indices 1 2 3 4 5 6 
#
# 1 62.7443 5.7350 -1.6685 0.0000 -11.8765 0.0000
# 2 5.7350 113.2751 8.0220 0.0000 1.6765 0.0000
# 3 -1.6685 8.0220 109.7538 0.0000 -15.0794 0.0000
# 4 0.0000 0.0000 0.0000 34.6858 0.0000 2.3530
# 5 -11.8765 1.6765 -15.0794 0.0000 34.5407 0.0000
# 6 0.0000 0.0000 0.0000 2.3530 0.0000 17.1865
#
#
#
# Elastic Compliance Matrix: (Units=1/GPa)
#
#
# Indices 1 2 3 4 5 6 
#
# 1 0.017306 -0.001061 0.001240 0.000000 0.006543 0.000000
# 2 -0.001061 0.008958 -0.000831 0.000000 -0.001162 0.000000
# 3 0.001240 -0.000831 0.009846 0.000000 0.004765 0.000000
# 4 0.000000 0.000000 0.000000 0.029101 0.000000 -0.003984
# 5 0.006543 -0.001162 0.004765 0.000000 0.033338 0.000000
# 6 0.000000 0.000000 0.000000 -0.003984 0.000000 0.058731
#
#
# Mechanical properties :
#
#
# Convention : Reuss Voigt Hill
#
# Bulk Modulus (GPa) = 28.73067 34.43890 31.58479
# Shear Modulus (GPa) = 29.37999 35.52824 32.45412
#
# Velocity S-wave (km/s) = 3.49886 3.84758 3.67736
# Velocity P-wave (km/s) = 5.31923 5.83854 5.58492
#
# Compressibility (1/GPa) = 0.03480601
#
# Stress axis : x y z
#
# Youngs Moduli (GPa) = 57.78284 111.63465 101.56921
#
# Poissons Ratio (x) = 0.11843 -0.12591
# Poissons Ratio (y) = 0.06130 0.08436
# Poissons Ratio (z) = -0.07163 0.09272
#
# Static dielectric constant tensor:
#      x y z
#    x 2.096940 0.000000 0.103410 
#    y 0.000000 1.960880 0.000000 
#    z 0.103410 0.000000 1.965020 
# 
# From -- ./inp_files/76709.got.cif
#   From: 2010.05.17/outbox.cif.g08.bks.cpg/sg13_39_cif.got.tgz:76709.got - 2010.06.03 16:44:36.
