data_PCOD9227659
_publ_section_title
;
Structure prediction by ZEFSAII (Michael W. Deem and Ramdas Pophale) SiO2 
 PCOD9227659
Probable space group: P 2/C
;
_chemical_formula_sum "Si O2"
_cell_formula_units_Z 32
_cell_length_a 15.275534
_cell_length_b 11.311157
_cell_length_c 14.043096
_cell_angle_alpha 90.000000
_cell_angle_beta 139.362648
_cell_angle_gamma 90.000000
_cell_volume 1580.253434
_symmetry_space_group_name_H-M "P 2/C"
_symmetry_group_IT_number 13
_symmetry_cell_setting 'monoclinic'
loop_
_space_group_symop_operation_xyz
x,y,z
-x,y,1/2-z
-x,-y,-z
x,-y,1/2+z
loop_
_atom_site_type_symbol
_atom_site_label
_atom_site_fract_x
_atom_site_fract_y
_atom_site_fract_z
Si Si1 0.146757 0.915884 0.336241
Si Si2 0.681467 0.336754 0.139691
Si Si3 0.146742 0.445451 0.381911
Si Si4 0.361481 0.107392 0.178131
Si Si5 0.648707 0.059066 0.125022
Si Si6 0.205939 0.330254 0.818074
Si Si7 0.497042 0.647087 0.645530
Si Si8 0.843001 0.496032 0.889986
O O1 0.241499 0.888709 0.505034
O O2 0.132933 0.794568 0.264729
O O3 0.000000 0.956874 0.250000
O O4 0.239682 0.001750 0.350049
O O5 0.735008 0.384439 0.082670
O O6 0.646051 0.199218 0.100590
O O7 0.562156 0.398946 0.101584
O O8 0.796978 0.377296 0.309555
O O9 0.129730 0.570231 0.314778
O O10 0.182839 0.470642 0.520858
O O11 0.000000 0.383717 0.250000
O O12 0.500000 0.052126 0.250000
O O13 0.688000 0.044671 0.267703
O O14 0.585771 0.236846 0.245184
O O15 0.500000 0.000000 0.000000
O O16 0.218645 0.390093 0.725081
O O17 0.348831 0.318364 0.989515
O O18 0.500000 0.579319 0.750000
O O19 0.000000 0.500000 0.000000
#
# Coordination Sequence:
#
# PCOD9227659 Si02
#       8
#     4   4   4   4   4   4   4   4
#     4  12  25  41  67 110 134 171 237 297 347 421
#     4  10  23  40  70  95 132 181 230 280 351 412
#     4  11  22  42  64  96 139 187 218 280 364 428
#     4  10  19  41  70  93 127 185 225 272 353 407
#     4  11  23  44  71  96 136 189 236 281 354 438
#     4  11  22  39  67  95 132 176 232 288 335 428
#     4  10  18  37  67  95 121 170 231 273 334 397
#     4  11  23  41  64 100 135 185 226 277 365 430
#
# _framework density 20.249915999999999
#
# number of rings (size 3 to 8) (size 9 to 14) (size 15 to 20)
#    0.000    1.250    6.250    1.875    1.750    3.000 
#    2.250    1.875    0.000    0.000    0.000    0.000 
#    0.000    0.000    0.000    0.000    0.000    0.000 
#
# Total GULP energy -178167.877211 kJ/mol
# GULP energy per Si atom -5567.746163 kJ/mol
# Density = 2.020383 g / cm^3
# Si number density = 20.249916 Si / 1000 Ang^3
#
#
#
# Elastic Constant Matrix: (Units=GPa)
#
#
# Indices 1 2 3 4 5 6 
#
# 1 170.4843 44.6072 43.9634 0.0000 -6.8455 0.0000
# 2 44.6072 81.0156 22.8049 0.0000 -5.7822 0.0000
# 3 43.9634 22.8049 82.0562 0.0000 -2.0705 0.0000
# 4 0.0000 0.0000 0.0000 17.2256 0.0000 4.9836
# 5 -6.8455 -5.7822 -2.0705 0.0000 51.4325 0.0000
# 6 0.0000 0.0000 0.0000 4.9836 0.0000 14.8115
#
#
#
# Elastic Compliance Matrix: (Units=1/GPa)
#
#
# Indices 1 2 3 4 5 6 
#
# 1 0.007539 -0.003234 -0.003127 0.000000 0.000514 0.000000
# 2 -0.003234 0.014873 -0.002372 0.000000 0.001146 0.000000
# 3 -0.003127 -0.002372 0.014519 0.000000 -0.000098 0.000000
# 4 0.000000 0.000000 0.000000 0.064314 0.000000 -0.021640
# 5 0.000514 0.001146 -0.000098 0.000000 0.019636 0.000000
# 6 0.000000 0.000000 0.000000 -0.021640 0.000000 0.074796
#
#
# Mechanical properties :
#
#
# Convention : Reuss Voigt Hill
#
# Bulk Modulus (GPa) = 51.37504 61.81191 56.59347
# Shear Modulus (GPa) = 22.76530 31.50596 27.13563
#
# Velocity S-wave (km/s) = 3.35657 3.94871 3.66462
# Velocity P-wave (km/s) = 6.35985 7.16802 6.77600
#
# Compressibility (1/GPa) = 0.01946471
#
# Stress axis : x y z
#
# Youngs Moduli (GPa) = 132.64520 67.23415 68.87485
#
# Poissons Ratio (x) = 0.21743 0.21540
# Poissons Ratio (y) = 0.42896 0.16337
# Poissons Ratio (z) = 0.41483 0.15948
#
# Static dielectric constant tensor:
#      x y z
#    x 1.866510 0.000000 0.058390 
#    y 0.000000 1.767330 0.000000 
#    z 0.058390 0.000000 1.866590 
# 
# From -- ./inp_files/53716.got.cif
#   From: 2010.05.17/outbox.cif.g08.bks.cpg/sg13_27_cif.got.tgz:53716.got - 2010.06.03 16:44:36.
