data_PCOD9227671
_publ_section_title
;
Structure prediction by ZEFSAII (Michael W. Deem and Ramdas Pophale) SiO2 
 PCOD9227671
Probable space group: P 2/C
;
_chemical_formula_sum "Si O2"
_cell_formula_units_Z 32
_cell_length_a 23.894825
_cell_length_b 9.825380
_cell_length_c 14.130996
_cell_angle_alpha 90.000000
_cell_angle_beta 27.383574
_cell_angle_gamma 90.000000
_cell_volume 1525.921219
_symmetry_space_group_name_H-M "P 2/C"
_symmetry_group_IT_number 13
_symmetry_cell_setting 'monoclinic'
loop_
_space_group_symop_operation_xyz
x,y,z
-x,y,1/2-z
-x,-y,-z
x,-y,1/2+z
loop_
_atom_site_type_symbol
_atom_site_label
_atom_site_fract_x
_atom_site_fract_y
_atom_site_fract_z
Si Si1 0.157675 0.118980 0.916569
Si Si2 0.884527 0.613450 0.264570
Si Si3 0.686597 0.961502 0.149626
Si Si4 0.058246 0.164635 0.558875
Si Si5 0.366473 0.037352 0.476368
Si Si6 0.742983 0.373812 0.163132
Si Si7 0.441082 0.176526 0.020531
Si Si8 0.104606 0.416034 0.966290
O O1 0.197224 0.080591 0.964132
O O2 0.087116 0.258807 0.016365
O O3 0.282981 0.130007 0.668215
O O4 0.093280 0.984479 0.972983
O O5 0.778267 0.635295 0.499675
O O6 0.853631 0.569806 0.205559
O O7 0.962385 0.752635 0.140678
O O8 0.980775 0.503257 0.161660
O O9 0.702081 0.001554 0.017721
O O10 0.585057 0.843335 0.307375
O O11 0.622102 0.087894 0.300814
O O12 0.174268 0.262011 0.404119
O O13 0.000000 0.152377 0.750000
O O14 0.500000 0.095095 0.250000
O O15 0.396764 0.901543 0.492103
O O16 0.608268 0.327498 0.391429
O O17 0.791095 0.517689 0.126564
#
# Coordination Sequence:
#
# PCOD9227671 Si02
#       8
#     4   4   4   4   4   4   4   4
#     4  11  21  35  54  92 118 142 188 251 285 331
#     4   9  21  40  58  76 107 163 194 227 288 349
#     4   9  18  33  55  90 118 142 183 239 295 330
#     4   9  18  33  57  81 112 147 194 234 280 344
#     4   9  18  33  56  85 120 149 182 228 286 338
#     4  10  18  38  59  78 110 157 189 227 283 351
#     4   9  17  33  60  84 112 154 189 227 280 363
#     4  10  22  37  54  81 115 147 197 235 281 341
#
# _framework density 20.970939999999999
#
# number of rings (size 3 to 8) (size 9 to 14) (size 15 to 20)
#    0.000    2.500    2.500    1.875    1.750    1.500 
#    2.250    1.875    0.000    2.250    0.000    0.000 
#    0.000    0.000    0.000    0.000    0.000    0.000 
#
# Total GULP energy -178633.300011 kJ/mol
# GULP energy per Si atom -5582.290625 kJ/mol
# Density = 2.092321 g / cm^3
# Si number density = 20.970940 Si / 1000 Ang^3
#
#
#
# Elastic Constant Matrix: (Units=GPa)
#
#
# Indices 1 2 3 4 5 6 
#
# 1 82.1140 1.7532 5.2921 0.0000 14.7758 0.0000
# 2 1.7532 84.1796 11.2964 0.0000 -2.4005 0.0000
# 3 5.2921 11.2964 32.3342 0.0000 2.0260 0.0000
# 4 0.0000 0.0000 0.0000 15.1280 0.0000 -1.4285
# 5 14.7758 -2.4005 2.0260 0.0000 15.2834 0.0000
# 6 0.0000 0.0000 0.0000 -1.4285 0.0000 10.5220
#
#
#
# Elastic Compliance Matrix: (Units=1/GPa)
#
#
# Indices 1 2 3 4 5 6 
#
# 1 0.014841 -0.000535 -0.001349 0.000000 -0.014254 0.000000
# 2 -0.000535 0.012583 -0.004502 0.000000 0.003090 0.000000
# 3 -0.001349 -0.004502 0.032957 0.000000 -0.003771 0.000000
# 4 0.000000 0.000000 0.000000 0.066961 0.000000 0.009091
# 5 -0.014254 0.003090 -0.003771 0.000000 0.080196 0.000000
# 6 0.000000 0.000000 0.000000 0.009091 0.000000 0.096273
#
#
# Mechanical properties :
#
#
# Convention : Reuss Voigt Hill
#
# Bulk Modulus (GPa) = 21.00424 26.14571 23.57498
# Shear Modulus (GPa) = 15.03974 20.20576 17.62275
#
# Velocity S-wave (km/s) = 2.68091 3.10742 2.90201
# Velocity P-wave (km/s) = 4.42952 5.03680 4.74289
#
# Compressibility (1/GPa) = 0.04760942
#
# Stress axis : x y z
#
# Youngs Moduli (GPa) = 67.37923 79.47380 30.34256
#
# Poissons Ratio (x) = 0.04248 0.04094
# Poissons Ratio (y) = 0.03601 0.13661
# Poissons Ratio (z) = 0.09091 0.35780
#
# Static dielectric constant tensor:
#      x y z
#    x 1.775800 0.000000 -0.033050 
#    y 0.000000 1.773510 0.000000 
#    z -0.033050 0.000000 1.787170 
# 
# From -- ./inp_files/58803.got.cif
#   From: 2010.05.17/outbox.cif.g08.bks.cpg/sg13_30_cif.got.tgz:58803.got - 2010.06.03 16:44:36.
