data_PCOD9227179
_publ_section_title
;
Structure prediction by ZEFSAII (Michael W. Deem and Ramdas Pophale) SiO2 
 PCOD9227179
Probable space group: P 2/C
;
_chemical_formula_sum "Si O2"
_cell_formula_units_Z 32
_cell_length_a 17.622708
_cell_length_b 5.626733
_cell_length_c 16.016665
_cell_angle_alpha 90.000000
_cell_angle_beta 97.553442
_cell_angle_gamma 90.000000
_cell_volume 1574.403652
_symmetry_space_group_name_H-M "P 2/C"
_symmetry_group_IT_number 13
_symmetry_cell_setting 'monoclinic'
loop_
_space_group_symop_operation_xyz
x,y,z
-x,y,1/2-z
-x,-y,-z
x,-y,1/2+z
loop_
_atom_site_type_symbol
_atom_site_label
_atom_site_fract_x
_atom_site_fract_y
_atom_site_fract_z
Si Si1 0.914600 0.414076 0.258502
Si Si2 0.163256 0.671434 0.398112
Si Si3 0.219439 0.051497 0.304021
Si Si4 0.842179 0.426548 0.420990
Si Si5 0.757795 0.915402 0.369452
Si Si6 0.392567 0.085457 0.553409
Si Si7 0.454255 0.692666 0.438785
Si Si8 0.677818 0.395165 0.104244
O O1 0.891504 0.617837 0.188422
O O2 0.902060 0.467244 0.354357
O O3 0.000000 0.337047 0.250000
O O4 0.851521 0.215536 0.230230
O O5 0.195451 0.934920 0.388039
O O6 0.126260 0.613236 0.481186
O O7 0.241971 0.522514 0.403128
O O8 0.232710 0.877071 0.228640
O O9 0.297241 0.196377 0.326841
O O10 0.792471 0.671584 0.413400
O O11 0.797899 0.172635 0.396899
O O12 0.670454 0.946812 0.385246
O O13 0.477076 0.165186 0.595127
O O14 0.355422 0.274974 0.483784
O O15 0.409050 0.857987 0.497761
O O16 0.500000 0.500000 0.500000
O O17 0.388940 0.569128 0.374808
#
# Coordination Sequence:
#
# PCOD9227179 Si02
#       8
#     4   4   4   4   4   4   4   4
#     4  10  24  44  63  94 136 169 211 272 335 401
#     4  11  21  38  68  91 124 171 219 271 325 390
#     4  10  22  38  61  92 124 171 217 268 333 386
#     4  11  23  41  66 100 128 169 225 270 327 395
#     4  11  22  40  63  96 128 167 222 278 318 390
#     4  10  19  34  58  87 121 164 211 269 324 379
#     4   9  19  32  54  87 122 158 209 261 325 386
#     4  10  18  33  58  87 117 157 211 261 312 386
#
# _framework density 20.325154999999999
#
# number of rings (size 3 to 8) (size 9 to 14) (size 15 to 20)
#    0.000    1.750    2.500    2.250    3.500    1.000 
#    0.000    0.625    0.000   18.000    0.000    0.000 
#    0.000    0.000    0.000    0.000    0.000    0.000 
#
# Total GULP energy -178253.045451 kJ/mol
# GULP energy per Si atom -5570.407670 kJ/mol
# Density = 2.027889 g / cm^3
# Si number density = 20.325155 Si / 1000 Ang^3
#
#
#
# Elastic Constant Matrix: (Units=GPa)
#
#
# Indices 1 2 3 4 5 6 
#
# 1 66.9776 -0.2297 35.7532 0.0000 -17.4727 0.0000
# 2 -0.2297 54.6569 2.9749 0.0000 -1.9794 0.0000
# 3 35.7532 2.9749 76.2749 0.0000 -16.4935 0.0000
# 4 0.0000 0.0000 0.0000 8.2575 0.0000 1.3648
# 5 -17.4727 -1.9794 -16.4935 0.0000 28.2407 0.0000
# 6 0.0000 0.0000 0.0000 1.3648 0.0000 1.9776
#
#
#
# Elastic Compliance Matrix: (Units=1/GPa)
#
#
# Indices 1 2 3 4 5 6 
#
# 1 0.021604 0.000853 -0.008306 0.000000 0.008576 0.000000
# 2 0.000853 0.018393 -0.000829 0.000000 0.001333 0.000000
# 3 -0.008306 -0.000829 0.018212 0.000000 0.005440 0.000000
# 4 0.000000 0.000000 0.000000 0.136694 0.000000 -0.094336
# 5 0.008576 0.001333 0.005440 0.000000 0.043986 0.000000
# 6 0.000000 0.000000 0.000000 -0.094336 0.000000 0.570765
#
#
# Mechanical properties :
#
#
# Convention : Reuss Voigt Hill
#
# Bulk Modulus (GPa) = 24.01163 30.54515 27.27839
# Shear Modulus (GPa) = 5.95167 18.32256 12.13712
#
# Velocity S-wave (km/s) = 1.71306 3.00571 2.44631
# Velocity P-wave (km/s) = 3.96890 5.20640 4.62919
#
# Compressibility (1/GPa) = 0.04164649
#
# Stress axis : x y z
#
# Youngs Moduli (GPa) = 46.28753 54.36864 54.90803
#
# Poissons Ratio (x) = -0.04640 0.45605
# Poissons Ratio (y) = -0.03950 0.04553
# Poissons Ratio (z) = 0.38445 0.04508
#
# Static dielectric constant tensor:
#      x y z
#    x 1.698070 0.000000 0.005640 
#    y 0.000000 1.835350 0.000000 
#    z 0.005640 0.000000 1.750810 
# 
# From -- ./inp_files/54654.got.cif
#   From: 2010.05.17/outbox.cif.g08.bks.cpg/sg13_28_cif.got.tgz:54654.got - 2010.06.03 16:44:36.
