data_PCOD9227046
_publ_section_title
;
Structure prediction by ZEFSAII (Michael W. Deem and Ramdas Pophale) SiO2 
 PCOD9227046
Probable space group: P 2/C
;
_chemical_formula_sum "Si O2"
_cell_formula_units_Z 28
_cell_length_a 9.297214
_cell_length_b 12.169904
_cell_length_c 21.703676
_cell_angle_alpha 90.000000
_cell_angle_beta 30.241340
_cell_angle_gamma 90.000000
_cell_volume 1236.791324
_symmetry_space_group_name_H-M "P 2/C"
_symmetry_group_IT_number 13
_symmetry_cell_setting 'monoclinic'
loop_
_space_group_symop_operation_xyz
x,y,z
-x,y,1/2-z
-x,-y,-z
x,-y,1/2+z
loop_
_atom_site_type_symbol
_atom_site_label
_atom_site_fract_x
_atom_site_fract_y
_atom_site_fract_z
Si Si1 0.311576 0.413072 0.690597
Si Si2 0.733274 0.095455 0.800923
Si Si3 0.157271 0.348061 0.289066
Si Si4 0.330673 0.149668 0.151559
Si Si5 0.516294 0.268606 0.521621
Si Si6 0.037405 0.623924 0.507658
Si Si7 0.179775 0.751606 0.340957
O O1 0.255628 0.541307 0.718877
O O2 0.301929 0.363195 0.625092
O O3 0.637223 0.382311 0.588390
O O4 0.140502 0.346365 0.805956
O O5 0.503635 0.179069 0.915768
O O6 0.831137 0.139600 0.697826
O O7 0.000000 0.101745 0.750000
O O8 0.608857 0.972931 0.848201
O O9 0.327942 0.242467 0.203870
O O10 0.824046 0.323749 0.397275
O O11 0.164563 0.359018 0.359491
O O12 0.000000 0.142885 0.250000
O O13 0.526359 0.196540 0.024028
O O14 0.003123 0.714099 0.466494
O O15 0.000000 0.500000 0.500000
O O16 0.500000 0.751469 0.250000
#
# Coordination Sequence:
#
# PCOD9227046 Si02
#       7
#     4   4   4   4   4   4   4
#     4   9  18  32  55  87 111 150 198 239 291 362
#     4  10  20  38  63  88 116 153 208 254 297 360
#     4  10  19  34  56  86 117 152 197 243 297 360
#     4   9  19  36  58  82 116 159 196 244 302 356
#     4   9  19  36  58  82 115 157 193 239 304 357
#     4  10  18  32  57  78 114 157 189 240 298 357
#     4   9  18  35  59  85 114 155 198 243 296 355
#
# _framework density 22.639227999999999
#
# number of rings (size 3 to 8) (size 9 to 14) (size 15 to 20)
#    0.000    2.571    1.429    1.286    0.000    0.571 
#    2.571    9.286    3.143    0.000    0.000    0.000 
#    0.000    0.000    0.000    0.000    0.000    0.000 
#
# Total GULP energy -156225.191863 kJ/mol
# GULP energy per Si atom -5579.471138 kJ/mol
# Density = 2.258770 g / cm^3
# Si number density = 22.639228 Si / 1000 Ang^3
#
#
#
# Elastic Constant Matrix: (Units=GPa)
#
#
# Indices 1 2 3 4 5 6 
#
# 1 88.2856 43.0039 37.3084 0.0000 16.4932 0.0000
# 2 43.0039 214.9340 85.0296 0.0000 42.9105 0.0000
# 3 37.3084 85.0296 110.6577 0.0000 25.4530 0.0000
# 4 0.0000 0.0000 0.0000 -33.2381 0.0000 -3.2344
# 5 16.4932 42.9105 25.4530 0.0000 44.3685 0.0000
# 6 0.0000 0.0000 0.0000 -3.2344 0.0000 28.4185
#
#
#
# Elastic Compliance Matrix: (Units=1/GPa)
#
#
# Indices 1 2 3 4 5 6 
#
# 1 0.013622 -0.000959 -0.003346 0.000000 -0.002217 0.000000
# 2 -0.000959 0.007451 -0.004408 0.000000 -0.004321 0.000000
# 3 -0.003346 -0.004408 0.014153 0.000000 -0.002612 0.000000
# 4 0.000000 0.000000 0.000000 -0.029756 0.000000 -0.003387
# 5 -0.002217 -0.004321 -0.002612 0.000000 0.029040 0.000000
# 6 0.000000 0.000000 0.000000 -0.003387 0.000000 0.034803
#
#
# Mechanical properties :
#
#
# Convention : Reuss Voigt Hill
#
# Bulk Modulus (GPa) = 56.18052 82.72900 69.45476
# Shear Modulus (GPa) = 53.95379 24.47882 39.21631
#
# Velocity S-wave (km/s) = 4.88710 3.29181 4.16652
# Velocity P-wave (km/s) = 7.53090 7.14631 7.34112
#
# Compressibility (1/GPa) = 0.01779976
#
# Stress axis : x y z
#
# Youngs Moduli (GPa) = 73.41001 134.20945 70.65693
#
# Poissons Ratio (x) = 0.12876 0.23639
# Poissons Ratio (y) = 0.07043 0.31146
# Poissons Ratio (z) = 0.24560 0.59161
#
# Static dielectric constant tensor:
#      x y z
#    x 1.959480 0.000000 -0.036460 
#    y 0.000000 1.811810 0.000000 
#    z -0.036460 0.000000 1.875150 
# 
# From -- ./inp_files/86519.got.cif
#   From: 2010.05.17/outbox.cif.g08.bks.cpg/sg13_44_cif.got.tgz:86519.got - 2010.06.03 16:44:36.
