data_PCOD9227050
_publ_section_title
;
Structure prediction by ZEFSAII (Michael W. Deem and Ramdas Pophale) SiO2 
 PCOD9227050
Probable space group: P 2/C
;
_chemical_formula_sum "Si O2"
_cell_formula_units_Z 28
_cell_length_a 19.120415
_cell_length_b 9.746254
_cell_length_c 16.968563
_cell_angle_alpha 90.000000
_cell_angle_beta 27.168457
_cell_angle_gamma 90.000000
_cell_volume 1443.855791
_symmetry_space_group_name_H-M "P 2/C"
_symmetry_group_IT_number 13
_symmetry_cell_setting 'monoclinic'
loop_
_space_group_symop_operation_xyz
x,y,z
-x,y,1/2-z
-x,-y,-z
x,-y,1/2+z
loop_
_atom_site_type_symbol
_atom_site_label
_atom_site_fract_x
_atom_site_fract_y
_atom_site_fract_z
Si Si1 0.084969 0.440135 0.539285
Si Si2 0.398390 0.408570 0.011721
Si Si3 0.239461 0.559264 0.053918
Si Si4 0.671472 0.942715 0.349000
Si Si5 0.556749 0.824759 0.611788
Si Si6 0.283916 0.633321 0.249470
Si Si7 0.277314 0.787485 0.767865
O O1 0.181675 0.449880 0.523022
O O2 0.129174 0.568639 0.439142
O O3 0.142523 0.305769 0.436199
O O4 0.911057 0.427822 0.740435
O O5 0.324776 0.424592 0.000560
O O6 0.343721 0.544899 0.114570
O O7 0.343650 0.286435 0.123209
O O8 0.580389 0.400383 0.825090
O O9 0.351687 0.688607 0.953799
O O10 0.665448 0.919448 0.448825
O O11 0.711100 0.793531 0.274578
O O12 0.500000 0.000000 0.500000
O O13 0.772016 0.061307 0.209246
O O14 0.500000 0.890865 0.750000
O O15 0.412098 0.790570 0.699384
#
# Coordination Sequence:
#
# PCOD9227050 Si02
#       7
#     4   4   4   4   4   4   4
#     4  10  23  36  56  82 111 157 187 236 279 334
#     4  10  18  32  57  84 107 139 183 241 270 331
#     4  11  21  36  56  82 118 142 198 231 283 335
#     4  10  19  36  57  86 116 140 182 239 273 336
#     4  11  19  34  60  84 109 146 184 232 283 333
#     4  10  18  33  57  82 112 139 183 230 287 319
#     4  10  20  37  60  86 114 145 190 231 283 331
#
# _framework density 19.392517000000002
#
# number of rings (size 3 to 8) (size 9 to 14) (size 15 to 20)
#    0.000    1.714    5.714    1.714    0.000    2.286 
#    0.000    3.571    0.000    1.714    0.000    0.000 
#    0.000    0.000    0.000    0.000    0.000    0.000 
#
# Total GULP energy -156166.010524 kJ/mol
# GULP energy per Si atom -5577.357519 kJ/mol
# Density = 1.934838 g / cm^3
# Si number density = 19.392517 Si / 1000 Ang^3
#
#
#
# Elastic Constant Matrix: (Units=GPa)
#
#
# Indices 1 2 3 4 5 6 
#
# 1 80.1510 27.2096 12.3685 0.0000 3.4538 0.0000
# 2 27.2096 129.5174 36.7859 0.0000 11.5658 0.0000
# 3 12.3685 36.7859 88.2557 0.0000 18.1476 0.0000
# 4 0.0000 0.0000 0.0000 19.3847 0.0000 8.9863
# 5 3.4538 11.5658 18.1476 0.0000 16.4340 0.0000
# 6 0.0000 0.0000 0.0000 8.9863 0.0000 8.4946
#
#
#
# Elastic Compliance Matrix: (Units=1/GPa)
#
#
# Indices 1 2 3 4 5 6 
#
# 1 0.013485 -0.002599 -0.000776 0.000000 -0.000148 0.000000
# 2 -0.002599 0.009357 -0.002968 0.000000 -0.002761 0.000000
# 3 -0.000776 -0.002968 0.015801 0.000000 -0.015197 0.000000
# 4 0.000000 0.000000 0.000000 0.101234 0.000000 -0.107095
# 5 -0.000148 -0.002761 -0.015197 0.000000 0.079606 0.000000
# 6 0.000000 0.000000 0.000000 -0.107095 0.000000 0.231018
#
#
# Mechanical properties :
#
#
# Convention : Reuss Voigt Hill
#
# Bulk Modulus (GPa) = 38.52594 50.07246 44.29920
# Shear Modulus (GPa) = 10.59682 23.63333 17.11508
#
# Velocity S-wave (km/s) = 2.34014 3.49475 2.97402
# Velocity P-wave (km/s) = 5.21643 6.49315 5.88949
#
# Compressibility (1/GPa) = 0.02595654
#
# Stress axis : x y z
#
# Youngs Moduli (GPa) = 74.15647 106.87672 63.28541
#
# Poissons Ratio (x) = 0.27781 0.04911
# Poissons Ratio (y) = 0.19276 0.18782
# Poissons Ratio (z) = 0.05755 0.31719
#
# Static dielectric constant tensor:
#      x y z
#    x 1.723510 0.000000 -0.007160 
#    y 0.000000 1.697300 0.000000 
#    z -0.007160 0.000000 1.711850 
# 
# From -- ./inp_files/70465.got.cif
#   From: 2010.05.17/outbox.cif.g08.bks.cpg/sg13_36_cif.got.tgz:70465.got - 2010.06.03 16:44:36.
