data_PCOD9227973
_publ_section_title
;
Structure prediction by ZEFSAII (Michael W. Deem and Ramdas Pophale) SiO2 
 PCOD9227973
Probable space group: P 2/C
;
_chemical_formula_sum "Si O2"
_cell_formula_units_Z 24
_cell_length_a 11.858141
_cell_length_b 11.671531
_cell_length_c 25.056365
_cell_angle_alpha 90.000000
_cell_angle_beta 22.576667
_cell_angle_gamma 90.000000
_cell_volume 1331.381377
_symmetry_space_group_name_H-M "P 2/C"
_symmetry_group_IT_number 13
_symmetry_cell_setting 'monoclinic'
loop_
_space_group_symop_operation_xyz
x,y,z
-x,y,1/2-z
-x,-y,-z
x,-y,1/2+z
loop_
_atom_site_type_symbol
_atom_site_label
_atom_site_fract_x
_atom_site_fract_y
_atom_site_fract_z
Si Si1 0.736785 0.468106 0.508402
Si Si2 0.168419 0.989198 0.623772
Si Si3 0.851440 0.186261 0.713079
Si Si4 0.690865 0.758154 0.979453
Si Si5 0.234222 0.377335 0.606116
Si Si6 0.714949 0.389174 0.705788
O O1 0.852669 0.342242 0.440928
O O2 0.668812 0.538315 0.483679
O O3 0.454425 0.441269 0.668269
O O4 0.983505 0.540659 0.431037
O O5 0.119255 0.857011 0.630088
O O6 0.000000 0.026895 0.750000
O O7 0.500000 0.000000 0.500000
O O8 0.042309 0.070881 0.632332
O O9 0.786199 0.255946 0.687486
O O10 0.044850 0.277186 0.661642
O O11 0.541645 0.177936 0.879735
O O12 0.496005 0.687843 0.021789
O O13 0.000000 0.432669 0.750000
O O14 0.500000 0.400298 0.750000
#
# Coordination Sequence:
#
# PCOD9227973 Si02
#       6
#     4   4   4   4   4   4
#     4  10  21  34  55  82 109 137 180 222 269 327
#     4  12  20  32  53  77 111 146 177 206 254 324
#     4   9  18  34  52  74 104 143 180 212 262 318
#     4  10  19  31  49  78 114 142 166 209 260 322
#     4   9  16  30  51  77 117 146 166 203 266 334
#     4  10  21  39  60  75 100 141 187 235 273 308
#
# _framework density 18.026391
#
# number of rings (size 3 to 8) (size 9 to 14) (size 15 to 20)
#    0.000    2.000    3.333    2.500    0.000    2.000 
#    0.000    0.000    0.000    5.000    0.000    0.000 
#    0.000    0.000    0.000    0.000    0.000    0.000 
#
# Total GULP energy -133703.282703 kJ/mol
# GULP energy per Si atom -5570.970113 kJ/mol
# Density = 1.798536 g / cm^3
# Si number density = 18.026391 Si / 1000 Ang^3
#
#
#
# Elastic Constant Matrix: (Units=GPa)
#
#
# Indices 1 2 3 4 5 6 
#
# 1 49.8736 22.3574 11.4590 0.0000 -11.1006 0.0000
# 2 22.3574 88.9268 17.9954 0.0000 -5.3046 0.0000
# 3 11.4590 17.9954 40.8433 0.0000 -5.5805 0.0000
# 4 0.0000 0.0000 0.0000 26.1988 0.0000 -1.0413
# 5 -11.1006 -5.3046 -5.5805 0.0000 22.4159 0.0000
# 6 0.0000 0.0000 0.0000 -1.0413 0.0000 16.4231
#
#
#
# Elastic Compliance Matrix: (Units=1/GPa)
#
#
# Indices 1 2 3 4 5 6 
#
# 1 0.025469 -0.005072 -0.003470 0.000000 0.010549 0.000000
# 2 -0.005072 0.013413 -0.004551 0.000000 -0.000471 0.000000
# 3 -0.003470 -0.004551 0.028034 0.000000 0.004184 0.000000
# 4 0.000000 0.000000 0.000000 0.038266 0.000000 0.002426
# 5 0.010549 -0.000471 0.004184 0.000000 0.050765 0.000000
# 6 0.000000 0.000000 0.000000 0.002426 0.000000 0.061044
#
#
# Mechanical properties :
#
#
# Convention : Reuss Voigt Hill
#
# Bulk Modulus (GPa) = 24.55117 31.47412 28.01264
# Shear Modulus (GPa) = 19.47385 21.52970 20.50178
#
# Velocity S-wave (km/s) = 3.29035 3.45968 3.37608
# Velocity P-wave (km/s) = 5.29947 5.78421 5.54714
#
# Compressibility (1/GPa) = 0.04073126
#
# Stress axis : x y z
#
# Youngs Moduli (GPa) = 39.26270 74.55309 35.67083
#
# Poissons Ratio (x) = 0.37813 0.12377
# Poissons Ratio (y) = 0.19914 0.16234
# Poissons Ratio (z) = 0.13623 0.33930
#
# Static dielectric constant tensor:
#      x y z
#    x 1.665290 0.000000 -0.006040 
#    y 0.000000 1.651100 0.000000 
#    z -0.006040 0.000000 1.652310 
# 
# From -- ./inp_files/15862.got.cif
#   From: 2010.05.17/outbox.cif.g08.bks.cpg/sg13_8_cif.got.tgz:15862.got - 2010.06.03 16:44:36.
