data_PCOD9227148
_publ_section_title
;
Structure prediction by ZEFSAII (Michael W. Deem and Ramdas Pophale) SiO2 
 PCOD9227148
Probable space group: P 2/C
;
_chemical_formula_sum "Si O2"
_cell_formula_units_Z 14
_cell_length_a 13.453219
_cell_length_b 10.446264
_cell_length_c 4.959603
_cell_angle_alpha 90.000000
_cell_angle_beta 62.813019
_cell_angle_gamma 90.000000
_cell_volume 619.997510
_symmetry_space_group_name_H-M "P 2/C"
_symmetry_group_IT_number 13
_symmetry_cell_setting 'monoclinic'
loop_
_space_group_symop_operation_xyz
x,y,z
-x,y,1/2-z
-x,-y,-z
x,-y,1/2+z
loop_
_atom_site_type_symbol
_atom_site_label
_atom_site_fract_x
_atom_site_fract_y
_atom_site_fract_z
Si Si1 0.386593 0.152550 0.303727
Si Si2 0.242587 0.197657 0.021175
Si Si3 0.628057 0.590450 0.937435
Si Si4 0.000000 0.093478 0.250000
O O1 0.500000 0.081328 0.250000
O O2 0.315451 0.190598 0.656812
O O3 0.433031 0.281259 0.092091
O O4 0.300928 0.104380 0.175668
O O5 0.254327 0.336684 0.150779
O O6 0.115316 0.170037 0.117000
O O7 0.611114 0.483428 0.735191
O O8 0.000000 0.000000 0.500000
#
# Coordination Sequence:
#
# PCOD9227148 Si02
#       4
#     4   4   4   2
#     4  10  20  35  59  87 130 167 191 235 285 347
#     4  10  22  39  59  91 122 149 209 244 297 344
#     4  10  18  33  55  89 127 165 198 229 278 346
#     4  12  26  46  74  86 104 150 208 266 306 356
#
# _framework density 22.580739000000001
#
# number of rings (size 3 to 8) (size 9 to 14) (size 15 to 20)
#    1.714    0.000    2.857    2.571    0.000    1.143 
#    0.000    1.429    0.000   17.143    0.000    0.000 
#    0.000    0.000    0.000    0.000    0.000    0.000 
#
# Total GULP energy -77984.685736 kJ/mol
# GULP energy per Si atom -5570.334695 kJ/mol
# Density = 2.252934 g / cm^3
# Si number density = 22.580739 Si / 1000 Ang^3
#
#
#
# Elastic Constant Matrix: (Units=GPa)
#
#
# Indices 1 2 3 4 5 6 
#
# 1 221.5876 34.4473 89.5937 0.0000 -8.2320 0.0000
# 2 34.4473 68.0187 17.3251 0.0000 -0.8571 0.0000
# 3 89.5937 17.3251 149.0031 0.0000 22.1467 0.0000
# 4 0.0000 0.0000 0.0000 21.6561 0.0000 4.6162
# 5 -8.2320 -0.8571 22.1467 0.0000 58.4035 0.0000
# 6 0.0000 0.0000 0.0000 4.6162 0.0000 45.3840
#
#
#
# Elastic Compliance Matrix: (Units=1/GPa)
#
#
# Indices 1 2 3 4 5 6 
#
# 1 0.006602 -0.002277 -0.004068 0.000000 0.002440 0.000000
# 2 -0.002277 0.015985 -0.000505 0.000000 0.000105 0.000000
# 3 -0.004068 -0.000505 0.009858 0.000000 -0.004319 0.000000
# 4 0.000000 0.000000 0.000000 0.047200 0.000000 -0.004801
# 5 0.002440 0.000105 -0.004319 0.000000 0.019105 0.000000
# 6 0.000000 0.000000 0.000000 -0.004801 0.000000 0.022523
#
#
# Mechanical properties :
#
#
# Convention : Reuss Voigt Hill
#
# Bulk Modulus (GPa) = 53.34641 80.14908 66.74774
# Shear Modulus (GPa) = 35.40571 44.90495 40.15533
#
# Velocity S-wave (km/s) = 3.96404 4.46425 4.22156
# Velocity P-wave (km/s) = 6.68039 7.88316 7.30657
#
# Compressibility (1/GPa) = 0.01874540
#
# Stress axis : x y z
#
# Youngs Moduli (GPa) = 151.46667 62.55905 101.44284
#
# Poissons Ratio (x) = 0.14243 0.41263
# Poissons Ratio (y) = 0.34485 0.05126
# Poissons Ratio (z) = 0.61611 0.03161
#
# Static dielectric constant tensor:
#      x y z
#    x 2.001460 0.000000 -0.004400 
#    y 0.000000 1.951070 0.000000 
#    z -0.004400 0.000000 1.883120 
# 
# From -- ./inp_files/2924.got.cif
#   From: 2010.05.17/outbox.cif.g08.bks.cpg/sg13_2_cif.got.tgz:2924.got - 2010.06.03 16:44:36.
