data_PCOD9227321
_publ_section_title
;
Structure prediction by ZEFSAII (Michael W. Deem and Ramdas Pophale) SiO2 
 PCOD9227321
Probable space group: P 2/C
;
_chemical_formula_sum "Si O2"
_cell_formula_units_Z 32
_cell_length_a 28.662842
_cell_length_b 9.191766
_cell_length_c 21.517563
_cell_angle_alpha 90.000000
_cell_angle_beta 162.829160
_cell_angle_gamma 90.000000
_cell_volume 1673.631213
_symmetry_space_group_name_H-M "P 2/C"
_symmetry_group_IT_number 13
_symmetry_cell_setting 'monoclinic'
loop_
_space_group_symop_operation_xyz
x,y,z
-x,y,1/2-z
-x,-y,-z
x,-y,1/2+z
loop_
_atom_site_type_symbol
_atom_site_label
_atom_site_fract_x
_atom_site_fract_y
_atom_site_fract_z
Si Si1 0.607605 0.157132 0.255955
Si Si2 0.127999 0.769838 0.057974
Si Si3 0.269498 0.790379 0.782157
Si Si4 0.481922 0.327823 0.979512
Si Si5 0.251540 0.056362 0.832294
Si Si6 0.830417 0.781918 0.146902
Si Si7 0.127567 0.042690 0.987972
Si Si8 0.984999 0.462033 0.552915
O O1 0.578692 0.269298 0.162622
O O2 0.683483 0.227924 0.413641
O O3 0.745019 0.049913 0.404879
O O4 0.436560 0.089832 0.053674
O O5 0.305561 0.726026 0.264947
O O6 0.147310 0.848054 0.150445
O O7 0.066216 0.884270 0.928674
O O8 0.037458 0.618023 0.944431
O O9 0.446039 0.742116 0.991299
O O10 0.226435 0.907465 0.674369
O O11 0.163880 0.648643 0.635590
O O12 0.233190 0.883390 0.797152
O O13 0.500000 0.500000 0.000000
O O14 0.204898 0.107319 0.841484
O O15 0.982365 0.844141 0.302433
O O16 0.877471 0.631266 0.239937
O O17 0.000000 0.500000 0.500000
#
# Coordination Sequence:
#
# PCOD9227321 Si02
#       8
#     4   4   4   4   4   4   4   4
#     4  10  21  38  58  79 112 153 197 231 287 348
#     4  10  19  34  58  85 112 136 189 240 285 327
#     4   9  19  33  56  86 108 137 184 238 284 325
#     4  10  18  34  59  86 109 141 188 241 284 337
#     4  10  20  35  58  85 108 147 190 241 278 332
#     4  11  22  36  58  80 116 156 192 230 286 349
#     4   9  20  35  58  80 107 145 185 235 278 334
#     4  11  21  33  55  87 117 148 186 234 287 343
#
# _framework density 19.120101999999999
#
# number of rings (size 3 to 8) (size 9 to 14) (size 15 to 20)
#    0.000    2.000    2.500    1.500    1.750    4.500 
#    0.000    0.000    8.250    0.000    0.000    0.000 
#    0.000    0.000    0.000    0.000    0.000    0.000 
#
# Total GULP energy -178373.165079 kJ/mol
# GULP energy per Si atom -5574.161409 kJ/mol
# Density = 1.907658 g / cm^3
# Si number density = 19.120102 Si / 1000 Ang^3
#
#
#
# Elastic Constant Matrix: (Units=GPa)
#
#
# Indices 1 2 3 4 5 6 
#
# 1 61.2440 15.5353 9.1339 0.0000 5.8139 0.0000
# 2 15.5353 102.2626 6.7808 0.0000 -2.4195 0.0000
# 3 9.1339 6.7808 44.4967 0.0000 -4.7377 0.0000
# 4 0.0000 0.0000 0.0000 18.7645 0.0000 7.8776
# 5 5.8139 -2.4195 -4.7377 0.0000 27.0345 0.0000
# 6 0.0000 0.0000 0.0000 7.8776 0.0000 25.3761
#
#
#
# Elastic Compliance Matrix: (Units=1/GPa)
#
#
# Indices 1 2 3 4 5 6 
#
# 1 0.018008 -0.002596 -0.003809 0.000000 -0.004772 0.000000
# 2 -0.002596 0.010263 -0.000891 0.000000 0.001321 0.000000
# 3 -0.003809 -0.000891 0.023916 0.000000 0.004931 0.000000
# 4 0.000000 0.000000 0.000000 0.061278 0.000000 -0.019023
# 5 -0.004772 0.001321 0.004931 0.000000 0.038998 0.000000
# 6 0.000000 0.000000 0.000000 -0.019023 0.000000 0.045313
#
#
# Mechanical properties :
#
#
# Convention : Reuss Voigt Hill
#
# Bulk Modulus (GPa) = 26.59839 30.10035 28.34937
# Shear Modulus (GPa) = 22.23216 26.00525 24.11870
#
# Velocity S-wave (km/s) = 3.41363 3.69195 3.55552
# Velocity P-wave (km/s) = 5.42942 5.82675 5.63159
#
# Compressibility (1/GPa) = 0.03759627
#
# Stress axis : x y z
#
# Youngs Moduli (GPa) = 55.53157 97.43341 41.81273
#
# Poissons Ratio (x) = 0.25294 0.15927
# Poissons Ratio (y) = 0.14416 0.03723
# Poissons Ratio (z) = 0.21152 0.08677
#
# Static dielectric constant tensor:
#      x y z
#    x 1.725030 0.000000 0.036260 
#    y 0.000000 1.706620 0.000000 
#    z 0.036260 0.000000 1.686790 
# 
# From -- ./inp_files/78062.got.cif
#   From: 2010.05.17/outbox.cif.g08.bks.cpg/sg13_40_cif.got.tgz:78062.got - 2010.06.03 16:44:36.
