data_PCOD9227685
_publ_section_title
;
Structure prediction by ZEFSAII (Michael W. Deem and Ramdas Pophale) SiO2 
 PCOD9227685
Probable space group: P 2/C
;
_chemical_formula_sum "Si O2"
_cell_formula_units_Z 30
_cell_length_a 12.353126
_cell_length_b 5.537818
_cell_length_c 26.715452
_cell_angle_alpha 90.000000
_cell_angle_beta 134.492172
_cell_angle_gamma 90.000000
_cell_volume 1303.702297
_symmetry_space_group_name_H-M "P 2/C"
_symmetry_group_IT_number 13
_symmetry_cell_setting 'monoclinic'
loop_
_space_group_symop_operation_xyz
x,y,z
-x,y,1/2-z
-x,-y,-z
x,-y,1/2+z
loop_
_atom_site_type_symbol
_atom_site_label
_atom_site_fract_x
_atom_site_fract_y
_atom_site_fract_z
Si Si1 0.117381 0.964354 0.649814
Si Si2 0.349553 0.832532 0.302277
Si Si3 0.300184 0.103468 0.374428
Si Si4 0.516975 0.560574 0.880953
Si Si5 0.364424 0.631635 0.985172
Si Si6 0.000000 0.593059 0.750000
Si Si7 0.969110 0.451101 0.630430
Si Si8 0.389993 0.878436 0.668268
O O1 0.038072 0.703433 0.630818
O O2 0.233213 0.964922 0.640837
O O3 0.224208 0.018893 0.732336
O O4 0.014013 0.204345 0.617044
O O5 0.376954 0.550116 0.303872
O O6 0.306968 0.853832 0.347319
O O7 0.507212 0.932972 0.329596
O O8 0.437055 0.241719 0.390136
O O9 0.330439 0.123204 0.443174
O O10 0.143969 0.238219 0.310453
O O11 0.632933 0.666560 0.878997
O O12 0.592786 0.368802 0.942928
O O13 0.211272 0.480027 0.929697
O O14 0.500000 0.500000 0.000000
O O15 0.020651 0.442002 0.705590
O O16 0.500000 0.803997 0.750000
#
# Coordination Sequence:
#
# PCOD9227685 Si02
#       8
#     4   4   4   4   4   2   4   4
#     4  11  24  42  66  98 135 170 224 282 342 398
#     4  10  20  35  62  96 124 172 219 282 332 397
#     4   9  18  36  54  91 129 165 217 271 329 393
#     4  10  20  38  63  91 125 169 227 270 328 400
#     4   9  21  44  63  92 132 178 227 268 329 406
#     4  10  18  38  60  90 136 170 216 268 340 390
#     4  11  24  43  65  97 137 177 220 276 337 398
#     4   9  22  38  62  93 126 166 215 281 340 392
#
# _framework density 23.011389000000001
#
# number of rings (size 3 to 8) (size 9 to 14) (size 15 to 20)
#    0.000    2.133    1.333    0.800    5.600    1.600 
#   21.600    1.333    0.000    0.000    0.000    0.000 
#    0.000    0.000    0.000    0.000    0.000    0.000 
#
# Total GULP energy -167320.484567 kJ/mol
# GULP energy per Si atom -5577.349486 kJ/mol
# Density = 2.295901 g / cm^3
# Si number density = 23.011389 Si / 1000 Ang^3
#
#
#
# Elastic Constant Matrix: (Units=GPa)
#
#
# Indices 1 2 3 4 5 6 
#
# 1 136.7783 49.2545 49.6573 0.0000 9.2534 0.0000
# 2 49.2545 77.6176 22.9450 0.0000 2.9724 0.0000
# 3 49.6573 22.9450 82.9787 0.0000 4.2084 0.0000
# 4 0.0000 0.0000 0.0000 16.1397 0.0000 6.0762
# 5 9.2534 2.9724 4.2084 0.0000 37.2404 0.0000
# 6 0.0000 0.0000 0.0000 6.0762 0.0000 35.7362
#
#
#
# Elastic Compliance Matrix: (Units=1/GPa)
#
#
# Indices 1 2 3 4 5 6 
#
# 1 0.011308 -0.005591 -0.005130 0.000000 -0.001784 0.000000
# 2 -0.005591 0.016812 -0.001313 0.000000 0.000196 0.000000
# 3 -0.005130 -0.001313 0.015504 0.000000 -0.000372 0.000000
# 4 0.000000 0.000000 0.000000 0.066196 0.000000 -0.011255
# 5 -0.001784 0.000196 -0.000372 0.000000 0.027322 0.000000
# 6 0.000000 0.000000 0.000000 -0.011255 0.000000 0.029897
#
#
# Mechanical properties :
#
#
# Convention : Reuss Voigt Hill
#
# Bulk Modulus (GPa) = 51.13850 60.12090 55.62970
# Shear Modulus (GPa) = 25.30044 29.52445 27.41244
#
# Velocity S-wave (km/s) = 3.31943 3.58584 3.45520
# Velocity P-wave (km/s) = 6.07971 6.58237 6.33603
#
# Compressibility (1/GPa) = 0.01955474
#
# Stress axis : x y z
#
# Youngs Moduli (GPa) = 88.43611 59.48112 64.50146
#
# Poissons Ratio (x) = 0.33254 0.33092
# Poissons Ratio (y) = 0.49441 0.08470
# Poissons Ratio (z) = 0.45372 0.07811
#
# Static dielectric constant tensor:
#      x y z
#    x 1.839320 0.000000 0.011480 
#    y 0.000000 1.928670 0.000000 
#    z 0.011480 0.000000 2.024410 
# 
# From -- ./inp_files/96449.got.cif
#   From: 2010.05.17/outbox.cif.g08.bks.cpg/sg13_49_cif.got.tgz:96449.got - 2010.06.03 16:44:36.
