data_PCOD9227574
_publ_section_title
;
Structure prediction by ZEFSAII (Michael W. Deem and Ramdas Pophale) SiO2 
 PCOD9227574
Probable space group: P 2/C
;
_chemical_formula_sum "Si O2"
_cell_formula_units_Z 28
_cell_length_a 21.198414
_cell_length_b 5.636652
_cell_length_c 17.047259
_cell_angle_alpha 90.000000
_cell_angle_beta 38.883901
_cell_angle_gamma 90.000000
_cell_volume 1278.680295
_symmetry_space_group_name_H-M "P 2/C"
_symmetry_group_IT_number 13
_symmetry_cell_setting 'monoclinic'
loop_
_space_group_symop_operation_xyz
x,y,z
-x,y,1/2-z
-x,-y,-z
x,-y,1/2+z
loop_
_atom_site_type_symbol
_atom_site_label
_atom_site_fract_x
_atom_site_fract_y
_atom_site_fract_z
Si Si1 0.105822 0.850167 0.547180
Si Si2 0.206667 0.337623 0.412753
Si Si3 0.295599 0.986841 0.131740
Si Si4 0.871797 0.765627 0.795556
Si Si5 0.354958 0.607101 0.178927
Si Si6 0.283098 0.610952 0.007805
Si Si7 0.445330 0.631435 0.445045
O O1 0.138664 0.100445 0.475626
O O2 0.153039 0.597803 0.473437
O O3 0.135348 0.883806 0.610859
O O4 0.986859 0.798104 0.660466
O O5 0.284076 0.386441 0.267478
O O6 0.272437 0.319823 0.428450
O O7 0.291085 0.834461 0.215083
O O8 0.297802 0.827006 0.051372
O O9 0.197438 0.139711 0.207331
O O10 0.398197 0.132607 0.027072
O O11 0.822118 0.510357 0.862807
O O12 0.416351 0.561503 0.039521
O O13 0.434841 0.646294 0.171045
O O14 0.377201 0.435604 0.935975
#
# Coordination Sequence:
#
# PCOD9227574 Si02
#       7
#     4   4   4   4   4   4   4
#     4  10  22  37  61  90 122 159 201 251 306 363
#     4  11  23  39  59  92 127 155 196 257 312 350
#     4  10  18  36  62  86 113 159 207 250 292 366
#     4   9  19  35  62  86 118 156 208 246 299 364
#     4  10  22  37  60  84 124 157 204 247 310 364
#     4   9  19  36  61  88 117 152 202 258 297 359
#     4   9  20  39  61  86 112 163 208 244 299 374
#
# _framework density 21.897576999999998
#
# number of rings (size 3 to 8) (size 9 to 14) (size 15 to 20)
#    0.000    2.286    1.429    0.429    4.000    1.714 
#    0.000    1.429    0.000    0.000    0.000    0.000 
#    0.000    0.000    0.000    0.000    0.000    0.000 
#
# Total GULP energy -155937.067906 kJ/mol
# GULP energy per Si atom -5569.180997 kJ/mol
# Density = 2.184774 g / cm^3
# Si number density = 21.897577 Si / 1000 Ang^3
#
#
#
# Elastic Constant Matrix: (Units=GPa)
#
#
# Indices 1 2 3 4 5 6 
#
# 1 69.1405 26.2298 32.5967 0.0000 -21.6923 0.0000
# 2 26.2298 74.0156 10.9423 0.0000 -8.4465 0.0000
# 3 32.5967 10.9423 38.0414 0.0000 -10.3291 0.0000
# 4 0.0000 0.0000 0.0000 22.8066 0.0000 7.7569
# 5 -21.6923 -8.4465 -10.3291 0.0000 15.3404 0.0000
# 6 0.0000 0.0000 0.0000 7.7569 0.0000 23.5916
#
#
#
# Elastic Compliance Matrix: (Units=1/GPa)
#
#
# Indices 1 2 3 4 5 6 
#
# 1 0.038156 -0.006266 -0.021023 0.000000 0.036350 0.000000
# 2 -0.006266 0.015632 0.000984 0.000000 0.000409 0.000000
# 3 -0.021023 0.000984 0.044169 0.000000 0.000554 0.000000
# 4 0.000000 0.000000 0.000000 0.049368 0.000000 -0.016232
# 5 0.036350 0.000409 0.000554 0.000000 0.117186 0.000000
# 6 0.000000 0.000000 0.000000 -0.016232 0.000000 0.047725
#
#
# Mechanical properties :
#
#
# Convention : Reuss Voigt Hill
#
# Bulk Modulus (GPa) = 22.05221 35.63724 28.84472
# Shear Modulus (GPa) = 13.15919 19.77630 16.46774
#
# Velocity S-wave (km/s) = 2.45407 3.00847 2.74530
# Velocity P-wave (km/s) = 4.25705 5.32707 4.82183
#
# Compressibility (1/GPa) = 0.04534694
#
# Stress axis : x y z
#
# Youngs Moduli (GPa) = 26.20803 63.96955 22.64050
#
# Poissons Ratio (x) = 0.40082 0.47597
# Poissons Ratio (y) = 0.16421 -0.02227
# Poissons Ratio (z) = 0.55097 -0.06292
#
# Static dielectric constant tensor:
#      x y z
#    x 1.831370 0.000000 -0.010760 
#    y 0.000000 1.894910 0.000000 
#    z -0.010760 0.000000 1.839730 
# 
# From -- ./inp_files/70260.got.cif
#   From: 2010.05.17/outbox.cif.g08.bks.cpg/sg13_36_cif.got.tgz:70260.got - 2010.06.03 16:44:36.
