data_PCOD9227704
_publ_section_title
;
Structure prediction by ZEFSAII (Michael W. Deem and Ramdas Pophale) SiO2 
 PCOD9227704
Probable space group: P 2/C
;
_chemical_formula_sum "Si O2"
_cell_formula_units_Z 32
_cell_length_a 28.195944
_cell_length_b 9.085896
_cell_length_c 9.539367
_cell_angle_alpha 90.000000
_cell_angle_beta 33.154669
_cell_angle_gamma 90.000000
_cell_volume 1336.542261
_symmetry_space_group_name_H-M "P 2/C"
_symmetry_group_IT_number 13
_symmetry_cell_setting 'monoclinic'
loop_
_space_group_symop_operation_xyz
x,y,z
-x,y,1/2-z
-x,-y,-z
x,-y,1/2+z
loop_
_atom_site_type_symbol
_atom_site_label
_atom_site_fract_x
_atom_site_fract_y
_atom_site_fract_z
Si Si1 0.762209 0.647434 0.575379
Si Si2 0.830287 0.739039 0.872764
Si Si3 0.993615 0.826878 0.983766
Si Si4 0.086763 0.604453 0.101285
Si Si5 0.574955 0.378247 0.672113
Si Si6 0.285269 0.745525 0.099159
Si Si7 0.525022 0.721310 0.838447
Si Si8 0.172947 0.922575 0.207010
O O1 0.843271 0.563804 0.448357
O O2 0.744005 0.632253 0.452102
O O3 0.771864 0.888669 0.292823
O O4 0.671478 0.627549 0.876632
O O5 0.854044 0.646076 0.677202
O O6 0.915779 0.744526 0.760712
O O7 0.743857 0.700223 0.173172
O O8 0.827425 0.907713 0.825940
O O9 0.957055 0.745017 0.212727
O O10 0.919140 0.837930 0.051926
O O11 0.000000 0.000000 0.000000
O O12 0.000000 0.524477 0.250000
O O13 0.500000 0.328570 0.750000
O O14 0.553963 0.549970 0.750311
O O15 0.555917 0.284653 0.857873
O O16 0.384947 0.787176 0.831932
O O17 0.216120 0.177018 0.477760
O O18 0.500000 0.781840 0.750000
#
# Coordination Sequence:
#
# PCOD9227704 Si02
#       8
#     4   4   4   4   4   4   4   4
#     4   9  19  32  54  78 107 145 175 217 278 328
#     4  10  19  29  50  73 113 145 184 228 255 297
#     4   8  15  28  45  72 100 141 182 225 257 295
#     4   9  18  32  46  77 110 151 190 220 263 311
#     4  10  18  38  63  83 105 133 165 227 297 338
#     4  10  21  34  49  83 109 138 180 223 269 331
#     4  10  22  36  59  87 107 123 171 233 285 331
#     4   8  18  30  49  73 108 142 182 211 260 304
#
# _framework density 23.942375999999999
#
# number of rings (size 3 to 8) (size 9 to 14) (size 15 to 20)
#    0.750    2.000    1.250    0.000    7.000    0.500 
#    0.000    0.000    0.000    3.750    3.250    3.500 
#    0.000    0.000    0.000    0.000    0.000    0.000 
#
# Total GULP energy -178288.243750 kJ/mol
# GULP energy per Si atom -5571.507617 kJ/mol
# Density = 2.388788 g / cm^3
# Si number density = 23.942376 Si / 1000 Ang^3
#
#
#
# Elastic Constant Matrix: (Units=GPa)
#
#
# Indices 1 2 3 4 5 6 
#
# 1 104.2794 6.9450 16.1169 0.0000 -8.2828 0.0000
# 2 6.9450 33.2703 19.3430 0.0000 -6.5146 0.0000
# 3 16.1169 19.3430 128.2292 0.0000 5.0127 0.0000
# 4 0.0000 0.0000 0.0000 13.7201 0.0000 -1.8134
# 5 -8.2828 -6.5146 5.0127 0.0000 41.1169 0.0000
# 6 0.0000 0.0000 0.0000 -1.8134 0.0000 11.0732
#
#
#
# Elastic Compliance Matrix: (Units=1/GPa)
#
#
# Indices 1 2 3 4 5 6 
#
# 1 0.009998 -0.001008 -0.001183 0.000000 0.001999 0.000000
# 2 -0.001008 0.034512 -0.005311 0.000000 0.005913 0.000000
# 3 -0.001183 -0.005311 0.008833 0.000000 -0.002156 0.000000
# 4 0.000000 0.000000 0.000000 0.074498 0.000000 0.012200
# 5 0.001999 0.005913 -0.002156 0.000000 0.025923 0.000000
# 6 0.000000 0.000000 0.000000 0.012200 0.000000 0.092306
#
#
# Mechanical properties :
#
#
# Convention : Reuss Voigt Hill
#
# Bulk Modulus (GPa) = 26.08203 38.95430 32.51816
# Shear Modulus (GPa) = 18.25791 28.07365 23.16578
#
# Velocity S-wave (km/s) = 2.76448 3.42797 3.11394
# Velocity P-wave (km/s) = 4.59424 5.65449 5.15172
#
# Compressibility (1/GPa) = 0.03834058
#
# Stress axis : x y z
#
# Youngs Moduli (GPa) = 100.01695 28.97505 113.21743
#
# Poissons Ratio (x) = 0.02921 0.13391
# Poissons Ratio (y) = 0.10083 0.60124
# Poissons Ratio (z) = 0.11829 0.15387
#
# Static dielectric constant tensor:
#      x y z
#    x 2.014390 0.000000 -0.020130 
#    y 0.000000 1.930260 0.000000 
#    z -0.020130 0.000000 1.988920 
# 
# From -- ./inp_files/24744.got.cif
#   From: 2010.05.17/outbox.cif.g08.bks.cpg/sg13_13_cif.got.tgz:24744.got - 2010.06.03 16:44:36.
