data_PCOD9227549
_publ_section_title
;
Structure prediction by ZEFSAII (Michael W. Deem and Ramdas Pophale) SiO2 
 PCOD9227549
Probable space group: P 2/C
;
_chemical_formula_sum "Si O2"
_cell_formula_units_Z 28
_cell_length_a 13.637776
_cell_length_b 12.188176
_cell_length_c 8.717149
_cell_angle_alpha 90.000000
_cell_angle_beta 124.350745
_cell_angle_gamma 90.000000
_cell_volume 1196.260688
_symmetry_space_group_name_H-M "P 2/C"
_symmetry_group_IT_number 13
_symmetry_cell_setting 'monoclinic'
loop_
_space_group_symop_operation_xyz
x,y,z
-x,y,1/2-z
-x,-y,-z
x,-y,1/2+z
loop_
_atom_site_type_symbol
_atom_site_label
_atom_site_fract_x
_atom_site_fract_y
_atom_site_fract_z
Si Si1 0.757352 0.143832 0.824300
Si Si2 0.122884 0.997738 0.305373
Si Si3 0.785549 0.489935 0.483506
Si Si4 0.917887 0.227074 0.328276
Si Si5 0.560111 0.396489 0.138612
Si Si6 0.905833 0.360718 0.867552
Si Si7 0.337275 0.285537 0.524113
O O1 0.775120 0.074976 0.683750
O O2 0.827187 0.255331 0.844570
O O3 0.649552 0.197321 0.827197
O O4 0.821037 0.063971 0.003022
O O5 0.000000 0.939748 0.250000
O O6 0.078314 0.095870 0.152403
O O7 0.697283 0.421040 0.299647
O O8 0.843794 0.419388 0.669582
O O9 0.891611 0.548700 0.487291
O O10 0.696627 0.590884 0.450943
O O11 0.783359 0.250073 0.167300
O O12 0.000000 0.251597 0.250000
O O13 0.965292 0.303820 0.506649
O O14 0.500000 0.374347 0.250000
O O15 0.561688 0.300483 0.013938
O O16 0.500000 0.500000 0.000000
#
# Coordination Sequence:
#
# PCOD9227549 Si02
#       7
#     4   4   4   4   4   4   4
#     4  10  21  37  62  88 134 174 230 289 323 379
#     4  10  18  36  62  88 126 179 235 283 327 376
#     4  11  21  38  61  90 135 168 225 255 324 407
#     4  10  18  36  60  85 131 181 219 266 322 373
#     4  12  23  42  68  94 126 172 218 284 345 392
#     4  11  21  39  56  91 137 187 218 266 308 398
#     4  10  21  39  60  92 134 171 224 268 324 405
#
# _framework density 23.406269999999999
#
# number of rings (size 3 to 8) (size 9 to 14) (size 15 to 20)
#    0.000    1.429    8.571    0.429    0.000    0.571 
#    7.714    0.000    0.000    0.000    0.000    4.000 
#    0.000    0.714    0.000    0.000    0.000    0.000 
#
# Total GULP energy -156128.362848 kJ/mol
# GULP energy per Si atom -5576.012959 kJ/mol
# Density = 2.335300 g / cm^3
# Si number density = 23.406270 Si / 1000 Ang^3
#
#
#
# Elastic Constant Matrix: (Units=GPa)
#
#
# Indices 1 2 3 4 5 6 
#
# 1 104.5658 39.1034 21.6623 0.0000 -23.6700 0.0000
# 2 39.1034 96.5526 47.3433 0.0000 -21.2982 0.0000
# 3 21.6623 47.3433 100.5202 0.0000 -0.6317 0.0000
# 4 0.0000 0.0000 0.0000 28.5567 0.0000 -16.9406
# 5 -23.6700 -21.2982 -0.6317 0.0000 40.0690 0.0000
# 6 0.0000 0.0000 0.0000 -16.9406 0.0000 46.5824
#
#
#
# Elastic Compliance Matrix: (Units=1/GPa)
#
#
# Indices 1 2 3 4 5 6 
#
# 1 0.012235 -0.003204 -0.001093 0.000000 0.005507 0.000000
# 2 -0.003204 0.016650 -0.007108 0.000000 0.006845 0.000000
# 3 -0.001093 -0.007108 0.013505 0.000000 -0.004211 0.000000
# 4 0.000000 0.000000 0.000000 0.044651 0.000000 0.016238
# 5 0.005507 0.006845 -0.004211 0.000000 0.031782 0.000000
# 6 0.000000 0.000000 0.000000 0.016238 0.000000 0.027373
#
#
# Mechanical properties :
#
#
# Convention : Reuss Voigt Hill
#
# Bulk Modulus (GPa) = 51.07526 57.53963 54.30745
# Shear Modulus (GPa) = 28.48459 35.94359 32.21409
#
# Velocity S-wave (km/s) = 3.49229 3.92297 3.71388
# Velocity P-wave (km/s) = 6.17495 6.71982 6.45314
#
# Compressibility (1/GPa) = 0.01957895
#
# Stress axis : x y z
#
# Youngs Moduli (GPa) = 81.73528 60.05892 74.04537
#
# Poissons Ratio (x) = 0.19245 0.08091
# Poissons Ratio (y) = 0.26191 0.52635
# Poissons Ratio (z) = 0.08932 0.42693
#
# Static dielectric constant tensor:
#      x y z
#    x 2.015520 0.000000 -0.058150 
#    y 0.000000 1.929710 0.000000 
#    z -0.058150 0.000000 1.962670 
# 
# From -- ./inp_files/19112.got.cif
#   From: 2010.05.17/outbox.cif.g08.bks.cpg/sg13_10_cif.got.tgz:19112.got - 2010.06.03 16:44:36.
