data_PCOD9227137
_publ_section_title
;
Structure prediction by ZEFSAII (Michael W. Deem and Ramdas Pophale) SiO2 
 PCOD9227137
Probable space group: P 2/C
;
_chemical_formula_sum "Si O2"
_cell_formula_units_Z 32
_cell_length_a 11.765681
_cell_length_b 21.072813
_cell_length_c 8.782708
_cell_angle_alpha 90.000000
_cell_angle_beta 122.291891
_cell_angle_gamma 90.000000
_cell_volume 1840.764103
_symmetry_space_group_name_H-M "P 2/C"
_symmetry_group_IT_number 13
_symmetry_cell_setting 'monoclinic'
loop_
_space_group_symop_operation_xyz
x,y,z
-x,y,1/2-z
-x,-y,-z
x,-y,1/2+z
loop_
_atom_site_type_symbol
_atom_site_label
_atom_site_fract_x
_atom_site_fract_y
_atom_site_fract_z
Si Si1 0.820214 0.949302 0.259008
Si Si2 0.156172 0.331894 0.330628
Si Si3 0.853279 0.194150 0.228081
Si Si4 0.370842 0.424284 0.862109
Si Si5 0.641846 0.705744 0.257565
Si Si6 0.322291 0.451081 0.470867
Si Si7 0.868712 0.922990 0.946479
Si Si8 0.347188 0.845588 0.185845
O O1 0.813120 0.936294 0.074642
O O2 0.717878 0.904112 0.273398
O O3 0.970252 0.931697 0.424186
O O4 0.809201 0.023579 0.291215
O O5 0.168132 0.267601 0.240544
O O6 0.237351 0.310294 0.540092
O O7 0.222375 0.398417 0.331857
O O8 0.000000 0.342342 0.250000
O O9 0.845982 0.146252 0.362847
O O10 0.000000 0.190092 0.250000
O O11 0.742563 0.171452 0.026266
O O12 0.349973 0.349020 0.862907
O O13 0.332156 0.441309 0.659646
O O14 0.296480 0.475516 0.913262
O O15 0.530499 0.435189 0.990129
O O16 0.500000 0.697930 0.250000
O O17 0.651520 0.779088 0.218925
O O18 0.500000 0.859078 0.250000
#
# Coordination Sequence:
#
# PCOD9227137 Si02
#       8
#     4   4   4   4   4   4   4   4
#     4  10  20  35  54  83 106 138 177 216 265 306
#     4   9  17  28  47  74 101 128 166 211 251 304
#     4  10  18  33  55  79 104 137 180 214 257 312
#     4   9  15  28  49  69  94 125 171 207 240 297
#     4   9  15  30  49  71  98 132 168 205 248 307
#     4   9  16  28  46  71  95 126 166 207 248 292
#     4  10  20  34  58  78 107 137 179 223 250 312
#     4  10  20  33  55  81 109 138 174 218 266 316
#
# _framework density 17.384086
#
# number of rings (size 3 to 8) (size 9 to 14) (size 15 to 20)
#    0.000    2.500    3.750    0.750    1.750    0.000 
#    0.000    6.875    0.000    0.000    3.250    0.000 
#    0.000    0.000    0.000    0.000    0.000    0.000 
#
# Total GULP energy -178144.870216 kJ/mol
# GULP energy per Si atom -5567.027194 kJ/mol
# Density = 1.734452 g / cm^3
# Si number density = 17.384086 Si / 1000 Ang^3
#
#
#
# Elastic Constant Matrix: (Units=GPa)
#
#
# Indices 1 2 3 4 5 6 
#
# 1 61.3593 35.9616 29.0780 0.0000 12.2156 0.0000
# 2 35.9616 131.9516 29.2482 0.0000 -5.5982 0.0000
# 3 29.0780 29.2482 41.5756 0.0000 11.8042 0.0000
# 4 0.0000 0.0000 0.0000 31.7234 0.0000 -1.7250
# 5 12.2156 -5.5982 11.8042 0.0000 17.3646 0.0000
# 6 0.0000 0.0000 0.0000 -1.7250 0.0000 31.5285
#
#
#
# Elastic Compliance Matrix: (Units=1/GPa)
#
#
# Indices 1 2 3 4 5 6 
#
# 1 0.027752 -0.005527 -0.011739 0.000000 -0.013325 0.000000
# 2 -0.005527 0.011348 -0.007758 0.000000 0.012820 0.000000
# 3 -0.011739 -0.007758 0.044716 0.000000 -0.024641 0.000000
# 4 0.000000 0.000000 0.000000 0.031617 0.000000 0.001730
# 5 -0.013325 0.012820 -0.024641 0.000000 0.087846 0.000000
# 6 0.000000 0.000000 0.000000 0.001730 0.000000 0.031812
#
#
# Mechanical properties :
#
#
# Convention : Reuss Voigt Hill
#
# Bulk Modulus (GPa) = 29.61196 47.05136 38.33166
# Shear Modulus (GPa) = 16.86935 25.49656 21.18296
#
# Velocity S-wave (km/s) = 3.11849 3.83386 3.49453
# Velocity P-wave (km/s) = 5.48065 6.83538 6.19516
#
# Compressibility (1/GPa) = 0.03377014
#
# Stress axis : x y z
#
# Youngs Moduli (GPa) = 36.03295 88.11835 22.36317
#
# Poissons Ratio (x) = 0.48702 0.26251
# Poissons Ratio (y) = 0.19915 0.17349
# Poissons Ratio (z) = 0.42298 0.68362
#
# Static dielectric constant tensor:
#      x y z
#    x 1.572630 0.000000 0.008370 
#    y 0.000000 1.647870 0.000000 
#    z 0.008370 0.000000 1.593270 
# 
# From -- ./inp_files/17237.got.cif
#   From: 2010.05.17/outbox.cif.g08.bks.cpg/sg13_9_cif.got.tgz:17237.got - 2010.06.03 16:44:36.
