data_PCOD9227620
_publ_section_title
;
Structure prediction by ZEFSAII (Michael W. Deem and Ramdas Pophale) SiO2 
 PCOD9227620
Probable space group: P 2/C
;
_chemical_formula_sum "Si O2"
_cell_formula_units_Z 22
_cell_length_a 10.785624
_cell_length_b 5.247459
_cell_length_c 13.902534
_cell_angle_alpha 90.000000
_cell_angle_beta 88.477185
_cell_angle_gamma 90.000000
_cell_volume 786.565486
_symmetry_space_group_name_H-M "P 2/C"
_symmetry_group_IT_number 13
_symmetry_cell_setting 'monoclinic'
loop_
_space_group_symop_operation_xyz
x,y,z
-x,y,1/2-z
-x,-y,-z
x,-y,1/2+z
loop_
_atom_site_type_symbol
_atom_site_label
_atom_site_fract_x
_atom_site_fract_y
_atom_site_fract_z
Si Si1 0.000000 0.570820 0.750000
Si Si2 0.589679 0.544883 0.877019
Si Si3 0.663324 0.277689 0.561179
Si Si4 0.814549 0.808849 0.367785
Si Si5 0.357234 0.918069 0.770729
Si Si6 0.104939 0.663719 0.944681
O O1 0.902718 0.384792 0.806697
O O2 0.942433 0.730079 0.661592
O O3 0.454618 0.442444 0.900688
O O4 0.689289 0.335633 0.899658
O O5 0.623237 0.635197 0.769821
O O6 0.624776 0.769393 0.951203
O O7 0.671796 0.020671 0.623189
O O8 0.782570 0.459411 0.571043
O O9 0.759862 0.000189 0.291175
O O10 0.868672 0.875712 0.472333
O O11 0.500000 0.023095 0.750000
O O12 0.000000 0.500000 0.000000
#
# Coordination Sequence:
#
# PCOD9227620 Si02
#       6
#     2   4   4   4   4   4
#     4  10  18  36  70  88 124 180 216 270 344 380
#     4  10  24  43  65  98 138 171 226 277 335 406
#     4  10  21  45  67  97 137 178 220 278 342 397
#     4  10  21  41  61  97 131 174 224 276 324 404
#     4  12  24  38  67 100 134 174 222 275 334 399
#     4   9  19  36  68  96 123 176 223 267 332 392
#
# _framework density 27.969697
#
# number of rings (size 3 to 8) (size 9 to 14) (size 15 to 20)
#    0.000    1.818    3.636    0.000    2.545    0.727 
#    3.273    0.909    0.000   12.000    0.000    0.000 
#    0.000    0.000    0.000    0.000    0.000    0.000 
#
# Total GULP energy -122972.768239 kJ/mol
# GULP energy per Si atom -5589.671284 kJ/mol
# Density = 2.790604 g / cm^3
# Si number density = 27.969697 Si / 1000 Ang^3
#
#
#
# Elastic Constant Matrix: (Units=GPa)
#
#
# Indices 1 2 3 4 5 6 
#
# 1 158.1424 16.9429 52.8747 0.0000 -8.2197 0.0000
# 2 16.9429 50.7394 35.3351 0.0000 5.6210 0.0000
# 3 52.8747 35.3351 233.5066 0.0000 22.8017 0.0000
# 4 0.0000 0.0000 0.0000 41.6658 0.0000 -11.7247
# 5 -8.2197 5.6210 22.8017 0.0000 56.7190 0.0000
# 6 0.0000 0.0000 0.0000 -11.7247 0.0000 31.2111
#
#
#
# Elastic Compliance Matrix: (Units=1/GPa)
#
#
# Indices 1 2 3 4 5 6 
#
# 1 0.007097 -0.001484 -0.001558 0.000000 0.001802 0.000000
# 2 -0.001484 0.022383 -0.002928 0.000000 -0.001256 0.000000
# 3 -0.001558 -0.002928 0.005280 0.000000 -0.002058 0.000000
# 4 0.000000 0.000000 0.000000 0.026837 0.000000 0.010082
# 5 0.001802 -0.001256 -0.002058 0.000000 0.018844 0.000000
# 6 0.000000 0.000000 0.000000 0.010082 0.000000 0.035827
#
#
# Mechanical properties :
#
#
# Convention : Reuss Voigt Hill
#
# Bulk Modulus (GPa) = 43.82626 72.52151 58.17389
# Shear Modulus (GPa) = 36.81471 48.40156 42.60813
#
# Velocity S-wave (km/s) = 3.63193 4.16444 3.90727
# Velocity P-wave (km/s) = 5.76985 7.00773 6.41870
#
# Compressibility (1/GPa) = 0.02281737
#
# Stress axis : x y z
#
# Youngs Moduli (GPa) = 140.90141 44.67762 189.41151
#
# Poissons Ratio (x) = 0.06631 0.29519
# Poissons Ratio (y) = 0.20913 0.55465
# Poissons Ratio (z) = 0.21959 0.13083
#
# Static dielectric constant tensor:
#      x y z
#    x 2.204100 0.000000 0.083070 
#    y 0.000000 2.210120 0.000000 
#    z 0.083070 0.000000 2.288780 
# 
# From -- ./inp_files/48955.got.cif
#   From: 2010.05.17/outbox.cif.g08.bks.cpg/sg13_25_cif.got.tgz:48955.got - 2010.06.03 16:44:36.
