data_PCOD9227723
_publ_section_title
;
Structure prediction by ZEFSAII (Michael W. Deem and Ramdas Pophale) SiO2 
 PCOD9227723
Probable space group: P 2/C
;
_chemical_formula_sum "Si O2"
_cell_formula_units_Z 20
_cell_length_a 9.256806
_cell_length_b 7.707630
_cell_length_c 21.512014
_cell_angle_alpha 90.000000
_cell_angle_beta 149.210405
_cell_angle_gamma 90.000000
_cell_volume 785.664410
_symmetry_space_group_name_H-M "P 2/C"
_symmetry_group_IT_number 13
_symmetry_cell_setting 'monoclinic'
loop_
_space_group_symop_operation_xyz
x,y,z
-x,y,1/2-z
-x,-y,-z
x,-y,1/2+z
loop_
_atom_site_type_symbol
_atom_site_label
_atom_site_fract_x
_atom_site_fract_y
_atom_site_fract_z
Si Si1 0.412288 0.264968 0.286297
Si Si2 0.035505 0.123193 0.951990
Si Si3 0.174659 0.268040 0.879175
Si Si4 0.784648 0.676246 0.565454
Si Si5 0.708942 0.609744 0.396385
O O1 0.500000 0.198336 0.250000
O O2 0.648875 0.196121 0.419244
O O3 0.459427 0.472636 0.300197
O O4 0.091124 0.237920 0.185906
O O5 0.043539 0.131817 0.879860
O O6 0.775549 0.250168 0.869819
O O7 0.000000 0.000000 0.000000
O O8 0.174031 0.472001 0.901740
O O9 0.000000 0.260697 0.750000
O O10 0.512647 0.241474 0.997140
O O11 0.710602 0.689885 0.465217
O O12 0.000000 0.500000 0.500000
#
# Coordination Sequence:
#
# PCOD9227723 Si02
#       5
#     4   4   4   4   4
#     4  11  19  38  71 103 140 183 246 312 360 426
#     4  11  24  45  69 104 145 204 258 296 361 456
#     4  11  24  41  68 115 154 189 237 321 388 436
#     4  11  21  38  71 111 148 185 243 317 385 431
#     4  10  18  38  66 100 137 185 248 301 359 431
#
# _framework density 25.456160000000001
#
# number of rings (size 3 to 8) (size 9 to 14) (size 15 to 20)
#    0.000    1.200    8.000    1.200    2.800    0.000 
#    0.000    6.000    0.000    1.200    5.200    0.000 
#    0.000    0.000    0.000    0.000    0.000    0.000 
#
# Total GULP energy -111590.164119 kJ/mol
# GULP energy per Si atom -5579.508206 kJ/mol
# Density = 2.539822 g / cm^3
# Si number density = 25.456160 Si / 1000 Ang^3
#
#
#
# Elastic Constant Matrix: (Units=GPa)
#
#
# Indices 1 2 3 4 5 6 
#
# 1 196.3673 59.4407 75.6909 0.0000 13.1313 0.0000
# 2 59.4407 79.8532 34.5625 0.0000 21.5165 0.0000
# 3 75.6909 34.5625 148.5920 0.0000 18.6980 0.0000
# 4 0.0000 0.0000 0.0000 19.9905 0.0000 -9.8887
# 5 13.1313 21.5165 18.6980 0.0000 45.0226 0.0000
# 6 0.0000 0.0000 0.0000 -9.8887 0.0000 10.5232
#
#
#
# Elastic Compliance Matrix: (Units=1/GPa)
#
#
# Indices 1 2 3 4 5 6 
#
# 1 0.007554 -0.004700 -0.002912 0.000000 0.001252 0.000000
# 2 -0.004700 0.018331 -0.000992 0.000000 -0.006978 0.000000
# 3 -0.002912 -0.000992 0.008734 0.000000 -0.002304 0.000000
# 4 0.000000 0.000000 0.000000 0.093475 0.000000 0.087838
# 5 0.001252 -0.006978 -0.002304 0.000000 0.026137 0.000000
# 6 0.000000 0.000000 0.000000 0.087838 0.000000 0.177569
#
#
# Mechanical properties :
#
#
# Convention : Reuss Voigt Hill
#
# Bulk Modulus (GPa) = 57.43488 84.91119 71.17303
# Shear Modulus (GPa) = 14.09201 32.11514 23.10358
#
# Velocity S-wave (km/s) = 2.35538 3.55574 3.01588
# Velocity P-wave (km/s) = 5.47799 7.09126 6.33618
#
# Compressibility (1/GPa) = 0.01741102
#
# Stress axis : x y z
#
# Youngs Moduli (GPa) = 132.38031 54.55274 114.49651
#
# Poissons Ratio (x) = 0.25640 0.33345
# Poissons Ratio (y) = 0.62218 0.11354
# Poissons Ratio (z) = 0.38553 0.05410
#
# Static dielectric constant tensor:
#      x y z
#    x 2.606790 0.000000 3.573960 
#    y 0.000000 2.073480 0.000000 
#    z 3.573960 0.000000 24.651950 
# 
# From -- ./inp_files/75438.got.cif
#   From: 2010.05.17/outbox.cif.g08.bks.cpg/sg13_38_cif.got.tgz:75438.got - 2010.06.03 16:44:36.
