data_PCOD9227672
_publ_section_title
;
Structure prediction by ZEFSAII (Michael W. Deem and Ramdas Pophale) SiO2 
 PCOD9227672
Probable space group: P 2/C
;
_chemical_formula_sum "Si O2"
_cell_formula_units_Z 32
_cell_length_a 11.034671
_cell_length_b 9.235672
_cell_length_c 20.171792
_cell_angle_alpha 90.000000
_cell_angle_beta 128.663643
_cell_angle_gamma 90.000000
_cell_volume 1605.192760
_symmetry_space_group_name_H-M "P 2/C"
_symmetry_group_IT_number 13
_symmetry_cell_setting 'monoclinic'
loop_
_space_group_symop_operation_xyz
x,y,z
-x,y,1/2-z
-x,-y,-z
x,-y,1/2+z
loop_
_atom_site_type_symbol
_atom_site_label
_atom_site_fract_x
_atom_site_fract_y
_atom_site_fract_z
Si Si1 0.756757 0.215496 0.210783
Si Si2 0.837399 0.212088 0.444933
Si Si3 0.684290 0.011435 0.799343
Si Si4 0.411010 0.150740 0.473396
Si Si5 0.856815 0.708205 0.377673
Si Si6 0.040542 0.404053 0.136997
Si Si7 0.549952 0.642616 0.921065
Si Si8 0.709913 0.648640 0.469049
O O1 0.732138 0.083574 0.252437
O O2 0.732250 0.157266 0.127896
O O3 0.901587 0.312971 0.280507
O O4 0.607650 0.319691 0.171249
O O5 0.777292 0.062379 0.392692
O O6 0.888043 0.316510 0.401544
O O7 0.694263 0.284050 0.433889
O O8 0.985009 0.212155 0.544039
O O9 0.500000 0.003928 0.750000
O O10 0.742986 0.173711 0.808101
O O11 0.522427 0.276171 0.481442
O O12 0.352359 0.198723 0.525116
O O13 0.500000 0.000000 0.500000
O O14 0.901059 0.568820 0.349199
O O15 0.771831 0.654653 0.415723
O O16 0.856265 0.398300 0.064121
O O17 0.581883 0.473961 0.934279
#
# Coordination Sequence:
#
# PCOD9227672 Si02
#       8
#     4   4   4   4   4   4   4   4
#     4   9  23  39  57  85 122 163 198 249 313 354
#     4  10  18  38  59  84 124 157 199 245 310 364
#     4  11  21  34  54  90 130 160 194 250 315 365
#     4  10  24  42  63  85 116 161 214 248 290 360
#     4  11  22  34  61  99 121 153 202 257 308 369
#     4  10  20  39  60  91 124 155 192 262 308 370
#     4  10  19  39  64  81 115 158 207 243 296 363
#     4  11  21  39  66  88 119 159 210 247 301 371
#
# _framework density 19.935300000000002
#
# number of rings (size 3 to 8) (size 9 to 14) (size 15 to 20)
#    0.750    1.000    3.750    1.500    3.500    1.500 
#    0.000    0.000    0.000    0.000    0.000    0.000 
#    0.000    0.000    0.000    0.000    0.000    0.000 
#
# Total GULP energy -178495.479696 kJ/mol
# GULP energy per Si atom -5577.983740 kJ/mol
# Density = 1.988993 g / cm^3
# Si number density = 19.935300 Si / 1000 Ang^3
#
#
#
# Elastic Constant Matrix: (Units=GPa)
#
#
# Indices 1 2 3 4 5 6 
#
# 1 25.1366 6.8740 0.1619 0.0000 -4.8141 0.0000
# 2 6.8740 114.7738 33.4250 0.0000 7.5405 0.0000
# 3 0.1619 33.4250 52.4467 0.0000 2.2130 0.0000
# 4 0.0000 0.0000 0.0000 25.1375 0.0000 5.8969
# 5 -4.8141 7.5405 2.2130 0.0000 16.9905 0.0000
# 6 0.0000 0.0000 0.0000 5.8969 0.0000 26.0600
#
#
#
# Elastic Compliance Matrix: (Units=1/GPa)
#
#
# Indices 1 2 3 4 5 6 
#
# 1 0.043544 -0.004066 0.001870 0.000000 0.013899 0.000000
# 2 -0.004066 0.011339 -0.006991 0.000000 -0.005274 0.000000
# 3 0.001870 -0.006991 0.023493 0.000000 0.000573 0.000000
# 4 0.000000 0.000000 0.000000 0.042011 0.000000 -0.009506
# 5 0.013899 -0.005274 0.000573 0.000000 0.065060 0.000000
# 6 0.000000 0.000000 0.000000 -0.009506 0.000000 0.040524
#
#
# Mechanical properties :
#
#
# Convention : Reuss Voigt Hill
#
# Bulk Modulus (GPa) = 16.66604 30.36431 23.51518
# Shear Modulus (GPa) = 18.91461 23.76400 21.33931
#
# Velocity S-wave (km/s) = 3.08360 3.45636 3.27529
# Velocity P-wave (km/s) = 4.58872 5.58508 5.11123
#
# Compressibility (1/GPa) = 0.06000224
#
# Stress axis : x y z
#
# Youngs Moduli (GPa) = 22.96513 88.19266 42.56642
#
# Poissons Ratio (x) = 0.35857 -0.07961
# Poissons Ratio (y) = 0.09337 0.29759
# Poissons Ratio (z) = -0.04295 0.61658
#
# Static dielectric constant tensor:
#      x y z
#    x 1.691100 0.000000 -0.010010 
#    y 0.000000 1.695740 0.000000 
#    z -0.010010 0.000000 1.741880 
# 
# From -- ./inp_files/86227.got.cif
#   From: 2010.05.17/outbox.cif.g08.bks.cpg/sg13_44_cif.got.tgz:86227.got - 2010.06.03 16:44:36.
