data_PCOD9227546
_publ_section_title
;
Structure prediction by ZEFSAII (Michael W. Deem and Ramdas Pophale) SiO2 
 PCOD9227546
Probable space group: P 2/C
;
_chemical_formula_sum "Si O2"
_cell_formula_units_Z 28
_cell_length_a 23.533314
_cell_length_b 9.828917
_cell_length_c 19.171800
_cell_angle_alpha 90.000000
_cell_angle_beta 16.823061
_cell_angle_gamma 90.000000
_cell_volume 1283.440716
_symmetry_space_group_name_H-M "P 2/C"
_symmetry_group_IT_number 13
_symmetry_cell_setting 'monoclinic'
loop_
_space_group_symop_operation_xyz
x,y,z
-x,y,1/2-z
-x,-y,-z
x,-y,1/2+z
loop_
_atom_site_type_symbol
_atom_site_label
_atom_site_fract_x
_atom_site_fract_y
_atom_site_fract_z
Si Si1 0.427628 0.701931 0.633005
Si Si2 0.663814 0.538724 0.887247
Si Si3 0.463740 0.969653 0.673096
Si Si4 0.890794 0.130608 0.451128
Si Si5 0.017179 0.340377 0.811167
Si Si6 0.791599 0.082549 0.888046
Si Si7 0.986292 0.390971 0.110442
O O1 0.456914 0.640911 0.521001
O O2 0.516544 0.584304 0.578876
O O3 0.491322 0.849614 0.584300
O O4 0.193852 0.699196 0.911638
O O5 0.783993 0.617601 0.804993
O O6 0.839504 0.458447 0.640123
O O7 0.669671 0.989967 0.470228
O O8 0.325569 0.924518 0.901014
O O9 0.337494 0.093629 0.790731
O O10 0.000000 0.166987 0.250000
O O11 0.936648 0.250106 0.450571
O O12 0.002772 0.993765 0.343754
O O13 0.000000 0.310428 0.750000
O O14 0.171845 0.241893 0.667079
O O15 0.054109 0.497768 0.782211
#
# Coordination Sequence:
#
# PCOD9227546 Si02
#       7
#     4   4   4   4   4   4   4
#     4  10  18  36  60  82 115 151 197 246 289 339
#     4   9  21  38  57  80 114 162 201 240 288 337
#     4  10  19  34  61  85 117 152 187 241 293 357
#     4  10  20  39  59  88 121 153 181 241 305 360
#     4  11  18  33  61  91 113 149 190 250 301 353
#     4  10  19  34  59  90 118 145 191 230 305 361
#     4  10  21  38  59  79 120 155 199 241 295 348
#
# _framework density 21.816355999999999
#
# number of rings (size 3 to 8) (size 9 to 14) (size 15 to 20)
#    0.000    2.000    2.857    1.714    0.000    0.000 
#    7.714    1.429    3.143    0.000    0.000    0.000 
#    0.000    0.000    0.000    0.000    0.000    0.000 
#
# Total GULP energy -156201.268956 kJ/mol
# GULP energy per Si atom -5578.616748 kJ/mol
# Density = 2.176670 g / cm^3
# Si number density = 21.816356 Si / 1000 Ang^3
#
#
#
# Elastic Constant Matrix: (Units=GPa)
#
#
# Indices 1 2 3 4 5 6 
#
# 1 77.8064 42.2950 16.0832 0.0000 -35.4996 0.0000
# 2 42.2950 97.9888 13.2034 0.0000 -7.7447 0.0000
# 3 16.0832 13.2034 38.8970 0.0000 -23.1624 0.0000
# 4 0.0000 0.0000 0.0000 27.5866 0.0000 -8.6566
# 5 -35.4996 -7.7447 -23.1624 0.0000 30.8218 0.0000
# 6 0.0000 0.0000 0.0000 -8.6566 0.0000 32.1122
#
#
#
# Elastic Compliance Matrix: (Units=1/GPa)
#
#
# Indices 1 2 3 4 5 6 
#
# 1 0.058673 -0.023226 0.036905 0.000000 0.089475 0.000000
# 2 -0.023226 0.019889 -0.018283 0.000000 -0.035493 0.000000
# 3 0.036905 -0.018283 0.071007 0.000000 0.091273 0.000000
# 4 0.000000 0.000000 0.000000 0.039599 0.000000 0.010675
# 5 0.089475 -0.035493 0.091273 0.000000 0.195171 0.000000
# 6 0.000000 0.000000 0.000000 0.010675 0.000000 0.034019
#
#
# Mechanical properties :
#
#
# Convention : Reuss Voigt Hill
#
# Bulk Modulus (GPa) = 7.12456 39.76169 23.44312
# Shear Modulus (GPa) = 10.54068 27.64484 19.09276
#
# Velocity S-wave (km/s) = 2.20046 3.56358 2.96152
# Velocity P-wave (km/s) = 3.11911 5.93274 4.73953
#
# Compressibility (1/GPa) = 0.14035956
#
# Stress axis : x y z
#
# Youngs Moduli (GPa) = 17.04366 50.28021 14.08314
#
# Poissons Ratio (x) = 1.16780 -0.51973
# Poissons Ratio (y) = 0.39585 0.25748
# Poissons Ratio (z) = -0.62899 0.91927
#
# Static dielectric constant tensor:
#      x y z
#    x 1.841060 0.000000 0.004440 
#    y 0.000000 1.783460 0.000000 
#    z 0.004440 0.000000 1.817880 
# 
# From -- ./inp_files/82122.got.cif
#   From: 2010.05.17/outbox.cif.g08.bks.cpg/sg13_42_cif.got.tgz:82122.got - 2010.06.03 16:44:36.
