data_PCOD9227963
_publ_section_title
;
Structure prediction by ZEFSAII (Michael W. Deem and Ramdas Pophale) SiO2 
 PCOD9227963
Probable space group: P 2/C
;
_chemical_formula_sum "Si O2"
_cell_formula_units_Z 28
_cell_length_a 12.470921
_cell_length_b 27.138171
_cell_length_c 5.229643
_cell_angle_alpha 90.000000
_cell_angle_beta 63.958600
_cell_angle_gamma 90.000000
_cell_volume 1590.223395
_symmetry_space_group_name_H-M "P 2/C"
_symmetry_group_IT_number 13
_symmetry_cell_setting 'monoclinic'
loop_
_space_group_symop_operation_xyz
x,y,z
-x,y,1/2-z
-x,-y,-z
x,-y,1/2+z
loop_
_atom_site_type_symbol
_atom_site_label
_atom_site_fract_x
_atom_site_fract_y
_atom_site_fract_z
Si Si1 0.500000 0.572339 0.750000
Si Si2 0.761682 0.529653 0.442359
Si Si3 0.756023 0.685999 0.056152
Si Si4 0.855460 0.856910 0.398089
Si Si5 0.860930 0.362553 0.946305
Si Si6 0.855285 0.795149 0.898247
Si Si7 0.145608 0.030052 0.596146
Si Si8 0.500000 0.641366 0.250000
O O1 0.619750 0.540420 0.601933
O O2 0.489518 0.606551 0.510068
O O3 0.791799 0.509714 0.130313
O O4 0.825870 0.580767 0.439435
O O5 0.790608 0.668303 0.304048
O O6 0.617687 0.674148 0.155701
O O7 0.826001 0.654705 0.766592
O O8 0.793234 0.742418 0.981125
O O9 0.821609 0.824349 0.677309
O O10 0.813302 0.913348 0.453167
O O11 0.000000 0.859229 0.250000
O O12 0.822409 0.828986 0.173878
O O13 0.000000 0.354800 0.750000
O O14 0.000000 0.788031 0.750000
O O15 0.000000 0.031167 0.750000
O O16 0.182653 0.999038 0.310485
#
# Coordination Sequence:
#
# PCOD9227963 Si02
#       8
#     2   4   4   4   4   4   4   2
#     4  12  22  43  62  88 112 142 180 223 270 320
#     4  12  24  40  62  88 111 144 178 220 271 317
#     4  12  23  41  61  85 109 143 186 225 276 324
#     4   9  17  28  42  66  99 136 177 218 260 306
#     4  12  25  42  62  84 115 147 180 219 264 329
#     4  10  19  31  49  72 101 136 174 216 261 318
#     4   9  15  23  37  58  89 133 179 216 252 300
#     4  12  22  41  66  84 112 140 176 233 272 320
#
# _framework density 17.607588
#
# number of rings (size 3 to 8) (size 9 to 14) (size 15 to 20)
#    0.000    1.143    2.857    5.143    0.000    5.143 
#    0.000    0.000    0.000    0.000    0.000    0.000 
#    0.000    0.000    0.000   12.857    0.000    5.714 
#
# Total GULP energy -156488.677640 kJ/mol
# GULP energy per Si atom -5588.881344 kJ/mol
# Density = 1.756751 g / cm^3
# Si number density = 17.607588 Si / 1000 Ang^3
#
#
#
# Elastic Constant Matrix: (Units=GPa)
#
#
# Indices 1 2 3 4 5 6 
#
# 1 26.7145 0.1266 3.8849 0.0000 -0.3597 0.0000
# 2 0.1266 105.2326 10.0514 0.0000 16.1112 0.0000
# 3 3.8849 10.0514 59.6858 0.0000 26.7472 0.0000
# 4 0.0000 0.0000 0.0000 74.9301 0.0000 -7.4024
# 5 -0.3597 16.1112 26.7472 0.0000 30.6253 0.0000
# 6 0.0000 0.0000 0.0000 -7.4024 0.0000 1.9212
#
#
#
# Elastic Compliance Matrix: (Units=1/GPa)
#
#
# Indices 1 2 3 4 5 6 
#
# 1 0.038141 -0.000309 -0.004443 0.000000 0.004491 0.000000
# 2 -0.000309 0.010385 0.001185 0.000000 -0.006502 0.000000
# 3 -0.004443 0.001185 0.028173 0.000000 -0.025281 0.000000
# 4 0.000000 0.000000 0.000000 0.021548 0.000000 0.083023
# 5 0.004491 -0.006502 -0.025281 0.000000 0.058206 0.000000
# 6 0.000000 0.000000 0.000000 0.083023 0.000000 0.840383
#
#
# Mechanical properties :
#
#
# Convention : Reuss Voigt Hill
#
# Bulk Modulus (GPa) = 14.37496 24.41764 19.39630
# Shear Modulus (GPa) = 4.86779 33.33333 19.10056
#
# Velocity S-wave (km/s) = 1.66451 4.35572 3.29719
# Velocity P-wave (km/s) = 3.44615 6.26053 5.05322
#
# Compressibility (1/GPa) = 0.06956541
#
# Stress axis : x y z
#
# Youngs Moduli (GPa) = 26.21853 96.28892 35.49437
#
# Poissons Ratio (x) = 0.02976 0.15770
# Poissons Ratio (y) = 0.00810 -0.04206
# Poissons Ratio (z) = 0.11649 -0.11410
#
# Static dielectric constant tensor:
#      x y z
#    x 1.579830 0.000000 0.007380 
#    y 0.000000 1.581170 0.000000 
#    z 0.007380 0.000000 1.599620 
# 
# From -- ./inp_files/4118.got.cif
#   From: 2010.05.17/outbox.cif.g08.bks.cpg/sg13_3_cif.got.tgz:4118.got - 2010.06.03 16:44:36.
