data_PCOD9227520
_publ_section_title
;
Structure prediction by ZEFSAII (Michael W. Deem and Ramdas Pophale) SiO2 
 PCOD9227520
Probable space group: P 2/C
;
_chemical_formula_sum "Si O2"
_cell_formula_units_Z 26
_cell_length_a 23.402119
_cell_length_b 12.492911
_cell_length_c 13.458103
_cell_angle_alpha 90.000000
_cell_angle_beta 159.224317
_cell_angle_gamma 90.000000
_cell_volume 1395.649387
_symmetry_space_group_name_H-M "P 2/C"
_symmetry_group_IT_number 13
_symmetry_cell_setting 'monoclinic'
loop_
_space_group_symop_operation_xyz
x,y,z
-x,y,1/2-z
-x,-y,-z
x,-y,1/2+z
loop_
_atom_site_type_symbol
_atom_site_label
_atom_site_fract_x
_atom_site_fract_y
_atom_site_fract_z
Si Si1 0.226337 0.285932 0.195283
Si Si2 0.902310 0.699353 0.293882
Si Si3 0.646200 0.105881 0.788241
Si Si4 0.104777 0.295485 0.322530
Si Si5 0.824465 0.523843 0.018006
Si Si6 0.686038 0.862809 0.844878
Si Si7 0.500000 0.175814 0.750000
O O1 0.244855 0.198982 0.138510
O O2 0.353232 0.252301 0.483493
O O3 0.265681 0.399997 0.207555
O O4 0.051300 0.281013 0.960078
O O5 0.828237 0.591002 0.126628
O O6 0.982895 0.685548 0.532264
O O7 0.772415 0.795743 0.073253
O O8 0.509304 0.136671 0.484061
O O9 0.550831 0.106608 0.737884
O O10 0.721995 0.988785 0.898703
O O11 0.781386 0.195496 0.012225
O O12 0.212796 0.401500 0.518262
O O13 0.000000 0.274805 0.250000
O O14 0.000000 0.517392 0.250000
#
# Coordination Sequence:
#
# PCOD9227520 Si02
#       7
#     4   4   4   4   4   4   2
#     4   9  17  34  62  84 108 145 193 232 271 339
#     4  10  18  36  59  85 107 151 193 226 268 342
#     4  10  21  39  56  82 117 149 181 238 282 329
#     4  11  22  36  54  84 119 146 183 231 285 329
#     4   8  17  33  58  81 110 145 182 231 283 329
#     4   9  20  37  57  83 110 145 190 230 288 319
#     4  10  18  36  58  84 110 146 194 226 282 334
#
# _framework density 18.62932
#
# number of rings (size 3 to 8) (size 9 to 14) (size 15 to 20)
#    0.000    2.462    1.538    1.846    0.000    1.846 
#    8.308    6.923    0.000    0.000    0.000    0.000 
#    0.000    0.000    0.000    0.000    0.000    0.000 
#
# Total GULP energy -144753.175215 kJ/mol
# GULP energy per Si atom -5567.429816 kJ/mol
# Density = 1.858692 g / cm^3
# Si number density = 18.629320 Si / 1000 Ang^3
#
#
#
# Elastic Constant Matrix: (Units=GPa)
#
#
# Indices 1 2 3 4 5 6 
#
# 1 49.7690 15.0855 0.5368 0.0000 -6.9572 0.0000
# 2 15.0855 95.2051 10.6159 0.0000 0.8543 0.0000
# 3 0.5368 10.6159 39.0916 0.0000 -12.3257 0.0000
# 4 0.0000 0.0000 0.0000 -16.2849 0.0000 -5.7222
# 5 -6.9572 0.8543 -12.3257 0.0000 21.6633 0.0000
# 6 0.0000 0.0000 0.0000 -5.7222 0.0000 4.1730
#
#
#
# Elastic Compliance Matrix: (Units=1/GPa)
#
#
# Indices 1 2 3 4 5 6 
#
# 1 0.022638 -0.004101 0.003834 0.000000 0.009613 0.000000
# 2 -0.004101 0.011692 -0.004484 0.000000 -0.004329 0.000000
# 3 0.003834 -0.004484 0.033134 0.000000 0.020260 0.000000
# 4 0.000000 0.000000 0.000000 -0.041440 0.000000 -0.056824
# 5 0.009613 -0.004329 0.020260 0.000000 0.060947 0.000000
# 6 0.000000 0.000000 0.000000 -0.056824 0.000000 0.161717
#
#
# Mechanical properties :
#
#
# Convention : Reuss Voigt Hill
#
# Bulk Modulus (GPa) = 17.25238 26.28246 21.76742
# Shear Modulus (GPa) = 18.01730 12.43211 15.22471
#
# Velocity S-wave (km/s) = 3.11327 2.58610 2.86185
# Velocity P-wave (km/s) = 4.71214 4.80166 4.75711
#
# Compressibility (1/GPa) = 0.05796302
#
# Stress axis : x y z
#
# Youngs Moduli (GPa) = 44.17282 85.52660 30.18035
#
# Poissons Ratio (x) = 0.35073 -0.11571
# Poissons Ratio (y) = 0.18115 0.13533
# Poissons Ratio (z) = -0.16936 0.38350
#
# Static dielectric constant tensor:
#      x y z
#    x 1.644660 0.000000 -0.018070 
#    y 0.000000 1.659290 0.000000 
#    z -0.018070 0.000000 1.695040 
# 
# From -- ./inp_files/59598.got.cif
#   From: 2010.05.17/outbox.cif.g08.bks.cpg/sg13_30_cif.got.tgz:59598.got - 2010.06.03 16:44:36.
