data_PCOD9227531
_publ_section_title
;
Structure prediction by ZEFSAII (Michael W. Deem and Ramdas Pophale) SiO2 
 PCOD9227531
Probable space group: P 2/C
;
_chemical_formula_sum "Si O2"
_cell_formula_units_Z 28
_cell_length_a 7.933784
_cell_length_b 17.663971
_cell_length_c 10.417551
_cell_angle_alpha 90.000000
_cell_angle_beta 111.834121
_cell_angle_gamma 90.000000
_cell_volume 1355.208430
_symmetry_space_group_name_H-M "P 2/C"
_symmetry_group_IT_number 13
_symmetry_cell_setting 'monoclinic'
loop_
_space_group_symop_operation_xyz
x,y,z
-x,y,1/2-z
-x,-y,-z
x,-y,1/2+z
loop_
_atom_site_type_symbol
_atom_site_label
_atom_site_fract_x
_atom_site_fract_y
_atom_site_fract_z
Si Si1 0.292147 0.280480 0.562557
Si Si2 0.948967 0.847456 0.542073
Si Si3 0.722219 0.099206 0.223199
Si Si4 0.402945 0.820399 0.495660
Si Si5 0.703492 0.920650 0.256763
Si Si6 0.788274 0.693438 0.168155
Si Si7 0.503041 0.568634 0.099700
O O1 0.105225 0.241017 0.467002
O O2 0.440104 0.225249 0.540656
O O3 0.289430 0.277225 0.716259
O O4 0.345823 0.366346 0.540901
O O5 0.839664 0.888761 0.626467
O O6 0.859988 0.884005 0.389441
O O7 0.159664 0.861576 0.631087
O O8 0.716808 0.010732 0.252342
O O9 0.528095 0.135707 0.132718
O O10 0.298582 0.883164 0.383183
O O11 0.260838 0.750827 0.460436
O O12 0.500000 0.903951 0.250000
O O13 0.687157 0.614565 0.122202
O O14 0.000000 0.686140 0.250000
O O15 0.500000 0.546192 0.250000
O O16 0.500000 0.500000 0.000000
#
# Coordination Sequence:
#
# PCOD9227531 Si02
#       7
#     4   4   4   4   4   4   4
#     4   9  17  36  64  83 108 166 205 237 296 380
#     4  10  20  37  55  73 111 151 208 249 301 372
#     4  10  22  33  50  78 109 144 195 268 307 345
#     4  10  18  36  59  76 107 157 210 243 303 369
#     4  12  19  33  53  74 107 152 208 251 309 360
#     4  10  19  35  62  93 116 152 205 255 287 368
#     4   9  19  37  70  96 128 163 201 244 310 377
#
# _framework density 20.66103
#
# number of rings (size 3 to 8) (size 9 to 14) (size 15 to 20)
#    0.000    2.000    4.286    2.143    0.000    0.000 
#    5.143    2.857   25.143    0.000    0.000    0.000 
#    0.000    0.000    0.000    0.000    0.000    0.000 
#
# Total GULP energy -156170.477347 kJ/mol
# GULP energy per Si atom -5577.517048 kJ/mol
# Density = 2.061400 g / cm^3
# Si number density = 20.661030 Si / 1000 Ang^3
#
#
#
# Elastic Constant Matrix: (Units=GPa)
#
#
# Indices 1 2 3 4 5 6 
#
# 1 76.3746 39.4520 46.1544 0.0000 31.6475 0.0000
# 2 39.4520 167.4172 91.3319 0.0000 13.6884 0.0000
# 3 46.1544 91.3319 162.7669 0.0000 29.0773 0.0000
# 4 0.0000 0.0000 0.0000 49.1591 0.0000 2.1318
# 5 31.6475 13.6884 29.0773 0.0000 46.1132 0.0000
# 6 0.0000 0.0000 0.0000 2.1318 0.0000 17.0688
#
#
#
# Elastic Compliance Matrix: (Units=1/GPa)
#
#
# Indices 1 2 3 4 5 6 
#
# 1 0.020856 -0.002707 -0.002233 0.000000 -0.012102 0.000000
# 2 -0.002707 0.008972 -0.004646 0.000000 0.002124 0.000000
# 3 -0.002233 -0.004646 0.009989 0.000000 -0.003387 0.000000
# 4 0.000000 0.000000 0.000000 0.020453 0.000000 -0.002554
# 5 -0.012102 0.002124 -0.003387 0.000000 0.031496 0.000000
# 6 0.000000 0.000000 0.000000 -0.002554 0.000000 0.058906
#
#
# Mechanical properties :
#
#
# Convention : Reuss Voigt Hill
#
# Bulk Modulus (GPa) = 48.43962 84.49281 66.46622
# Shear Modulus (GPa) = 28.29242 37.77624 33.03433
#
# Velocity S-wave (km/s) = 3.70450 4.28060 4.00293
# Velocity P-wave (km/s) = 6.46480 8.08795 7.32149
#
# Compressibility (1/GPa) = 0.02064426
#
# Stress axis : x y z
#
# Youngs Moduli (GPa) = 47.94846 111.45748 100.10850
#
# Poissons Ratio (x) = 0.30172 0.22355
# Poissons Ratio (y) = 0.12980 0.46513
# Poissons Ratio (z) = 0.10707 0.51786
#
# Static dielectric constant tensor:
#      x y z
#    x 1.863560 0.000000 -0.006260 
#    y 0.000000 1.713950 0.000000 
#    z -0.006260 0.000000 1.787350 
# 
# From -- ./inp_files/30494.got.cif
#   From: 2010.05.17/outbox.cif.g08.bks.cpg/sg13_16_cif.got.tgz:30494.got - 2010.06.03 16:44:36.
