data_PCOD9227432
_publ_section_title
;
Structure prediction by ZEFSAII (Michael W. Deem and Ramdas Pophale) SiO2 
 PCOD9227432
Probable space group: P 2/C
;
_chemical_formula_sum "Si O2"
_cell_formula_units_Z 32
_cell_length_a 15.877215
_cell_length_b 13.950890
_cell_length_c 17.790841
_cell_angle_alpha 90.000000
_cell_angle_beta 155.948107
_cell_angle_gamma 90.000000
_cell_volume 1606.084549
_symmetry_space_group_name_H-M "P 2/C"
_symmetry_group_IT_number 13
_symmetry_cell_setting 'monoclinic'
loop_
_space_group_symop_operation_xyz
x,y,z
-x,y,1/2-z
-x,-y,-z
x,-y,1/2+z
loop_
_atom_site_type_symbol
_atom_site_label
_atom_site_fract_x
_atom_site_fract_y
_atom_site_fract_z
Si Si1 0.093066 0.915215 0.223297
Si Si2 0.425337 0.092578 0.858982
Si Si3 0.895987 0.124018 0.296293
Si Si4 0.430903 0.713374 0.280306
Si Si5 0.988774 0.393101 0.020462
Si Si6 0.865962 0.674103 0.708219
Si Si7 0.163389 0.791702 0.591031
Si Si8 0.541627 0.899474 0.871852
O O1 0.267369 0.912087 0.299070
O O2 0.224044 0.897336 0.405922
O O3 0.004448 0.023803 0.147794
O O4 0.931605 0.837617 0.061611
O O5 0.375262 0.178911 0.761390
O O6 0.438931 0.992135 0.827478
O O7 0.653798 0.112103 0.078189
O O8 0.961338 0.220266 0.305915
O O9 0.911490 0.146782 0.397185
O O10 0.500000 0.711264 0.250000
O O11 0.240417 0.644287 0.144700
O O12 0.367899 0.685076 0.008122
O O13 0.117182 0.384338 0.201954
O O14 0.085665 0.315155 0.042363
O O15 0.000000 0.500000 0.000000
O O16 0.000000 0.632355 0.750000
O O17 0.409642 0.806883 0.789666
O O18 0.500000 0.910143 0.750000
#
# Coordination Sequence:
#
# PCOD9227432 Si02
#       8
#     4   4   4   4   4   4   4   4
#     4  11  19  35  57  84 122 161 203 231 287 367
#     4  10  18  35  58  88 122 162 195 235 292 363
#     4   9  18  32  54  89 122 156 191 228 284 363
#     4  11  21  38  64  96 129 153 186 254 318 354
#     4  11  25  43  65  91 115 153 214 263 308 371
#     4  10  21  38  63  94 128 154 190 250 313 360
#     4  11  21  37  62  80 112 161 202 246 298 355
#     4  11  23  37  53  83 127 162 202 245 284 351
#
# _framework density 19.924230999999999
#
# number of rings (size 3 to 8) (size 9 to 14) (size 15 to 20)
#    0.000    1.500    5.000    1.500    0.000    1.000 
#    6.750    0.625    2.750    0.000    0.000    0.000 
#    0.000    0.000    0.000    0.000    0.000    0.000 
#
# Total GULP energy -178873.113766 kJ/mol
# GULP energy per Si atom -5589.784805 kJ/mol
# Density = 1.987888 g / cm^3
# Si number density = 19.924231 Si / 1000 Ang^3
#
#
#
# Elastic Constant Matrix: (Units=GPa)
#
#
# Indices 1 2 3 4 5 6 
#
# 1 61.2372 40.3040 29.4405 0.0000 -18.6935 0.0000
# 2 40.3040 137.0670 49.0961 0.0000 -12.6364 0.0000
# 3 29.4405 49.0961 112.6225 0.0000 -19.5540 0.0000
# 4 0.0000 0.0000 0.0000 16.7870 0.0000 0.7616
# 5 -18.6935 -12.6364 -19.5540 0.0000 40.0747 0.0000
# 6 0.0000 0.0000 0.0000 0.7616 0.0000 8.3296
#
#
#
# Elastic Compliance Matrix: (Units=1/GPa)
#
#
# Indices 1 2 3 4 5 6 
#
# 1 0.023437 -0.005279 -0.002421 0.000000 0.008087 0.000000
# 2 -0.005279 0.009869 -0.003070 0.000000 -0.000848 0.000000
# 3 -0.002421 -0.003070 0.011457 0.000000 0.003493 0.000000
# 4 0.000000 0.000000 0.000000 0.059818 0.000000 -0.005469
# 5 0.008087 -0.000848 0.003493 0.000000 0.030162 0.000000
# 6 0.000000 0.000000 0.000000 -0.005469 0.000000 0.120555
#
#
# Mechanical properties :
#
#
# Convention : Reuss Voigt Hill
#
# Bulk Modulus (GPa) = 43.06026 60.95644 52.00835
# Shear Modulus (GPa) = 17.56985 25.84399 21.70692
#
# Velocity S-wave (km/s) = 2.97279 3.60545 3.30430
# Velocity P-wave (km/s) = 5.78293 6.92769 6.38103
#
# Compressibility (1/GPa) = 0.02322327
#
# Stress axis : x y z
#
# Youngs Moduli (GPa) = 42.66790 101.32511 87.28415
#
# Poissons Ratio (x) = 0.53486 0.21135
# Poissons Ratio (y) = 0.22523 0.26794
# Poissons Ratio (z) = 0.10332 0.31104
#
# Static dielectric constant tensor:
#      x y z
#    x 1.743070 0.000000 0.013730 
#    y 0.000000 1.675970 0.000000 
#    z 0.013730 0.000000 1.750270 
# 
# From -- ./inp_files/69862.got.cif
#   From: 2010.05.17/outbox.cif.g08.bks.cpg/sg13_35_cif.got.tgz:69862.got - 2010.06.03 16:44:36.
