data_PCOD9227604
_publ_section_title
;
Structure prediction by ZEFSAII (Michael W. Deem and Ramdas Pophale) SiO2 
 PCOD9227604
Probable space group: P 2/C
;
_chemical_formula_sum "Si O2"
_cell_formula_units_Z 30
_cell_length_a 14.523840
_cell_length_b 10.962798
_cell_length_c 18.928048
_cell_angle_alpha 90.000000
_cell_angle_beta 32.186614
_cell_angle_gamma 90.000000
_cell_volume 1605.365472
_symmetry_space_group_name_H-M "P 2/C"
_symmetry_group_IT_number 13
_symmetry_cell_setting 'monoclinic'
loop_
_space_group_symop_operation_xyz
x,y,z
-x,y,1/2-z
-x,-y,-z
x,-y,1/2+z
loop_
_atom_site_type_symbol
_atom_site_label
_atom_site_fract_x
_atom_site_fract_y
_atom_site_fract_z
Si Si1 0.625846 0.228137 0.510490
Si Si2 0.642261 0.653873 0.717076
Si Si3 0.187357 0.983691 0.657884
Si Si4 0.034857 0.617503 0.092288
Si Si5 0.882982 0.339499 0.454764
Si Si6 0.000000 0.216933 0.750000
Si Si7 0.250288 0.790562 0.721329
Si Si8 0.689260 0.622001 0.226796
O O1 0.661205 0.081961 0.484795
O O2 0.778609 0.282366 0.458447
O O3 0.655401 0.263892 0.409437
O O4 0.452380 0.283028 0.654248
O O5 0.500000 0.675933 0.750000
O O6 0.826690 0.652712 0.557615
O O7 0.646718 0.753997 0.775895
O O8 0.618091 0.516573 0.764042
O O9 0.218442 0.930354 0.716338
O O10 0.000000 0.936187 0.750000
O O11 0.158922 0.126743 0.667924
O O12 0.045513 0.703974 0.152696
O O13 0.847336 0.618872 0.178586
O O14 0.076518 0.479875 0.087176
O O15 0.765258 0.339107 0.601468
O O16 0.062226 0.270164 0.350668
#
# Coordination Sequence:
#
# PCOD9227604 Si02
#       8
#     4   4   4   4   4   2   4   4
#     4  10  20  33  65  90 114 164 201 250 315 363
#     4  11  22  39  57  88 130 166 194 248 317 379
#     4   8  18  39  61  84 114 157 208 269 294 341
#     4  11  23  35  59  86 126 166 197 253 316 374
#     4  11  17  36  57  91 127 154 192 250 306 385
#     4  10  22  40  64  84 122 166 224 258 304 358
#     4  10  18  36  65  82 122 156 204 251 305 367
#     4  11  21  35  54  93 133 154 192 248 320 377
#
# _framework density 18.687334
#
# number of rings (size 3 to 8) (size 9 to 14) (size 15 to 20)
#    1.200    0.533    4.000    3.200    1.867    1.600 
#    0.000    1.333    0.000    0.000    0.000    0.000 
#    0.000    0.000    0.000    0.000    0.000    0.000 
#
# Total GULP energy -167153.506317 kJ/mol
# GULP energy per Si atom -5571.783544 kJ/mol
# Density = 1.864480 g / cm^3
# Si number density = 18.687334 Si / 1000 Ang^3
#
#
#
# Elastic Constant Matrix: (Units=GPa)
#
#
# Indices 1 2 3 4 5 6 
#
# 1 40.4095 -78.3784 -21.1858 0.0000 -6.7412 0.0000
# 2 -78.3784 -247.1885 -66.2146 0.0000 -26.0730 0.0000
# 3 -21.1858 -66.2146 32.5067 0.0000 -15.8928 0.0000
# 4 0.0000 0.0000 0.0000 5.6528 0.0000 -26.7517
# 5 -6.7412 -26.0730 -15.8928 0.0000 17.7231 0.0000
# 6 0.0000 0.0000 0.0000 -26.7517 0.0000 1.3133
#
#
#
# Elastic Compliance Matrix: (Units=1/GPa)
#
#
# Indices 1 2 3 4 5 6 
#
# 1 0.015351 -0.004698 -0.000157 0.000000 -0.001212 0.000000
# 2 -0.004698 0.000059 -0.006719 0.000000 -0.007726 0.000000
# 3 -0.000157 -0.006719 0.021569 0.000000 0.009397 0.000000
# 4 0.000000 0.000000 0.000000 -0.001854 0.000000 -0.037773
# 5 -0.001212 -0.007726 0.009397 0.000000 0.053024 0.000000
# 6 0.000000 0.000000 0.000000 -0.037773 0.000000 -0.007982
#
#
# Mechanical properties :
#
#
# Convention : Reuss Voigt Hill
#
# Bulk Modulus (GPa) = 72.29952 -56.20332 8.04810
# Shear Modulus (GPa) = 46.32935 4.37160 25.35047
#
# Velocity S-wave (km/s) = 4.98454 1.53115 3.68715
# Velocity P-wave (km/s) = 8.47942 5.19760 4.73738
#
# Compressibility (1/GPa) = 0.01383135
#
# Stress axis : x y z
#
# Youngs Moduli (GPa) = 65.14313 17030.86989 46.36378
#
# Poissons Ratio (x) = 80.00340 0.00727
# Poissons Ratio (y) = 0.30601 0.31152
# Poissons Ratio (z) = 0.01021 114.43124
#
# Static dielectric constant tensor:
#      x y z
#    x 1.639570 0.000000 -0.015060 
#    y 0.000000 1.663870 0.000000 
#    z -0.015060 0.000000 1.643760 
# 
# From -- ./inp_files/80101.got.cif
#   From: 2010.05.17/outbox.cif.g08.bks.cpg/sg13_41_cif.got.tgz:80101.got - 2010.06.03 16:44:36.
