data_PCOD9227194
_publ_section_title
;
Structure prediction by ZEFSAII (Michael W. Deem and Ramdas Pophale) SiO2 
 PCOD9227194
Probable space group: P 2/C
;
_chemical_formula_sum "Si O2"
_cell_formula_units_Z 26
_cell_length_a 9.196328
_cell_length_b 11.007738
_cell_length_c 13.159398
_cell_angle_alpha 90.000000
_cell_angle_beta 117.737128
_cell_angle_gamma 90.000000
_cell_volume 1179.063193
_symmetry_space_group_name_H-M "P 2/C"
_symmetry_group_IT_number 13
_symmetry_cell_setting 'monoclinic'
loop_
_space_group_symop_operation_xyz
x,y,z
-x,y,1/2-z
-x,-y,-z
x,-y,1/2+z
loop_
_atom_site_type_symbol
_atom_site_label
_atom_site_fract_x
_atom_site_fract_y
_atom_site_fract_z
Si Si1 0.898501 0.149180 0.397061
Si Si2 0.938208 0.877548 0.343914
Si Si3 0.603332 0.152822 0.642014
Si Si4 0.582779 0.914123 0.916504
Si Si5 0.587256 0.602304 0.458503
Si Si6 0.500000 0.457165 0.250000
Si Si7 0.287006 0.277686 0.318917
O O1 0.710641 0.129341 0.374914
O O2 0.872884 0.238778 0.294870
O O3 0.993314 0.184945 0.531145
O O4 0.965518 0.021263 0.375639
O O5 0.744519 0.854298 0.270375
O O6 0.000000 0.844575 0.250000
O O7 0.668877 0.106740 0.553278
O O8 0.536469 0.287398 0.605955
O O9 0.463474 0.053109 0.616022
O O10 0.414695 0.836264 0.869790
O O11 0.500000 0.500000 0.500000
O O12 0.615644 0.537586 0.360732
O O13 0.727146 0.663331 0.573873
O O14 0.386030 0.373653 0.282445
#
# Coordination Sequence:
#
# PCOD9227194 Si02
#       7
#     4   4   4   4   4   2   4
#     4  11  21  35  57  83 116 162 189 228 302 369
#     4  11  23  35  50  83 127 155 192 233 287 367
#     4  10  20  35  55  84 122 149 191 250 290 341
#     4  10  18  33  60  86 110 151 191 239 302 349
#     4   9  21  34  54  85 115 146 192 247 283 329
#     4  10  18  34  56  88 116 146 188 250 296 336
#     4  10  18  34  59  87 114 144 190 239 296 349
#
# _framework density 22.051404999999999
#
# number of rings (size 3 to 8) (size 9 to 14) (size 15 to 20)
#    0.000    1.846    4.615    0.000    0.000    1.231 
#    0.000    1.538    0.000    3.692    0.000   19.385 
#    0.000    0.000    0.000    0.000    0.000    0.000 
#
# Total GULP energy -145104.555917 kJ/mol
# GULP energy per Si atom -5580.944458 kJ/mol
# Density = 2.200121 g / cm^3
# Si number density = 22.051405 Si / 1000 Ang^3
#
#
#
# Elastic Constant Matrix: (Units=GPa)
#
#
# Indices 1 2 3 4 5 6 
#
# 1 31.7291 12.0869 16.5173 0.0000 -15.8299 0.0000
# 2 12.0869 100.4292 52.7754 0.0000 1.8111 0.0000
# 3 16.5173 52.7754 208.6511 0.0000 -0.4141 0.0000
# 4 0.0000 0.0000 0.0000 42.2716 0.0000 -8.7266
# 5 -15.8299 1.8111 -0.4141 0.0000 29.4440 0.0000
# 6 0.0000 0.0000 0.0000 -8.7266 0.0000 6.7711
#
#
#
# Elastic Compliance Matrix: (Units=1/GPa)
#
#
# Indices 1 2 3 4 5 6 
#
# 1 0.047557 -0.004888 -0.002477 0.000000 0.025834 0.000000
# 2 -0.004888 0.012002 -0.002656 0.000000 -0.003403 0.000000
# 3 -0.002477 -0.002656 0.005658 0.000000 -0.001089 0.000000
# 4 0.000000 0.000000 0.000000 0.032232 0.000000 0.041541
# 5 0.025834 -0.003403 -0.001089 0.000000 0.048046 0.000000
# 6 0.000000 0.000000 0.000000 0.041541 0.000000 0.201226
#
#
# Mechanical properties :
#
#
# Convention : Reuss Voigt Hill
#
# Bulk Modulus (GPa) = 22.13538 55.95209 39.04374
# Shear Modulus (GPa) = 13.09512 32.99264 23.04388
#
# Velocity S-wave (km/s) = 2.43954 3.87223 3.23616
# Velocity P-wave (km/s) = 4.24205 6.73950 5.63098
#
# Compressibility (1/GPa) = 0.04517654
#
# Stress axis : x y z
#
# Youngs Moduli (GPa) = 21.02745 83.31632 176.73011
#
# Poissons Ratio (x) = 0.40723 0.43779
# Poissons Ratio (y) = 0.10278 0.46934
# Poissons Ratio (z) = 0.05209 0.22126
#
# Static dielectric constant tensor:
#      x y z
#    x 1.881120 0.000000 -0.018940 
#    y 0.000000 1.796530 0.000000 
#    z -0.018940 0.000000 1.886710 
# 
# From -- ./inp_files/50910.got.cif
#   From: 2010.05.17/outbox.cif.g08.bks.cpg/sg13_26_cif.got.tgz:50910.got - 2010.06.03 16:44:36.
