data_PCOD9227512
_publ_section_title
;
Structure prediction by ZEFSAII (Michael W. Deem and Ramdas Pophale) SiO2 
 PCOD9227512
Probable space group: P 2/C
;
_chemical_formula_sum "Si O2"
_cell_formula_units_Z 20
_cell_length_a 23.874530
_cell_length_b 7.056102
_cell_length_c 8.679406
_cell_angle_alpha 90.000000
_cell_angle_beta 147.944484
_cell_angle_gamma 90.000000
_cell_volume 776.018535
_symmetry_space_group_name_H-M "P 2/C"
_symmetry_group_IT_number 13
_symmetry_cell_setting 'monoclinic'
loop_
_space_group_symop_operation_xyz
x,y,z
-x,y,1/2-z
-x,-y,-z
x,-y,1/2+z
loop_
_atom_site_type_symbol
_atom_site_label
_atom_site_fract_x
_atom_site_fract_y
_atom_site_fract_z
Si Si1 0.335796 0.194105 0.809000
Si Si2 0.286823 0.368299 0.183412
Si Si3 0.090347 0.760928 0.057906
Si Si4 0.474162 0.271726 0.434436
Si Si5 0.843694 0.087800 0.506581
O O1 0.297528 0.410331 0.718692
O O2 0.239202 0.048502 0.593832
O O3 0.404386 0.201570 0.126563
O O4 0.415077 0.171566 0.847860
O O5 0.397077 0.263401 0.402270
O O6 0.230133 0.269192 0.196497
O O7 0.203353 0.333871 0.849842
O O8 0.112282 0.953729 0.018263
O O9 0.064861 0.822220 0.172950
O O10 0.000000 0.657807 0.750000
O O11 0.500000 0.500000 0.500000
#
# Coordination Sequence:
#
# PCOD9227512 Si02
#       5
#     4   4   4   4   4
#     4  10  18  36  57  84 116 150 189 230 288 342
#     4   9  21  35  58  85 115 152 187 236 281 341
#     4  10  21  41  60  83 116 151 192 244 290 332
#     4   9  18  34  56  82 118 152 183 233 282 337
#     4  10  21  37  62  83 116 150 190 240 283 342
#
# _framework density 25.772580000000001
#
# number of rings (size 3 to 8) (size 9 to 14) (size 15 to 20)
#    1.200    1.200    2.000    0.600    0.000    4.000 
#    0.000   10.000    0.000    0.000    0.000    0.000 
#    0.000    0.000    0.000    0.000    0.000    0.000 
#
# Total GULP energy -111480.204401 kJ/mol
# GULP energy per Si atom -5574.010220 kJ/mol
# Density = 2.571392 g / cm^3
# Si number density = 25.772580 Si / 1000 Ang^3
#
#
#
# Elastic Constant Matrix: (Units=GPa)
#
#
# Indices 1 2 3 4 5 6 
#
# 1 30.0836 3.5537 4.8273 0.0000 6.0808 0.0000
# 2 3.5537 86.5032 15.1225 0.0000 4.6621 0.0000
# 3 4.8273 15.1225 129.2046 0.0000 -16.2149 0.0000
# 4 0.0000 0.0000 0.0000 29.2521 0.0000 -3.3304
# 5 6.0808 4.6621 -16.2149 0.0000 40.5735 0.0000
# 6 0.0000 0.0000 0.0000 -3.3304 0.0000 15.5161
#
#
#
# Elastic Compliance Matrix: (Units=1/GPa)
#
#
# Indices 1 2 3 4 5 6 
#
# 1 0.034841 -0.000771 -0.001954 0.000000 -0.005914 0.000000
# 2 -0.000771 0.011976 -0.001612 0.000000 -0.001905 0.000000
# 3 -0.001954 -0.001612 0.008487 0.000000 0.003870 0.000000
# 4 0.000000 0.000000 0.000000 0.035042 0.000000 0.007521
# 5 -0.005914 -0.001905 0.003870 0.000000 0.027298 0.000000
# 6 0.000000 0.000000 0.000000 0.007521 0.000000 0.066063
#
#
# Mechanical properties :
#
#
# Convention : Reuss Voigt Hill
#
# Bulk Modulus (GPa) = 21.44509 32.53313 26.98911
# Shear Modulus (GPa) = 24.04717 31.88754 27.96736
#
# Velocity S-wave (km/s) = 3.05790 3.52130 3.29775
# Velocity P-wave (km/s) = 4.56143 5.40215 4.99950
#
# Compressibility (1/GPa) = 0.04663071
#
# Stress axis : x y z
#
# Youngs Moduli (GPa) = 28.70211 83.49743 117.82765
#
# Poissons Ratio (x) = 0.06438 0.23019
# Poissons Ratio (y) = 0.02213 0.18994
# Poissons Ratio (z) = 0.05607 0.13460
#
# Static dielectric constant tensor:
#      x y z
#    x 2.095830 0.000000 -0.001940 
#    y 0.000000 2.007870 0.000000 
#    z -0.001940 0.000000 2.105280 
# 
# From -- ./inp_files/42663.got.cif
#   From: 2010.05.17/outbox.cif.g08.bks.cpg/sg13_22_cif.got.tgz:42663.got - 2010.06.03 16:44:36.
