data_PCOD9227057
_publ_section_title
;
Structure prediction by ZEFSAII (Michael W. Deem and Ramdas Pophale) SiO2 
 PCOD9227057
Probable space group: P 2/C
;
_chemical_formula_sum "Si O2"
_cell_formula_units_Z 28
_cell_length_a 20.858165
_cell_length_b 8.904718
_cell_length_c 9.598072
_cell_angle_alpha 90.000000
_cell_angle_beta 37.501192
_cell_angle_gamma 90.000000
_cell_volume 1085.273441
_symmetry_space_group_name_H-M "P 2/C"
_symmetry_group_IT_number 13
_symmetry_cell_setting 'monoclinic'
loop_
_space_group_symop_operation_xyz
x,y,z
-x,y,1/2-z
-x,-y,-z
x,-y,1/2+z
loop_
_atom_site_type_symbol
_atom_site_label
_atom_site_fract_x
_atom_site_fract_y
_atom_site_fract_z
Si Si1 0.729866 0.318112 0.012053
Si Si2 0.042534 0.802905 0.401066
Si Si3 0.235054 0.503654 0.806357
Si Si4 0.500000 0.208224 0.750000
Si Si5 0.661174 0.739031 0.173501
Si Si6 0.843075 0.092820 0.190651
Si Si7 0.000000 0.380907 0.250000
Si Si8 0.341072 0.061121 0.578176
O O1 0.855043 0.293174 0.803152
O O2 0.725553 0.464281 0.917146
O O3 0.672208 0.179892 0.029758
O O4 0.711853 0.353879 0.206305
O O5 0.941204 0.807978 0.476556
O O6 0.995325 0.730193 0.624696
O O7 0.098242 0.965929 0.319558
O O8 0.285576 0.372077 0.810468
O O9 0.108401 0.476002 0.040011
O O10 0.441497 0.307858 0.735967
O O11 0.590614 0.085802 0.562649
O O12 0.616628 0.864600 0.356161
O O13 0.757862 0.809903 0.919539
O O14 0.778269 0.996831 0.191085
#
# Coordination Sequence:
#
# PCOD9227057 Si02
#       8
#     4   4   4   2   4   4   2   4
#     4   9  20  37  58  80 118 156 197 233 283 333
#     4   9  17  30  51  78 104 152 191 227 277 333
#     4  10  20  36  58  80 116 157 195 235 274 339
#     4  10  20  36  64  86 108 130 190 242 290 370
#     4  10  19  36  56  83 110 149 184 233 303 341
#     4   9  17  30  51  76 108 140 186 228 273 347
#     4  10  18  32  58  72 110 164 186 228 280 336
#     4   9  19  36  59  81 108 148 181 241 301 346
#
# _framework density 25.799947
#
# number of rings (size 3 to 8) (size 9 to 14) (size 15 to 20)
#    0.000    2.571    1.429    1.286    0.000    2.286 
#    0.000   10.714    3.143    3.429    0.000    0.000 
#    0.000    0.000    0.000    0.000    0.000    0.000 
#
# Total GULP energy -156088.696830 kJ/mol
# GULP energy per Si atom -5574.596315 kJ/mol
# Density = 2.574123 g / cm^3
# Si number density = 25.799947 Si / 1000 Ang^3
#
#
#
# Elastic Constant Matrix: (Units=GPa)
#
#
# Indices 1 2 3 4 5 6 
#
# 1 101.9162 22.9144 30.1879 0.0000 -30.3296 0.0000
# 2 22.9144 70.3351 19.7736 0.0000 5.1636 0.0000
# 3 30.1879 19.7736 46.8098 0.0000 -17.0672 0.0000
# 4 0.0000 0.0000 0.0000 16.2379 0.0000 -9.2082
# 5 -30.3296 5.1636 -17.0672 0.0000 47.9619 0.0000
# 6 0.0000 0.0000 0.0000 -9.2082 0.0000 -14.4312
#
#
#
# Elastic Compliance Matrix: (Units=1/GPa)
#
#
# Indices 1 2 3 4 5 6 
#
# 1 0.014457 -0.003939 -0.004793 0.000000 0.007860 0.000000
# 2 -0.003939 0.018222 -0.007791 0.000000 -0.007225 0.000000
# 3 -0.004793 -0.007791 0.030963 0.000000 0.008826 0.000000
# 4 0.000000 0.000000 0.000000 0.045221 0.000000 -0.028855
# 5 0.007860 -0.007225 0.008826 0.000000 0.029739 0.000000
# 6 0.000000 0.000000 0.000000 -0.028855 0.000000 -0.050883
#
#
# Mechanical properties :
#
#
# Convention : Reuss Voigt Hill
#
# Bulk Modulus (GPa) = 32.68571 40.53476 36.61024
# Shear Modulus (GPa) = 38.17794 19.69938 28.93866
#
# Velocity S-wave (km/s) = 3.85095 2.76623 3.35275
# Velocity P-wave (km/s) = 5.69820 5.09392 5.40451
#
# Compressibility (1/GPa) = 0.03059441
#
# Stress axis : x y z
#
# Youngs Moduli (GPa) = 69.17237 54.87902 32.29617
#
# Poissons Ratio (x) = 0.21619 0.15480
# Poissons Ratio (y) = 0.27250 0.25163
# Poissons Ratio (z) = 0.33155 0.42758
#
# Static dielectric constant tensor:
#      x y z
#    x 2.067110 0.000000 0.050860 
#    y 0.000000 2.170820 0.000000 
#    z 0.050860 0.000000 2.062750 
# 
# From -- ./inp_files/36137.got.cif
#   From: 2010.05.17/outbox.cif.g08.bks.cpg/sg13_19_cif.got.tgz:36137.got - 2010.06.03 16:44:36.
