data_PCOD9227565
_publ_section_title
;
Structure prediction by ZEFSAII (Michael W. Deem and Ramdas Pophale) SiO2 
 PCOD9227565
Probable space group: P 2/C
;
_chemical_formula_sum "Si O2"
_cell_formula_units_Z 26
_cell_length_a 9.284311
_cell_length_b 13.492922
_cell_length_c 20.588109
_cell_angle_alpha 90.000000
_cell_angle_beta 28.095740
_cell_angle_gamma 90.000000
_cell_volume 1214.628679
_symmetry_space_group_name_H-M "P 2/C"
_symmetry_group_IT_number 13
_symmetry_cell_setting 'monoclinic'
loop_
_space_group_symop_operation_xyz
x,y,z
-x,y,1/2-z
-x,-y,-z
x,-y,1/2+z
loop_
_atom_site_type_symbol
_atom_site_label
_atom_site_fract_x
_atom_site_fract_y
_atom_site_fract_z
Si Si1 0.000000 0.834630 0.250000
Si Si2 0.078350 0.197670 0.925400
Si Si3 0.788242 0.956892 0.462245
Si Si4 0.536039 0.685579 0.812553
Si Si5 0.649603 0.524194 0.120631
Si Si6 0.137034 0.868528 0.765370
Si Si7 0.492158 0.265605 0.643510
O O1 0.141775 0.897890 0.133490
O O2 0.286049 0.772880 0.166167
O O3 0.267974 0.253586 0.794578
O O4 0.226353 0.204166 0.937233
O O5 0.021756 0.087407 0.922522
O O6 0.761610 0.254469 0.048369
O O7 0.449126 0.933437 0.625621
O O8 0.894701 0.066479 0.401894
O O9 0.500000 0.675773 0.750000
O O10 0.513601 0.572526 0.845191
O O11 0.797348 0.761992 0.728648
O O12 0.500000 0.545284 0.250000
O O13 0.609496 0.621637 0.092926
O O14 0.000000 0.500000 0.000000
O O15 0.000000 0.848379 0.750000
#
# Coordination Sequence:
#
# PCOD9227565 Si02
#       7
#     2   4   4   4   4   4   4
#     4  10  22  36  62  92 118 160 208 248 294 380
#     4   9  18  38  61  85 115 155 198 250 292 356
#     4  10  22  41  63  86 121 158 207 247 307 362
#     4  10  22  38  57  89 123 152 202 253 301 360
#     4  11  19  36  64  88 120 161 199 247 304 362
#     4  11  23  43  60  86 125 166 197 254 311 367
#     4  10  18  36  61  89 117 156 205 245 297 356
#
# _framework density 21.405719999999999
#
# number of rings (size 3 to 8) (size 9 to 14) (size 15 to 20)
#    0.000    1.846    3.846    0.462    0.000    1.231 
#   12.462    1.538    0.000    3.692    0.000    0.000 
#    0.000    0.000    0.000    0.000    0.000    0.000 
#
# Total GULP energy -145004.884073 kJ/mol
# GULP energy per Si atom -5577.110926 kJ/mol
# Density = 2.135700 g / cm^3
# Si number density = 21.405720 Si / 1000 Ang^3
#
#
#
# Elastic Constant Matrix: (Units=GPa)
#
#
# Indices 1 2 3 4 5 6 
#
# 1 115.4660 95.5931 5.2345 0.0000 -20.0887 0.0000
# 2 95.5931 109.7212 -3.8495 0.0000 -8.0295 0.0000
# 3 5.2345 -3.8495 45.0030 0.0000 6.3375 0.0000
# 4 0.0000 0.0000 0.0000 58.0381 0.0000 5.8763
# 5 -20.0887 -8.0295 6.3375 0.0000 26.1353 0.0000
# 6 0.0000 0.0000 0.0000 5.8763 0.0000 35.6592
#
#
#
# Elastic Compliance Matrix: (Units=1/GPa)
#
#
# Indices 1 2 3 4 5 6 
#
# 1 0.044795 -0.037560 -0.012059 0.000000 0.025815 0.000000
# 2 -0.037560 0.040826 0.010520 0.000000 -0.018879 0.000000
# 3 -0.012059 0.010520 0.026270 0.000000 -0.012407 0.000000
# 4 0.000000 0.000000 0.000000 0.017522 0.000000 -0.002888
# 5 0.025815 -0.018879 -0.012407 0.000000 0.055314 0.000000
# 6 0.000000 0.000000 0.000000 -0.002888 0.000000 0.028519
#
#
# Mechanical properties :
#
#
# Convention : Reuss Voigt Hill
#
# Bulk Modulus (GPa) = 29.68104 51.57182 40.62643
# Shear Modulus (GPa) = 16.51936 35.51399 26.01667
#
# Velocity S-wave (km/s) = 2.78101 4.07761 3.49005
# Velocity P-wave (km/s) = 4.92017 6.80544 5.93810
#
# Compressibility (1/GPa) = 0.03369155
#
# Stress axis : x y z
#
# Youngs Moduli (GPa) = 22.32417 24.49445 38.06567
#
# Poissons Ratio (x) = 0.92002 0.45902
# Poissons Ratio (y) = 0.83851 -0.40044
# Poissons Ratio (z) = 0.26920 -0.25767
#
# Static dielectric constant tensor:
#      x y z
#    x 1.772370 0.000000 -0.042240 
#    y 0.000000 1.847270 0.000000 
#    z -0.042240 0.000000 1.867940 
# 
# From -- ./inp_files/76594.got.cif
#   From: 2010.05.17/outbox.cif.g08.bks.cpg/sg13_39_cif.got.tgz:76594.got - 2010.06.03 16:44:36.
