data_PCOD9227300
_publ_section_title
;
Structure prediction by ZEFSAII (Michael W. Deem and Ramdas Pophale) SiO2 
 PCOD9227300
Probable space group: P 2/C
;
_chemical_formula_sum "Si O2"
_cell_formula_units_Z 28
_cell_length_a 10.994425
_cell_length_b 10.646551
_cell_length_c 18.229982
_cell_angle_alpha 90.000000
_cell_angle_beta 38.479190
_cell_angle_gamma 90.000000
_cell_volume 1327.757888
_symmetry_space_group_name_H-M "P 2/C"
_symmetry_group_IT_number 13
_symmetry_cell_setting 'monoclinic'
loop_
_space_group_symop_operation_xyz
x,y,z
-x,y,1/2-z
-x,-y,-z
x,-y,1/2+z
loop_
_atom_site_type_symbol
_atom_site_label
_atom_site_fract_x
_atom_site_fract_y
_atom_site_fract_z
Si Si1 0.014817 0.074874 0.156263
Si Si2 0.012235 0.880767 0.051529
Si Si3 0.457895 0.193710 0.355914
Si Si4 0.475990 0.048679 0.928547
Si Si5 0.355484 0.441387 0.247801
Si Si6 0.488437 0.303518 0.843014
Si Si7 0.042709 0.307408 0.044638
O O1 0.958653 0.201618 0.140400
O O2 0.000000 0.084914 0.250000
O O3 0.928576 0.945788 0.163968
O O4 0.242932 0.061614 0.027971
O O5 0.225595 0.824774 0.970535
O O6 0.924167 0.765647 0.047781
O O7 0.000000 0.000000 0.000000
O O8 0.500000 0.191144 0.250000
O O9 0.548360 0.324227 0.341352
O O10 0.549014 0.069507 0.347355
O O11 0.541891 0.183499 0.867273
O O12 0.500000 0.000000 0.000000
O O13 0.500000 0.452422 0.250000
O O14 0.375317 0.577737 0.203410
O O15 0.866576 0.407368 0.124756
O O16 0.500000 0.271683 0.750000
O O17 0.261278 0.344959 0.964976
#
# Coordination Sequence:
#
# PCOD9227300 Si02
#       7
#     4   4   4   4   4   4   4
#     4   9  20  33  54  86 120 154 201 244 297 357
#     4   9  17  31  53  87 114 152 198 251 300 355
#     4  10  18  34  58  86 113 152 205 243 297 369
#     4  10  22  36  58  86 120 156 194 252 307 352
#     4  10  20  36  62  89 117 159 201 243 306 359
#     4  10  23  40  59  92 125 155 200 253 304 354
#     4  10  19  37  60  84 120 159 204 243 299 371
#
# _framework density 21.088182
#
# number of rings (size 3 to 8) (size 9 to 14) (size 15 to 20)
#    0.000    2.286    2.857    1.286    2.000    3.429 
#    0.000    0.714    0.000    0.000    0.000    0.000 
#    0.000    0.000    0.000    0.000    0.000    0.000 
#
# Total GULP energy -155966.442822 kJ/mol
# GULP energy per Si atom -5570.230101 kJ/mol
# Density = 2.104018 g / cm^3
# Si number density = 21.088182 Si / 1000 Ang^3
#
#
#
# Elastic Constant Matrix: (Units=GPa)
#
#
# Indices 1 2 3 4 5 6 
#
# 1 61.1563 42.3827 25.6527 0.0000 -10.8964 0.0000
# 2 42.3827 168.4825 53.5168 0.0000 2.1878 0.0000
# 3 25.6527 53.5168 67.8896 0.0000 -3.4054 0.0000
# 4 0.0000 0.0000 0.0000 30.8182 0.0000 -10.2947
# 5 -10.8964 2.1878 -3.4054 0.0000 46.5700 0.0000
# 6 0.0000 0.0000 0.0000 -10.2947 0.0000 15.3780
#
#
#
# Elastic Compliance Matrix: (Units=1/GPa)
#
#
# Indices 1 2 3 4 5 6 
#
# 1 0.022121 -0.004075 -0.004895 0.000000 0.005009 0.000000
# 2 -0.004075 0.008701 -0.005407 0.000000 -0.001758 0.000000
# 3 -0.004895 -0.005407 0.020874 0.000000 0.000635 0.000000
# 4 0.000000 0.000000 0.000000 0.041795 0.000000 0.027979
# 5 0.005009 -0.001758 0.000635 0.000000 0.022774 0.000000
# 6 0.000000 0.000000 0.000000 0.027979 0.000000 0.083758
#
#
# Mechanical properties :
#
#
# Convention : Reuss Voigt Hill
#
# Bulk Modulus (GPa) = 43.58952 60.07031 51.82991
# Shear Modulus (GPa) = 21.14836 30.28499 25.71667
#
# Velocity S-wave (km/s) = 3.17022 3.79372 3.49590
# Velocity P-wave (km/s) = 5.84084 6.90919 6.39735
#
# Compressibility (1/GPa) = 0.02294130
#
# Stress axis : x y z
#
# Youngs Moduli (GPa) = 45.20496 114.93270 47.90689
#
# Poissons Ratio (x) = 0.46834 0.23452
# Poissons Ratio (y) = 0.18420 0.25904
# Poissons Ratio (z) = 0.22129 0.62146
#
# Static dielectric constant tensor:
#      x y z
#    x 1.935410 0.000000 -0.022750 
#    y 0.000000 1.855690 0.000000 
#    z -0.022750 0.000000 1.694220 
# 
# From -- ./inp_files/66411.got.cif
#   From: 2010.05.17/outbox.cif.g08.bks.cpg/sg13_34_cif.got.tgz:66411.got - 2010.06.03 16:44:36.
