data_PCOD9227865
_publ_section_title
;
Structure prediction by ZEFSAII (Michael W. Deem and Ramdas Pophale) SiO2 
 PCOD9227865
Probable space group: P 2/C
;
_chemical_formula_sum "Si O2"
_cell_formula_units_Z 24
_cell_length_a 11.322169
_cell_length_b 22.484265
_cell_length_c 5.374625
_cell_angle_alpha 90.000000
_cell_angle_beta 89.564804
_cell_angle_gamma 90.000000
_cell_volume 1368.182302
_symmetry_space_group_name_H-M "P 2/C"
_symmetry_group_IT_number 13
_symmetry_cell_setting 'monoclinic'
loop_
_space_group_symop_operation_xyz
x,y,z
-x,y,1/2-z
-x,-y,-z
x,-y,1/2+z
loop_
_atom_site_type_symbol
_atom_site_label
_atom_site_fract_x
_atom_site_fract_y
_atom_site_fract_z
Si Si1 0.132377 0.423331 0.195777
Si Si2 0.644126 0.965624 0.750496
Si Si3 0.642479 0.170787 0.247803
Si Si4 0.775407 0.632478 0.289134
Si Si5 0.356534 0.242857 0.751513
Si Si6 0.344490 0.516486 0.170196
O O1 0.173716 0.385870 0.439701
O O2 0.219276 0.479768 0.151509
O O3 0.000000 0.444042 0.250000
O O4 0.139607 0.383127 0.945632
O O5 0.500000 0.965055 0.750000
O O6 0.684925 0.897265 0.758795
O O7 0.680589 0.998547 0.496397
O O8 0.500000 0.167756 0.250000
O O9 0.674159 0.208817 0.491580
O O10 0.672978 0.202534 0.988167
O O11 0.718714 0.697058 0.272327
O O12 0.671609 0.584255 0.252664
O O13 0.500000 0.253675 0.750000
O O14 0.398773 0.483355 0.400008
#
# Coordination Sequence:
#
# PCOD9227865 Si02
#       6
#     4   4   4   4   4   4
#     4  10  19  31  48  68  89 110 136 178 230 282
#     4   9  15  23  37  58  83 108 139 182 222 252
#     4   9  17  28  42  60  82 114 155 188 214 247
#     4  10  19  30  45  65  87 112 147 181 217 263
#     4  10  19  31  45  60  84 120 160 192 209 238
#     4   8  16  27  42  61  84 104 130 171 218 264
#
# _framework density 17.541523000000002
#
# number of rings (size 3 to 8) (size 9 to 14) (size 15 to 20)
#    0.000    2.667    0.000    2.500    0.000   10.000 
#    0.000    0.000    0.000    9.000    0.000    0.000 
#    0.000    0.000    0.000    0.000    0.000  210.000 
#
# Total GULP energy -133607.809566 kJ/mol
# GULP energy per Si atom -5566.992065 kJ/mol
# Density = 1.750160 g / cm^3
# Si number density = 17.541523 Si / 1000 Ang^3
#
#
#
# Elastic Constant Matrix: (Units=GPa)
#
#
# Indices 1 2 3 4 5 6 
#
# 1 39.4882 18.4981 13.5089 0.0000 -6.9398 0.0000
# 2 18.4981 140.1261 59.7554 0.0000 -1.3145 0.0000
# 3 13.5089 59.7554 155.6414 0.0000 -11.0154 0.0000
# 4 0.0000 0.0000 0.0000 29.3069 0.0000 2.5242
# 5 -6.9398 -1.3145 -11.0154 0.0000 15.9007 0.0000
# 6 0.0000 0.0000 0.0000 2.5242 0.0000 16.0549
#
#
#
# Elastic Compliance Matrix: (Units=1/GPa)
#
#
# Indices 1 2 3 4 5 6 
#
# 1 0.029279 -0.003632 -0.000277 0.000000 0.012286 0.000000
# 2 -0.003632 0.009025 -0.003375 0.000000 -0.003177 0.000000
# 3 -0.000277 -0.003375 0.008114 0.000000 0.005221 0.000000
# 4 0.000000 0.000000 0.000000 0.034590 0.000000 -0.005438
# 5 0.012286 -0.003177 0.005221 0.000000 0.071607 0.000000
# 6 0.000000 0.000000 0.000000 -0.005438 0.000000 0.063141
#
#
# Mechanical properties :
#
#
# Convention : Reuss Voigt Hill
#
# Bulk Modulus (GPa) = 31.39578 57.64228 44.51903
# Shear Modulus (GPa) = 20.75189 28.48539 24.61864
#
# Velocity S-wave (km/s) = 3.44323 4.03412 3.75033
# Velocity P-wave (km/s) = 5.80901 7.39125 6.64738
#
# Compressibility (1/GPa) = 0.03185142
#
# Stress axis : x y z
#
# Youngs Moduli (GPa) = 34.15363 110.80182 123.23988
#
# Poissons Ratio (x) = 0.40239 0.03419
# Poissons Ratio (y) = 0.12403 0.41589
# Poissons Ratio (z) = 0.00948 0.37392
#
# Static dielectric constant tensor:
#      x y z
#    x 1.677230 0.000000 -0.008720 
#    y 0.000000 1.580230 0.000000 
#    z -0.008720 0.000000 1.658550 
# 
# From -- ./inp_files/3639.got.cif
#   From: 2010.05.17/outbox.cif.g08.bks.cpg/sg13_2_cif.got.tgz:3639.got - 2010.06.03 16:44:36.
