data_PCOD9227209
_publ_section_title
;
Structure prediction by ZEFSAII (Michael W. Deem and Ramdas Pophale) SiO2 
 PCOD9227209
Probable space group: P 2/C
;
_chemical_formula_sum "Si O2"
_cell_formula_units_Z 32
_cell_length_a 12.959885
_cell_length_b 11.043402
_cell_length_c 13.856936
_cell_angle_alpha 90.000000
_cell_angle_beta 41.798508
_cell_angle_gamma 90.000000
_cell_volume 1321.843082
_symmetry_space_group_name_H-M "P 2/C"
_symmetry_group_IT_number 13
_symmetry_cell_setting 'monoclinic'
loop_
_space_group_symop_operation_xyz
x,y,z
-x,y,1/2-z
-x,-y,-z
x,-y,1/2+z
loop_
_atom_site_type_symbol
_atom_site_label
_atom_site_fract_x
_atom_site_fract_y
_atom_site_fract_z
Si Si1 0.921760 0.456797 0.653915
Si Si2 0.382710 0.584359 0.682977
Si Si3 0.757175 0.785903 0.205049
Si Si4 0.456250 0.329870 0.937631
Si Si5 0.798430 0.308065 0.017056
Si Si6 0.046253 0.866007 0.934843
Si Si7 0.180337 0.834406 0.639831
Si Si8 0.813224 0.104659 0.865275
O O1 0.778639 0.550792 0.763791
O O2 0.823018 0.336456 0.706519
O O3 0.000000 0.500000 0.500000
O O4 0.077086 0.411672 0.602499
O O5 0.491974 0.466884 0.622742
O O6 0.466727 0.670581 0.547760
O O7 0.328356 0.634607 0.823702
O O8 0.582413 0.758140 0.302785
O O9 0.771099 0.881207 0.282360
O O10 0.874113 0.812576 0.036450
O O11 0.291212 0.272673 0.030196
O O12 0.890173 0.213846 0.021939
O O13 0.744599 0.219510 0.969986
O O14 0.169236 0.852105 0.764461
O O15 0.000000 0.000000 0.000000
O O16 0.000000 0.808593 0.750000
O O17 0.226624 0.969344 0.571485
O O18 0.000000 0.113453 0.750000
#
# Coordination Sequence:
#
# PCOD9227209 Si02
#       8
#     4   4   4   4   4   4   4   4
#     4   8  15  28  55  90 113 151 210 253 310 385
#     4   9  18  36  64  90 126 172 217 266 329 398
#     4  10  20  34  60  92 127 170 210 272 328 387
#     4  10  21  39  64  91 131 168 224 276 328 404
#     4  10  18  33  63  93 129 167 213 269 330 397
#     4  11  18  35  60  92 124 172 221 260 328 406
#     4  11  23  39  63  93 129 171 224 285 333 394
#     4  11  19  35  58  98 136 161 217 282 326 389
#
# _framework density 24.208622999999999
#
# number of rings (size 3 to 8) (size 9 to 14) (size 15 to 20)
#    0.000    2.000    5.000    0.750    0.000    0.500 
#    0.000    1.250    8.250   10.500    0.000    0.000 
#    0.000    0.000    0.000    0.000    0.000    0.000 
#
# Total GULP energy -178403.583320 kJ/mol
# GULP energy per Si atom -5575.111979 kJ/mol
# Density = 2.415352 g / cm^3
# Si number density = 24.208623 Si / 1000 Ang^3
#
#
#
# Elastic Constant Matrix: (Units=GPa)
#
#
# Indices 1 2 3 4 5 6 
#
# 1 59.2299 34.1754 21.4111 0.0000 -7.9666 0.0000
# 2 34.1754 92.8885 53.6034 0.0000 -12.6861 0.0000
# 3 21.4111 53.6034 122.7727 0.0000 -4.5467 0.0000
# 4 0.0000 0.0000 0.0000 49.7756 0.0000 0.9162
# 5 -7.9666 -12.6861 -4.5467 0.0000 28.5000 0.0000
# 6 0.0000 0.0000 0.0000 0.9162 0.0000 22.7026
#
#
#
# Elastic Compliance Matrix: (Units=1/GPa)
#
#
# Indices 1 2 3 4 5 6 
#
# 1 0.021643 -0.007315 -0.000480 0.000000 0.002717 0.000000
# 2 -0.007315 0.017753 -0.006296 0.000000 0.004853 0.000000
# 3 -0.000480 -0.006296 0.010933 0.000000 -0.001192 0.000000
# 4 0.000000 0.000000 0.000000 0.020105 0.000000 -0.000811
# 5 0.002717 0.004853 -0.001192 0.000000 0.037817 0.000000
# 6 0.000000 0.000000 0.000000 -0.000811 0.000000 0.044081
#
#
# Mechanical properties :
#
#
# Convention : Reuss Voigt Hill
#
# Bulk Modulus (GPa) = 45.15036 54.80790 49.97913
# Shear Modulus (GPa) = 26.61054 31.24237 28.92645
#
# Velocity S-wave (km/s) = 3.31904 3.59632 3.46046
# Velocity P-wave (km/s) = 5.77746 6.31931 6.05445
#
# Compressibility (1/GPa) = 0.02214822
#
# Stress axis : x y z
#
# Youngs Moduli (GPa) = 46.20436 56.32989 91.46291
#
# Poissons Ratio (x) = 0.41203 0.04392
# Poissons Ratio (y) = 0.33797 0.57581
# Poissons Ratio (z) = 0.02219 0.35463
#
# Static dielectric constant tensor:
#      x y z
#    x 2.184380 0.000000 0.167600 
#    y 0.000000 2.033140 0.000000 
#    z 0.167600 0.000000 2.127250 
# 
# From -- ./inp_files/53693.got.cif
#   From: 2010.05.17/outbox.cif.g08.bks.cpg/sg13_27_cif.got.tgz:53693.got - 2010.06.03 16:44:36.
