data_PCOD9227448
_publ_section_title
;
Structure prediction by ZEFSAII (Michael W. Deem and Ramdas Pophale) SiO2 
 PCOD9227448
Probable space group: P 2/C
;
_chemical_formula_sum "Si O2"
_cell_formula_units_Z 32
_cell_length_a 13.598553
_cell_length_b 10.884176
_cell_length_c 15.132419
_cell_angle_alpha 90.000000
_cell_angle_beta 139.680346
_cell_angle_gamma 90.000000
_cell_volume 1449.223489
_symmetry_space_group_name_H-M "P 2/C"
_symmetry_group_IT_number 13
_symmetry_cell_setting 'monoclinic'
loop_
_space_group_symop_operation_xyz
x,y,z
-x,y,1/2-z
-x,-y,-z
x,-y,1/2+z
loop_
_atom_site_type_symbol
_atom_site_label
_atom_site_fract_x
_atom_site_fract_y
_atom_site_fract_z
Si Si1 0.812526 0.733138 0.791415
Si Si2 0.053691 0.460534 0.388269
Si Si3 0.000865 0.274522 0.922982
Si Si4 0.231166 0.739985 0.080826
Si Si5 0.433047 0.918743 0.330380
Si Si6 0.502658 0.210587 0.149933
Si Si7 0.779185 0.143514 0.647830
Si Si8 0.784036 0.117842 0.095154
O O1 0.916554 0.613554 0.844036
O O2 0.634034 0.717400 0.687396
O O3 0.829726 0.816454 0.716678
O O4 0.877930 0.789198 0.928466
O O5 0.063483 0.596713 0.432437
O O6 0.000000 0.461028 0.250000
O O7 0.213821 0.389795 0.516735
O O8 0.858551 0.290423 0.891503
O O9 0.926332 0.205130 0.790258
O O10 0.362953 0.829126 0.207806
O O11 0.154787 0.823391 0.952676
O O12 0.324957 0.905875 0.341649
O O13 0.601045 0.871148 0.466615
O O14 0.451855 0.063872 0.321801
O O15 0.500000 0.247844 0.250000
O O16 0.337844 0.222885 0.991006
O O17 0.821291 0.024230 0.621649
#
# Coordination Sequence:
#
# PCOD9227448 Si02
#       8
#     4   4   4   4   4   4   4   4
#     4  11  21  39  64  94 122 163 214 266 306 372
#     4  11  23  45  68  85 121 171 218 265 322 370
#     4  10  25  42  65  86 129 171 213 262 320 370
#     4  10  20  36  62  95 121 166 212 263 311 382
#     4  10  18  35  60  94 133 167 201 256 325 385
#     4  11  21  37  62  91 134 172 203 251 324 385
#     4  10  20  39  61  93 133 171 201 256 319 389
#     4  11  18  34  65  97 129 160 205 256 321 380
#
# _framework density 22.080788999999999
#
# number of rings (size 3 to 8) (size 9 to 14) (size 15 to 20)
#    0.000    1.500    3.750    4.125    0.000    1.500 
#    2.250    0.625    8.250    0.000    0.000    0.000 
#    0.000    0.000    0.000    0.000    0.000    0.000 
#
# Total GULP energy -178489.407166 kJ/mol
# GULP energy per Si atom -5577.793974 kJ/mol
# Density = 2.203053 g / cm^3
# Si number density = 22.080789 Si / 1000 Ang^3
#
#
#
# Elastic Constant Matrix: (Units=GPa)
#
#
# Indices 1 2 3 4 5 6 
#
# 1 52.5585 4.2700 23.8370 0.0000 -13.4040 0.0000
# 2 4.2700 52.4816 51.1994 0.0000 4.6695 0.0000
# 3 23.8370 51.1994 165.0626 0.0000 -13.4684 0.0000
# 4 0.0000 0.0000 0.0000 349.0253 0.0000 96.1346
# 5 -13.4040 4.6695 -13.4684 0.0000 36.0412 0.0000
# 6 0.0000 0.0000 0.0000 96.1346 0.0000 53.2984
#
#
#
# Elastic Compliance Matrix: (Units=1/GPa)
#
#
# Indices 1 2 3 4 5 6 
#
# 1 0.022047 0.000143 -0.002641 0.000000 0.007194 0.000000
# 2 0.000143 0.029104 -0.009646 0.000000 -0.007322 0.000000
# 3 -0.002641 -0.009646 0.009751 0.000000 0.003911 0.000000
# 4 0.000000 0.000000 0.000000 0.005694 0.000000 -0.010270
# 5 0.007194 -0.007322 0.003911 0.000000 0.032832 0.000000
# 6 0.000000 0.000000 0.000000 -0.010270 0.000000 0.037286
#
#
# Mechanical properties :
#
#
# Convention : Reuss Voigt Hill
#
# Bulk Modulus (GPa) = 27.31188 47.63507 37.47347
# Shear Modulus (GPa) = 28.86714 100.39273 64.62993
#
# Velocity S-wave (km/s) = 3.61964 6.75017 5.41602
# Velocity P-wave (km/s) = 5.46489 9.07596 7.49126
#
# Compressibility (1/GPa) = 0.03661410
#
# Stress axis : x y z
#
# Youngs Moduli (GPa) = 45.35685 34.35938 102.55610
#
# Poissons Ratio (x) = -0.00490 0.27087
# Poissons Ratio (y) = -0.00647 0.98922
# Poissons Ratio (z) = 0.11980 0.33142
#
# Static dielectric constant tensor:
#      x y z
#    x 1.851380 0.000000 0.018450 
#    y 0.000000 1.803780 0.000000 
#    z 0.018450 0.000000 1.884040 
# 
# From -- ./inp_files/53725.got.cif
#   From: 2010.05.17/outbox.cif.g08.bks.cpg/sg13_27_cif.got.tgz:53725.got - 2010.06.03 16:44:36.
