data_PCOD9227087
_publ_section_title
;
Structure prediction by ZEFSAII (Michael W. Deem and Ramdas Pophale) SiO2 
 PCOD9227087
Probable space group: P 2/C
;
_chemical_formula_sum "Si O2"
_cell_formula_units_Z 30
_cell_length_a 22.680000
_cell_length_b 9.096335
_cell_length_c 20.171536
_cell_angle_alpha 90.000000
_cell_angle_beta 23.528829
_cell_angle_gamma 90.000000
_cell_volume 1661.308795
_symmetry_space_group_name_H-M "P 2/C"
_symmetry_group_IT_number 13
_symmetry_cell_setting 'monoclinic'
loop_
_space_group_symop_operation_xyz
x,y,z
-x,y,1/2-z
-x,-y,-z
x,-y,1/2+z
loop_
_atom_site_type_symbol
_atom_site_label
_atom_site_fract_x
_atom_site_fract_y
_atom_site_fract_z
Si Si1 0.270947 0.420011 0.589303
Si Si2 0.676189 0.815578 0.697085
Si Si3 0.639948 0.848063 0.253253
Si Si4 0.447897 0.340027 0.528774
Si Si5 0.601364 0.290942 0.587513
Si Si6 0.056782 0.377064 0.624040
Si Si7 0.844774 0.705205 0.939839
Si Si8 0.500000 0.267260 0.250000
O O1 0.312983 0.349830 0.615894
O O2 0.332457 0.586146 0.528264
O O3 0.371542 0.349406 0.426298
O O4 0.096153 0.415765 0.755665
O O5 0.579930 0.724891 0.848673
O O6 0.830312 0.730014 0.528863
O O7 0.592528 0.814897 0.711953
O O8 0.679228 0.982026 0.719050
O O9 0.596226 0.764725 0.365232
O O10 0.499930 0.821593 0.348003
O O11 0.779416 0.771010 0.074133
O O12 0.500000 0.500000 0.500000
O O13 0.500000 0.362339 0.750000
O O14 0.735319 0.240423 0.494757
O O15 0.139719 0.528649 0.561889
O O16 0.000000 0.302200 0.750000
O O17 0.000000 0.750828 0.750000
#
# Coordination Sequence:
#
# PCOD9227087 Si02
#       8
#     4   4   4   4   4   4   4   2
#     4  11  19  35  63  91 118 152 213 256 305 348
#     4  11  24  39  60  89 126 160 199 247 320 371
#     4  11  24  40  58  86 130 160 199 250 313 377
#     4  11  23  41  64  87 115 163 217 255 294 363
#     4  10  18  32  61  88 117 150 201 261 305 349
#     4  11  20  37  61  91 125 154 201 260 315 357
#     4  10  20  36  61  92 120 152 202 254 311 355
#     4  10  20  34  60  94 112 154 198 264 298 354
#
# _framework density 18.058052
#
# number of rings (size 3 to 8) (size 9 to 14) (size 15 to 20)
#    0.000    1.333    6.000    1.200    6.533    0.533 
#    0.000    4.667    0.000    0.000    0.000    0.000 
#    0.000    0.000    0.000    0.000    0.000    0.000 
#
# Total GULP energy -167081.210197 kJ/mol
# GULP energy per Si atom -5569.373673 kJ/mol
# Density = 1.801695 g / cm^3
# Si number density = 18.058052 Si / 1000 Ang^3
#
#
#
# Elastic Constant Matrix: (Units=GPa)
#
#
# Indices 1 2 3 4 5 6 
#
# 1 90.5077 31.0614 46.8212 0.0000 8.7219 0.0000
# 2 31.0614 88.6081 44.6374 0.0000 8.7534 0.0000
# 3 46.8212 44.6374 118.8295 0.0000 -0.8817 0.0000
# 4 0.0000 0.0000 0.0000 -28.5677 0.0000 -9.8525
# 5 8.7219 8.7534 -0.8817 0.0000 31.5607 0.0000
# 6 0.0000 0.0000 0.0000 -9.8525 0.0000 11.7486
#
#
#
# Elastic Compliance Matrix: (Units=1/GPa)
#
#
# Indices 1 2 3 4 5 6 
#
# 1 0.014761 -0.002316 -0.004972 0.000000 -0.003576 0.000000
# 2 -0.002316 0.014809 -0.004677 0.000000 -0.003598 0.000000
# 3 -0.004972 -0.004677 0.012154 0.000000 0.003011 0.000000
# 4 0.000000 0.000000 0.000000 -0.027152 0.000000 -0.022770
# 5 -0.003576 -0.003598 0.003011 0.000000 0.033755 0.000000
# 6 0.000000 0.000000 0.000000 -0.022770 0.000000 0.066022
#
#
# Mechanical properties :
#
#
# Convention : Reuss Voigt Hill
#
# Bulk Modulus (GPa) = 56.20390 60.33170 58.26780
# Shear Modulus (GPa) = 34.67142 14.64331 24.65736
#
# Velocity S-wave (km/s) = 4.38653 2.85072 3.69921
# Velocity P-wave (km/s) = 7.53970 6.65717 7.11214
#
# Compressibility (1/GPa) = 0.01779236
#
# Stress axis : x y z
#
# Youngs Moduli (GPa) = 67.74804 67.52600 82.27812
#
# Poissons Ratio (x) = 0.15640 0.40912
# Poissons Ratio (y) = 0.15691 0.38482
# Poissons Ratio (z) = 0.33687 0.31582
#
# Static dielectric constant tensor:
#      x y z
#    x 1.662470 0.000000 -0.033130 
#    y 0.000000 1.632690 0.000000 
#    z -0.033130 0.000000 1.657440 
# 
# From -- ./inp_files/75705.got.cif
#   From: 2010.05.17/outbox.cif.g08.bks.cpg/sg13_38_cif.got.tgz:75705.got - 2010.06.03 16:44:36.
