data_PCOD9227480
_publ_section_title
;
Structure prediction by ZEFSAII (Michael W. Deem and Ramdas Pophale) SiO2 
 PCOD9227480
Probable space group: P 2/C
;
_chemical_formula_sum "Si O2"
_cell_formula_units_Z 28
_cell_length_a 11.961536
_cell_length_b 10.271875
_cell_length_c 13.847251
_cell_angle_alpha 90.000000
_cell_angle_beta 58.411759
_cell_angle_gamma 90.000000
_cell_volume 1449.290497
_symmetry_space_group_name_H-M "P 2/C"
_symmetry_group_IT_number 13
_symmetry_cell_setting 'monoclinic'
loop_
_space_group_symop_operation_xyz
x,y,z
-x,y,1/2-z
-x,-y,-z
x,-y,1/2+z
loop_
_atom_site_type_symbol
_atom_site_label
_atom_site_fract_x
_atom_site_fract_y
_atom_site_fract_z
Si Si1 0.782621 0.678757 0.935429
Si Si2 0.717543 0.960856 0.913486
Si Si3 0.112812 0.794443 0.117431
Si Si4 0.061744 0.362324 0.941897
Si Si5 0.491594 0.625030 0.145100
Si Si6 0.540002 0.071455 0.838009
Si Si7 0.768506 0.565224 0.322727
O O1 0.828107 0.563865 0.843943
O O2 0.779596 0.818083 0.885347
O O3 0.863800 0.688776 0.997529
O O4 0.635027 0.638276 0.034694
O O5 0.811842 0.069394 0.916680
O O6 0.664604 0.006058 0.832812
O O7 0.587437 0.950604 0.038176
O O8 0.210744 0.681921 0.110846
O O9 0.000000 0.804027 0.250000
O O10 0.043945 0.740080 0.052222
O O11 0.158982 0.394102 0.808730
O O12 0.000000 0.500000 0.000000
O O13 0.500000 0.572115 0.250000
O O14 0.436760 0.773329 0.177559
O O15 0.384102 0.547742 0.133200
O O16 0.500000 0.024547 0.750000
#
# Coordination Sequence:
#
# PCOD9227480 Si02
#       7
#     4   4   4   4   4   4   4
#     4  11  23  38  62  92 122 154 198 255 303 353
#     4  10  21  40  59  93 122 155 201 245 299 351
#     4  10  22  39  63  85 118 166 202 237 287 363
#     4  11  23  42  62  85 120 164 207 240 299 360
#     4  10  18  35  65  92 115 155 201 244 294 361
#     4   9  19  36  63  87 124 161 189 242 303 360
#     4  11  21  40  64  87 119 158 199 248 302 352
#
# _framework density 19.319797999999999
#
# number of rings (size 3 to 8) (size 9 to 14) (size 15 to 20)
#    0.000    1.714    4.286    0.429    0.000    0.571 
#    5.143    0.714    0.000    0.000    0.000    0.000 
#    0.000    0.000    0.000    0.000    0.000    0.000 
#
# Total GULP energy -156310.704838 kJ/mol
# GULP energy per Si atom -5582.525173 kJ/mol
# Density = 1.927583 g / cm^3
# Si number density = 19.319798 Si / 1000 Ang^3
#
#
#
# Elastic Constant Matrix: (Units=GPa)
#
#
# Indices 1 2 3 4 5 6 
#
# 1 122.4964 25.9260 22.7115 0.0000 28.0202 0.0000
# 2 25.9260 76.9247 4.5563 0.0000 11.8840 0.0000
# 3 22.7115 4.5563 19.1303 0.0000 17.8543 0.0000
# 4 0.0000 0.0000 0.0000 20.0220 0.0000 0.1681
# 5 28.0202 11.8840 17.8543 0.0000 32.5631 0.0000
# 6 0.0000 0.0000 0.0000 0.1681 0.0000 36.1714
#
#
#
# Elastic Compliance Matrix: (Units=1/GPa)
#
#
# Indices 1 2 3 4 5 6 
#
# 1 0.011301 -0.002700 -0.009457 0.000000 -0.003554 0.000000
# 2 -0.002700 0.014500 0.005166 0.000000 -0.005801 0.000000
# 3 -0.009457 0.005166 0.115580 0.000000 -0.057120 0.000000
# 4 0.000000 0.000000 0.000000 0.049947 0.000000 -0.000232
# 5 -0.003554 -0.005801 -0.057120 0.000000 0.067204 0.000000
# 6 0.000000 0.000000 0.000000 -0.000232 0.000000 0.027647
#
#
# Mechanical properties :
#
#
# Convention : Reuss Voigt Hill
#
# Bulk Modulus (GPa) = 7.84927 36.10432 21.97680
# Shear Modulus (GPa) = 14.59311 28.77514 21.68413
#
# Velocity S-wave (km/s) = 2.75134 3.86348 3.35383
# Velocity P-wave (km/s) = 3.76361 6.21532 5.13785
#
# Compressibility (1/GPa) = 0.12740034
#
# Stress axis : x y z
#
# Youngs Moduli (GPa) = 88.48622 68.96635 8.65199
#
# Poissons Ratio (x) = 0.18618 0.08182
# Poissons Ratio (y) = 0.23888 -0.04469
# Poissons Ratio (z) = 0.83678 -0.35626
#
# Static dielectric constant tensor:
#      x y z
#    x 1.700180 0.000000 -0.000160 
#    y 0.000000 1.658050 0.000000 
#    z -0.000160 0.000000 1.675630 
# 
# From -- ./inp_files/49879.got.cif
#   From: 2010.05.17/outbox.cif.g08.bks.cpg/sg13_25_cif.got.tgz:49879.got - 2010.06.03 16:44:36.
