data_PCOD9227863
_publ_section_title
;
Structure prediction by ZEFSAII (Michael W. Deem and Ramdas Pophale) SiO2 
 PCOD9227863
Probable space group: P 2/C
;
_chemical_formula_sum "Si O2"
_cell_formula_units_Z 28
_cell_length_a 16.100609
_cell_length_b 15.159562
_cell_length_c 5.673243
_cell_angle_alpha 90.000000
_cell_angle_beta 48.806739
_cell_angle_gamma 90.000000
_cell_volume 1041.987353
_symmetry_space_group_name_H-M "P 2/C"
_symmetry_group_IT_number 13
_symmetry_cell_setting 'monoclinic'
loop_
_space_group_symop_operation_xyz
x,y,z
-x,y,1/2-z
-x,-y,-z
x,-y,1/2+z
loop_
_atom_site_type_symbol
_atom_site_label
_atom_site_fract_x
_atom_site_fract_y
_atom_site_fract_z
Si Si1 0.677855 0.706316 0.810690
Si Si2 0.374199 0.967552 0.216880
Si Si3 0.125585 0.843788 0.517416
Si Si4 0.127902 0.150465 0.513707
Si Si5 0.650567 0.236842 0.859803
Si Si6 0.659553 0.493135 0.319350
Si Si7 0.105729 0.451484 0.129494
O O1 0.783129 0.770765 0.641081
O O2 0.613374 0.734162 0.690768
O O3 0.709319 0.605362 0.719479
O O4 0.619216 0.714937 0.175796
O O5 0.375427 0.865564 0.139714
O O6 0.329673 0.981123 0.567900
O O7 0.500000 0.000000 0.000000
O O8 0.142488 0.894508 0.240461
O O9 0.215241 0.766058 0.362333
O O10 0.000000 0.813409 0.750000
O O11 0.140403 0.894545 0.735735
O O12 0.000000 0.181878 0.750000
O O13 0.601660 0.498761 0.677861
O O14 0.762012 0.562518 0.131079
O O15 0.093748 0.480235 0.426604
O O16 0.000000 0.391650 0.250000
#
# Coordination Sequence:
#
# PCOD9227863 Si02
#       7
#     4   4   4   4   4   4   4
#     4  10  19  30  47  71  98 137 184 229 271 311
#     4  10  21  38  61  88 116 146 167 195 253 329
#     4   8  14  25  42  65  94 129 172 221 261 297
#     4   8  14  24  38  58  85 121 171 227 277 315
#     4  10  19  33  53  77 106 139 179 220 261 318
#     4  10  19  30  42  59  90 133 178 226 277 316
#     4   8  14  24  36  50  73 111 163 222 279 328
#
# _framework density 26.871725999999999
#
# number of rings (size 3 to 8) (size 9 to 14) (size 15 to 20)
#    0.000    2.857    0.000    1.714    0.000    0.571 
#    0.000    0.000    0.000   18.000    0.000    0.000 
#    0.000    0.000    0.000  180.000    0.000    0.000 
#
# Total GULP energy -155926.679980 kJ/mol
# GULP energy per Si atom -5568.809999 kJ/mol
# Density = 2.681056 g / cm^3
# Si number density = 26.871726 Si / 1000 Ang^3
#
#
#
# Elastic Constant Matrix: (Units=GPa)
#
#
# Indices 1 2 3 4 5 6 
#
# 1 174.1032 38.0013 95.2820 0.0000 55.2839 0.0000
# 2 38.0013 105.8901 16.3655 0.0000 12.7260 0.0000
# 3 95.2820 16.3655 246.0983 0.0000 84.9165 0.0000
# 4 0.0000 0.0000 0.0000 13.3171 0.0000 16.0270
# 5 55.2839 12.7260 84.9165 0.0000 94.8102 0.0000
# 6 0.0000 0.0000 0.0000 16.0270 0.0000 17.0721
#
#
#
# Elastic Compliance Matrix: (Units=1/GPa)
#
#
# Indices 1 2 3 4 5 6 
#
# 1 0.008242 -0.002317 -0.002151 0.000000 -0.002569 0.000000
# 2 -0.002317 0.010263 0.000324 0.000000 -0.000317 0.000000
# 3 -0.002151 0.000324 0.006450 0.000000 -0.004567 0.000000
# 4 0.000000 0.000000 0.000000 -0.578443 0.000000 0.543032
# 5 -0.002569 -0.000317 -0.004567 0.000000 0.016178 0.000000
# 6 0.000000 0.000000 0.000000 0.543032 0.000000 -0.451213
#
#
# Mechanical properties :
#
#
# Convention : Reuss Voigt Hill
#
# Bulk Modulus (GPa) = 59.99473 91.70989 75.85231
# Shear Modulus (GPa) = -5.12989 50.13606 22.50309
#
# Velocity S-wave (km/s) = -1.38317 4.32412 2.89697
# Velocity P-wave (km/s) = 4.45241 7.68984 6.28321
#
# Compressibility (1/GPa) = 0.01666813
#
# Stress axis : x y z
#
# Youngs Moduli (GPa) = 121.32870 97.43545 155.03263
#
# Poissons Ratio (x) = 0.22574 0.33342
# Poissons Ratio (y) = 0.28109 -0.05019
# Poissons Ratio (z) = 0.26094 -0.03154
#
# Static dielectric constant tensor:
#      x y z
#    x 2.166510 0.000000 -0.030460 
#    y 0.000000 2.014900 0.000000 
#    z -0.030460 0.000000 2.237970 
# 
# From -- ./inp_files/6248.got.cif
#   From: 2010.05.17/outbox.cif.g08.bks.cpg/sg13_4_cif.got.tgz:6248.got - 2010.06.03 16:44:36.
