data_PCOD9227943
_publ_section_title
;
Structure prediction by ZEFSAII (Michael W. Deem and Ramdas Pophale) SiO2 
 PCOD9227943
Probable space group: P 2/C
;
_chemical_formula_sum "Si O2"
_cell_formula_units_Z 28
_cell_length_a 9.356481
_cell_length_b 32.816075
_cell_length_c 5.292520
_cell_angle_alpha 90.000000
_cell_angle_beta 62.796503
_cell_angle_gamma 90.000000
_cell_volume 1445.283950
_symmetry_space_group_name_H-M "P 2/C"
_symmetry_group_IT_number 13
_symmetry_cell_setting 'monoclinic'
loop_
_space_group_symop_operation_xyz
x,y,z
-x,y,1/2-z
-x,-y,-z
x,-y,1/2+z
loop_
_atom_site_type_symbol
_atom_site_label
_atom_site_fract_x
_atom_site_fract_y
_atom_site_fract_z
Si Si1 0.196428 0.476501 0.601611
Si Si2 0.932436 0.954135 0.557927
Si Si3 0.606966 0.921747 0.912882
Si Si4 0.805894 0.336351 0.394160
Si Si5 0.195814 0.616840 0.101098
Si Si6 0.611480 0.257034 0.411121
Si Si7 0.389767 0.167911 0.089127
O O1 0.248381 0.495587 0.293711
O O2 0.246499 0.429769 0.600153
O O3 0.000000 0.476531 0.750000
O O4 0.743393 0.954649 0.750749
O O5 0.000000 0.932729 0.750000
O O6 0.000000 0.000000 0.500000
O O7 0.000000 0.934338 0.250000
O O8 0.500000 0.921625 0.750000
O O9 0.500000 0.928106 0.250000
O O10 0.689684 0.876702 0.858946
O O11 0.752750 0.353605 0.710684
O O12 0.734727 0.293330 0.363336
O O13 0.000000 0.334190 0.250000
O O14 0.754546 0.367317 0.213956
O O15 0.000000 0.617195 0.250000
O O16 0.500000 0.262677 0.250000
O O17 0.693528 0.212071 0.330355
O O18 0.500000 0.256694 0.750000
O O19 0.500000 0.168551 0.750000
O O20 0.500000 0.167287 0.250000
#
# Coordination Sequence:
#
# PCOD9227943 Si02
#       7
#     4   4   4   4   4   4   4
#     4   9  15  23  37  58  86 119 155 194 239 292
#     4  10  21  38  54  77 115 148 173 219 281 322
#     4  10  19  35  59  82 102 138 189 226 258 318
#     4  10  19  31  47  68  99 131 159 193 241 303
#     4   9  17  28  42  63  94 130 158 193 248 296
#     4  10  19  33  52  74 100 130 165 208 253 294
#     4   8  16  30  51  76 100 126 165 217 260 293
#
# _framework density 19.373355
#
# number of rings (size 3 to 8) (size 9 to 14) (size 15 to 20)
#    0.000    2.571    0.000    2.571    0.000    3.429 
#    0.000    9.286    0.000    2.571    0.000    0.000 
#    0.000   40.000    0.000    0.000    0.000    0.000 
#
# Total GULP energy -155885.140163 kJ/mol
# GULP energy per Si atom -5567.326434 kJ/mol
# Density = 1.932926 g / cm^3
# Si number density = 19.373355 Si / 1000 Ang^3
#
#
#
# Elastic Constant Matrix: (Units=GPa)
#
#
# Indices 1 2 3 4 5 6 
#
# 1 47.7579 39.9204 42.3409 0.0000 18.8196 0.0000
# 2 39.9204 114.3100 24.4054 0.0000 -0.1017 0.0000
# 3 42.3409 24.4054 127.3623 0.0000 38.2946 0.0000
# 4 0.0000 0.0000 0.0000 -138.2151 0.0000 -160.5611
# 5 18.8196 -0.1017 38.2946 0.0000 29.1032 0.0000
# 6 0.0000 0.0000 0.0000 -160.5611 0.0000 -144.6407
#
#
#
# Elastic Compliance Matrix: (Units=1/GPa)
#
#
# Indices 1 2 3 4 5 6 
#
# 1 0.048845 -0.015771 -0.006127 0.000000 -0.023579 0.000000
# 2 -0.015771 0.014483 -0.001016 0.000000 0.011585 0.000000
# 3 -0.006127 -0.001016 0.014714 0.000000 -0.015403 0.000000
# 4 0.000000 0.000000 0.000000 0.024988 0.000000 -0.027739
# 5 -0.023579 0.011585 -0.015403 0.000000 0.069916 0.000000
# 6 0.000000 0.000000 0.000000 -0.027739 0.000000 0.023878
#
#
# Mechanical properties :
#
#
# Convention : Reuss Voigt Hill
#
# Bulk Modulus (GPa) = 31.04053 55.86262 43.45158
# Shear Modulus (GPa) = 19.73233 -38.56629 -9.41698
#
# Velocity S-wave (km/s) = 3.19490 -4.46655 -2.20711
# Velocity P-wave (km/s) = 5.44674 1.51567 3.99776
#
# Compressibility (1/GPa) = 0.03221594
#
# Stress axis : x y z
#
# Youngs Moduli (GPa) = 20.47279 69.04615 67.96085
#
# Poissons Ratio (x) = 1.08894 0.41636
# Poissons Ratio (y) = 0.32288 0.06903
# Poissons Ratio (z) = 0.12543 0.07013
#
# Static dielectric constant tensor:
#      x y z
#    x 1.654690 0.000000 0.024120 
#    y 0.000000 1.726510 0.000000 
#    z 0.024120 0.000000 1.678690 
# 
# From -- ./inp_files/2633.got.cif
#   From: 2010.05.17/outbox.cif.g08.bks.cpg/sg13_2_cif.got.tgz:2633.got - 2010.06.03 16:44:36.
