data_PCOD9227573
_publ_section_title
;
Structure prediction by ZEFSAII (Michael W. Deem and Ramdas Pophale) SiO2 
 PCOD9227573
Probable space group: P 2/C
;
_chemical_formula_sum "Si O2"
_cell_formula_units_Z 32
_cell_length_a 7.679470
_cell_length_b 20.427697
_cell_length_c 13.840517
_cell_angle_alpha 90.000000
_cell_angle_beta 135.780325
_cell_angle_gamma 90.000000
_cell_volume 1514.230236
_symmetry_space_group_name_H-M "P 2/C"
_symmetry_group_IT_number 13
_symmetry_cell_setting 'monoclinic'
loop_
_space_group_symop_operation_xyz
x,y,z
-x,y,1/2-z
-x,-y,-z
x,-y,1/2+z
loop_
_atom_site_type_symbol
_atom_site_label
_atom_site_fract_x
_atom_site_fract_y
_atom_site_fract_z
Si Si1 0.953602 0.040671 0.078846
Si Si2 0.057837 0.453607 0.670674
Si Si3 0.617681 0.818408 0.188406
Si Si4 0.395338 0.962790 0.319027
Si Si5 0.086320 0.183307 0.394009
Si Si6 0.094550 0.671017 0.897009
Si Si7 0.762984 0.428179 0.378041
Si Si8 0.375168 0.324039 0.807092
O O1 0.993033 0.118531 0.080072
O O2 0.656545 0.031218 0.982297
O O3 0.173490 0.015172 0.236439
O O4 0.000000 0.000000 0.000000
O O5 0.220216 0.502648 0.670587
O O6 0.194507 0.385238 0.743332
O O7 0.000000 0.485528 0.750000
O O8 0.812212 0.440270 0.509776
O O9 0.500000 0.819306 0.250000
O O10 0.726547 0.890525 0.216129
O O11 0.749119 0.748029 0.232122
O O12 0.384817 0.815416 0.022618
O O13 0.500000 0.965081 0.250000
O O14 0.007656 0.255942 0.395082
O O15 0.000000 0.174560 0.250000
O O16 0.000000 0.661671 0.750000
O O17 0.980273 0.616801 0.921489
O O18 0.393477 0.669048 0.027014
O O19 0.500000 0.396578 0.250000
O O20 0.500000 0.325763 0.750000
#
# Coordination Sequence:
#
# PCOD9227573 Si02
#       8
#     4   4   4   4   4   4   4   4
#     4   9  16  29  49  75 107 143 187 229 278 341
#     4  11  25  41  62  88 119 159 193 238 296 353
#     4   8  15  28  53  79 101 139 189 240 275 332
#     4   8  14  26  46  74 100 133 183 230 273 328
#     4   9  18  33  54  81 111 144 191 239 287 347
#     4  10  21  38  63  90 115 155 200 246 298 352
#     4  11  25  42  60  88 125 152 194 243 295 353
#     4  10  18  36  62  86 112 150 203 245 285 350
#
# _framework density 21.132847999999999
#
# number of rings (size 3 to 8) (size 9 to 14) (size 15 to 20)
#    0.000    2.500    1.250    1.500    3.500    0.500 
#    0.000    4.375    0.000    0.750    0.000    0.000 
#    0.000    0.000    0.000    0.000    0.000    0.000 
#
# Total GULP energy -178338.246762 kJ/mol
# GULP energy per Si atom -5573.070211 kJ/mol
# Density = 2.108475 g / cm^3
# Si number density = 21.132848 Si / 1000 Ang^3
#
#
#
# Elastic Constant Matrix: (Units=GPa)
#
#
# Indices 1 2 3 4 5 6 
#
# 1 34.6806 13.2184 21.5430 0.0000 -2.2022 0.0000
# 2 13.2184 136.5057 14.8619 0.0000 13.7230 0.0000
# 3 21.5430 14.8619 127.0426 0.0000 -8.3309 0.0000
# 4 0.0000 0.0000 0.0000 27.2596 0.0000 4.2104
# 5 -2.2022 13.7230 -8.3309 0.0000 26.4098 0.0000
# 6 0.0000 0.0000 0.0000 4.2104 0.0000 5.8324
#
#
#
# Elastic Compliance Matrix: (Units=1/GPa)
#
#
# Indices 1 2 3 4 5 6 
#
# 1 0.033311 -0.002937 -0.005129 0.000000 0.002686 0.000000
# 2 -0.002937 0.008169 -0.000768 0.000000 -0.004732 0.000000
# 3 -0.005129 -0.000768 0.009016 0.000000 0.002815 0.000000
# 4 0.000000 0.000000 0.000000 0.041288 0.000000 -0.029806
# 5 0.002686 -0.004732 0.002815 0.000000 0.041436 0.000000
# 6 0.000000 0.000000 0.000000 -0.029806 0.000000 0.192973
#
#
# Mechanical properties :
#
#
# Convention : Reuss Voigt Hill
#
# Bulk Modulus (GPa) = 30.46221 44.16397 37.31309
# Shear Modulus (GPa) = 14.09233 28.47407 21.28320
#
# Velocity S-wave (km/s) = 2.58514 3.67466 3.17695
# Velocity P-wave (km/s) = 4.83285 6.24081 5.58141
#
# Compressibility (1/GPa) = 0.03282756
#
# Stress axis : x y z
#
# Youngs Moduli (GPa) = 30.02052 122.40710 110.91957
#
# Poissons Ratio (x) = 0.35954 0.56889
# Poissons Ratio (y) = 0.08818 0.08518
# Poissons Ratio (z) = 0.15397 0.09400
#
# Static dielectric constant tensor:
#      x y z
#    x 1.729890 0.000000 0.002030 
#    y 0.000000 1.792460 0.000000 
#    z 0.002030 0.000000 1.810530 
# 
# From -- ./inp_files/48167.got.cif
#   From: 2010.05.17/outbox.cif.g08.bks.cpg/sg13_25_cif.got.tgz:48167.got - 2010.06.03 16:44:36.
