data_PCOD9227944
_publ_section_title
;
Structure prediction by ZEFSAII (Michael W. Deem and Ramdas Pophale) SiO2 
 PCOD9227944
Probable space group: P 2/C
;
_chemical_formula_sum "Si O2"
_cell_formula_units_Z 24
_cell_length_a 12.596095
_cell_length_b 11.530887
_cell_length_c 28.304331
_cell_angle_alpha 90.000000
_cell_angle_beta 160.173773
_cell_angle_gamma 90.000000
_cell_volume 1394.335032
_symmetry_space_group_name_H-M "P 2/C"
_symmetry_group_IT_number 13
_symmetry_cell_setting 'monoclinic'
loop_
_space_group_symop_operation_xyz
x,y,z
-x,y,1/2-z
-x,-y,-z
x,-y,1/2+z
loop_
_atom_site_type_symbol
_atom_site_label
_atom_site_fract_x
_atom_site_fract_y
_atom_site_fract_z
Si Si1 0.462733 0.909519 0.412162
Si Si2 0.868561 0.519062 0.893118
Si Si3 0.226844 0.133707 0.915183
Si Si4 0.147337 0.888371 0.087141
Si Si5 0.745831 0.739255 0.458839
Si Si6 0.048077 0.287419 0.629575
O O1 0.393004 0.853164 0.434166
O O2 0.706019 0.835316 0.482999
O O3 0.128421 0.910960 0.244950
O O4 0.593346 0.036332 0.479305
O O5 0.500000 0.527897 0.750000
O O6 0.000000 0.500000 0.000000
O O7 0.025299 0.632532 0.935538
O O8 0.028556 0.592604 0.093942
O O9 0.191460 0.251611 0.929756
O O10 0.500000 0.919626 0.250000
O O11 0.141368 0.794993 0.042838
O O12 0.025657 0.819867 0.082618
O O13 0.000000 0.000000 0.000000
O O14 0.389515 0.704534 0.297103
#
# Coordination Sequence:
#
# PCOD9227944 Si02
#       6
#     4   4   4   4   4   4
#     4   9  18  35  56  80 107 139 175 213 261 317
#     4  12  21  38  56  76 105 142 180 219 265 317
#     4   9  18  34  57  79 107 141 172 213 265 312
#     4  10  19  31  47  71 104 132 164 212 260 310
#     4  10  20  35  53  75 105 138 175 214 264 316
#     4  10  19  35  53  74 105 139 173 215 266 310
#
# _framework density 17.212506000000001
#
# number of rings (size 3 to 8) (size 9 to 14) (size 15 to 20)
#    0.000    2.000    3.333    1.500    0.000    0.667 
#    3.000    0.833    0.000    0.000    0.000    0.000 
#    0.000    0.000    0.000    0.000    0.000    0.000 
#
# Total GULP energy -133610.984502 kJ/mol
# GULP energy per Si atom -5567.124354 kJ/mol
# Density = 1.717333 g / cm^3
# Si number density = 17.212506 Si / 1000 Ang^3
#
#
#
# Elastic Constant Matrix: (Units=GPa)
#
#
# Indices 1 2 3 4 5 6 
#
# 1 69.6531 15.3330 19.1807 0.0000 2.2306 0.0000
# 2 15.3330 50.5380 23.6863 0.0000 -6.2803 0.0000
# 3 19.1807 23.6863 44.8174 0.0000 -10.0853 0.0000
# 4 0.0000 0.0000 0.0000 15.1386 0.0000 -6.6866
# 5 2.2306 -6.2803 -10.0853 0.0000 19.1139 0.0000
# 6 0.0000 0.0000 0.0000 -6.6866 0.0000 34.1445
#
#
#
# Elastic Compliance Matrix: (Units=1/GPa)
#
#
# Indices 1 2 3 4 5 6 
#
# 1 0.017216 -0.002524 -0.007572 0.000000 -0.006834 0.000000
# 2 -0.002524 0.026709 -0.012476 0.000000 0.002487 0.000000
# 3 -0.007572 -0.012476 0.035658 0.000000 0.015599 0.000000
# 4 0.000000 0.000000 0.000000 0.072311 0.000000 0.014161
# 5 -0.006834 0.002487 0.015599 0.000000 0.062164 0.000000
# 6 0.000000 0.000000 0.000000 0.014161 0.000000 0.032060
#
#
# Mechanical properties :
#
#
# Convention : Reuss Voigt Hill
#
# Bulk Modulus (GPa) = 29.03688 31.26761 30.15225
# Shear Modulus (GPa) = 16.51570 20.79996 18.65783
#
# Velocity S-wave (km/s) = 3.10097 3.48001 3.29594
# Velocity P-wave (km/s) = 5.45230 5.86109 5.66039
#
# Compressibility (1/GPa) = 0.03443896
#
# Stress axis : x y z
#
# Youngs Moduli (GPa) = 58.08399 37.44012 28.04454
#
# Poissons Ratio (x) = 0.09449 0.21236
# Poissons Ratio (y) = 0.14658 0.34989
# Poissons Ratio (z) = 0.43983 0.46711
#
# Static dielectric constant tensor:
#      x y z
#    x 1.584950 0.000000 -0.001290 
#    y 0.000000 1.700880 0.000000 
#    z -0.001290 0.000000 1.564930 
# 
# From -- ./inp_files/92424.got.cif
#   From: 2010.05.17/outbox.cif.g08.bks.cpg/sg13_47_cif.got.tgz:92424.got - 2010.06.03 16:44:36.
