data_PCOD9227644
_publ_section_title
;
Structure prediction by ZEFSAII (Michael W. Deem and Ramdas Pophale) SiO2 
 PCOD9227644
Probable space group: P 2/C
;
_chemical_formula_sum "Si O2"
_cell_formula_units_Z 30
_cell_length_a 10.896309
_cell_length_b 9.120321
_cell_length_c 13.903043
_cell_angle_alpha 90.000000
_cell_angle_beta 67.036905
_cell_angle_gamma 90.000000
_cell_volume 1272.166976
_symmetry_space_group_name_H-M "P 2/C"
_symmetry_group_IT_number 13
_symmetry_cell_setting 'monoclinic'
loop_
_space_group_symop_operation_xyz
x,y,z
-x,y,1/2-z
-x,-y,-z
x,-y,1/2+z
loop_
_atom_site_type_symbol
_atom_site_label
_atom_site_fract_x
_atom_site_fract_y
_atom_site_fract_z
Si Si1 0.563491 0.297627 0.928807
Si Si2 0.249268 0.501099 0.254542
Si Si3 0.623513 0.058235 0.759635
Si Si4 0.795523 0.195542 0.972763
Si Si5 0.908726 0.097721 0.454427
Si Si6 0.000000 0.677077 0.250000
Si Si7 0.165526 0.809176 0.814050
Si Si8 0.298184 0.314609 0.914581
O O1 0.636748 0.424412 0.844926
O O2 0.655304 0.273955 0.993243
O O3 0.406534 0.327031 0.966358
O O4 0.587725 0.142087 0.867330
O O5 0.110766 0.582824 0.271795
O O6 0.225725 0.330839 0.243666
O O7 0.284075 0.541688 0.354085
O O8 0.500000 0.973180 0.750000
O O9 0.747065 0.952446 0.730571
O O10 0.651720 0.190267 0.676301
O O11 0.909903 0.239872 0.858983
O O12 0.793206 0.018062 0.964835
O O13 0.830094 0.229359 0.072648
O O14 0.841250 0.246075 0.511318
O O15 0.013448 0.147834 0.344015
O O16 0.000000 0.000000 0.500000
#
# Coordination Sequence:
#
# PCOD9227644 Si02
#       8
#     4   4   4   4   4   2   4   4
#     4   9  21  38  63  88 116 167 208 248 307 368
#     4  10  21  38  60  84 121 160 204 249 300 375
#     4   9  18  35  57  85 117 158 205 250 298 367
#     4  10  21  37  61  89 121 163 203 259 308 363
#     4  10  19  33  58  89 119 152 201 253 300 362
#     4  10  22  38  58  86 126 166 202 242 316 374
#     4  11  22  37  62  91 122 159 208 251 315 361
#     4  10  18  37  62  85 118 161 210 237 300 380
#
# _framework density 23.581810000000001
#
# number of rings (size 3 to 8) (size 9 to 14) (size 15 to 20)
#    0.000    2.133    2.667    2.800    3.733    3.733 
#    2.400    0.667    0.000    1.600    0.000    0.000 
#    0.000    0.000    0.000    0.000    0.000    0.000 
#
# Total GULP energy -167457.745322 kJ/mol
# GULP energy per Si atom -5581.924844 kJ/mol
# Density = 2.352814 g / cm^3
# Si number density = 23.581810 Si / 1000 Ang^3
#
#
#
# Elastic Constant Matrix: (Units=GPa)
#
#
# Indices 1 2 3 4 5 6 
#
# 1 72.3295 -5.4439 21.0313 0.0000 -1.3958 0.0000
# 2 -5.4439 76.5048 3.1412 0.0000 -5.2178 0.0000
# 3 21.0313 3.1412 52.2380 0.0000 17.3088 0.0000
# 4 0.0000 0.0000 0.0000 19.5921 0.0000 -5.0013
# 5 -1.3958 -5.2178 17.3088 0.0000 29.0783 0.0000
# 6 0.0000 0.0000 0.0000 -5.0013 0.0000 -0.3651
#
#
#
# Elastic Compliance Matrix: (Units=1/GPa)
#
#
# Indices 1 2 3 4 5 6 
#
# 1 0.016725 0.002006 -0.009018 0.000000 0.006531 0.000000
# 2 0.002006 0.013639 -0.003077 0.000000 0.004375 0.000000
# 3 -0.009018 -0.003077 0.029006 0.000000 -0.018251 0.000000
# 4 0.000000 0.000000 0.000000 0.011351 0.000000 -0.155480
# 5 0.006531 0.004375 -0.018251 0.000000 0.046352 0.000000
# 6 0.000000 0.000000 0.000000 -0.155480 0.000000 -0.609074
#
#
# Mechanical properties :
#
#
# Convention : Reuss Voigt Hill
#
# Bulk Modulus (GPa) = 25.51650 26.50327 26.00988
# Shear Modulus (GPa) = -10.89899 21.81731 5.45916
#
# Velocity S-wave (km/s) = -2.15216 3.04497 1.52316
# Velocity P-wave (km/s) = 2.16059 4.86063 3.76124
#
# Compressibility (1/GPa) = 0.03919033
#
# Stress axis : x y z
#
# Youngs Moduli (GPa) = 59.79156 73.32150 34.47530
#
# Poissons Ratio (x) = -0.14707 0.31090
# Poissons Ratio (y) = -0.11993 0.10610
# Poissons Ratio (z) = 0.53920 0.22564
#
# Static dielectric constant tensor:
#      x y z
#    x 2.094670 0.000000 0.007520 
#    y 0.000000 1.870580 0.000000 
#    z 0.007520 0.000000 1.960910 
# 
# From -- ./inp_files/65994.got.cif
#   From: 2010.05.17/outbox.cif.g08.bks.cpg/sg13_33_cif.got.tgz:65994.got - 2010.06.03 16:44:36.
