data_PCOD9227952
_publ_section_title
;
Structure prediction by ZEFSAII (Michael W. Deem and Ramdas Pophale) SiO2 
 PCOD9227952
Probable space group: P 2/C
;
_chemical_formula_sum "Si O2"
_cell_formula_units_Z 28
_cell_length_a 12.522821
_cell_length_b 26.433172
_cell_length_c 5.093020
_cell_angle_alpha 90.000000
_cell_angle_beta 97.834958
_cell_angle_gamma 90.000000
_cell_volume 1670.142744
_symmetry_space_group_name_H-M "P 2/C"
_symmetry_group_IT_number 13
_symmetry_cell_setting 'monoclinic'
loop_
_space_group_symop_operation_xyz
x,y,z
-x,y,1/2-z
-x,-y,-z
x,-y,1/2+z
loop_
_atom_site_type_symbol
_atom_site_label
_atom_site_fract_x
_atom_site_fract_y
_atom_site_fract_z
Si Si1 0.924037 0.615316 0.979701
Si Si2 0.198424 0.887400 0.297468
Si Si3 0.500000 0.536443 0.750000
Si Si4 0.924898 0.271155 0.476904
Si Si5 0.000000 0.964036 0.250000
Si Si6 0.868837 0.829929 0.723769
Si Si7 0.735692 0.463903 0.318585
Si Si8 0.371195 0.967088 0.200596
O O1 0.827994 0.576531 0.901010
O O2 0.000000 0.614590 0.750000
O O3 0.881130 0.672669 0.019175
O O4 0.000000 0.601295 0.250000
O O5 0.187538 0.867430 0.589656
O O6 0.306381 0.917063 0.256672
O O7 0.102603 0.928131 0.247424
O O8 0.174940 0.842748 0.079575
O O9 0.500000 0.500000 0.500000
O O10 0.383041 0.562095 0.707160
O O11 0.851578 0.225335 0.349129
O O12 0.000000 0.255574 0.750000
O O13 0.000000 0.278899 0.250000
O O14 0.000000 0.000000 0.500000
O O15 0.000000 0.836915 0.750000
O O16 0.744020 0.507508 0.543221
O O17 0.500000 0.958743 0.250000
O O18 0.343563 0.010216 0.406753
#
# Coordination Sequence:
#
# PCOD9227952 Si02
#       8
#     4   4   2   4   2   4   4   4
#     4  10  20  32  47  72 103 132 167 202 253 305
#     4  12  21  33  51  76  98 128 163 195 239 292
#     4   8  16  30  46  66  92 126 172 208 236 278
#     4   9  18  32  49  68  98 133 163 203 240 288
#     4  12  22  32  44  68 108 132 142 180 238 294
#     4  11  19  33  49  74 102 125 162 200 241 293
#     4  10  19  31  48  71 100 135 170 206 245 294
#     4  10  21  38  55  71  95 130 169 200 230 280
#
# _framework density 16.765035000000001
#
# number of rings (size 3 to 8) (size 9 to 14) (size 15 to 20)
#    0.000    1.714    1.429    5.143    0.000    1.714 
#    0.000    0.000    0.000    0.000    3.714    0.000 
#    0.000    0.000    0.000    0.000    0.000    0.000 
#
# Total GULP energy -156032.198942 kJ/mol
# GULP energy per Si atom -5572.578534 kJ/mol
# Density = 1.672688 g / cm^3
# Si number density = 16.765035 Si / 1000 Ang^3
#
#
#
# Elastic Constant Matrix: (Units=GPa)
#
#
# Indices 1 2 3 4 5 6 
#
# 1 75.8566 36.3327 11.2060 0.0000 -1.2639 0.0000
# 2 36.3327 60.4093 -0.5444 0.0000 6.7551 0.0000
# 3 11.2060 -0.5444 91.2798 0.0000 -9.2276 0.0000
# 4 0.0000 0.0000 0.0000 0.0495 0.0000 24.4427
# 5 -1.2639 6.7551 -9.2276 0.0000 18.7847 0.0000
# 6 0.0000 0.0000 0.0000 24.4427 0.0000 -38.8512
#
#
#
# Elastic Compliance Matrix: (Units=1/GPa)
#
#
# Indices 1 2 3 4 5 6 
#
# 1 0.019406 -0.012218 -0.001977 0.000000 0.004728 0.000000
# 2 -0.012218 0.024966 0.000693 0.000000 -0.009460 0.000000
# 3 -0.001977 0.000693 0.011747 0.000000 0.005388 0.000000
# 4 0.000000 0.000000 0.000000 0.064820 0.000000 0.040781
# 5 0.004728 -0.009460 0.005388 0.000000 0.059602 0.000000
# 6 0.000000 0.000000 0.000000 0.040781 0.000000 -0.000083
#
#
# Mechanical properties :
#
#
# Convention : Reuss Voigt Hill
#
# Bulk Modulus (GPa) = 34.34834 35.72603 35.03718
# Shear Modulus (GPa) = 23.02370 8.03336 15.52853
#
# Velocity S-wave (km/s) = 3.70985 2.19138 3.04673
# Velocity P-wave (km/s) = 6.23564 5.26868 5.77244
#
# Compressibility (1/GPa) = 0.02911349
#
# Stress axis : x y z
#
# Youngs Moduli (GPa) = 51.53156 40.05419 85.12882
#
# Poissons Ratio (x) = 0.48938 0.16832
# Poissons Ratio (y) = 0.62961 -0.05895
# Poissons Ratio (z) = 0.10189 -0.02774
#
# Static dielectric constant tensor:
#      x y z
#    x 1.563070 0.000000 0.003200 
#    y 0.000000 1.638690 0.000000 
#    z 0.003200 0.000000 1.584760 
# 
# From -- ./inp_files/4297.got.cif
#   From: 2010.05.17/outbox.cif.g08.bks.cpg/sg13_3_cif.got.tgz:4297.got - 2010.06.03 16:44:36.
