data_PCOD9227003
_publ_section_title
;
Structure prediction by ZEFSAII (Michael W. Deem and Ramdas Pophale) SiO2 
 PCOD9227003
Probable space group: P 2/C
;
_chemical_formula_sum "Si O2"
_cell_formula_units_Z 24
_cell_length_a 14.292785
_cell_length_b 11.372075
_cell_length_c 11.296130
_cell_angle_alpha 90.000000
_cell_angle_beta 32.435110
_cell_angle_gamma 90.000000
_cell_volume 984.758536
_symmetry_space_group_name_H-M "P 2/C"
_symmetry_group_IT_number 13
_symmetry_cell_setting 'monoclinic'
loop_
_space_group_symop_operation_xyz
x,y,z
-x,y,1/2-z
-x,-y,-z
x,-y,1/2+z
loop_
_atom_site_type_symbol
_atom_site_label
_atom_site_fract_x
_atom_site_fract_y
_atom_site_fract_z
Si Si1 0.534088 0.133212 0.913828
Si Si2 0.750458 0.904462 0.972870
Si Si3 0.017546 0.222126 0.033471
Si Si4 0.688355 0.313754 0.219317
Si Si5 0.903407 0.525590 0.977492
Si Si6 0.814164 0.164595 0.884666
O O1 0.711478 0.135076 0.647874
O O2 0.391529 0.149083 0.962687
O O3 0.480982 0.241557 0.055956
O O4 0.500000 0.000000 0.000000
O O5 0.928387 0.873339 0.714509
O O6 0.718080 0.043255 0.008725
O O7 0.851936 0.268283 0.126553
O O8 0.091374 0.333845 0.025984
O O9 0.148775 0.179455 0.792038
O O10 0.720909 0.454237 0.181607
O O11 0.721737 0.269846 0.050349
O O12 0.000000 0.488559 0.750000
O O13 0.000000 0.500000 0.000000
O O14 0.000000 0.150030 0.750000
#
# Coordination Sequence:
#
# PCOD9227003 Si02
#       6
#     4   4   4   4   4   4
#     4  10  19  35  54  80 114 158 197 238 292 364
#     4  10  20  33  54  83 118 156 194 241 305 371
#     4   9  19  32  49  84 114 147 190 247 302 355
#     4   9  17  32  56  78 107 152 195 240 299 360
#     4  10  19  35  57  84 117 156 204 252 309 358
#     4  10  18  32  54  84 117 148 189 250 315 370
#
# _framework density 24.371456999999999
#
# number of rings (size 3 to 8) (size 9 to 14) (size 15 to 20)
#    0.000    2.333    1.667    3.000    0.000    0.667 
#    3.000    0.000    0.000    1.000    0.000    9.333 
#    0.000    2.667    0.000    0.000    0.000    0.000 
#
# Total GULP energy -133901.622595 kJ/mol
# GULP energy per Si atom -5579.234275 kJ/mol
# Density = 2.431599 g / cm^3
# Si number density = 24.371457 Si / 1000 Ang^3
#
#
#
# Elastic Constant Matrix: (Units=GPa)
#
#
# Indices 1 2 3 4 5 6 
#
# 1 87.4855 4.7088 47.6973 0.0000 36.2162 0.0000
# 2 4.7088 122.5175 61.7700 0.0000 10.6306 0.0000
# 3 47.6973 61.7700 175.5077 0.0000 26.7436 0.0000
# 4 0.0000 0.0000 0.0000 14.1995 0.0000 1.4943
# 5 36.2162 10.6306 26.7436 0.0000 46.9016 0.0000
# 6 0.0000 0.0000 0.0000 1.4943 0.0000 33.2485
#
#
#
# Elastic Compliance Matrix: (Units=1/GPa)
#
#
# Indices 1 2 3 4 5 6 
#
# 1 0.018761 0.002403 -0.004001 0.000000 -0.012749 0.000000
# 2 0.002403 0.010234 -0.003963 0.000000 -0.001915 0.000000
# 3 -0.004001 -0.003963 0.008293 0.000000 -0.000741 0.000000
# 4 0.000000 0.000000 0.000000 0.070760 0.000000 -0.003180
# 5 -0.012749 -0.001915 -0.000741 0.000000 0.032022 0.000000
# 6 0.000000 0.000000 0.000000 -0.003180 0.000000 0.030219
#
#
# Mechanical properties :
#
#
# Convention : Reuss Voigt Hill
#
# Bulk Modulus (GPa) = 38.22075 68.20700 53.21388
# Shear Modulus (GPa) = 26.29727 36.95890 31.62808
#
# Velocity S-wave (km/s) = 3.28841 3.89843 3.60634
# Velocity P-wave (km/s) = 5.48952 6.95060 6.26281
#
# Compressibility (1/GPa) = 0.02616380
#
# Stress axis : x y z
#
# Youngs Moduli (GPa) = 53.30337 97.71399 120.58621
#
# Poissons Ratio (x) = -0.23477 0.48251
# Poissons Ratio (y) = -0.12807 0.47788
# Poissons Ratio (z) = 0.21329 0.38724
#
# Static dielectric constant tensor:
#      x y z
#    x 2.258350 0.000000 0.035390 
#    y 0.000000 1.890160 0.000000 
#    z 0.035390 0.000000 2.086970 
# 
# From -- ./inp_files/39094.got.cif
#   From: 2010.05.17/outbox.cif.g08.bks.cpg/sg13_20_cif.got.tgz:39094.got - 2010.06.03 16:44:36.
