data_PCOD9227634
_publ_section_title
;
Structure prediction by ZEFSAII (Michael W. Deem and Ramdas Pophale) SiO2 
 PCOD9227634
Probable space group: P 2/C
;
_chemical_formula_sum "Si O2"
_cell_formula_units_Z 20
_cell_length_a 5.083429
_cell_length_b 6.696804
_cell_length_c 28.655305
_cell_angle_alpha 90.000000
_cell_angle_beta 52.928835
_cell_angle_gamma 90.000000
_cell_volume 778.342946
_symmetry_space_group_name_H-M "P 2/C"
_symmetry_group_IT_number 13
_symmetry_cell_setting 'monoclinic'
loop_
_space_group_symop_operation_xyz
x,y,z
-x,y,1/2-z
-x,-y,-z
x,-y,1/2+z
loop_
_atom_site_type_symbol
_atom_site_label
_atom_site_fract_x
_atom_site_fract_y
_atom_site_fract_z
Si Si1 0.130700 0.496717 0.787820
Si Si2 0.062622 0.078278 0.191874
Si Si3 0.350283 0.241001 0.601128
Si Si4 0.728291 0.135736 0.086953
Si Si5 0.454640 0.767949 0.519307
O O1 0.500000 0.405314 0.750000
O O2 0.000000 0.473510 0.750000
O O3 0.156254 0.732112 0.794442
O O4 0.830186 0.413289 0.851119
O O5 0.434847 0.163458 0.154335
O O6 0.000000 0.987696 0.250000
O O7 0.084307 0.932734 0.144670
O O8 0.409150 0.326787 0.542987
O O9 0.680206 0.108154 0.580621
O O10 0.641382 0.246553 0.047741
O O11 0.063980 0.235476 0.066748
O O12 0.500000 0.000000 0.500000
#
# Coordination Sequence:
#
# PCOD9227634 Si02
#       5
#     4   4   4   4   4
#     4  11  25  42  58  88 124 154 199 252 291 345
#     4   9  21  41  60  89 120 157 200 242 293 353
#     4   9  20  39  66  85 120 155 203 231 311 343
#     4   9  21  35  63  84 122 150 197 236 301 341
#     4  10  18  37  59  91 115 155 189 252 283 353
#
# _framework density 25.695616999999999
#
# number of rings (size 3 to 8) (size 9 to 14) (size 15 to 20)
#    1.200    1.200    0.000    3.000    0.000    8.800 
#    0.000    2.000    0.000    0.000    0.000    0.000 
#    0.000    0.000    0.000    0.000    0.000    0.000 
#
# Total GULP energy -111347.212281 kJ/mol
# GULP energy per Si atom -5567.360614 kJ/mol
# Density = 2.563713 g / cm^3
# Si number density = 25.695617 Si / 1000 Ang^3
#
#
#
# Elastic Constant Matrix: (Units=GPa)
#
#
# Indices 1 2 3 4 5 6 
#
# 1 91.2348 3.4223 26.8796 0.0000 -4.6607 0.0000
# 2 3.4223 66.5681 4.2051 0.0000 -3.1588 0.0000
# 3 26.8796 4.2051 183.4392 0.0000 3.9790 0.0000
# 4 0.0000 0.0000 0.0000 38.4529 0.0000 -4.6192
# 5 -4.6607 -3.1588 3.9790 0.0000 35.8419 0.0000
# 6 0.0000 0.0000 0.0000 -4.6192 0.0000 8.6292
#
#
#
# Elastic Compliance Matrix: (Units=1/GPa)
#
#
# Indices 1 2 3 4 5 6 
#
# 1 0.011568 -0.000407 -0.001722 0.000000 0.001659 0.000000
# 2 -0.000407 0.015125 -0.000316 0.000000 0.001315 0.000000
# 3 -0.001722 -0.000316 0.005730 0.000000 -0.000888 0.000000
# 4 0.000000 0.000000 0.000000 0.027793 0.000000 0.014878
# 5 0.001659 0.001315 -0.000888 0.000000 0.028331 0.000000
# 6 0.000000 0.000000 0.000000 0.014878 0.000000 0.123849
#
#
# Mechanical properties :
#
#
# Convention : Reuss Voigt Hill
#
# Bulk Modulus (GPa) = 36.31793 45.58403 40.95098
# Shear Modulus (GPa) = 22.07860 37.03382 29.55621
#
# Velocity S-wave (km/s) = 2.93445 3.80050 3.39520
# Velocity P-wave (km/s) = 5.06418 6.08580 5.59834
#
# Compressibility (1/GPa) = 0.02753461
#
# Stress axis : x y z
#
# Youngs Moduli (GPa) = 86.44510 66.11359 174.51462
#
# Poissons Ratio (x) = 0.02692 0.30047
# Poissons Ratio (y) = 0.03520 0.05507
# Poissons Ratio (z) = 0.14884 0.02086
#
# Static dielectric constant tensor:
#      x y z
#    x 2.801220 0.000000 -0.895760 
#    y 0.000000 2.203860 0.000000 
#    z -0.895760 0.000000 3.218380 
# 
# From -- ./inp_files/94687.got.cif
#   From: 2010.05.17/outbox.cif.g08.bks.cpg/sg13_48_cif.got.tgz:94687.got - 2010.06.03 16:44:36.
