data_PCOD9227791
_publ_section_title
;
Structure prediction by ZEFSAII (Michael W. Deem and Ramdas Pophale) SiO2 
 PCOD9227791
Probable space group: P 2/C
;
_chemical_formula_sum "Si O2"
_cell_formula_units_Z 16
_cell_length_a 12.975408
_cell_length_b 11.045370
_cell_length_c 9.834292
_cell_angle_alpha 90.000000
_cell_angle_beta 148.848093
_cell_angle_gamma 90.000000
_cell_volume 729.112089
_symmetry_space_group_name_H-M "P 2/C"
_symmetry_group_IT_number 13
_symmetry_cell_setting 'monoclinic'
loop_
_space_group_symop_operation_xyz
x,y,z
-x,y,1/2-z
-x,-y,-z
x,-y,1/2+z
loop_
_atom_site_type_symbol
_atom_site_label
_atom_site_fract_x
_atom_site_fract_y
_atom_site_fract_z
Si Si1 0.800448 0.934933 0.325388
Si Si2 0.000000 0.744421 0.750000
Si Si3 0.500000 0.643184 0.750000
Si Si4 0.241596 0.144781 0.020881
Si Si5 0.136389 0.488173 0.283126
O O1 0.707836 0.890816 0.078731
O O2 0.872842 0.825570 0.503261
O O3 0.705102 0.037132 0.314564
O O4 0.000000 0.000000 0.500000
O O5 0.147776 0.653146 0.837195
O O6 0.360366 0.731549 0.682116
O O7 0.342780 0.556796 0.497766
O O8 0.000000 0.160710 0.750000
O O9 0.000000 0.542397 0.250000
O O10 0.000000 0.500000 0.000000
#
# Coordination Sequence:
#
# PCOD9227791 Si02
#       5
#     4   2   2   4   4
#     4  10  18  40  69 101 132 182 227 289 358 402
#     4  10  20  40  68  96 138 178 230 286 340 408
#     4  12  24  44  70 104 136 192 234 282 354 418
#     4  10  22  39  70  99 140 178 234 290 349 417
#     4  10  25  47  71  98 141 187 237 290 342 414
#
# _framework density 21.944500000000001
#
# number of rings (size 3 to 8) (size 9 to 14) (size 15 to 20)
#    0.750    1.000    3.750    2.250    0.000    4.000 
#    0.000    1.250    0.000    0.000    0.000    0.000 
#    0.000    0.000    0.000    0.000    0.000    0.000 
#
# Total GULP energy -89221.662221 kJ/mol
# GULP energy per Si atom -5576.353889 kJ/mol
# Density = 2.189455 g / cm^3
# Si number density = 21.944500 Si / 1000 Ang^3
#
#
#
# Elastic Constant Matrix: (Units=GPa)
#
#
# Indices 1 2 3 4 5 6 
#
# 1 102.6702 56.8135 72.0090 0.0000 -11.8752 0.0000
# 2 56.8135 147.6808 50.6901 0.0000 -0.2063 0.0000
# 3 72.0090 50.6901 119.0065 0.0000 -5.6300 0.0000
# 4 0.0000 0.0000 0.0000 28.8433 0.0000 22.7269
# 5 -11.8752 -0.2063 -5.6300 0.0000 51.2708 0.0000
# 6 0.0000 0.0000 0.0000 22.7269 0.0000 40.8123
#
#
#
# Elastic Compliance Matrix: (Units=1/GPa)
#
#
# Indices 1 2 3 4 5 6 
#
# 1 0.019188 -0.004037 -0.009732 0.000000 0.003359 0.000000
# 2 -0.004037 0.008786 -0.001349 0.000000 -0.001048 0.000000
# 3 -0.009732 -0.001349 0.014837 0.000000 -0.000630 0.000000
# 4 0.000000 0.000000 0.000000 0.061776 0.000000 -0.034401
# 5 0.003359 -0.001048 -0.000630 0.000000 0.020209 0.000000
# 6 0.000000 0.000000 0.000000 -0.034401 0.000000 0.043659
#
#
# Mechanical properties :
#
#
# Convention : Reuss Voigt Hill
#
# Bulk Modulus (GPa) = 79.52684 80.93141 80.22912
# Shear Modulus (GPa) = 24.64491 36.84162 30.74327
#
# Velocity S-wave (km/s) = 3.35484 4.10183 3.74699
# Velocity P-wave (km/s) = 7.16416 7.70671 7.44039
#
# Compressibility (1/GPa) = 0.01257437
#
# Stress axis : x y z
#
# Youngs Moduli (GPa) = 52.11668 113.81804 67.40121
#
# Poissons Ratio (x) = 0.45943 0.65594
# Poissons Ratio (y) = 0.21037 0.09096
# Poissons Ratio (z) = 0.50720 0.15359
#
# Static dielectric constant tensor:
#      x y z
#    x 1.800960 0.000000 0.060910 
#    y 0.000000 1.852060 0.000000 
#    z 0.060910 0.000000 1.718350 
# 
# From -- ./inp_files/15719.got.cif
#   From: 2010.05.17/outbox.cif.g08.bks.cpg/sg13_8_cif.got.tgz:15719.got - 2010.06.03 16:44:36.
