data_PCOD9227535
_publ_section_title
;
Structure prediction by ZEFSAII (Michael W. Deem and Ramdas Pophale) SiO2 
 PCOD9227535
Probable space group: P 2/C
;
_chemical_formula_sum "Si O2"
_cell_formula_units_Z 28
_cell_length_a 12.583854
_cell_length_b 8.420975
_cell_length_c 13.213236
_cell_angle_alpha 90.000000
_cell_angle_beta 67.985710
_cell_angle_gamma 90.000000
_cell_volume 1298.097528
_symmetry_space_group_name_H-M "P 2/C"
_symmetry_group_IT_number 13
_symmetry_cell_setting 'monoclinic'
loop_
_space_group_symop_operation_xyz
x,y,z
-x,y,1/2-z
-x,-y,-z
x,-y,1/2+z
loop_
_atom_site_type_symbol
_atom_site_label
_atom_site_fract_x
_atom_site_fract_y
_atom_site_fract_z
Si Si1 0.316029 0.782892 0.973806
Si Si2 0.538159 0.317898 0.481705
Si Si3 0.303567 0.357858 0.268041
Si Si4 0.897619 0.426356 0.909169
Si Si5 0.274582 0.859633 0.463383
Si Si6 0.127147 0.760373 0.698587
Si Si7 0.151028 0.375359 0.869176
O O1 0.421518 0.780080 0.013204
O O2 0.346513 0.674380 0.865171
O O3 0.305524 0.959529 0.934999
O O4 0.200531 0.707656 0.063081
O O5 0.500000 0.500000 0.500000
O O6 0.610949 0.310166 0.351616
O O7 0.618513 0.254004 0.543517
O O8 0.189840 0.253704 0.283367
O O9 0.256370 0.537397 0.275810
O O10 0.880013 0.579611 0.843558
O O11 0.028409 0.363147 0.857624
O O12 0.876345 0.505214 0.027355
O O13 0.198629 0.857409 0.592278
O O14 0.199712 0.783728 0.401025
O O15 0.000000 0.822728 0.750000
#
# Coordination Sequence:
#
# PCOD9227535 Si02
#       7
#     4   4   4   4   4   4   4
#     4  11  22  38  56  88 125 158 195 237 310 362
#     4  11  22  42  65  84 112 159 208 252 290 346
#     4  10  20  36  62  87 110 150 206 252 285 344
#     4   9  18  33  59  83 115 154 191 250 281 346
#     4  10  23  37  58  86 124 161 187 245 312 357
#     4  10  18  36  59  84 114 156 204 243 289 344
#     4   9  17  35  57  87 112 146 203 241 289 338
#
# _framework density 21.570025999999999
#
# number of rings (size 3 to 8) (size 9 to 14) (size 15 to 20)
#    0.000    2.000    1.429    4.286    2.000    0.571 
#    0.000    9.286    0.000    0.000    0.000    0.000 
#    0.000    0.000    0.000    0.000    0.000    0.000 
#
# Total GULP energy -156257.071260 kJ/mol
# GULP energy per Si atom -5580.609688 kJ/mol
# Density = 2.152093 g / cm^3
# Si number density = 21.570026 Si / 1000 Ang^3
#
#
#
# Elastic Constant Matrix: (Units=GPa)
#
#
# Indices 1 2 3 4 5 6 
#
# 1 114.8692 19.2220 10.7600 0.0000 -8.0497 0.0000
# 2 19.2220 68.9864 -3.0239 0.0000 -12.8824 0.0000
# 3 10.7600 -3.0239 19.2594 0.0000 4.8347 0.0000
# 4 0.0000 0.0000 0.0000 11.6395 0.0000 0.5856
# 5 -8.0497 -12.8824 4.8347 0.0000 25.7350 0.0000
# 6 0.0000 0.0000 0.0000 0.5856 0.0000 19.8667
#
#
#
# Elastic Compliance Matrix: (Units=1/GPa)
#
#
# Indices 1 2 3 4 5 6 
#
# 1 0.009975 -0.002488 -0.006752 0.000000 0.003143 0.000000
# 2 -0.002488 0.016616 0.002211 0.000000 0.007124 0.000000
# 3 -0.006752 0.002211 0.059081 0.000000 -0.012105 0.000000
# 4 0.000000 0.000000 0.000000 0.086042 0.000000 -0.002536
# 5 0.003143 0.007124 -0.012105 0.000000 0.045681 0.000000
# 6 0.000000 0.000000 0.000000 -0.002536 0.000000 0.050410
#
#
# Mechanical properties :
#
#
# Convention : Reuss Voigt Hill
#
# Bulk Modulus (GPa) = 13.96416 28.55901 21.26159
# Shear Modulus (GPa) = 16.35398 23.19202 19.77300
#
# Velocity S-wave (km/s) = 2.75650 3.28258 3.03097
# Velocity P-wave (km/s) = 4.07663 5.25699 4.70398
#
# Compressibility (1/GPa) = 0.07161188
#
# Stress axis : x y z
#
# Youngs Moduli (GPa) = 100.25352 60.18225 16.92589
#
# Poissons Ratio (x) = 0.14976 0.11429
# Poissons Ratio (y) = 0.24947 -0.03742
# Poissons Ratio (z) = 0.67695 -0.13305
#
# Static dielectric constant tensor:
#      x y z
#    x 1.830350 0.000000 0.012370 
#    y 0.000000 1.754740 0.000000 
#    z 0.012370 0.000000 1.841060 
# 
# From -- ./inp_files/49974.got.cif
#   From: 2010.05.17/outbox.cif.g08.bks.cpg/sg13_25_cif.got.tgz:49974.got - 2010.06.03 16:44:36.
