data_PCOD9227191
_publ_section_title
;
Structure prediction by ZEFSAII (Michael W. Deem and Ramdas Pophale) SiO2 
 PCOD9227191
Probable space group: P 2/C
;
_chemical_formula_sum "Si O2"
_cell_formula_units_Z 32
_cell_length_a 12.835663
_cell_length_b 7.652010
_cell_length_c 19.514246
_cell_angle_alpha 90.000000
_cell_angle_beta 49.525431
_cell_angle_gamma 90.000000
_cell_volume 1457.993835
_symmetry_space_group_name_H-M "P 2/C"
_symmetry_group_IT_number 13
_symmetry_cell_setting 'monoclinic'
loop_
_space_group_symop_operation_xyz
x,y,z
-x,y,1/2-z
-x,-y,-z
x,-y,1/2+z
loop_
_atom_site_type_symbol
_atom_site_label
_atom_site_fract_x
_atom_site_fract_y
_atom_site_fract_z
Si Si1 0.213739 0.650362 0.518628
Si Si2 0.261966 0.539688 0.728792
Si Si3 0.400939 0.134254 0.849638
Si Si4 0.465097 0.233966 0.384373
Si Si5 0.865202 0.037998 0.100717
Si Si6 0.963188 0.832792 0.690078
Si Si7 0.357076 0.605112 0.057771
Si Si8 0.239012 0.420531 0.389488
O O1 0.352166 0.739727 0.431044
O O2 0.251310 0.519486 0.563070
O O3 0.159401 0.538100 0.477837
O O4 0.104086 0.787180 0.591285
O O5 0.386500 0.680205 0.672171
O O6 0.127440 0.654124 0.767515
O O7 0.298473 0.386857 0.659489
O O8 0.257174 0.482297 0.809789
O O9 0.500000 0.212065 0.750000
O O10 0.468362 0.958521 0.851458
O O11 0.260820 0.073516 0.872991
O O12 0.389336 0.238313 0.491001
O O13 0.376546 0.356995 0.370651
O O14 0.887719 0.030569 0.172612
O O15 0.831699 0.240085 0.099794
O O16 0.000000 0.000000 0.000000
O O17 0.000000 0.894365 0.750000
O O18 0.500000 0.500000 0.000000
#
# Coordination Sequence:
#
# PCOD9227191 Si02
#       8
#     4   4   4   4   4   4   4   4
#     4  11  22  38  59  90 119 159 205 255 310 362
#     4  10  18  33  59  86 112 156 202 247 303 371
#     4  11  22  38  62  90 123 158 207 265 312 372
#     4   9  18  36  59  86 114 155 200 248 312 372
#     4  10  20  39  63  89 120 165 207 255 307 376
#     4  11  21  36  62  84 122 163 203 243 307 378
#     4   9  19  35  58  83 117 154 198 248 302 372
#     4   9  20  34  62  85 117 154 204 251 307 365
#
# _framework density 21.947966000000001
#
# number of rings (size 3 to 8) (size 9 to 14) (size 15 to 20)
#    0.000    2.000    2.500    2.625    0.000    5.000 
#    0.000    2.500    2.750    0.750    0.000    0.000 
#    0.000    0.000    0.000    0.000    0.000    0.000 
#
# Total GULP energy -178748.429207 kJ/mol
# GULP energy per Si atom -5585.888413 kJ/mol
# Density = 2.189801 g / cm^3
# Si number density = 21.947966 Si / 1000 Ang^3
#
#
#
# Elastic Constant Matrix: (Units=GPa)
#
#
# Indices 1 2 3 4 5 6 
#
# 1 74.3987 5.5140 32.8436 0.0000 19.4723 0.0000
# 2 5.5140 31.2517 6.1133 0.0000 9.6219 0.0000
# 3 32.8436 6.1133 119.3857 0.0000 20.2657 0.0000
# 4 0.0000 0.0000 0.0000 25.4765 0.0000 2.2258
# 5 19.4723 9.6219 20.2657 0.0000 42.2724 0.0000
# 6 0.0000 0.0000 0.0000 2.2258 0.0000 7.5109
#
#
#
# Elastic Compliance Matrix: (Units=1/GPa)
#
#
# Indices 1 2 3 4 5 6 
#
# 1 0.016565 -0.000434 -0.003545 0.000000 -0.005832 0.000000
# 2 -0.000434 0.034445 -0.000378 0.000000 -0.007459 0.000000
# 3 -0.003545 -0.000378 0.009883 0.000000 -0.003019 0.000000
# 4 0.000000 0.000000 0.000000 0.040295 0.000000 -0.011941
# 5 -0.005832 -0.007459 -0.003019 0.000000 0.029488 0.000000
# 6 0.000000 0.000000 0.000000 -0.011941 0.000000 0.136679
#
#
# Mechanical properties :
#
#
# Convention : Reuss Voigt Hill
#
# Bulk Modulus (GPa) = 19.16450 34.88642 27.02546
# Shear Modulus (GPa) = 17.03798 27.08964 22.06381
#
# Velocity S-wave (km/s) = 2.78922 3.51702 3.17405
# Velocity P-wave (km/s) = 4.37307 5.69405 5.07671
#
# Compressibility (1/GPa) = 0.05217981
#
# Stress axis : x y z
#
# Youngs Moduli (GPa) = 60.36995 29.03151 101.18113
#
# Poissons Ratio (x) = 0.01259 0.35866
# Poissons Ratio (y) = 0.02618 0.03828
# Poissons Ratio (z) = 0.21400 0.01098
#
# Static dielectric constant tensor:
#      x y z
#    x 1.856610 0.000000 0.021650 
#    y 0.000000 1.777360 0.000000 
#    z 0.021650 0.000000 1.832810 
# 
# From -- ./inp_files/78261.got.cif
#   From: 2010.05.17/outbox.cif.g08.bks.cpg/sg13_40_cif.got.tgz:78261.got - 2010.06.03 16:44:36.
