data_PCOD9227630
_publ_section_title
;
Structure prediction by ZEFSAII (Michael W. Deem and Ramdas Pophale) SiO2 
 PCOD9227630
Probable space group: P 2/C
;
_chemical_formula_sum "Si O2"
_cell_formula_units_Z 26
_cell_length_a 23.097943
_cell_length_b 11.658171
_cell_length_c 14.267428
_cell_angle_alpha 90.000000
_cell_angle_beta 158.439533
_cell_angle_gamma 90.000000
_cell_volume 1411.843617
_symmetry_space_group_name_H-M "P 2/C"
_symmetry_group_IT_number 13
_symmetry_cell_setting 'monoclinic'
loop_
_space_group_symop_operation_xyz
x,y,z
-x,y,1/2-z
-x,-y,-z
x,-y,1/2+z
loop_
_atom_site_type_symbol
_atom_site_label
_atom_site_fract_x
_atom_site_fract_y
_atom_site_fract_z
Si Si1 0.162524 0.098157 0.700981
Si Si2 0.285625 0.065905 0.099833
Si Si3 0.639268 0.156065 0.673110
Si Si4 0.153903 0.270104 0.016996
Si Si5 0.500000 0.719485 0.250000
Si Si6 0.829253 0.159353 0.267278
Si Si7 0.512806 0.375852 0.973852
O O1 0.262052 0.164728 0.773848
O O2 0.982448 0.143232 0.432460
O O3 0.177280 0.965161 0.693709
O O4 0.231073 0.088452 0.910532
O O5 0.466691 0.105874 0.386104
O O6 0.176823 0.148808 0.998401
O O7 0.284492 0.935664 0.138616
O O8 0.609276 0.280814 0.671605
O O9 0.132663 0.249449 0.094642
O O10 0.313661 0.334220 0.237251
O O11 0.000000 0.332314 0.750000
O O12 0.654958 0.801291 0.472811
O O13 0.492150 0.640485 0.146039
O O14 0.500000 0.500000 0.000000
#
# Coordination Sequence:
#
# PCOD9227630 Si02
#       7
#     4   4   4   4   2   4   4
#     4  11  20  32  53  91 124 153 191 238 297 366
#     4  10  19  32  55  87 123 154 190 238 305 365
#     4  10  21  35  56  89 119 160 197 246 297 361
#     4  10  18  37  59  83 120 154 197 242 303 365
#     4  10  22  44  64  82 118 166 200 248 310 364
#     4  10  21  33  56  87 124 160 191 237 305 373
#     4  10  23  44  64  86 114 160 214 254 296 352
#
# _framework density 18.415637
#
# number of rings (size 3 to 8) (size 9 to 14) (size 15 to 20)
#    0.000    1.846    3.077    1.385    4.308    0.000 
#    5.538    3.846    0.000    3.692    0.000    0.000 
#    0.000    0.000    0.000    0.000    0.000    0.000 
#
# Total GULP energy -144824.154565 kJ/mol
# GULP energy per Si atom -5570.159791 kJ/mol
# Density = 1.837372 g / cm^3
# Si number density = 18.415637 Si / 1000 Ang^3
#
#
#
# Elastic Constant Matrix: (Units=GPa)
#
#
# Indices 1 2 3 4 5 6 
#
# 1 121.4693 57.8298 51.1660 0.0000 -1.2185 0.0000
# 2 57.8298 111.7254 33.3492 0.0000 4.9248 0.0000
# 3 51.1660 33.3492 104.1429 0.0000 3.7389 0.0000
# 4 0.0000 0.0000 0.0000 7.7144 0.0000 -2.2318
# 5 -1.2185 4.9248 3.7389 0.0000 18.2546 0.0000
# 6 0.0000 0.0000 0.0000 -2.2318 0.0000 18.1794
#
#
#
# Elastic Compliance Matrix: (Units=1/GPa)
#
#
# Indices 1 2 3 4 5 6 
#
# 1 0.012794 -0.005368 -0.004684 0.000000 0.003261 0.000000
# 2 -0.005368 0.012224 -0.001155 0.000000 -0.003420 0.000000
# 3 -0.004684 -0.001155 0.012364 0.000000 -0.002534 0.000000
# 4 0.000000 0.000000 0.000000 0.134401 0.000000 0.016500
# 5 0.003261 -0.003420 -0.002534 0.000000 0.056440 0.000000
# 6 0.000000 0.000000 0.000000 0.016500 0.000000 0.057033
#
#
# Mechanical properties :
#
#
# Convention : Reuss Voigt Hill
#
# Bulk Modulus (GPa) = 66.80125 69.11418 67.95772
# Shear Modulus (GPa) = 15.99190 21.82919 18.91055
#
# Velocity S-wave (km/s) = 2.95004 3.44664 3.20796
# Velocity P-wave (km/s) = 6.92507 7.31100 7.12065
#
# Compressibility (1/GPa) = 0.01496978
#
# Stress axis : x y z
#
# Youngs Moduli (GPa) = 78.16329 81.80442 80.87968
#
# Poissons Ratio (x) = 0.43911 0.37883
# Poissons Ratio (y) = 0.41956 0.09338
# Poissons Ratio (z) = 0.36610 0.09444
#
# Static dielectric constant tensor:
#      x y z
#    x 1.652860 0.000000 -0.023450 
#    y 0.000000 1.616350 0.000000 
#    z -0.023450 0.000000 1.685780 
# 
# From -- ./inp_files/58936.got.cif
#   From: 2010.05.17/outbox.cif.g08.bks.cpg/sg13_30_cif.got.tgz:58936.got - 2010.06.03 16:44:36.
