data_PCOD9227242
_publ_section_title
;
Structure prediction by ZEFSAII (Michael W. Deem and Ramdas Pophale) SiO2 
 PCOD9227242
Probable space group: P 2/C
;
_chemical_formula_sum "Si O2"
_cell_formula_units_Z 24
_cell_length_a 15.781807
_cell_length_b 7.463277
_cell_length_c 14.503422
_cell_angle_alpha 90.000000
_cell_angle_beta 146.799822
_cell_angle_gamma 90.000000
_cell_volume 935.390825
_symmetry_space_group_name_H-M "P 2/C"
_symmetry_group_IT_number 13
_symmetry_cell_setting 'monoclinic'
loop_
_space_group_symop_operation_xyz
x,y,z
-x,y,1/2-z
-x,-y,-z
x,-y,1/2+z
loop_
_atom_site_type_symbol
_atom_site_label
_atom_site_fract_x
_atom_site_fract_y
_atom_site_fract_z
Si Si1 0.862140 0.813562 0.311283
Si Si2 0.063221 0.472002 0.911684
Si Si3 0.863115 0.819125 0.730761
Si Si4 0.658339 0.663572 0.401049
Si Si5 0.353896 0.083192 0.313735
Si Si6 0.444460 0.384853 0.037856
O O1 0.717696 0.709133 0.136282
O O2 0.004437 0.675473 0.430938
O O3 0.917136 0.980943 0.299158
O O4 0.773794 0.922569 0.315860
O O5 0.000000 0.418764 0.750000
O O6 0.976987 0.657987 0.850515
O O7 0.242151 0.536363 0.076728
O O8 0.786209 0.792080 0.562066
O O9 0.730061 0.798408 0.685499
O O10 0.500000 0.777578 0.250000
O O11 0.594537 0.522474 0.417770
O O12 0.435368 0.227356 0.322405
O O13 0.500000 0.000000 0.500000
O O14 0.500000 0.500000 0.000000
#
# Coordination Sequence:
#
# PCOD9227242 Si02
#       6
#     4   4   4   4   4   4
#     4   9  17  32  59  87 103 136 198 244 274 313
#     4  10  18  34  54  80 111 148 193 230 281 337
#     4   9  18  34  57  84 106 143 191 235 268 334
#     4  11  23  36  53  86 123 152 183 236 302 342
#     4   8  16  27  54  89 103 126 188 243 273 312
#     4  11  16  33  59  84 111 147 193 234 274 338
#
# _framework density 25.657724999999999
#
# number of rings (size 3 to 8) (size 9 to 14) (size 15 to 20)
#    1.000    1.333    5.000    0.000    0.000    2.000 
#    0.000    0.833    0.000    5.000    0.000    0.000 
#    0.000    0.000    0.000    0.000    0.000    0.000 
#
# Total GULP energy -133639.847539 kJ/mol
# GULP energy per Si atom -5568.326981 kJ/mol
# Density = 2.559933 g / cm^3
# Si number density = 25.657725 Si / 1000 Ang^3
#
#
#
# Elastic Constant Matrix: (Units=GPa)
#
#
# Indices 1 2 3 4 5 6 
#
# 1 60.5440 20.5154 42.9016 0.0000 32.1396 0.0000
# 2 20.5154 128.7094 48.6928 0.0000 20.2089 0.0000
# 3 42.9016 48.6928 89.1725 0.0000 22.1516 0.0000
# 4 0.0000 0.0000 0.0000 33.0785 0.0000 23.4518
# 5 32.1396 20.2089 22.1516 0.0000 44.0562 0.0000
# 6 0.0000 0.0000 0.0000 23.4518 0.0000 18.0786
#
#
#
# Elastic Compliance Matrix: (Units=1/GPa)
#
#
# Indices 1 2 3 4 5 6 
#
# 1 0.036518 0.002703 -0.013849 0.000000 -0.020917 0.000000
# 2 0.002703 0.010159 -0.005942 0.000000 -0.003644 0.000000
# 3 -0.013849 -0.005942 0.020495 0.000000 0.002524 0.000000
# 4 0.000000 0.000000 0.000000 0.376424 0.000000 -0.488303
# 5 -0.020917 -0.003644 0.002524 0.000000 0.038360 0.000000
# 6 0.000000 0.000000 0.000000 -0.488303 0.000000 0.688748
#
#
# Mechanical properties :
#
#
# Convention : Reuss Voigt Hill
#
# Bulk Modulus (GPa) = 30.30787 55.84949 43.07868
# Shear Modulus (GPa) = 4.11225 30.13039 17.12132
#
# Velocity S-wave (km/s) = 1.26736 3.43055 2.58601
# Velocity P-wave (km/s) = 3.73894 6.12421 5.07374
#
# Compressibility (1/GPa) = 0.03299473
#
# Stress axis : x y z
#
# Youngs Moduli (GPa) = 27.38362 98.43621 48.79247
#
# Poissons Ratio (x) = -0.26605 0.67573
# Poissons Ratio (y) = -0.07401 0.28995
# Poissons Ratio (z) = 0.37923 0.58495
#
# Static dielectric constant tensor:
#      x y z
#    x 2.088530 0.000000 0.127080 
#    y 0.000000 1.993360 0.000000 
#    z 0.127080 0.000000 2.547870 
# 
# From -- ./inp_files/69504.got.cif
#   From: 2010.05.17/outbox.cif.g08.bks.cpg/sg13_35_cif.got.tgz:69504.got - 2010.06.03 16:44:36.
