data_PCOD9227119
_publ_section_title
;
Structure prediction by ZEFSAII (Michael W. Deem and Ramdas Pophale) SiO2 
 PCOD9227119
Probable space group: P 2/C
;
_chemical_formula_sum "Si O2"
_cell_formula_units_Z 32
_cell_length_a 18.900788
_cell_length_b 8.826393
_cell_length_c 14.170020
_cell_angle_alpha 90.000000
_cell_angle_beta 147.480069
_cell_angle_gamma 90.000000
_cell_volume 1270.829264
_symmetry_space_group_name_H-M "P 2/C"
_symmetry_group_IT_number 13
_symmetry_cell_setting 'monoclinic'
loop_
_space_group_symop_operation_xyz
x,y,z
-x,y,1/2-z
-x,-y,-z
x,-y,1/2+z
loop_
_atom_site_type_symbol
_atom_site_label
_atom_site_fract_x
_atom_site_fract_y
_atom_site_fract_z
Si Si1 0.831733 0.216758 0.319798
Si Si2 0.859386 0.145961 0.553040
Si Si3 0.406381 0.000439 0.767952
Si Si4 0.312537 0.042841 0.876140
Si Si5 0.859190 0.488792 0.052646
Si Si6 0.592835 0.640994 0.229440
Si Si7 0.876334 0.327289 0.869544
Si Si8 0.339930 0.494811 0.396008
O O1 0.868664 0.118142 0.452302
O O2 0.770628 0.099321 0.177123
O O3 0.714909 0.336328 0.206987
O O4 0.969933 0.298653 0.461537
O O5 0.720919 0.071743 0.427121
O O6 0.852927 0.329100 0.554422
O O7 0.000000 0.093300 0.750000
O O8 0.368255 0.990012 0.836314
O O9 0.421433 0.180773 0.768839
O O10 0.550120 0.925019 0.915628
O O11 0.206980 0.174112 0.737870
O O12 0.000000 0.439596 0.250000
O O13 0.721022 0.417295 0.928173
O O14 0.863788 0.420568 0.952061
O O15 0.611864 0.604049 0.136424
O O16 0.460926 0.546275 0.098047
O O17 0.790741 0.433639 0.703243
#
# Coordination Sequence:
#
# PCOD9227119 Si02
#       8
#     4   4   4   4   4   4   4   4
#     4  11  20  36  55  79 115 141 177 224 269 326
#     4  10  22  36  54  81 108 143 181 223 275 324
#     4  10  19  33  54  78 109 138 180 227 267 310
#     4  10  20  32  52  84 107 138 179 231 266 308
#     4  10  21  36  53  81 111 139 177 228 276 323
#     4  10  18  33  53  81 109 134 181 228 267 311
#     4  11  21  34  55  84 109 145 179 218 278 323
#     4  10  19  30  53  85 106 135 179 227 272 311
#
# _framework density 25.180406999999999
#
# number of rings (size 3 to 8) (size 9 to 14) (size 15 to 20)
#    0.000    1.750    6.250    0.750    1.750    0.500 
#    0.000    0.000    0.000    1.500    0.000    0.000 
#    0.000    0.000    0.000    0.000    0.000    0.000 
#
# Total GULP energy -178365.441725 kJ/mol
# GULP energy per Si atom -5573.920054 kJ/mol
# Density = 2.512310 g / cm^3
# Si number density = 25.180407 Si / 1000 Ang^3
#
#
#
# Elastic Constant Matrix: (Units=GPa)
#
#
# Indices 1 2 3 4 5 6 
#
# 1 49.3101 9.3841 41.2541 0.0000 13.6895 0.0000
# 2 9.3841 101.9954 50.6623 0.0000 9.9275 0.0000
# 3 41.2541 50.6623 204.4937 0.0000 28.4371 0.0000
# 4 0.0000 0.0000 0.0000 50.1907 0.0000 11.3570
# 5 13.6895 9.9275 28.4371 0.0000 35.8455 0.0000
# 6 0.0000 0.0000 0.0000 11.3570 0.0000 6.3648
#
#
#
# Elastic Compliance Matrix: (Units=1/GPa)
#
#
# Indices 1 2 3 4 5 6 
#
# 1 0.025656 0.000447 -0.004391 0.000000 -0.006438 0.000000
# 2 0.000447 0.011221 -0.002714 0.000000 -0.001126 0.000000
# 3 -0.004391 -0.002714 0.006868 0.000000 -0.003020 0.000000
# 4 0.000000 0.000000 0.000000 0.033416 0.000000 -0.059625
# 5 -0.006438 -0.001126 -0.003020 0.000000 0.033064 0.000000
# 6 0.000000 0.000000 0.000000 -0.059625 0.000000 0.263505
#
#
# Mechanical properties :
#
#
# Convention : Reuss Voigt Hill
#
# Bulk Modulus (GPa) = 32.86246 62.04447 47.45346
# Shear Modulus (GPa) = 12.58852 35.44680 24.01766
#
# Velocity S-wave (km/s) = 2.23834 3.75602 3.09175
# Velocity P-wave (km/s) = 4.44515 6.59574 5.62419
#
# Compressibility (1/GPa) = 0.03042986
#
# Stress axis : x y z
#
# Youngs Moduli (GPa) = 38.97733 89.12154 145.59677
#
# Poissons Ratio (x) = -0.03987 0.63936
# Poissons Ratio (y) = -0.01744 0.39509
# Poissons Ratio (z) = 0.17116 0.24184
#
# Static dielectric constant tensor:
#      x y z
#    x 2.177280 0.000000 0.041310 
#    y 0.000000 2.013470 0.000000 
#    z 0.041310 0.000000 2.142190 
# 
# From -- ./inp_files/82560.got.cif
#   From: 2010.05.17/outbox.cif.g08.bks.cpg/sg13_42_cif.got.tgz:82560.got - 2010.06.03 16:44:36.
