data_PCOD9227928
_publ_section_title
;
Structure prediction by ZEFSAII (Michael W. Deem and Ramdas Pophale) SiO2 
 PCOD9227928
Probable space group: P 2/C
;
_chemical_formula_sum "Si O2"
_cell_formula_units_Z 20
_cell_length_a 8.112197
_cell_length_b 5.092029
_cell_length_c 23.842256
_cell_angle_alpha 90.000000
_cell_angle_beta 127.351570
_cell_angle_gamma 90.000000
_cell_volume 782.896498
_symmetry_space_group_name_H-M "P 2/C"
_symmetry_group_IT_number 13
_symmetry_cell_setting 'monoclinic'
loop_
_space_group_symop_operation_xyz
x,y,z
-x,y,1/2-z
-x,-y,-z
x,-y,1/2+z
loop_
_atom_site_type_symbol
_atom_site_label
_atom_site_fract_x
_atom_site_fract_y
_atom_site_fract_z
Si Si1 0.675053 0.222274 0.031300
Si Si2 0.754357 0.147050 0.212171
Si Si3 0.721132 0.363174 0.637409
Si Si4 0.084794 0.105083 0.654108
Si Si5 0.137621 0.747106 0.043291
O O1 0.659380 0.476775 0.067838
O O2 0.686738 0.277582 0.967318
O O3 0.893507 0.082989 0.094529
O O4 0.500000 0.000000 0.000000
O O5 0.670747 0.425373 0.175279
O O6 0.668708 0.919763 0.153736
O O7 0.750644 0.055874 0.275451
O O8 0.000000 0.836285 0.750000
O O9 0.966419 0.310526 0.670763
O O10 0.179471 0.234236 0.617948
O O11 0.000000 0.500000 0.000000
O O12 0.000000 0.000000 0.000000
#
# Coordination Sequence:
#
# PCOD9227928 Si02
#       5
#     4   4   4   4   4
#     4  11  23  38  58  91 126 160 192 247 315 381
#     4  10  19  30  57  86 111 142 197 260 294 335
#     4  11  19  34  55  89 114 146 198 252 301 348
#     4  10  21  36  61  88 117 151 203 255 300 355
#     4  10  21  38  57  84 118 158 203 245 293 360
#
# _framework density 25.546158999999999
#
# number of rings (size 3 to 8) (size 9 to 14) (size 15 to 20)
#    0.000    1.600    6.000    1.800    0.000    0.800 
#    0.000    0.000    0.000    1.200    5.200    0.000 
#    0.000    0.000    0.000    0.000    0.000    0.000 
#
# Total GULP energy -111760.274979 kJ/mol
# GULP energy per Si atom -5588.013749 kJ/mol
# Density = 2.548802 g / cm^3
# Si number density = 25.546159 Si / 1000 Ang^3
#
#
#
# Elastic Constant Matrix: (Units=GPa)
#
#
# Indices 1 2 3 4 5 6 
#
# 1 76.6461 7.9519 3.0216 0.0000 -35.5376 0.0000
# 2 7.9519 148.2300 5.0183 0.0000 -9.1521 0.0000
# 3 3.0216 5.0183 124.8969 0.0000 -30.2617 0.0000
# 4 0.0000 0.0000 0.0000 42.4067 0.0000 -4.3950
# 5 -35.5376 -9.1521 -30.2617 0.0000 52.4452 0.0000
# 6 0.0000 0.0000 0.0000 -4.3950 0.0000 34.2945
#
#
#
# Elastic Compliance Matrix: (Units=1/GPa)
#
#
# Indices 1 2 3 4 5 6 
#
# 1 0.020121 -0.000234 0.003274 0.000000 0.015482 0.000000
# 2 -0.000234 0.006823 -0.000021 0.000000 0.001019 0.000000
# 3 0.003274 -0.000021 0.009841 0.000000 0.007893 0.000000
# 4 0.000000 0.000000 0.000000 0.023899 0.000000 0.003063
# 5 0.015482 0.001019 0.007893 0.000000 0.034291 0.000000
# 6 0.000000 0.000000 0.000000 0.003063 0.000000 0.029552
#
#
# Mechanical properties :
#
#
# Convention : Reuss Voigt Hill
#
# Bulk Modulus (GPa) = 23.35346 42.41738 32.88542
# Shear Modulus (GPa) = 37.66134 48.08134 42.87134
#
# Velocity S-wave (km/s) = 3.84376 4.34307 4.10102
# Velocity P-wave (km/s) = 5.37223 6.46451 5.94351
#
# Compressibility (1/GPa) = 0.04282020
#
# Stress axis : x y z
#
# Youngs Moduli (GPa) = 49.69997 146.57356 101.61908
#
# Poissons Ratio (x) = 0.03434 -0.33269
# Poissons Ratio (y) = 0.01165 0.00218
# Poissons Ratio (z) = -0.16271 0.00315
#
# Static dielectric constant tensor:
#      x y z
#    x 2.124470 0.000000 0.105070 
#    y 0.000000 1.991170 0.000000 
#    z 0.105070 0.000000 2.228830 
# 
# From -- ./inp_files/84214.got.cif
#   From: 2010.05.17/outbox.cif.g08.bks.cpg/sg13_43_cif.got.tgz:84214.got - 2010.06.03 16:44:36.
