data_PCOD9227293
_publ_section_title
;
Structure prediction by ZEFSAII (Michael W. Deem and Ramdas Pophale) SiO2 
 PCOD9227293
Probable space group: P 2/C
;
_chemical_formula_sum "Si O2"
_cell_formula_units_Z 28
_cell_length_a 15.991441
_cell_length_b 17.960451
_cell_length_c 5.712614
_cell_angle_alpha 90.000000
_cell_angle_beta 58.854827
_cell_angle_gamma 90.000000
_cell_volume 1404.242883
_symmetry_space_group_name_H-M "P 2/C"
_symmetry_group_IT_number 13
_symmetry_cell_setting 'monoclinic'
loop_
_space_group_symop_operation_xyz
x,y,z
-x,y,1/2-z
-x,-y,-z
x,-y,1/2+z
loop_
_atom_site_type_symbol
_atom_site_label
_atom_site_fract_x
_atom_site_fract_y
_atom_site_fract_z
Si Si1 0.673767 0.296606 0.771021
Si Si2 0.500000 0.788990 0.250000
Si Si3 0.096766 0.073380 0.992192
Si Si4 0.538828 0.414853 0.945169
Si Si5 0.175142 0.797112 0.714034
Si Si6 0.692704 0.968207 0.377705
Si Si7 0.345148 0.179288 0.327681
Si Si8 0.000000 0.178694 0.750000
O O1 0.586385 0.257213 0.750387
O O2 0.773358 0.266806 0.513053
O O3 0.650144 0.384507 0.792154
O O4 0.663188 0.260533 0.043236
O O5 0.443912 0.831402 0.538652
O O6 0.139697 0.134102 0.109851
O O7 0.000000 0.037823 0.250000
O O8 0.188786 0.023040 0.792546
O O9 0.060294 0.124067 0.831624
O O10 0.500000 0.383533 0.250000
O O11 0.500000 0.388567 0.750000
O O12 0.500000 0.500000 0.000000
O O13 0.255891 0.827652 0.777239
O O14 0.078595 0.773652 0.993729
O O15 0.668063 0.881561 0.451689
O O16 0.657259 0.005438 0.673438
#
# Coordination Sequence:
#
# PCOD9227293 Si02
#       8
#     4   2   4   4   4   4   4   2
#     4  11  20  35  61  88 114 161 202 244 294 364
#     4  10  22  34  62  78 112 136 214 244 302 354
#     4  10  21  37  57  80 112 149 194 256 321 383
#     4  10  21  37  57  91 136 167 189 235 289 349
#     4  10  19  34  58  83 118 149 203 248 312 359
#     4  12  26  41  58  79 113 150 200 262 324 381
#     4  11  22  39  57  83 106 156 201 262 305 371
#     4  10  18  34  58  82 112 152 188 260 316 360
#
# _framework density 19.939571000000001
#
# number of rings (size 3 to 8) (size 9 to 14) (size 15 to 20)
#    0.000    1.429    3.571    2.143    6.000    0.571 
#    0.000    0.714    0.000    0.000    0.000    0.000 
#    0.000    4.571    0.000    0.857    0.000    0.000 
#
# Total GULP energy -156205.845557 kJ/mol
# GULP energy per Si atom -5578.780198 kJ/mol
# Density = 1.989419 g / cm^3
# Si number density = 19.939571 Si / 1000 Ang^3
#
#
#
# Elastic Constant Matrix: (Units=GPa)
#
#
# Indices 1 2 3 4 5 6 
#
# 1 67.0425 21.4474 28.0887 0.0000 14.8398 0.0000
# 2 21.4474 77.1260 31.2644 0.0000 -5.6209 0.0000
# 3 28.0887 31.2644 146.7055 0.0000 -8.2271 0.0000
# 4 0.0000 0.0000 0.0000 -23.5059 0.0000 -22.7281
# 5 14.8398 -5.6209 -8.2271 0.0000 45.7241 0.0000
# 6 0.0000 0.0000 0.0000 -22.7281 0.0000 16.7949
#
#
#
# Elastic Compliance Matrix: (Units=1/GPa)
#
#
# Indices 1 2 3 4 5 6 
#
# 1 0.019359 -0.004655 -0.003130 0.000000 -0.007418 0.000000
# 2 -0.004655 0.015378 -0.002218 0.000000 0.003002 0.000000
# 3 -0.003130 -0.002218 0.008011 0.000000 0.002185 0.000000
# 4 0.000000 0.000000 0.000000 -0.018429 0.000000 -0.024939
# 5 -0.007418 0.003002 0.002185 0.000000 0.025040 0.000000
# 6 0.000000 0.000000 0.000000 -0.024939 0.000000 0.025793
#
#
# Mechanical properties :
#
#
# Convention : Reuss Voigt Hill
#
# Bulk Modulus (GPa) = 43.97247 50.27496 47.12372
# Shear Modulus (GPa) = 48.66744 21.80751 35.23748
#
# Velocity S-wave (km/s) = 4.94575 3.31067 4.20838
# Velocity P-wave (km/s) = 7.39694 6.31526 6.87740
#
# Compressibility (1/GPa) = 0.02274150
#
# Stress axis : x y z
#
# Youngs Moduli (GPa) = 51.65639 65.02793 124.83062
#
# Poissons Ratio (x) = 0.30270 0.39078
# Poissons Ratio (y) = 0.24046 0.27682
# Poissons Ratio (z) = 0.16171 0.14421
#
# Static dielectric constant tensor:
#      x y z
#    x 1.720260 0.000000 0.006630 
#    y 0.000000 1.792540 0.000000 
#    z 0.006630 0.000000 1.804260 
# 
# From -- ./inp_files/5330.got.cif
#   From: 2010.05.17/outbox.cif.g08.bks.cpg/sg13_3_cif.got.tgz:5330.got - 2010.06.03 16:44:36.
