data_PCOD9227858
_publ_section_title
;
Structure prediction by ZEFSAII (Michael W. Deem and Ramdas Pophale) SiO2 
 PCOD9227858
Probable space group: P 2/C
;
_chemical_formula_sum "Si O2"
_cell_formula_units_Z 24
_cell_length_a 14.154841
_cell_length_b 5.069448
_cell_length_c 21.929607
_cell_angle_alpha 90.000000
_cell_angle_beta 42.626994
_cell_angle_gamma 90.000000
_cell_volume 1065.682957
_symmetry_space_group_name_H-M "P 2/C"
_symmetry_group_IT_number 13
_symmetry_cell_setting 'monoclinic'
loop_
_space_group_symop_operation_xyz
x,y,z
-x,y,1/2-z
-x,-y,-z
x,-y,1/2+z
loop_
_atom_site_type_symbol
_atom_site_label
_atom_site_fract_x
_atom_site_fract_y
_atom_site_fract_z
Si Si1 0.648614 0.161097 0.314144
Si Si2 0.083213 0.838988 0.261855
Si Si3 0.728920 0.449013 0.391079
Si Si4 0.014264 0.309213 0.566337
Si Si5 0.608096 0.962696 0.504416
Si Si6 0.840182 0.192216 0.114704
O O1 0.642307 0.390317 0.368928
O O2 0.496238 0.028609 0.388610
O O3 0.703528 0.232748 0.220856
O O4 0.777477 0.983638 0.279500
O O5 0.136143 0.574865 0.203824
O O6 0.983180 0.771358 0.365131
O O7 0.000000 0.996626 0.250000
O O8 0.672445 0.680103 0.460868
O O9 0.719499 0.191582 0.438082
O O10 0.954784 0.603890 0.588135
O O11 0.151833 0.264904 0.460544
O O12 0.897853 0.105421 0.594362
O O13 0.500000 0.000000 0.500000
#
# Coordination Sequence:
#
# PCOD9227858 Si02
#       6
#     4   4   4   4   4   4
#     4  10  19  32  52  74 100 127 165 210 253 297
#     4  11  22  33  49  73 110 142 166 188 246 312
#     4  11  19  33  46  73 103 129 157 210 246 302
#     4   9  18  32  45  69  96 132 163 201 239 295
#     4  10  19  29  51  69 100 122 163 211 261 282
#     4   9  17  30  51  67  96 124 163 210 252 277
#
# _framework density 22.520768
#
# number of rings (size 3 to 8) (size 9 to 14) (size 15 to 20)
#    0.000    2.000    5.000    2.000    0.000    0.667 
#    0.000    0.000    0.000    0.000    0.000    1.167 
#   10.000    0.000    0.000    0.000    0.000    0.000 
#
# Total GULP energy -133673.798481 kJ/mol
# GULP energy per Si atom -5569.741603 kJ/mol
# Density = 2.246951 g / cm^3
# Si number density = 22.520768 Si / 1000 Ang^3
#
#
#
# Elastic Constant Matrix: (Units=GPa)
#
#
# Indices 1 2 3 4 5 6 
#
# 1 25.2443 4.7031 31.4636 0.0000 5.1600 0.0000
# 2 4.7031 110.9172 37.7295 0.0000 -4.5287 0.0000
# 3 31.4636 37.7295 237.6269 0.0000 32.6154 0.0000
# 4 0.0000 0.0000 0.0000 24.2950 0.0000 -4.4223
# 5 5.1600 -4.5287 32.6154 0.0000 21.3864 0.0000
# 6 0.0000 0.0000 0.0000 -4.4223 0.0000 5.1432
#
#
#
# Elastic Compliance Matrix: (Units=1/GPa)
#
#
# Indices 1 2 3 4 5 6 
#
# 1 0.047538 -0.000091 -0.005948 0.000000 -0.002418 0.000000
# 2 -0.000091 0.010065 -0.002380 0.000000 0.005783 0.000000
# 3 -0.005948 -0.002380 0.006635 0.000000 -0.009187 0.000000
# 4 0.000000 0.000000 0.000000 0.048798 0.000000 0.041958
# 5 -0.002418 0.005783 -0.009187 0.000000 0.062577 0.000000
# 6 0.000000 0.000000 0.000000 0.041958 0.000000 0.230510
#
#
# Mechanical properties :
#
#
# Convention : Reuss Voigt Hill
#
# Bulk Modulus (GPa) = 21.09722 57.95342 39.52532
# Shear Modulus (GPa) = 11.39575 30.15773 20.77674
#
# Velocity S-wave (km/s) = 2.25191 3.66335 3.04066
# Velocity P-wave (km/s) = 4.01867 6.60929 5.46957
#
# Compressibility (1/GPa) = 0.04739960
#
# Stress axis : x y z
#
# Youngs Moduli (GPa) = 21.03602 99.35243 150.72438
#
# Poissons Ratio (x) = 0.00906 0.89650
# Poissons Ratio (y) = 0.00192 0.35868
# Poissons Ratio (z) = 0.12512 0.23643
#
# Static dielectric constant tensor:
#      x y z
#    x 1.886640 0.000000 -0.013150 
#    y 0.000000 1.916700 0.000000 
#    z -0.013150 0.000000 1.947090 
# 
# From -- ./inp_files/93365.got.cif
#   From: 2010.05.17/outbox.cif.g08.bks.cpg/sg13_47_cif.got.tgz:93365.got - 2010.06.03 16:44:36.
