data_PCOD9227715
_publ_section_title
;
Structure prediction by ZEFSAII (Michael W. Deem and Ramdas Pophale) SiO2 
 PCOD9227715
Probable space group: P 2/C
;
_chemical_formula_sum "Si O2"
_cell_formula_units_Z 22
_cell_length_a 9.187478
_cell_length_b 8.859327
_cell_length_c 17.117021
_cell_angle_alpha 90.000000
_cell_angle_beta 44.292087
_cell_angle_gamma 90.000000
_cell_volume 972.920807
_symmetry_space_group_name_H-M "P 2/C"
_symmetry_group_IT_number 13
_symmetry_cell_setting 'monoclinic'
loop_
_space_group_symop_operation_xyz
x,y,z
-x,y,1/2-z
-x,-y,-z
x,-y,1/2+z
loop_
_atom_site_type_symbol
_atom_site_label
_atom_site_fract_x
_atom_site_fract_y
_atom_site_fract_z
Si Si1 0.440986 0.982012 0.931434
Si Si2 0.063833 0.836783 0.012286
Si Si3 0.808134 0.709003 0.987049
Si Si4 0.821678 0.128491 0.760234
Si Si5 0.596803 0.567529 0.383803
Si Si6 0.000000 0.378228 0.250000
O O1 0.661019 0.995194 0.803743
O O2 0.307782 0.130290 0.963108
O O3 0.500000 0.000000 0.000000
O O4 0.298159 0.846623 0.955926
O O5 0.921360 0.812981 0.142902
O O6 0.999399 0.713912 0.973360
O O7 0.000000 0.000000 0.000000
O O8 0.893452 0.699424 0.865813
O O9 0.620506 0.592316 0.079826
O O10 0.698050 0.264993 0.849280
O O11 0.000000 0.074251 0.750000
O O12 0.500000 0.500000 0.500000
O O13 0.803833 0.470184 0.287843
#
# Coordination Sequence:
#
# PCOD9227715 Si02
#       6
#     4   4   4   4   4   2
#     4  10  20  35  59  91 118 162 213 249 309 398
#     4  10  22  39  58  91 131 160 208 267 314 391
#     4   9  21  36  59  89 122 161 206 268 317 377
#     4  11  20  36  66  87 119 174 212 254 324 383
#     4   9  19  36  63  90 116 159 222 266 306 384
#     4  10  18  38  64  88 124 168 210 274 326 372
#
# _framework density 22.612321999999999
#
# number of rings (size 3 to 8) (size 9 to 14) (size 15 to 20)
#    0.000    2.182    2.727    0.000    0.000    9.455 
#    0.000    0.909    4.000    0.000    0.000    0.000 
#    0.000    0.000    0.000    0.000    0.000    0.000 
#
# Total GULP energy -122504.382213 kJ/mol
# GULP energy per Si atom -5568.381010 kJ/mol
# Density = 2.256086 g / cm^3
# Si number density = 22.612322 Si / 1000 Ang^3
#
#
#
# Elastic Constant Matrix: (Units=GPa)
#
#
# Indices 1 2 3 4 5 6 
#
# 1 153.9314 25.4096 41.2928 0.0000 -21.1479 0.0000
# 2 25.4096 25.0189 21.4626 0.0000 -8.9160 0.0000
# 3 41.2928 21.4626 96.2079 0.0000 -22.9063 0.0000
# 4 0.0000 0.0000 0.0000 11.1200 0.0000 -3.9848
# 5 -21.1479 -8.9160 -22.9063 0.0000 36.8166 0.0000
# 6 0.0000 0.0000 0.0000 -3.9848 0.0000 31.7524
#
#
#
# Elastic Compliance Matrix: (Units=1/GPa)
#
#
# Indices 1 2 3 4 5 6 
#
# 1 0.008264 -0.006197 -0.001634 0.000000 0.002230 0.000000
# 2 -0.006197 0.055231 -0.008598 0.000000 0.004466 0.000000
# 3 -0.001634 -0.008598 0.014432 0.000000 0.005959 0.000000
# 4 0.000000 0.000000 0.000000 0.094162 0.000000 0.011817
# 5 0.002230 0.004466 0.005959 0.000000 0.033231 0.000000
# 6 0.000000 0.000000 0.000000 0.011817 0.000000 0.032977
#
#
# Mechanical properties :
#
#
# Convention : Reuss Voigt Hill
#
# Bulk Modulus (GPa) = 22.18772 50.16537 36.17655
# Shear Modulus (GPa) = 17.47163 28.40402 22.93783
#
# Velocity S-wave (km/s) = 2.78269 3.54804 3.18841
# Velocity P-wave (km/s) = 4.48977 6.24643 5.43948
#
# Compressibility (1/GPa) = 0.04506997
#
# Stress axis : x y z
#
# Youngs Moduli (GPa) = 121.00841 18.10570 69.29000
#
# Poissons Ratio (x) = 0.11220 0.11319
# Poissons Ratio (y) = 0.74989 0.59576
# Poissons Ratio (z) = 0.19767 0.15567
#
# Static dielectric constant tensor:
#      x y z
#    x 1.892240 0.000000 -0.040080 
#    y 0.000000 1.899630 0.000000 
#    z -0.040080 0.000000 1.866210 
# 
# From -- ./inp_files/64188.got.cif
#   From: 2010.05.17/outbox.cif.g08.bks.cpg/sg13_33_cif.got.tgz:64188.got - 2010.06.03 16:44:36.
