data_PCOD9227875
_publ_section_title
;
Structure prediction by ZEFSAII (Michael W. Deem and Ramdas Pophale) SiO2 
 PCOD9227875
Probable space group: P 2/C
;
_chemical_formula_sum "Si O2"
_cell_formula_units_Z 24
_cell_length_a 10.813359
_cell_length_b 13.639890
_cell_length_c 15.249051
_cell_angle_alpha 90.000000
_cell_angle_beta 155.747323
_cell_angle_gamma 90.000000
_cell_volume 923.855368
_symmetry_space_group_name_H-M "P 2/C"
_symmetry_group_IT_number 13
_symmetry_cell_setting 'monoclinic'
loop_
_space_group_symop_operation_xyz
x,y,z
-x,y,1/2-z
-x,-y,-z
x,-y,1/2+z
loop_
_atom_site_type_symbol
_atom_site_label
_atom_site_fract_x
_atom_site_fract_y
_atom_site_fract_z
Si Si1 0.853857 0.482534 0.789183
Si Si2 0.614890 0.598543 0.949957
Si Si3 0.185326 0.799074 0.505122
Si Si4 0.330596 0.888718 0.043463
Si Si5 0.362732 0.704136 0.256003
Si Si6 0.856883 0.008399 0.809216
O O1 0.739564 0.583471 0.758211
O O2 0.741119 0.452642 0.619450
O O3 0.677813 0.401110 0.729885
O O4 0.208030 0.459726 0.012522
O O5 0.722940 0.710415 0.001873
O O6 0.500000 0.831541 0.750000
O O7 0.961188 0.754371 0.434170
O O8 0.004381 0.895200 0.359782
O O9 0.500000 0.888195 0.250000
O O10 0.404466 0.782596 0.051438
O O11 0.509288 0.969962 0.102696
O O12 0.989011 0.916117 0.842882
O O13 0.500000 0.690908 0.250000
O O14 0.000000 0.000000 0.000000
#
# Coordination Sequence:
#
# PCOD9227875 Si02
#       6
#     4   4   4   4   4   4
#     4   9  18  35  52  67  90 122 160 195 233 282
#     4   9  19  34  52  69  89 123 161 195 233 280
#     4  10  19  30  46  72  99 121 153 196 236 274
#     4   8  14  24  39  62  88 116 148 179 220 270
#     4   9  18  30  47  70  94 121 153 191 235 280
#     4   9  15  25  42  64  92 122 150 184 225 273
#
# _framework density 25.978093000000001
#
# number of rings (size 3 to 8) (size 9 to 14) (size 15 to 20)
#    0.000    3.000    0.000    2.500    0.000    2.000 
#    0.000    3.333    0.000    1.000    0.000    4.667 
#    0.000    0.000    0.000    0.000    0.000    0.000 
#
# Total GULP energy -133831.885115 kJ/mol
# GULP energy per Si atom -5576.328546 kJ/mol
# Density = 2.591897 g / cm^3
# Si number density = 25.978093 Si / 1000 Ang^3
#
#
#
# Elastic Constant Matrix: (Units=GPa)
#
#
# Indices 1 2 3 4 5 6 
#
# 1 106.8447 30.3969 25.7024 0.0000 25.9157 0.0000
# 2 30.3969 99.7441 25.2186 0.0000 29.5529 0.0000
# 3 25.7024 25.2186 78.3575 0.0000 14.3484 0.0000
# 4 0.0000 0.0000 0.0000 33.6349 0.0000 11.2311
# 5 25.9157 29.5529 14.3484 0.0000 40.0801 0.0000
# 6 0.0000 0.0000 0.0000 11.2311 0.0000 9.2969
#
#
#
# Elastic Compliance Matrix: (Units=1/GPa)
#
#
# Indices 1 2 3 4 5 6 
#
# 1 0.011689 -0.001247 -0.002373 0.000000 -0.005789 0.000000
# 2 -0.001247 0.013462 -0.002412 0.000000 -0.008256 0.000000
# 3 -0.002373 -0.002412 0.014672 0.000000 -0.001940 0.000000
# 4 0.000000 0.000000 0.000000 0.049832 0.000000 -0.060200
# 5 -0.005789 -0.008256 -0.001940 0.000000 0.035476 0.000000
# 6 0.000000 0.000000 0.000000 -0.060200 0.000000 0.180286
#
#
# Mechanical properties :
#
#
# Convention : Reuss Voigt Hill
#
# Bulk Modulus (GPa) = 36.02356 49.73135 42.87746
# Shear Modulus (GPa) = 15.30303 30.17760 22.74032
#
# Velocity S-wave (km/s) = 2.42972 3.41200 2.96187
# Velocity P-wave (km/s) = 4.66566 5.89131 5.31394
#
# Compressibility (1/GPa) = 0.02775961
#
# Stress axis : x y z
#
# Youngs Moduli (GPa) = 85.54933 74.28516 68.15834
#
# Poissons Ratio (x) = 0.09264 0.16172
# Poissons Ratio (y) = 0.10669 0.16437
# Poissons Ratio (z) = 0.20299 0.17915
#
# Static dielectric constant tensor:
#      x y z
#    x 2.055920 0.000000 -0.061790 
#    y 0.000000 2.071310 0.000000 
#    z -0.061790 0.000000 2.166400 
# 
# From -- ./inp_files/78743.got.cif
#   From: 2010.05.17/outbox.cif.g08.bks.cpg/sg13_40_cif.got.tgz:78743.got - 2010.06.03 16:44:36.
