data_PCOD9227751
_publ_section_title
;
Structure prediction by ZEFSAII (Michael W. Deem and Ramdas Pophale) SiO2 
 PCOD9227751
Probable space group: P 2/C
;
_chemical_formula_sum "Si O2"
_cell_formula_units_Z 30
_cell_length_a 15.962282
_cell_length_b 15.447207
_cell_length_c 16.550278
_cell_angle_alpha 90.000000
_cell_angle_beta 156.199632
_cell_angle_gamma 90.000000
_cell_volume 1646.830313
_symmetry_space_group_name_H-M "P 2/C"
_symmetry_group_IT_number 13
_symmetry_cell_setting 'monoclinic'
loop_
_space_group_symop_operation_xyz
x,y,z
-x,y,1/2-z
-x,-y,-z
x,-y,1/2+z
loop_
_atom_site_type_symbol
_atom_site_label
_atom_site_fract_x
_atom_site_fract_y
_atom_site_fract_z
Si Si1 0.114619 0.358345 0.106267
Si Si2 0.877410 0.371721 0.058022
Si Si3 0.634048 0.803404 0.294172
Si Si4 0.389855 0.795988 0.918393
Si Si5 0.991571 0.900197 0.969584
Si Si6 0.286940 0.558371 0.603701
Si Si7 0.845688 0.228743 0.766537
Si Si8 0.000000 0.684786 0.250000
O O1 0.272877 0.284370 0.274766
O O2 0.238288 0.422361 0.155336
O O3 0.026335 0.392809 0.112860
O O4 0.921581 0.311323 0.888592
O O5 0.000000 0.359073 0.250000
O O6 0.749258 0.284847 0.923954
O O7 0.742634 0.458247 0.944240
O O8 0.500000 0.840721 0.250000
O O9 0.814335 0.864449 0.413925
O O10 0.462830 0.782068 0.074674
O O11 0.225076 0.873495 0.763749
O O12 0.611702 0.803050 0.071438
O O13 0.010428 0.846338 0.069846
O O14 0.000000 0.000000 0.000000
O O15 0.500000 0.585849 0.750000
O O16 0.126889 0.620663 0.418139
O O17 0.875071 0.255001 0.700727
#
# Coordination Sequence:
#
# PCOD9227751 Si02
#       8
#     4   4   4   4   4   4   4   2
#     4  10  20  38  59  84 120 162 207 254 310 366
#     4  12  22  40  58  87 127 162 206 260 309 365
#     4  11  23  38  62  90 121 162 201 242 309 376
#     4  10  18  39  63  86 117 160 198 241 307 363
#     4  10  22  41  62  90 122 152 199 254 308 372
#     4  11  23  38  56  88 121 162 213 265 306 359
#     4   9  19  36  61  86 115 161 204 242 312 368
#     4  10  20  40  58  84 122 160 212 264 302 358
#
# _framework density 18.216812999999998
#
# number of rings (size 3 to 8) (size 9 to 14) (size 15 to 20)
#    0.000    1.600    4.667    2.400    0.000    2.133 
#    0.000    4.000    0.000    0.000    0.000    0.000 
#    0.000    0.000    0.000    0.000    0.000    0.000 
#
# Total GULP energy -167075.143865 kJ/mol
# GULP energy per Si atom -5569.171462 kJ/mol
# Density = 1.817535 g / cm^3
# Si number density = 18.216813 Si / 1000 Ang^3
#
#
#
# Elastic Constant Matrix: (Units=GPa)
#
#
# Indices 1 2 3 4 5 6 
#
# 1 115.5541 29.1548 41.6936 0.0000 -7.6576 0.0000
# 2 29.1548 89.9919 30.4844 0.0000 -1.3990 0.0000
# 3 41.6936 30.4844 103.7837 0.0000 -0.3268 0.0000
# 4 0.0000 0.0000 0.0000 13.9499 0.0000 7.6146
# 5 -7.6576 -1.3990 -0.3268 0.0000 27.0245 0.0000
# 6 0.0000 0.0000 0.0000 7.6146 0.0000 10.6191
#
#
#
# Elastic Compliance Matrix: (Units=1/GPa)
#
#
# Indices 1 2 3 4 5 6 
#
# 1 0.010715 -0.002189 -0.003652 0.000000 0.002879 0.000000
# 2 -0.002189 0.012797 -0.002879 0.000000 0.000007 0.000000
# 3 -0.003652 -0.002879 0.011945 0.000000 -0.001040 0.000000
# 4 0.000000 0.000000 0.000000 0.117789 0.000000 -0.084462
# 5 0.002879 0.000007 -0.001040 0.000000 0.037807 0.000000
# 6 0.000000 0.000000 0.000000 -0.084462 0.000000 0.154734
#
#
# Mechanical properties :
#
#
# Convention : Reuss Voigt Hill
#
# Bulk Modulus (GPa) = 55.50955 56.88836 56.19896
# Shear Modulus (GPa) = 13.54153 24.18514 18.86334
#
# Velocity S-wave (km/s) = 2.72941 3.64762 3.22140
# Velocity P-wave (km/s) = 6.36166 7.00260 6.68981
#
# Compressibility (1/GPa) = 0.01801492
#
# Stress axis : x y z
#
# Youngs Moduli (GPa) = 93.32750 78.14423 83.71570
#
# Poissons Ratio (x) = 0.17108 0.30577
# Poissons Ratio (y) = 0.20433 0.24104
# Poissons Ratio (z) = 0.34087 0.22500
#
# Static dielectric constant tensor:
#      x y z
#    x 1.661170 0.000000 0.032830 
#    y 0.000000 1.614470 0.000000 
#    z 0.032830 0.000000 1.646730 
# 
# From -- ./inp_files/70058.got.cif
#   From: 2010.05.17/outbox.cif.g08.bks.cpg/sg13_36_cif.got.tgz:70058.got - 2010.06.03 16:44:36.
