data_PCOD9227969
_publ_section_title
;
Structure prediction by ZEFSAII (Michael W. Deem and Ramdas Pophale) SiO2 
 PCOD9227969
Probable space group: P 2/C
;
_chemical_formula_sum "Si O2"
_cell_formula_units_Z 22
_cell_length_a 31.397089
_cell_length_b 5.346076
_cell_length_c 5.045601
_cell_angle_alpha 90.000000
_cell_angle_beta 99.449331
_cell_angle_gamma 90.000000
_cell_volume 835.418725
_symmetry_space_group_name_H-M "P 2/C"
_symmetry_group_IT_number 13
_symmetry_cell_setting 'monoclinic'
loop_
_space_group_symop_operation_xyz
x,y,z
-x,y,1/2-z
-x,-y,-z
x,-y,1/2+z
loop_
_atom_site_type_symbol
_atom_site_label
_atom_site_fract_x
_atom_site_fract_y
_atom_site_fract_z
Si Si1 0.773097 0.157282 0.113454
Si Si2 0.590163 0.321433 0.936155
Si Si3 0.955862 0.345061 0.284865
Si Si4 0.138548 0.154126 0.455412
Si Si5 0.678587 0.652122 0.376242
Si Si6 0.500000 0.315004 0.750000
O O1 0.817548 0.297874 0.081536
O O2 0.726464 0.261159 0.994082
O O3 0.774659 0.084775 0.421233
O O4 0.589471 0.554496 0.725088
O O5 0.545848 0.176079 0.824649
O O6 0.636266 0.194437 0.924427
O O7 0.957899 0.412243 0.594258
O O8 0.908736 0.248462 0.164714
O O9 0.000000 0.202446 0.250000
O O10 0.140819 0.088915 0.765533
O O11 0.675219 0.591656 0.063773
O O12 0.500000 0.500000 0.500000
#
# Coordination Sequence:
#
# PCOD9227969 Si02
#       6
#     4   4   4   4   4   2
#     4  10  21  36  51  71 100 131 162 198 243 290
#     4   8  14  23  37  60  88 114 146 189 233 276
#     4  10  21  36  54  78 106 132 160 198 244 289
#     4  10  21  36  54  75  99 130 168 203 235 282
#     4  10  19  31  49  73  96 122 161 203 239 283
#     4   8  12  20  34  54  84 116 140 178 236 278
#
# _framework density 26.334099999999999
#
# number of rings (size 3 to 8) (size 9 to 14) (size 15 to 20)
#    0.000    2.545    0.000    2.182    0.000    2.182 
#    0.000    0.000    0.000    0.000    0.000    1.273 
#    0.000    0.000    0.000    0.000    0.000    0.000 
#
# Total GULP energy -122769.612997 kJ/mol
# GULP energy per Si atom -5580.436954 kJ/mol
# Density = 2.627416 g / cm^3
# Si number density = 26.334100 Si / 1000 Ang^3
#
#
#
# Elastic Constant Matrix: (Units=GPa)
#
#
# Indices 1 2 3 4 5 6 
#
# 1 298.2491 25.2840 19.3256 0.0000 58.7377 0.0000
# 2 25.2840 27.4771 18.7584 0.0000 1.3965 0.0000
# 3 19.3256 18.7584 127.4606 0.0000 23.7410 0.0000
# 4 0.0000 0.0000 0.0000 34.7862 0.0000 -0.4834
# 5 58.7377 1.3965 23.7410 0.0000 52.9870 0.0000
# 6 0.0000 0.0000 0.0000 -0.4834 0.0000 6.2666
#
#
#
# Elastic Compliance Matrix: (Units=1/GPa)
#
#
# Indices 1 2 3 4 5 6 
#
# 1 0.004815 -0.004853 0.001041 0.000000 -0.005676 0.000000
# 2 -0.004853 0.045499 -0.007353 0.000000 0.007475 0.000000
# 3 0.001041 -0.007353 0.009763 0.000000 -0.005335 0.000000
# 4 0.000000 0.000000 0.000000 0.028778 0.000000 0.002220
# 5 -0.005676 0.007475 -0.005335 0.000000 0.027358 0.000000
# 6 0.000000 0.000000 0.000000 0.002220 0.000000 0.159747
#
#
# Mechanical properties :
#
#
# Convention : Reuss Voigt Hill
#
# Bulk Modulus (GPa) = 26.49061 64.43588 45.46325
# Shear Modulus (GPa) = 16.08383 44.79588 30.43985
#
# Velocity S-wave (km/s) = 2.47404 4.12887 3.40356
# Velocity P-wave (km/s) = 4.27111 6.87399 5.72251
#
# Compressibility (1/GPa) = 0.03774922
#
# Stress axis : x y z
#
# Youngs Moduli (GPa) = 207.69983 21.97840 102.42233
#
# Poissons Ratio (x) = 0.10666 -0.10666
# Poissons Ratio (y) = 1.00794 0.75307
# Poissons Ratio (z) = -0.21630 0.16160
#
# Static dielectric constant tensor:
#      x y z
#    x 2.240320 0.000000 0.003750 
#    y 0.000000 2.180670 0.000000 
#    z 0.003750 0.000000 1.941380 
# 
# From -- ./inp_files/7325.got.cif
#   From: 2010.05.17/outbox.cif.g08.bks.cpg/sg13_4_cif.got.tgz:7325.got - 2010.06.03 16:44:36.
