data_PCOD9227714
_publ_section_title
;
Structure prediction by ZEFSAII (Michael W. Deem and Ramdas Pophale) SiO2 
 PCOD9227714
Probable space group: P 2/C
;
_chemical_formula_sum "Si O2"
_cell_formula_units_Z 16
_cell_length_a 6.344810
_cell_length_b 8.155608
_cell_length_c 15.811198
_cell_angle_alpha 90.000000
_cell_angle_beta 70.688576
_cell_angle_gamma 90.000000
_cell_volume 772.128919
_symmetry_space_group_name_H-M "P 2/C"
_symmetry_group_IT_number 13
_symmetry_cell_setting 'monoclinic'
loop_
_space_group_symop_operation_xyz
x,y,z
-x,y,1/2-z
-x,-y,-z
x,-y,1/2+z
loop_
_atom_site_type_symbol
_atom_site_label
_atom_site_fract_x
_atom_site_fract_y
_atom_site_fract_z
Si Si1 0.854083 0.900244 0.450635
Si Si2 0.500000 0.111534 0.750000
Si Si3 0.134072 0.361167 0.811142
Si Si4 0.560108 0.870804 0.881954
Si Si5 0.500000 0.387894 0.250000
O O1 0.620359 0.835438 0.521568
O O2 0.985722 0.742727 0.396263
O O3 0.774210 0.036656 0.392332
O O4 0.000000 0.000000 0.500000
O O5 0.295475 0.222840 0.750503
O O6 0.437101 0.001405 0.837250
O O7 0.306706 0.500161 0.817807
O O8 0.000000 0.431355 0.750000
O O9 0.601824 0.722107 0.812029
#
# Coordination Sequence:
#
# PCOD9227714 Si02
#       5
#     4   2   4   4   2
#     4  11  22  38  68  95 124 167 220 257 308 381
#     4  10  18  38  64  86 124 160 218 254 304 370
#     4  11  22  40  63  93 125 172 206 262 320 379
#     4  10  22  40  62  96 123 164 212 268 303 375
#     4  10  26  42  62  94 136 162 206 268 328 368
#
# _framework density 20.721924999999999
#
# number of rings (size 3 to 8) (size 9 to 14) (size 15 to 20)
#    0.000    1.500    5.000    0.000    0.000    3.000 
#    0.000    2.500    0.000    0.000    0.000    0.000 
#    0.000    0.000    0.000    0.000    0.000    0.000 
#
# Total GULP energy -89135.250056 kJ/mol
# GULP energy per Si atom -5570.953128 kJ/mol
# Density = 2.067476 g / cm^3
# Si number density = 20.721925 Si / 1000 Ang^3
#
#
#
# Elastic Constant Matrix: (Units=GPa)
#
#
# Indices 1 2 3 4 5 6 
#
# 1 82.2509 39.6179 23.8661 0.0000 17.4723 0.0000
# 2 39.6179 97.7626 42.9503 0.0000 4.4103 0.0000
# 3 23.8661 42.9503 72.7562 0.0000 -1.6335 0.0000
# 4 0.0000 0.0000 0.0000 24.7788 0.0000 -3.6087
# 5 17.4723 4.4103 -1.6335 0.0000 39.0034 0.0000
# 6 0.0000 0.0000 0.0000 -3.6087 0.0000 14.8381
#
#
#
# Elastic Compliance Matrix: (Units=1/GPa)
#
#
# Indices 1 2 3 4 5 6 
#
# 1 0.017039 -0.005479 -0.002515 0.000000 -0.007119 0.000000
# 2 -0.005479 0.015715 -0.007472 0.000000 0.000364 0.000000
# 3 -0.002515 -0.007472 0.019042 0.000000 0.002769 0.000000
# 4 0.000000 0.000000 0.000000 0.041839 0.000000 0.010175
# 5 -0.007119 0.000364 0.002769 0.000000 0.028902 0.000000
# 6 0.000000 0.000000 0.000000 0.010175 0.000000 0.069869
#
#
# Mechanical properties :
#
#
# Convention : Reuss Voigt Hill
#
# Bulk Modulus (GPa) = 47.92550 51.73758 49.83154
# Shear Modulus (GPa) = 21.71148 25.47976 23.59562
#
# Velocity S-wave (km/s) = 3.24041 3.51038 3.37809
# Velocity P-wave (km/s) = 6.09742 6.43833 6.27019
#
# Compressibility (1/GPa) = 0.02086572
#
# Stress axis : x y z
#
# Youngs Moduli (GPa) = 58.68949 63.63184 52.51432
#
# Poissons Ratio (x) = 0.34864 0.13205
# Poissons Ratio (y) = 0.32156 0.39238
# Poissons Ratio (z) = 0.14758 0.47545
#
# Static dielectric constant tensor:
#      x y z
#    x 1.810970 0.000000 0.001430 
#    y 0.000000 1.745880 0.000000 
#    z 0.001430 0.000000 1.767320 
# 
# From -- ./inp_files/43121.got.cif
#   From: 2010.05.17/outbox.cif.g08.bks.cpg/sg13_22_cif.got.tgz:43121.got - 2010.06.03 16:44:36.
