data_PCOD9227017
_publ_section_title
;
Structure prediction by ZEFSAII (Michael W. Deem and Ramdas Pophale) SiO2 
 PCOD9227017
Probable space group: P 2/C
;
_chemical_formula_sum "Si O2"
_cell_formula_units_Z 30
_cell_length_a 24.816623
_cell_length_b 7.256589
_cell_length_c 16.276550
_cell_angle_alpha 90.000000
_cell_angle_beta 153.246006
_cell_angle_gamma 90.000000
_cell_volume 1319.487049
_symmetry_space_group_name_H-M "P 2/C"
_symmetry_group_IT_number 13
_symmetry_cell_setting 'monoclinic'
loop_
_space_group_symop_operation_xyz
x,y,z
-x,y,1/2-z
-x,-y,-z
x,-y,1/2+z
loop_
_atom_site_type_symbol
_atom_site_label
_atom_site_fract_x
_atom_site_fract_y
_atom_site_fract_z
Si Si1 0.703385 0.391120 0.207815
Si Si2 0.670734 0.365763 0.810360
Si Si3 0.725228 0.649233 0.563117
Si Si4 0.897845 0.164140 0.045292
Si Si5 0.537630 0.084267 0.966984
Si Si6 0.994148 0.217414 0.476170
Si Si7 0.500000 0.066886 0.750000
Si Si8 0.045445 0.272197 0.901096
O O1 0.641152 0.491668 0.198276
O O2 0.691844 0.466695 0.099425
O O3 0.837819 0.387598 0.421345
O O4 0.666339 0.176229 0.149827
O O5 0.548721 0.259300 0.662953
O O6 0.719988 0.438287 0.965127
O O7 0.770413 0.224384 0.909237
O O8 0.858185 0.727081 0.764746
O O9 0.622019 0.809260 0.418398
O O10 0.000000 0.220811 0.250000
O O11 0.922815 0.250174 0.989519
O O12 0.918147 0.943882 0.060733
O O13 0.512006 0.961305 0.852303
O O14 0.500000 0.000000 0.000000
O O15 0.027429 0.296445 0.612091
O O16 0.000000 0.000000 0.500000
O O17 0.000000 0.329973 0.750000
#
# Coordination Sequence:
#
# PCOD9227017 Si02
#       8
#     4   4   4   4   4   4   2   4
#     4  10  21  38  55  80 113 144 182 228 278 333
#     4  11  21  35  58  82 110 149 183 224 277 335
#     4   9  18  36  55  79 110 149 187 220 279 334
#     4  10  18  32  55  82 106 140 188 226 266 326
#     4  10  20  38  61  84 108 143 186 229 275 325
#     4   9  17  32  54  80 107 145 184 234 270 323
#     4   8  18  34  60  84 106 144 178 230 274 332
#     4   9  19  35  54  79 110 143 183 228 279 321
#
# _framework density 22.736108000000002
#
# number of rings (size 3 to 8) (size 9 to 14) (size 15 to 20)
#    0.000    2.400    1.333    1.200    0.000    1.600 
#    2.400    2.667    0.000    0.000    0.000    0.000 
#    0.000    0.000    0.000    0.000    0.000    0.000 
#
# Total GULP energy -167116.821406 kJ/mol
# GULP energy per Si atom -5570.560714 kJ/mol
# Density = 2.268436 g / cm^3
# Si number density = 22.736108 Si / 1000 Ang^3
#
#
#
# Elastic Constant Matrix: (Units=GPa)
#
#
# Indices 1 2 3 4 5 6 
#
# 1 148.4907 7.1071 52.6687 0.0000 -58.1851 0.0000
# 2 7.1071 33.7680 18.6121 0.0000 -13.2278 0.0000
# 3 52.6687 18.6121 99.2269 0.0000 -39.1855 0.0000
# 4 0.0000 0.0000 0.0000 11.4279 0.0000 0.4349
# 5 -58.1851 -13.2278 -39.1855 0.0000 63.2191 0.0000
# 6 0.0000 0.0000 0.0000 0.4349 0.0000 24.9456
#
#
#
# Elastic Compliance Matrix: (Units=1/GPa)
#
#
# Indices 1 2 3 4 5 6 
#
# 1 0.011183 0.002791 -0.002866 0.000000 0.009100 0.000000
# 2 0.002791 0.034533 -0.005417 0.000000 0.006436 0.000000
# 3 -0.002866 -0.005417 0.014732 0.000000 0.005361 0.000000
# 4 0.000000 0.000000 0.000000 0.087563 0.000000 -0.001527
# 5 0.009100 0.006436 0.005361 0.000000 0.028863 0.000000
# 6 0.000000 0.000000 0.000000 -0.001527 0.000000 0.040114
#
#
# Mechanical properties :
#
#
# Convention : Reuss Voigt Hill
#
# Bulk Modulus (GPa) = 20.21636 48.69571 34.45604
# Shear Modulus (GPa) = 20.45316 33.45837 26.95576
#
# Velocity S-wave (km/s) = 3.00257 3.84030 3.44698
# Velocity P-wave (km/s) = 4.57511 6.41312 5.57045
#
# Compressibility (1/GPa) = 0.04946488
#
# Stress axis : x y z
#
# Youngs Moduli (GPa) = 89.41986 28.95743 67.87982
#
# Poissons Ratio (x) = -0.08081 0.19451
# Poissons Ratio (y) = -0.24953 0.36770
# Poissons Ratio (z) = 0.25624 0.15686
#
# Static dielectric constant tensor:
#      x y z
#    x 1.984240 0.000000 -0.030380 
#    y 0.000000 1.913500 0.000000 
#    z -0.030380 0.000000 1.863780 
# 
# From -- ./inp_files/58679.got.cif
#   From: 2010.05.17/outbox.cif.g08.bks.cpg/sg13_30_cif.got.tgz:58679.got - 2010.06.03 16:44:36.
