data_PCOD9227402
_publ_section_title
;
Structure prediction by ZEFSAII (Michael W. Deem and Ramdas Pophale) SiO2 
 PCOD9227402
Probable space group: P 2/C
;
_chemical_formula_sum "Si O2"
_cell_formula_units_Z 32
_cell_length_a 24.473345
_cell_length_b 9.440904
_cell_length_c 17.179421
_cell_angle_alpha 90.000000
_cell_angle_beta 22.815216
_cell_angle_gamma 90.000000
_cell_volume 1539.142682
_symmetry_space_group_name_H-M "P 2/C"
_symmetry_group_IT_number 13
_symmetry_cell_setting 'monoclinic'
loop_
_space_group_symop_operation_xyz
x,y,z
-x,y,1/2-z
-x,-y,-z
x,-y,1/2+z
loop_
_atom_site_type_symbol
_atom_site_label
_atom_site_fract_x
_atom_site_fract_y
_atom_site_fract_z
Si Si1 0.876782 0.773007 0.175277
Si Si2 0.684207 0.030194 0.428758
Si Si3 0.164492 0.185100 0.041976
Si Si4 0.373173 0.041082 0.312242
Si Si5 0.811524 0.315091 0.206252
Si Si6 0.822625 0.583284 0.861829
Si Si7 0.350900 0.667383 0.901486
Si Si8 0.139746 0.428668 0.953328
O O1 0.767563 0.713016 0.381230
O O2 0.869751 0.675888 0.108312
O O3 0.817949 0.929727 0.234345
O O4 0.033708 0.756209 0.002569
O O5 0.708938 0.187236 0.363471
O O6 0.657733 0.007129 0.556756
O O7 0.538501 0.979359 0.581656
O O8 0.183021 0.255331 0.102376
O O9 0.000000 0.143626 0.250000
O O10 0.192303 0.321348 0.950481
O O11 0.270884 0.055260 0.894665
O O12 0.347270 0.209036 0.342720
O O13 0.815077 0.412687 0.278855
O O14 0.785120 0.425521 0.170683
O O15 0.976890 0.530496 0.684832
O O16 0.697999 0.487702 0.059194
O O17 0.500000 0.667492 0.750000
#
# Coordination Sequence:
#
# PCOD9227402 Si02
#       8
#     4   4   4   4   4   4   4   4
#     4  10  18  35  56  89 116 150 192 248 300 339
#     4  10  20  34  60  90 115 148 198 256 291 339
#     4  10  22  40  58  80 121 165 190 229 301 359
#     4  10  20  38  56  85 119 149 198 244 285 354
#     4  11  18  33  60  89 118 146 200 251 294 339
#     4  10  19  35  57  84 111 151 196 241 288 343
#     4  11  19  34  62  88 115 143 195 255 293 336
#     4  10  20  36  56  82 119 152 189 243 294 349
#
# _framework density 20.790794999999999
#
# number of rings (size 3 to 8) (size 9 to 14) (size 15 to 20)
#    0.000    1.750    6.250    1.125    0.000    1.000 
#    0.000    4.375    0.000    0.000    0.000    0.000 
#    0.000    0.000    0.000    0.000    0.000    0.000 
#
# Total GULP energy -178346.666477 kJ/mol
# GULP energy per Si atom -5573.333327 kJ/mol
# Density = 2.074347 g / cm^3
# Si number density = 20.790795 Si / 1000 Ang^3
#
#
#
# Elastic Constant Matrix: (Units=GPa)
#
#
# Indices 1 2 3 4 5 6 
#
# 1 30.0044 15.3862 10.6411 0.0000 -10.5181 0.0000
# 2 15.3862 97.4815 26.7525 0.0000 -24.2001 0.0000
# 3 10.6411 26.7525 55.6279 0.0000 -11.3227 0.0000
# 4 0.0000 0.0000 0.0000 33.9270 0.0000 3.4064
# 5 -10.5181 -24.2001 -11.3227 0.0000 16.6225 0.0000
# 6 0.0000 0.0000 0.0000 3.4064 0.0000 23.1374
#
#
#
# Elastic Compliance Matrix: (Units=1/GPa)
#
#
# Indices 1 2 3 4 5 6 
#
# 1 0.043310 0.000485 -0.003246 0.000000 0.025900 0.000000
# 2 0.000485 0.016659 -0.003605 0.000000 0.022104 0.000000
# 3 -0.003246 -0.003605 0.021878 0.000000 0.007600 0.000000
# 4 0.000000 0.000000 0.000000 0.029917 0.000000 -0.004405
# 5 0.025900 0.022104 0.007600 0.000000 0.113905 0.000000
# 6 0.000000 0.000000 0.000000 -0.004405 0.000000 0.043868
#
#
# Mechanical properties :
#
#
# Convention : Reuss Voigt Hill
#
# Bulk Modulus (GPa) = 14.46887 32.07482 23.27184
# Shear Modulus (GPa) = 16.37683 23.42631 19.90157
#
# Velocity S-wave (km/s) = 2.80964 3.36037 3.09727
# Velocity P-wave (km/s) = 4.18328 5.52422 4.89984
#
# Compressibility (1/GPa) = 0.06911390
#
# Stress axis : x y z
#
# Youngs Moduli (GPa) = 23.08912 60.02930 45.70736
#
# Poissons Ratio (x) = -0.02909 0.14838
# Poissons Ratio (y) = -0.01119 0.16478
# Poissons Ratio (z) = 0.07495 0.21641
#
# Static dielectric constant tensor:
#      x y z
#    x 1.781680 0.000000 0.021780 
#    y 0.000000 1.820510 0.000000 
#    z 0.021780 0.000000 1.741650 
# 
# From -- ./inp_files/82780.got.cif
#   From: 2010.05.17/outbox.cif.g08.bks.cpg/sg13_42_cif.got.tgz:82780.got - 2010.06.03 16:44:36.
