data_PCOD9227371
_publ_section_title
;
Structure prediction by ZEFSAII (Michael W. Deem and Ramdas Pophale) SiO2 
 PCOD9227371
Probable space group: P 2/C
;
_chemical_formula_sum "Si O2"
_cell_formula_units_Z 32
_cell_length_a 15.639315
_cell_length_b 8.233207
_cell_length_c 25.771992
_cell_angle_alpha 90.000000
_cell_angle_beta 152.970846
_cell_angle_gamma 90.000000
_cell_volume 1508.047241
_symmetry_space_group_name_H-M "P 2/C"
_symmetry_group_IT_number 13
_symmetry_cell_setting 'monoclinic'
loop_
_space_group_symop_operation_xyz
x,y,z
-x,y,1/2-z
-x,-y,-z
x,-y,1/2+z
loop_
_atom_site_type_symbol
_atom_site_label
_atom_site_fract_x
_atom_site_fract_y
_atom_site_fract_z
Si Si1 0.519412 0.145466 0.969835
Si Si2 0.528777 0.988025 0.871472
Si Si3 0.227432 0.627191 0.260154
Si Si4 0.996618 0.194501 0.489127
Si Si5 0.139116 0.785616 0.478706
Si Si6 0.833396 0.670677 0.699060
Si Si7 0.104319 0.111167 0.171510
Si Si8 0.597704 0.300487 0.753526
O O1 0.656263 0.274856 0.069493
O O2 0.324413 0.228305 0.846087
O O3 0.500000 0.000000 0.000000
O O4 0.610034 0.072157 0.966835
O O5 0.316005 0.940001 0.770848
O O6 0.513977 0.131792 0.820696
O O7 0.651070 0.829896 0.924941
O O8 0.229911 0.469673 0.296446
O O9 0.354306 0.617725 0.276141
O O10 0.008987 0.663661 0.127926
O O11 0.198437 0.254659 0.615141
O O12 0.856173 0.255847 0.457607
O O13 0.953619 0.232573 0.406451
O O14 0.000000 0.000000 0.500000
O O15 0.030906 0.956892 0.409014
O O16 0.899220 0.814993 0.773304
O O17 0.000000 0.623692 0.750000
O O18 0.500000 0.384802 0.750000
#
# Coordination Sequence:
#
# PCOD9227371 Si02
#       8
#     4   4   4   4   4   4   4   4
#     4  11  21  42  66  90 121 165 213 276 325 358
#     4  11  20  32  66  96 126 161 209 270 325 378
#     4  10  23  43  60  91 133 165 218 265 313 400
#     4   9  16  31  56  89 128 157 195 264 311 376
#     4  10  19  37  61  94 127 160 208 261 325 378
#     4  12  26  43  64  88 127 176 217 261 326 384
#     4  11  20  39  59  94 128 159 218 266 311 391
#     4  10  18  34  63  96 126 172 212 258 332 384
#
# _framework density 21.219494999999998
#
# number of rings (size 3 to 8) (size 9 to 14) (size 15 to 20)
#    0.000    1.500    6.250    2.625    0.000    2.000 
#    2.250    3.125    2.750    0.000    0.000    0.000 
#    0.000    0.000    0.000    0.000    0.000    0.000 
#
# Total GULP energy -178506.210913 kJ/mol
# GULP energy per Si atom -5578.319091 kJ/mol
# Density = 2.117120 g / cm^3
# Si number density = 21.219495 Si / 1000 Ang^3
#
#
#
# Elastic Constant Matrix: (Units=GPa)
#
#
# Indices 1 2 3 4 5 6 
#
# 1 104.0316 21.4384 30.6847 0.0000 -10.9708 0.0000
# 2 21.4384 19.8909 1.3797 0.0000 0.9998 0.0000
# 3 30.6847 1.3797 60.9023 0.0000 -16.1125 0.0000
# 4 0.0000 0.0000 0.0000 10.8140 0.0000 -0.9587
# 5 -10.9708 0.9998 -16.1125 0.0000 40.2498 0.0000
# 6 0.0000 0.0000 0.0000 -0.9587 0.0000 24.4356
#
#
#
# Elastic Compliance Matrix: (Units=1/GPa)
#
#
# Indices 1 2 3 4 5 6 
#
# 1 0.015061 -0.015855 -0.006754 0.000000 0.001795 0.000000
# 2 -0.015855 0.067175 0.005460 0.000000 -0.003804 0.000000
# 3 -0.006754 0.005460 0.021448 0.000000 0.006609 0.000000
# 4 0.000000 0.000000 0.000000 0.092796 0.000000 0.003641
# 5 0.001795 -0.003804 0.006609 0.000000 0.028074 0.000000
# 6 0.000000 0.000000 0.000000 0.003641 0.000000 0.041067
#
#
# Mechanical properties :
#
#
# Convention : Reuss Voigt Hill
#
# Bulk Modulus (GPa) = 14.41223 32.42560 23.41892
# Shear Modulus (GPa) = 15.47760 23.85468 19.66614
#
# Velocity S-wave (km/s) = 2.70368 3.35653 3.04763
# Velocity P-wave (km/s) = 4.06857 5.50781 4.84196
#
# Compressibility (1/GPa) = 0.06938552
#
# Stress axis : x y z
#
# Youngs Moduli (GPa) = 66.39549 14.88650 46.62521
#
# Poissons Ratio (x) = 0.23602 0.31492
# Poissons Ratio (y) = 1.05268 -0.25457
# Poissons Ratio (z) = 0.44845 -0.08128
#
# Static dielectric constant tensor:
#      x y z
#    x 1.815780 0.000000 -0.004750 
#    y 0.000000 1.780550 0.000000 
#    z -0.004750 0.000000 1.762820 
# 
# From -- ./inp_files/58811.got.cif
#   From: 2010.05.17/outbox.cif.g08.bks.cpg/sg13_30_cif.got.tgz:58811.got - 2010.06.03 16:44:36.
