data_PCOD9227766
_publ_section_title
;
Structure prediction by ZEFSAII (Michael W. Deem and Ramdas Pophale) SiO2 
 PCOD9227766
Probable space group: P 2/C
;
_chemical_formula_sum "Si O2"
_cell_formula_units_Z 22
_cell_length_a 10.876902
_cell_length_b 6.484213
_cell_length_c 14.165064
_cell_angle_alpha 90.000000
_cell_angle_beta 90.937122
_cell_angle_gamma 90.000000
_cell_volume 998.902124
_symmetry_space_group_name_H-M "P 2/C"
_symmetry_group_IT_number 13
_symmetry_cell_setting 'monoclinic'
loop_
_space_group_symop_operation_xyz
x,y,z
-x,y,1/2-z
-x,-y,-z
x,-y,1/2+z
loop_
_atom_site_type_symbol
_atom_site_label
_atom_site_fract_x
_atom_site_fract_y
_atom_site_fract_z
Si Si1 0.089068 0.808406 0.980378
Si Si2 0.757945 0.121374 0.622262
Si Si3 0.483535 0.349491 0.913098
Si Si4 0.625013 0.051190 0.806341
Si Si5 0.012754 0.423270 0.862080
Si Si6 0.500000 0.343469 0.250000
O O1 0.028465 0.648175 0.906906
O O2 0.203178 0.911918 0.929229
O O3 0.096009 0.688430 0.080118
O O4 0.000000 0.000000 0.000000
O O5 0.631714 0.198860 0.575273
O O6 0.733978 0.087336 0.734010
O O7 0.864003 0.292028 0.613526
O O8 0.604150 0.206261 0.892926
O O9 0.445947 0.506085 0.827799
O O10 0.500000 0.500000 0.000000
O O11 0.500000 0.115589 0.750000
O O12 0.597130 0.805344 0.806755
O O13 0.000000 0.427605 0.750000
#
# Coordination Sequence:
#
# PCOD9227766 Si02
#       6
#     4   4   4   4   4   2
#     4   9  21  41  62  91 128 161 213 270 327 387
#     4  10  20  41  64  90 130 170 206 267 328 380
#     4  11  22  40  62  95 134 169 216 262 314 396
#     4   8  19  37  58  90 123 167 206 251 320 371
#     4  10  22  42  66  91 125 166 217 278 324 386
#     4  10  18  40  60  80 142 160 204 270 298 370
#
# _framework density 22.024179
#
# number of rings (size 3 to 8) (size 9 to 14) (size 15 to 20)
#    0.545    1.818    2.727    0.000    2.545    3.636 
#   13.091    0.000    0.000    0.000    0.000    0.000 
#    0.000    0.000    0.000    0.000    0.000    0.000 
#
# Total GULP energy -122491.983899 kJ/mol
# GULP energy per Si atom -5567.817450 kJ/mol
# Density = 2.197405 g / cm^3
# Si number density = 22.024179 Si / 1000 Ang^3
#
#
#
# Elastic Constant Matrix: (Units=GPa)
#
#
# Indices 1 2 3 4 5 6 
#
# 1 59.1428 37.4870 37.8004 0.0000 -25.0700 0.0000
# 2 37.4870 157.4146 72.5466 0.0000 -21.1391 0.0000
# 3 37.8004 72.5466 151.1840 0.0000 -13.9367 0.0000
# 4 0.0000 0.0000 0.0000 35.7381 0.0000 -21.6731
# 5 -25.0700 -21.1391 -13.9367 0.0000 29.5681 0.0000
# 6 0.0000 0.0000 0.0000 -21.6731 0.0000 26.7015
#
#
#
# Elastic Compliance Matrix: (Units=1/GPa)
#
#
# Indices 1 2 3 4 5 6 
#
# 1 0.030659 -0.002214 -0.004551 0.000000 0.022267 0.000000
# 2 -0.002214 0.008839 -0.003427 0.000000 0.002827 0.000000
# 3 -0.004551 -0.003427 0.009216 0.000000 -0.001965 0.000000
# 4 0.000000 0.000000 0.000000 0.055107 0.000000 0.044729
# 5 0.022267 0.002827 -0.001965 0.000000 0.053795 0.000000
# 6 0.000000 0.000000 0.000000 0.044729 0.000000 0.073757
#
#
# Mechanical properties :
#
#
# Convention : Reuss Voigt Hill
#
# Bulk Modulus (GPa) = 35.29821 73.71213 54.50517
# Shear Modulus (GPa) = 19.14252 33.06206 26.10229
#
# Velocity S-wave (km/s) = 2.95135 3.87870 3.44636
# Velocity P-wave (km/s) = 5.26078 7.32123 6.37480
#
# Compressibility (1/GPa) = 0.02833005
#
# Stress axis : x y z
#
# Youngs Moduli (GPa) = 32.61728 113.13520 108.50972
#
# Poissons Ratio (x) = 0.25044 0.49379
# Poissons Ratio (y) = 0.07220 0.37190
# Poissons Ratio (z) = 0.14843 0.38776
#
# Static dielectric constant tensor:
#      x y z
#    x 1.822060 0.000000 -0.020610 
#    y 0.000000 1.823960 0.000000 
#    z -0.020610 0.000000 1.928780 
# 
# From -- ./inp_files/48889.got.cif
#   From: 2010.05.17/outbox.cif.g08.bks.cpg/sg13_25_cif.got.tgz:48889.got - 2010.06.03 16:44:36.
