data_PCOD9227667
_publ_section_title
;
Structure prediction by ZEFSAII (Michael W. Deem and Ramdas Pophale) SiO2 
 PCOD9227667
Probable space group: P 2/C
;
_chemical_formula_sum "Si O2"
_cell_formula_units_Z 30
_cell_length_a 32.508831
_cell_length_b 5.552483
_cell_length_c 29.355251
_cell_angle_alpha 90.000000
_cell_angle_beta 163.466447
_cell_angle_gamma 90.000000
_cell_volume 1507.904599
_symmetry_space_group_name_H-M "P 2/C"
_symmetry_group_IT_number 13
_symmetry_cell_setting 'monoclinic'
loop_
_space_group_symop_operation_xyz
x,y,z
-x,y,1/2-z
-x,-y,-z
x,-y,1/2+z
loop_
_atom_site_type_symbol
_atom_site_label
_atom_site_fract_x
_atom_site_fract_y
_atom_site_fract_z
Si Si1 0.575695 0.467667 0.903600
Si Si2 0.768374 0.467787 0.949793
Si Si3 0.914324 0.248868 0.919311
Si Si4 0.784528 0.708167 0.190825
Si Si5 0.187174 0.909339 0.855311
Si Si6 0.207456 0.027101 0.975831
Si Si7 0.500000 0.846552 0.750000
Si Si8 0.056030 0.597590 0.950178
O O1 0.405743 0.446328 0.732013
O O2 0.586256 0.676325 0.876753
O O3 0.661694 0.532129 0.041212
O O4 0.671569 0.252724 0.985058
O O5 0.817393 0.717525 0.025771
O O6 0.829351 0.224305 0.038440
O O7 0.819831 0.482442 0.952262
O O8 0.784978 0.249629 0.745175
O O9 0.886444 0.267472 0.943684
O O10 0.000000 0.500000 0.000000
O O11 0.000000 0.000000 0.000000
O O12 0.945107 0.609621 0.348902
O O13 0.769399 0.936717 0.142507
O O14 0.050614 0.760548 0.693125
O O15 0.146250 0.033856 0.859450
O O16 0.381598 0.018970 0.153839
#
# Coordination Sequence:
#
# PCOD9227667 Si02
#       8
#     4   4   4   4   4   4   2   4
#     4  10  21  37  60  89 122 158 209 250 300 356
#     4  11  26  41  58  88 129 168 194 244 312 374
#     4  10  20  39  65  91 116 155 207 257 306 359
#     4  10  21  38  65  92 114 156 210 262 294 351
#     4  11  20  38  62  88 119 156 211 253 289 354
#     4  11  23  38  58  88 121 166 203 241 298 362
#     4  10  18  38  58  84 120 160 210 246 286 358
#     4  10  24  41  61  90 126 160 201 254 315 366
#
# _framework density 19.895159
#
# number of rings (size 3 to 8) (size 9 to 14) (size 15 to 20)
#    0.000    1.600    2.667    2.400    5.600    1.067 
#    0.000    0.667    0.000    0.800    0.000    0.000 
#    0.000    0.000    0.000    0.000    0.000    0.000 
#
# Total GULP energy -167251.379631 kJ/mol
# GULP energy per Si atom -5575.045988 kJ/mol
# Density = 1.984988 g / cm^3
# Si number density = 19.895159 Si / 1000 Ang^3
#
#
#
# Elastic Constant Matrix: (Units=GPa)
#
#
# Indices 1 2 3 4 5 6 
#
# 1 120.0576 39.6715 41.5177 0.0000 -12.7222 0.0000
# 2 39.6715 100.7713 26.9868 0.0000 -6.6290 0.0000
# 3 41.5177 26.9868 66.6368 0.0000 -12.5789 0.0000
# 4 0.0000 0.0000 0.0000 20.7847 0.0000 -7.9404
# 5 -12.7222 -6.6290 -12.5789 0.0000 31.6315 0.0000
# 6 0.0000 0.0000 0.0000 -7.9404 0.0000 22.7584
#
#
#
# Elastic Compliance Matrix: (Units=1/GPa)
#
#
# Indices 1 2 3 4 5 6 
#
# 1 0.011405 -0.002872 -0.005612 0.000000 0.001754 0.000000
# 2 -0.002872 0.011864 -0.002988 0.000000 0.000143 0.000000
# 3 -0.005612 -0.002988 0.020725 0.000000 0.005358 0.000000
# 4 0.000000 0.000000 0.000000 0.055512 0.000000 0.019368
# 5 0.001754 0.000143 0.005358 0.000000 0.034480 0.000000
# 6 0.000000 0.000000 0.000000 0.019368 0.000000 0.050697
#
#
# Mechanical properties :
#
#
# Convention : Reuss Voigt Hill
#
# Bulk Modulus (GPa) = 47.50668 55.97974 51.74321
# Shear Modulus (GPa) = 23.29461 26.98757 25.14109
#
# Velocity S-wave (km/s) = 3.42551 3.68705 3.55868
# Velocity P-wave (km/s) = 6.29093 6.80619 6.55363
#
# Compressibility (1/GPa) = 0.02104967
#
# Stress axis : x y z
#
# Youngs Moduli (GPa) = 87.68381 84.29096 48.25145
#
# Poissons Ratio (x) = 0.24205 0.27077
# Poissons Ratio (y) = 0.25179 0.14420
# Poissons Ratio (z) = 0.49205 0.25190
#
# Static dielectric constant tensor:
#      x y z
#    x 1.703820 0.000000 -0.012770 
#    y 0.000000 1.790340 0.000000 
#    z -0.012770 0.000000 1.735690 
# 
# From -- ./inp_files/94355.got.cif
#   From: 2010.05.17/outbox.cif.g08.bks.cpg/sg13_48_cif.got.tgz:94355.got - 2010.06.03 16:44:36.
