data_PCOD9227637
_publ_section_title
;
Structure prediction by ZEFSAII (Michael W. Deem and Ramdas Pophale) SiO2 
 PCOD9227637
Probable space group: P 2/C
;
_chemical_formula_sum "Si O2"
_cell_formula_units_Z 32
_cell_length_a 25.260603
_cell_length_b 11.023191
_cell_length_c 11.207650
_cell_angle_alpha 90.000000
_cell_angle_beta 154.164271
_cell_angle_gamma 90.000000
_cell_volume 1360.020020
_symmetry_space_group_name_H-M "P 2/C"
_symmetry_group_IT_number 13
_symmetry_cell_setting 'monoclinic'
loop_
_space_group_symop_operation_xyz
x,y,z
-x,y,1/2-z
-x,-y,-z
x,-y,1/2+z
loop_
_atom_site_type_symbol
_atom_site_label
_atom_site_fract_x
_atom_site_fract_y
_atom_site_fract_z
Si Si1 0.706508 0.600188 0.897951
Si Si2 0.307244 0.060657 0.071115
Si Si3 0.344926 0.671357 0.229371
Si Si4 0.844869 0.190544 0.560267
Si Si5 0.879542 0.266014 0.380469
Si Si6 0.125477 0.457197 0.562268
Si Si7 0.671960 0.276825 0.557289
Si Si8 0.535500 0.843046 0.185105
O O1 0.742656 0.706049 0.881563
O O2 0.838252 0.573037 0.228056
O O3 0.654688 0.473004 0.752520
O O4 0.628061 0.649357 0.851145
O O5 0.287441 0.150443 0.918308
O O6 0.423913 0.109511 0.380544
O O7 0.351945 0.931063 0.117873
O O8 0.196455 0.079323 0.938876
O O9 0.426001 0.710167 0.280410
O O10 0.211607 0.718737 0.915169
O O11 0.221394 0.628547 0.189718
O O12 0.846377 0.173728 0.420946
O O13 0.981109 0.235560 0.868920
O O14 0.868619 0.397305 0.425341
O O15 0.000000 0.423072 0.250000
O O16 0.500000 0.848952 0.250000
O O17 0.609369 0.260801 0.557659
#
# Coordination Sequence:
#
# PCOD9227637 Si02
#       8
#     4   4   4   4   4   4   4   4
#     4   8  20  32  57  90 136 170 205 253 298 385
#     4  10  24  45  68  92 117 162 221 279 330 369
#     4  11  22  37  64  98 127 171 217 260 322 381
#     4  10  18  37  60  95 135 174 207 258 312 380
#     4  10  20  31  60  99 141 177 207 246 305 395
#     4   9  16  30  53  95 132 182 205 230 293 381
#     4   9  21  36  59  95 136 157 209 267 310 376
#     4  11  26  47  73  88 111 163 229 283 323 395
#
# _framework density 23.529064999999999
#
# number of rings (size 3 to 8) (size 9 to 14) (size 15 to 20)
#    0.750    1.500    1.250    1.500    5.250    1.000 
#    0.000    3.125    0.000    0.000    0.000    0.000 
#    0.000    0.000    0.000    0.000    0.000    0.000 
#
# Total GULP energy -178281.647875 kJ/mol
# GULP energy per Si atom -5571.301496 kJ/mol
# Density = 2.347551 g / cm^3
# Si number density = 23.529065 Si / 1000 Ang^3
#
#
#
# Elastic Constant Matrix: (Units=GPa)
#
#
# Indices 1 2 3 4 5 6 
#
# 1 137.7336 35.3002 24.8689 0.0000 6.5793 0.0000
# 2 35.3002 67.9764 22.0966 0.0000 9.7219 0.0000
# 3 24.8689 22.0966 83.0603 0.0000 2.9089 0.0000
# 4 0.0000 0.0000 0.0000 26.8954 0.0000 4.6777
# 5 6.5793 9.7219 2.9089 0.0000 27.6260 0.0000
# 6 0.0000 0.0000 0.0000 4.6777 0.0000 10.4199
#
#
#
# Elastic Compliance Matrix: (Units=1/GPa)
#
#
# Indices 1 2 3 4 5 6 
#
# 1 0.008551 -0.003876 -0.001511 0.000000 -0.000513 0.000000
# 2 -0.003876 0.018652 -0.003617 0.000000 -0.005260 0.000000
# 3 -0.001511 -0.003617 0.013447 0.000000 0.000217 0.000000
# 4 0.000000 0.000000 0.000000 0.040330 0.000000 -0.018105
# 5 -0.000513 -0.005260 0.000217 0.000000 0.038148 0.000000
# 6 0.000000 0.000000 0.000000 -0.018105 0.000000 0.104098
#
#
# Mechanical properties :
#
#
# Convention : Reuss Voigt Hill
#
# Bulk Modulus (GPa) = 44.16800 50.36684 47.26742
# Shear Modulus (GPa) = 20.09798 26.75524 23.42661
#
# Velocity S-wave (km/s) = 2.92580 3.37577 3.15881
# Velocity P-wave (km/s) = 5.49783 6.05369 5.78244
#
# Compressibility (1/GPa) = 0.02264082
#
# Stress axis : x y z
#
# Youngs Moduli (GPa) = 116.94324 53.61390 74.36817
#
# Poissons Ratio (x) = 0.20781 0.11238
# Poissons Ratio (y) = 0.45327 0.26901
# Poissons Ratio (z) = 0.17672 0.19394
#
# Static dielectric constant tensor:
#      x y z
#    x 1.974110 0.000000 0.045890 
#    y 0.000000 1.920290 0.000000 
#    z 0.045890 0.000000 1.972750 
# 
# From -- ./inp_files/41879.got.cif
#   From: 2010.05.17/outbox.cif.g08.bks.cpg/sg13_21_cif.got.tgz:41879.got - 2010.06.03 16:44:36.
