data_PCOD9227343
_publ_section_title
;
Structure prediction by ZEFSAII (Michael W. Deem and Ramdas Pophale) SiO2 
 PCOD9227343
Probable space group: P 2/C
;
_chemical_formula_sum "Si O2"
_cell_formula_units_Z 28
_cell_length_a 14.024611
_cell_length_b 7.981134
_cell_length_c 14.397945
_cell_angle_alpha 90.000000
_cell_angle_beta 61.109139
_cell_angle_gamma 90.000000
_cell_volume 1411.018551
_symmetry_space_group_name_H-M "P 2/C"
_symmetry_group_IT_number 13
_symmetry_cell_setting 'monoclinic'
loop_
_space_group_symop_operation_xyz
x,y,z
-x,y,1/2-z
-x,-y,-z
x,-y,1/2+z
loop_
_atom_site_type_symbol
_atom_site_label
_atom_site_fract_x
_atom_site_fract_y
_atom_site_fract_z
Si Si1 0.454501 0.986201 0.362921
Si Si2 0.659816 0.035084 0.397226
Si Si3 0.729673 0.240178 0.081873
Si Si4 0.212424 0.342452 0.243597
Si Si5 0.750253 0.657564 0.380263
Si Si6 0.057854 0.971701 0.070652
Si Si7 0.000000 0.267979 0.750000
Si Si8 0.000000 0.239047 0.250000
O O1 0.500000 0.891403 0.250000
O O2 0.556323 0.042121 0.377669
O O3 0.381385 0.136202 0.354880
O O4 0.376617 0.913595 0.481035
O O5 0.743790 0.168015 0.318262
O O6 0.705095 0.843066 0.375114
O O7 0.771559 0.329218 0.154165
O O8 0.712747 0.365105 0.003827
O O9 0.824386 0.108955 0.005479
O O10 0.276680 0.502390 0.173025
O O11 0.087451 0.342390 0.268362
O O12 0.881511 0.656625 0.321008
O O13 0.059394 0.126502 0.142300
O O14 0.986095 0.841383 0.163381
O O15 0.000000 0.000000 0.000000
#
# Coordination Sequence:
#
# PCOD9227343 Si02
#       8
#     4   4   4   4   4   4   2   2
#     4  10  19  39  67  89 118 156 205 251 316 362
#     4  10  22  40  67  89 119 164 200 261 309 359
#     4  10  21  39  62  89 127 164 200 266 309 356
#     4  12  22  41  64  90 129 165 206 252 306 370
#     4  10  23  42  58  93 128 160 210 252 306 367
#     4  10  18  34  60  92 121 159 209 245 301 371
#     4   9  19  36  56  81 133 160 189 263 296 347
#     4  11  21  34  60  97 123 170 211 245 308 371
#
# _framework density 19.843823
#
# number of rings (size 3 to 8) (size 9 to 14) (size 15 to 20)
#    0.000    1.714    2.857    3.857    0.000    0.000 
#    5.143    8.571    0.000    0.000    0.000    0.000 
#    0.000    0.000    0.000    0.000    0.000    0.000 
#
# Total GULP energy -155884.829560 kJ/mol
# GULP energy per Si atom -5567.315341 kJ/mol
# Density = 1.979866 g / cm^3
# Si number density = 19.843823 Si / 1000 Ang^3
#
#
#
# Elastic Constant Matrix: (Units=GPa)
#
#
# Indices 1 2 3 4 5 6 
#
# 1 78.7798 9.1689 19.6942 0.0000 7.3156 0.0000
# 2 9.1689 74.4460 39.6786 0.0000 11.0039 0.0000
# 3 19.6942 39.6786 120.5790 0.0000 27.2272 0.0000
# 4 0.0000 0.0000 0.0000 6.2361 0.0000 5.3267
# 5 7.3156 11.0039 27.2272 0.0000 31.8766 0.0000
# 6 0.0000 0.0000 0.0000 5.3267 0.0000 -1.8809
#
#
#
# Elastic Compliance Matrix: (Units=1/GPa)
#
#
# Indices 1 2 3 4 5 6 
#
# 1 0.013308 -0.000535 -0.001672 0.000000 -0.001441 0.000000
# 2 -0.000535 0.016354 -0.005014 0.000000 -0.001240 0.000000
# 3 -0.001672 -0.005014 0.012066 0.000000 -0.008192 0.000000
# 4 0.000000 0.000000 0.000000 0.046900 0.000000 0.132825
# 5 -0.001441 -0.001240 -0.008192 0.000000 0.039126 0.000000
# 6 0.000000 0.000000 0.000000 0.132825 0.000000 -0.155501
#
#
# Mechanical properties :
#
#
# Convention : Reuss Voigt Hill
#
# Bulk Modulus (GPa) = 36.64929 45.65422 41.15176
# Shear Modulus (GPa) = -1188.06937 20.93058 -583.56940
#
# Velocity S-wave (km/s) = -24.49509 3.25124 -17.16740
# Velocity P-wave (km/s) = 27.95539 6.09514 19.29188
#
# Compressibility (1/GPa) = 0.02728565
#
# Stress axis : x y z
#
# Youngs Moduli (GPa) = 75.14442 61.14619 82.87643
#
# Poissons Ratio (x) = 0.03270 0.13858
# Poissons Ratio (y) = 0.04018 0.41557
# Poissons Ratio (z) = 0.12565 0.30661
#
# Static dielectric constant tensor:
#      x y z
#    x 1.684750 0.000000 0.043340 
#    y 0.000000 1.739770 0.000000 
#    z 0.043340 0.000000 1.645040 
# 
# From -- ./inp_files/52747.got.cif
#   From: 2010.05.17/outbox.cif.g08.bks.cpg/sg13_27_cif.got.tgz:52747.got - 2010.06.03 16:44:36.
