data_PCOD9227529
_publ_section_title
;
Structure prediction by ZEFSAII (Michael W. Deem and Ramdas Pophale) SiO2 
 PCOD9227529
Probable space group: P 2/C
;
_chemical_formula_sum "Si O2"
_cell_formula_units_Z 32
_cell_length_a 9.510956
_cell_length_b 14.192853
_cell_length_c 23.655014
_cell_angle_alpha 90.000000
_cell_angle_beta 150.085430
_cell_angle_gamma 90.000000
_cell_volume 1592.441805
_symmetry_space_group_name_H-M "P 2/C"
_symmetry_group_IT_number 13
_symmetry_cell_setting 'monoclinic'
loop_
_space_group_symop_operation_xyz
x,y,z
-x,y,1/2-z
-x,-y,-z
x,-y,1/2+z
loop_
_atom_site_type_symbol
_atom_site_label
_atom_site_fract_x
_atom_site_fract_y
_atom_site_fract_z
Si Si1 0.495342 0.370777 0.681029
Si Si2 0.710972 0.249918 0.177308
Si Si3 0.354001 0.155566 0.760131
Si Si4 0.892520 0.639527 0.913916
Si Si5 0.609160 0.069574 0.959621
Si Si6 0.221561 0.842403 0.677458
Si Si7 0.320087 0.434278 0.272387
Si Si8 0.312655 0.866254 0.467149
O O1 0.500000 0.389557 0.750000
O O2 0.609480 0.266011 0.711837
O O3 0.667232 0.455266 0.712015
O O4 0.177286 0.373416 0.547332
O O5 0.700437 0.198765 0.234115
O O6 0.728323 0.361321 0.194449
O O7 0.000000 0.216623 0.250000
O O8 0.450962 0.221199 0.047732
O O9 0.500000 0.142075 0.750000
O O10 0.505248 0.095043 0.861167
O O11 0.022763 0.134193 0.644948
O O12 0.839298 0.750008 0.882539
O O13 0.894816 0.589716 0.853440
O O14 0.627469 0.596299 0.854744
O O15 0.426706 0.126237 0.942839
O O16 0.937327 0.097738 0.080464
O O17 0.575081 0.960079 0.962390
O O18 0.500000 0.892034 0.750000
#
# Coordination Sequence:
#
# PCOD9227529 Si02
#       8
#     4   4   4   4   4   4   4   4
#     4  11  22  35  61  95 135 170 213 271 332 403
#     4  11  23  41  65  97 129 166 231 273 326 389
#     4  11  27  43  67 105 136 170 219 277 339 386
#     4  10  18  36  58  92 123 165 216 264 329 380
#     4  11  25  48  68  94 134 175 227 263 337 414
#     4  11  21  39  69  95 127 169 213 279 334 383
#     4  10  21  35  62  91 125 175 218 267 322 394
#     4  11  27  45  72  93 130 185 218 273 330 409
#
# _framework density 20.094926000000001
#
# number of rings (size 3 to 8) (size 9 to 14) (size 15 to 20)
#    0.000    1.250    6.250    0.750    7.000    1.000 
#    0.000    1.250    0.000    3.000    0.000    0.000 
#    0.000    0.000    0.000    0.000    0.000    0.000 
#
# Total GULP energy -178860.552841 kJ/mol
# GULP energy per Si atom -5589.392276 kJ/mol
# Density = 2.004919 g / cm^3
# Si number density = 20.094926 Si / 1000 Ang^3
#
#
#
# Elastic Constant Matrix: (Units=GPa)
#
#
# Indices 1 2 3 4 5 6 
#
# 1 104.1296 27.2199 48.2836 0.0000 4.8311 0.0000
# 2 27.2199 56.0764 17.4565 0.0000 -14.8831 0.0000
# 3 48.2836 17.4565 124.6604 0.0000 -7.2797 0.0000
# 4 0.0000 0.0000 0.0000 19.3035 0.0000 -0.2437
# 5 4.8311 -14.8831 -7.2797 0.0000 32.1351 0.0000
# 6 0.0000 0.0000 0.0000 -0.2437 0.0000 29.4643
#
#
#
# Elastic Compliance Matrix: (Units=1/GPa)
#
#
# Indices 1 2 3 4 5 6 
#
# 1 0.013953 -0.006982 -0.004801 0.000000 -0.006419 0.000000
# 2 -0.006982 0.024515 -0.000004 0.000000 0.012402 0.000000
# 3 -0.004801 -0.000004 0.010057 0.000000 0.002998 0.000000
# 4 0.000000 0.000000 0.000000 0.051809 0.000000 0.000428
# 5 -0.006419 0.012402 0.002998 0.000000 0.038507 0.000000
# 6 0.000000 0.000000 0.000000 0.000428 0.000000 0.033943
#
#
# Mechanical properties :
#
#
# Convention : Reuss Voigt Hill
#
# Bulk Modulus (GPa) = 40.08061 52.30962 46.19512
# Shear Modulus (GPa) = 24.42898 28.97436 26.70167
#
# Velocity S-wave (km/s) = 3.49044 3.80132 3.64919
# Velocity P-wave (km/s) = 6.01940 6.73457 6.38701
#
# Compressibility (1/GPa) = 0.02494972
#
# Stress axis : x y z
#
# Youngs Moduli (GPa) = 71.67155 40.79163 99.43191
#
# Poissons Ratio (x) = 0.28479 0.47740
# Poissons Ratio (y) = 0.50038 0.00045
# Poissons Ratio (z) = 0.34412 0.00018
#
# Static dielectric constant tensor:
#      x y z
#    x 1.692150 0.000000 -0.004240 
#    y 0.000000 1.740160 0.000000 
#    z -0.004240 0.000000 1.685180 
# 
# From -- ./inp_files/85339.got.cif
#   From: 2010.05.17/outbox.cif.g08.bks.cpg/sg13_43_cif.got.tgz:85339.got - 2010.06.03 16:44:36.
