data_PCOD9227221
_publ_section_title
;
Structure prediction by ZEFSAII (Michael W. Deem and Ramdas Pophale) SiO2 
 PCOD9227221
Probable space group: P 2/C
;
_chemical_formula_sum "Si O2"
_cell_formula_units_Z 32
_cell_length_a 16.612110
_cell_length_b 12.149084
_cell_length_c 8.799433
_cell_angle_alpha 90.000000
_cell_angle_beta 91.080256
_cell_angle_gamma 90.000000
_cell_volume 1775.602824
_symmetry_space_group_name_H-M "P 2/C"
_symmetry_group_IT_number 13
_symmetry_cell_setting 'monoclinic'
loop_
_space_group_symop_operation_xyz
x,y,z
-x,y,1/2-z
-x,-y,-z
x,-y,1/2+z
loop_
_atom_site_type_symbol
_atom_site_label
_atom_site_fract_x
_atom_site_fract_y
_atom_site_fract_z
Si Si1 0.440093 0.942935 0.620754
Si Si2 0.999943 0.376973 0.433035
Si Si3 0.408848 0.178672 0.688479
Si Si4 0.652922 0.349101 0.007061
Si Si5 0.823901 0.367418 0.433472
Si Si6 0.174768 0.614275 0.931900
Si Si7 0.343395 0.739834 0.484519
Si Si8 0.589841 0.447414 0.314972
O O1 0.500000 0.895936 0.750000
O O2 0.380210 0.851029 0.557750
O O3 0.500000 0.000000 0.500000
O O4 0.392932 0.048964 0.683380
O O5 0.088922 0.335211 0.479425
O O6 0.000000 0.383007 0.250000
O O7 0.000000 0.500000 0.500000
O O8 0.914308 0.324640 0.476133
O O9 0.500000 0.192096 0.750000
O O10 0.396920 0.239109 0.528303
O O11 0.352977 0.241035 0.806299
O O12 0.624638 0.440926 0.885721
O O13 0.747438 0.325584 0.000049
O O14 0.637817 0.399645 0.172710
O O15 0.817186 0.487622 0.511579
O O16 0.822079 0.383553 0.251199
O O17 0.747622 0.293707 0.476800
O O18 0.399912 0.641739 0.550265
O O19 0.500000 0.462607 0.250000
#
# Coordination Sequence:
#
# PCOD9227221 Si02
#       8
#     4   4   4   4   4   4   4   4
#     4  11  23  42  61  79 104 141 194 242 285 328
#     4   8  16  30  51  74 111 145 181 213 269 327
#     4  11  24  40  56  78 106 147 189 234 279 324
#     4  12  22  36  52  78 112 147 190 221 270 337
#     4  10  20  33  53  83 111 149 183 222 273 333
#     4  10  18  34  51  80 115 150 179 221 268 334
#     4  12  22  37  59  79 109 142 187 240 279 330
#     4  12  24  35  51  76 112 154 184 225 277 330
#
# _framework density 18.022048999999999
#
# number of rings (size 3 to 8) (size 9 to 14) (size 15 to 20)
#    0.000    1.250    5.000    2.625    3.500    0.000 
#    0.000    0.000    0.000    0.000    0.000    0.875 
#    0.000    0.000    0.000    0.000    0.000    0.000 
#
# Total GULP energy -178530.144034 kJ/mol
# GULP energy per Si atom -5579.067001 kJ/mol
# Density = 1.798103 g / cm^3
# Si number density = 18.022049 Si / 1000 Ang^3
#
#
#
# Elastic Constant Matrix: (Units=GPa)
#
#
# Indices 1 2 3 4 5 6 
#
# 1 129.5864 25.6557 10.7249 0.0000 12.6456 0.0000
# 2 25.6557 67.6492 14.0586 0.0000 5.8571 0.0000
# 3 10.7249 14.0586 39.4350 0.0000 -2.3599 0.0000
# 4 0.0000 0.0000 0.0000 21.8848 0.0000 -0.8977
# 5 12.6456 5.8571 -2.3599 0.0000 22.0769 0.0000
# 6 0.0000 0.0000 0.0000 -0.8977 0.0000 16.3924
#
#
#
# Elastic Compliance Matrix: (Units=1/GPa)
#
#
# Indices 1 2 3 4 5 6 
#
# 1 0.008818 -0.002587 -0.001748 0.000000 -0.004551 0.000000
# 2 -0.002587 0.017263 -0.005672 0.000000 -0.003705 0.000000
# 3 -0.001748 -0.005672 0.028186 0.000000 0.005519 0.000000
# 4 0.000000 0.000000 0.000000 0.045797 0.000000 0.002508
# 5 -0.004551 -0.003705 0.005519 0.000000 0.049476 0.000000
# 6 0.000000 0.000000 0.000000 0.002508 0.000000 0.061141
#
#
# Mechanical properties :
#
#
# Convention : Reuss Voigt Hill
#
# Bulk Modulus (GPa) = 29.19551 37.50543 33.35047
# Shear Modulus (GPa) = 20.65153 24.48625 22.56889
#
# Velocity S-wave (km/s) = 3.38879 3.69003 3.54261
# Velocity P-wave (km/s) = 5.61667 6.24589 5.93962
#
# Compressibility (1/GPa) = 0.03425185
#
# Stress axis : x y z
#
# Youngs Moduli (GPa) = 113.40657 57.92833 35.47845
#
# Poissons Ratio (x) = 0.14984 0.06203
# Poissons Ratio (y) = 0.29335 0.20125
# Poissons Ratio (z) = 0.19827 0.32859
#
# Static dielectric constant tensor:
#      x y z
#    x 1.687430 0.000000 -0.027370 
#    y 0.000000 1.627460 0.000000 
#    z -0.027370 0.000000 1.682730 
# 
# From -- ./inp_files/21581.got.cif
#   From: 2010.05.17/outbox.cif.g08.bks.cpg/sg13_11_cif.got.tgz:21581.got - 2010.06.03 16:44:36.
