data_PCOD9227646
_publ_section_title
;
Structure prediction by ZEFSAII (Michael W. Deem and Ramdas Pophale) SiO2 
 PCOD9227646
Probable space group: P 2/C
;
_chemical_formula_sum "Si O2"
_cell_formula_units_Z 32
_cell_length_a 17.344137
_cell_length_b 10.513820
_cell_length_c 14.088709
_cell_angle_alpha 90.000000
_cell_angle_beta 30.932687
_cell_angle_gamma 90.000000
_cell_volume 1320.606655
_symmetry_space_group_name_H-M "P 2/C"
_symmetry_group_IT_number 13
_symmetry_cell_setting 'monoclinic'
loop_
_space_group_symop_operation_xyz
x,y,z
-x,y,1/2-z
-x,-y,-z
x,-y,1/2+z
loop_
_atom_site_type_symbol
_atom_site_label
_atom_site_fract_x
_atom_site_fract_y
_atom_site_fract_z
Si Si1 0.643417 0.419168 0.169512
Si Si2 0.872295 0.827669 0.953814
Si Si3 0.146796 0.916442 0.114535
Si Si4 0.845549 0.498230 0.792164
Si Si5 0.325531 0.981438 0.596975
Si Si6 0.615297 0.847615 0.778807
Si Si7 0.174741 0.405940 0.893541
Si Si8 0.642861 0.263670 0.552409
O O1 0.500000 0.413424 0.250000
O O2 0.623994 0.305442 0.267327
O O3 0.689554 0.541450 0.185407
O O4 0.783229 0.418085 0.946852
O O5 0.896089 0.975550 0.919679
O O6 0.000000 0.769335 0.750000
O O7 0.859435 0.744167 0.059665
O O8 0.720973 0.806137 0.057339
O O9 0.188974 0.971884 0.173991
O O10 0.000000 0.829177 0.250000
O O11 0.305989 0.871320 0.905785
O O12 0.798867 0.434944 0.743027
O O13 0.023033 0.525209 0.593079
O O14 0.756084 0.632398 0.892382
O O15 0.295478 0.926140 0.733636
O O16 0.392403 0.852084 0.479866
O O17 0.450157 0.092171 0.463833
O O18 0.500000 0.326725 0.750000
#
# Coordination Sequence:
#
# PCOD9227646 Si02
#       8
#     4   4   4   4   4   4   4   4
#     4  12  25  44  66  96 142 179 218 279 339 399
#     4  10  18  37  62  87 127 165 217 271 319 383
#     4  10  22  39  66  98 130 169 223 286 333 387
#     4  11  24  41  66 100 133 181 221 274 336 409
#     4  10  22  43  71  96 128 184 227 275 337 398
#     4  11  24  46  67  96 136 179 227 275 336 408
#     4  11  23  43  66  96 137 180 224 266 340 404
#     4  11  20  37  66  93 124 169 223 271 322 383
#
# _framework density 24.231286999999998
#
# number of rings (size 3 to 8) (size 9 to 14) (size 15 to 20)
#    0.000    1.250    2.500    4.125    0.000    2.000 
#    9.000    0.000    0.000    0.000    0.000    0.000 
#    0.000    0.000    0.000    0.000    0.000    0.000 
#
# Total GULP energy -178303.620163 kJ/mol
# GULP energy per Si atom -5571.988130 kJ/mol
# Density = 2.417614 g / cm^3
# Si number density = 24.231287 Si / 1000 Ang^3
#
#
#
# Elastic Constant Matrix: (Units=GPa)
#
#
# Indices 1 2 3 4 5 6 
#
# 1 92.6033 -10.7837 18.6949 0.0000 -2.7392 0.0000
# 2 -10.7837 55.2006 15.1992 0.0000 -1.0159 0.0000
# 3 18.6949 15.1992 53.2614 0.0000 10.0188 0.0000
# 4 0.0000 0.0000 0.0000 30.4650 0.0000 2.4310
# 5 -2.7392 -1.0159 10.0188 0.0000 24.7238 0.0000
# 6 0.0000 0.0000 0.0000 2.4310 0.0000 23.9730
#
#
#
# Elastic Compliance Matrix: (Units=1/GPa)
#
#
# Indices 1 2 3 4 5 6 
#
# 1 0.012747 0.004362 -0.006515 0.000000 0.004232 0.000000
# 2 0.004362 0.021411 -0.008549 0.000000 0.004827 0.000000
# 3 -0.006515 -0.008549 0.025660 0.000000 -0.011471 0.000000
# 4 0.000000 0.000000 0.000000 0.033092 0.000000 -0.003356
# 5 0.004232 0.004827 -0.011471 0.000000 0.045763 0.000000
# 6 0.000000 0.000000 0.000000 -0.003356 0.000000 0.042054
#
#
# Mechanical properties :
#
#
# Convention : Reuss Voigt Hill
#
# Bulk Modulus (GPa) = 26.03284 27.47625 26.75454
# Shear Modulus (GPa) = 23.26287 27.69601 25.47944
#
# Velocity S-wave (km/s) = 3.10180 3.38447 3.24622
# Velocity P-wave (km/s) = 4.85747 5.16107 5.01157
#
# Compressibility (1/GPa) = 0.03841302
#
# Stress axis : x y z
#
# Youngs Moduli (GPa) = 78.44889 46.70567 38.97179
#
# Poissons Ratio (x) = -0.20373 0.25390
# Poissons Ratio (y) = -0.34219 0.33317
# Poissons Ratio (z) = 0.51110 0.39929
#
# Static dielectric constant tensor:
#      x y z
#    x 1.958160 0.000000 -0.100740 
#    y 0.000000 2.075910 0.000000 
#    z -0.100740 0.000000 2.453300 
# 
# From -- ./inp_files/55784.got.cif
#   From: 2010.05.17/outbox.cif.g08.bks.cpg/sg13_28_cif.got.tgz:55784.got - 2010.06.03 16:44:36.
