data_PCOD9227628
_publ_section_title
;
Structure prediction by ZEFSAII (Michael W. Deem and Ramdas Pophale) SiO2 
 PCOD9227628
Probable space group: P 2/C
;
_chemical_formula_sum "Si O2"
_cell_formula_units_Z 32
_cell_length_a 8.963431
_cell_length_b 11.391201
_cell_length_c 31.329356
_cell_angle_alpha 90.000000
_cell_angle_beta 29.514673
_cell_angle_gamma 90.000000
_cell_volume 1575.907082
_symmetry_space_group_name_H-M "P 2/C"
_symmetry_group_IT_number 13
_symmetry_cell_setting 'monoclinic'
loop_
_space_group_symop_operation_xyz
x,y,z
-x,y,1/2-z
-x,-y,-z
x,-y,1/2+z
loop_
_atom_site_type_symbol
_atom_site_label
_atom_site_fract_x
_atom_site_fract_y
_atom_site_fract_z
Si Si1 0.651313 0.191961 0.851098
Si Si2 0.220233 0.437764 0.653717
Si Si3 0.346399 0.161296 0.437148
Si Si4 0.825539 0.419206 0.008538
Si Si5 0.134932 0.649735 0.341020
Si Si6 0.539181 0.018120 0.661701
Si Si7 0.992826 0.082852 0.893666
Si Si8 0.160848 0.034111 0.148194
O O1 0.589230 0.316820 0.886196
O O2 0.000000 0.203884 0.750000
O O3 0.454274 0.149135 0.860336
O O4 0.652748 0.077965 0.880425
O O5 0.486962 0.532269 0.583291
O O6 0.000000 0.458228 0.750000
O O7 0.017539 0.415659 0.661764
O O8 0.229227 0.290437 0.458245
O O9 0.304419 0.077094 0.407355
O O10 0.695735 0.147930 0.365912
O O11 0.185627 0.110089 0.518937
O O12 0.000000 0.500000 0.000000
O O13 0.002442 0.399064 0.919239
O O14 0.500000 0.639426 0.250000
O O15 0.050530 0.789448 0.357820
O O16 0.187591 0.983685 0.751957
O O17 0.699466 0.027253 0.666228
O O18 0.837563 0.987054 0.902371
#
# Coordination Sequence:
#
# PCOD9227628 Si02
#       8
#     4   4   4   4   4   4   4   4
#     4   8  17  30  55  88 118 151 198 245 307 367
#     4  11  22  39  67  95 128 169 216 268 330 381
#     4  10  23  39  57  84 126 164 203 254 319 374
#     4  11  26  45  65  93 125 171 228 274 320 380
#     4  11  23  41  65  96 131 164 214 276 326 383
#     4  10  20  35  59  88 123 160 203 249 311 384
#     4  11  21  34  60  94 128 155 203 258 320 377
#     4  10  18  37  58  89 122 161 199 251 309 388
#
# _framework density 20.305765999999998
#
# number of rings (size 3 to 8) (size 9 to 14) (size 15 to 20)
#    0.000    1.750    1.250    4.125    7.000    1.000 
#    0.000    1.250    0.000    1.500    0.000    0.000 
#    0.000    0.000    0.000    0.000    0.000    0.000 
#
# Total GULP energy -178478.849338 kJ/mol
# GULP energy per Si atom -5577.464042 kJ/mol
# Density = 2.025955 g / cm^3
# Si number density = 20.305766 Si / 1000 Ang^3
#
#
#
# Elastic Constant Matrix: (Units=GPa)
#
#
# Indices 1 2 3 4 5 6 
#
# 1 96.3640 15.5458 26.6417 0.0000 3.4742 0.0000
# 2 15.5458 77.4085 32.6723 0.0000 5.5051 0.0000
# 3 26.6417 32.6723 92.1196 0.0000 1.7660 0.0000
# 4 0.0000 0.0000 0.0000 18.3779 0.0000 -7.4786
# 5 3.4742 5.5051 1.7660 0.0000 28.6999 0.0000
# 6 0.0000 0.0000 0.0000 -7.4786 0.0000 30.9161
#
#
#
# Elastic Compliance Matrix: (Units=1/GPa)
#
#
# Indices 1 2 3 4 5 6 
#
# 1 0.011380 -0.000979 -0.002925 0.000000 -0.001010 0.000000
# 2 -0.000979 0.015471 -0.005155 0.000000 -0.002532 0.000000
# 3 -0.002925 -0.005155 0.013520 0.000000 0.000511 0.000000
# 4 0.000000 0.000000 0.000000 0.060354 0.000000 0.014600
# 5 -0.001010 -0.002532 0.000511 0.000000 0.035420 0.000000
# 6 0.000000 0.000000 0.000000 0.014600 0.000000 0.035877
#
#
# Mechanical properties :
#
#
# Convention : Reuss Voigt Hill
#
# Bulk Modulus (GPa) = 44.93813 46.17907 45.55860
# Shear Modulus (GPa) = 25.30889 28.33426 26.82158
#
# Velocity S-wave (km/s) = 3.53425 3.73953 3.63834
# Velocity P-wave (km/s) = 6.23164 6.43713 6.33522
#
# Compressibility (1/GPa) = 0.02225282
#
# Stress axis : x y z
#
# Youngs Moduli (GPa) = 87.87142 64.63624 73.96464
#
# Poissons Ratio (x) = 0.06330 0.21632
# Poissons Ratio (y) = 0.08605 0.38132
# Poissons Ratio (z) = 0.25699 0.33323
#
# Static dielectric constant tensor:
#      x y z
#    x 1.791350 0.000000 -0.026050 
#    y 0.000000 1.717980 0.000000 
#    z -0.026050 0.000000 1.816460 
# 
# From -- ./inp_files/96111.got.cif
#   From: 2010.05.17/outbox.cif.g08.bks.cpg/sg13_49_cif.got.tgz:96111.got - 2010.06.03 16:44:36.
