data_PCOD9227734
_publ_section_title
;
Structure prediction by ZEFSAII (Michael W. Deem and Ramdas Pophale) SiO2 
 PCOD9227734
Probable space group: P 2/C
;
_chemical_formula_sum "Si O2"
_cell_formula_units_Z 26
_cell_length_a 8.978524
_cell_length_b 16.161526
_cell_length_c 16.762665
_cell_angle_alpha 90.000000
_cell_angle_beta 31.713042
_cell_angle_gamma 90.000000
_cell_volume 1278.614696
_symmetry_space_group_name_H-M "P 2/C"
_symmetry_group_IT_number 13
_symmetry_cell_setting 'monoclinic'
loop_
_space_group_symop_operation_xyz
x,y,z
-x,y,1/2-z
-x,-y,-z
x,-y,1/2+z
loop_
_atom_site_type_symbol
_atom_site_label
_atom_site_fract_x
_atom_site_fract_y
_atom_site_fract_z
Si Si1 0.826565 0.511856 0.452710
Si Si2 0.802995 0.947247 0.149819
Si Si3 0.310876 0.942063 0.643589
Si Si4 0.368906 0.606236 0.232676
Si Si5 0.611705 0.335423 0.952833
Si Si6 0.000000 0.376314 0.250000
Si Si7 0.156994 0.831048 0.096330
O O1 0.581539 0.470068 0.615864
O O2 0.695709 0.574157 0.446855
O O3 0.062556 0.566621 0.388759
O O4 0.974568 0.437028 0.337547
O O5 0.500000 0.924444 0.250000
O O6 0.970811 0.868406 0.109521
O O7 0.739149 0.008330 0.252455
O O8 0.000000 0.000000 0.000000
O O9 0.525900 0.866440 0.556979
O O10 0.000000 0.922487 0.750000
O O11 0.500000 0.000000 0.500000
O O12 0.500000 0.650034 0.250000
O O13 0.361265 0.659944 0.155263
O O14 0.795773 0.266273 0.912410
O O15 0.283606 0.323792 0.122716
O O16 0.000000 0.859809 0.250000
#
# Coordination Sequence:
#
# PCOD9227734 Si02
#       7
#     4   4   4   4   4   2   4
#     4  11  18  39  64  90 125 177 229 270 322 405
#     4  12  23  42  73 105 135 173 222 277 338 412
#     4  12  21  42  70  99 130 179 231 264 317 422
#     4  11  21  35  63  94 126 170 225 282 332 389
#     4  11  23  40  66  93 136 172 230 278 340 397
#     4  10  18  38  66  98 114 182 242 262 308 408
#     4  12  25  42  67 101 135 179 222 280 342 404
#
# _framework density 20.334509000000001
#
# number of rings (size 3 to 8) (size 9 to 14) (size 15 to 20)
#    0.000    0.615    7.692    2.308    1.077    0.000 
#    0.000    3.077    3.385    3.692    0.000    0.000 
#    0.000    0.000    0.000    0.000    0.000    0.000 
#
# Total GULP energy -145210.077054 kJ/mol
# GULP energy per Si atom -5585.002964 kJ/mol
# Density = 2.028823 g / cm^3
# Si number density = 20.334509 Si / 1000 Ang^3
#
#
#
# Elastic Constant Matrix: (Units=GPa)
#
#
# Indices 1 2 3 4 5 6 
#
# 1 133.7295 48.2483 53.1835 0.0000 -23.1224 0.0000
# 2 48.2483 87.1825 37.9372 0.0000 -7.3049 0.0000
# 3 53.1835 37.9372 137.0971 0.0000 -26.0536 0.0000
# 4 0.0000 0.0000 0.0000 28.0669 0.0000 -9.4371
# 5 -23.1224 -7.3049 -26.0536 0.0000 49.7438 0.0000
# 6 0.0000 0.0000 0.0000 -9.4371 0.0000 23.7367
#
#
#
# Elastic Compliance Matrix: (Units=1/GPa)
#
#
# Indices 1 2 3 4 5 6 
#
# 1 0.010562 -0.004615 -0.002239 0.000000 0.003059 0.000000
# 2 -0.004615 0.015057 -0.002625 0.000000 -0.001309 0.000000
# 3 -0.002239 -0.002625 0.009571 0.000000 0.003586 0.000000
# 4 0.000000 0.000000 0.000000 0.041127 0.000000 0.016351
# 5 0.003059 -0.001309 0.003586 0.000000 0.023211 0.000000
# 6 0.000000 0.000000 0.000000 0.016351 0.000000 0.048630
#
#
# Mechanical properties :
#
#
# Convention : Reuss Voigt Hill
#
# Bulk Modulus (GPa) = 61.60660 70.74968 66.17814
# Shear Modulus (GPa) = 28.98132 34.88549 31.93340
#
# Velocity S-wave (km/s) = 3.77932 4.14645 3.96713
# Velocity P-wave (km/s) = 7.02899 7.60214 7.32117
#
# Compressibility (1/GPa) = 0.01623203
#
# Stress axis : x y z
#
# Youngs Moduli (GPa) = 94.67835 66.41599 104.48653
#
# Poissons Ratio (x) = 0.30648 0.23394
# Poissons Ratio (y) = 0.43690 0.27428
# Poissons Ratio (z) = 0.21198 0.17434
#
# Static dielectric constant tensor:
#      x y z
#    x 1.759120 0.000000 -0.030050 
#    y 0.000000 1.722740 0.000000 
#    z -0.030050 0.000000 1.752660 
# 
# From -- ./inp_files/64751.got.cif
#   From: 2010.05.17/outbox.cif.g08.bks.cpg/sg13_33_cif.got.tgz:64751.got - 2010.06.03 16:44:36.
