data_PCOD9227562
_publ_section_title
;
Structure prediction by ZEFSAII (Michael W. Deem and Ramdas Pophale) SiO2 
 PCOD9227562
Probable space group: P 2/C
;
_chemical_formula_sum "Si O2"
_cell_formula_units_Z 22
_cell_length_a 8.014445
_cell_length_b 14.863980
_cell_length_c 9.179017
_cell_angle_alpha 90.000000
_cell_angle_beta 93.154487
_cell_angle_gamma 90.000000
_cell_volume 1091.807802
_symmetry_space_group_name_H-M "P 2/C"
_symmetry_group_IT_number 13
_symmetry_cell_setting 'monoclinic'
loop_
_space_group_symop_operation_xyz
x,y,z
-x,y,1/2-z
-x,-y,-z
x,-y,1/2+z
loop_
_atom_site_type_symbol
_atom_site_label
_atom_site_fract_x
_atom_site_fract_y
_atom_site_fract_z
Si Si1 0.500000 0.490932 0.250000
Si Si2 0.245364 0.265421 0.015826
Si Si3 0.216414 0.196277 0.513378
Si Si4 0.534288 0.904494 0.925306
Si Si5 0.000000 0.223174 0.750000
Si Si6 0.000000 0.238892 0.250000
Si Si7 0.596000 0.374640 0.000796
O O1 0.612488 0.427825 0.152896
O O2 0.593079 0.555309 0.368474
O O3 0.304138 0.160191 0.039143
O O4 0.137240 0.288862 0.155212
O O5 0.413092 0.324917 0.002943
O O6 0.120890 0.273507 0.871511
O O7 0.390839 0.152718 0.494561
O O8 0.100103 0.179907 0.370409
O O9 0.259242 0.302474 0.518379
O O10 0.125188 0.167747 0.654830
O O11 0.500000 0.909972 0.750000
O O12 0.500000 0.000000 0.000000
#
# Coordination Sequence:
#
# PCOD9227562 Si02
#       7
#     2   4   4   4   2   2   4
#     4  10  20  32  58  92 114 140 204 252 290 328
#     4  10  21  39  63  84 119 158 198 237 297 351
#     4  10  21  39  63  84 119 158 198 237 297 351
#     4  11  24  41  63  90 117 154 201 244 285 345
#     4  10  22  36  61  93 116 156 198 244 292 349
#     4  10  18  36  61  85 110 158 202 232 284 365
#     4  10  20  36  61  85 113 156 197 246 284 352
#
# _framework density 20.150065000000001
#
# number of rings (size 3 to 8) (size 9 to 14) (size 15 to 20)
#    0.000    1.818    1.818    2.182    5.091    1.455 
#    0.000    5.455    0.000   76.364    0.000    0.000 
#    0.000    0.000    0.000    0.000    0.000    0.000 
#
# Total GULP energy -122523.745298 kJ/mol
# GULP energy per Si atom -5569.261150 kJ/mol
# Density = 2.010420 g / cm^3
# Si number density = 20.150065 Si / 1000 Ang^3
#
#
#
# Elastic Constant Matrix: (Units=GPa)
#
#
# Indices 1 2 3 4 5 6 
#
# 1 93.3846 21.3249 40.4237 0.0000 -11.3615 0.0000
# 2 21.3249 84.3470 32.4240 0.0000 9.3046 0.0000
# 3 40.4237 32.4240 157.2086 0.0000 -11.6119 0.0000
# 4 0.0000 0.0000 0.0000 -79.6296 0.0000 20.1758
# 5 -11.3615 9.3046 -11.6119 0.0000 26.4245 0.0000
# 6 0.0000 0.0000 0.0000 20.1758 0.0000 1.1304
#
#
#
# Elastic Compliance Matrix: (Units=1/GPa)
#
#
# Indices 1 2 3 4 5 6 
#
# 1 0.013100 -0.003048 -0.002320 0.000000 0.005686 0.000000
# 2 -0.003048 0.014539 -0.002780 0.000000 -0.007652 0.000000
# 3 -0.002320 -0.002780 0.007782 0.000000 0.003401 0.000000
# 4 0.000000 0.000000 0.000000 -0.002274 0.000000 0.040589
# 5 0.005686 -0.007652 0.003401 0.000000 0.044477 0.000000
# 6 0.000000 0.000000 0.000000 0.040589 0.000000 0.160196
#
#
# Mechanical properties :
#
#
# Convention : Reuss Voigt Hill
#
# Bulk Modulus (GPa) = 52.28437 58.14284 55.21360
# Shear Modulus (GPa) = 19.19448 5.63623 12.41536
#
# Velocity S-wave (km/s) = 3.08973 1.67428 2.48492
# Velocity P-wave (km/s) = 6.22354 5.71447 5.97443
#
# Compressibility (1/GPa) = 0.01912618
#
# Stress axis : x y z
#
# Youngs Moduli (GPa) = 76.33362 68.78021 128.49891
#
# Poissons Ratio (x) = 0.20961 0.29812
# Poissons Ratio (y) = 0.23263 0.35725
# Poissons Ratio (z) = 0.17710 0.19122
#
# Static dielectric constant tensor:
#      x y z
#    x 1.703700 0.000000 -0.004480 
#    y 0.000000 1.795350 0.000000 
#    z -0.004480 0.000000 1.734410 
# 
# From -- ./inp_files/12269.got.cif
#   From: 2010.05.17/outbox.cif.g08.bks.cpg/sg13_7_cif.got.tgz:12269.got - 2010.06.03 16:44:36.
