data_PCOD9227598
_publ_section_title
;
Structure prediction by ZEFSAII (Michael W. Deem and Ramdas Pophale) SiO2 
 PCOD9227598
Probable space group: P 2/C
;
_chemical_formula_sum "Si O2"
_cell_formula_units_Z 18
_cell_length_a 8.527275
_cell_length_b 6.796066
_cell_length_c 18.829400
_cell_angle_alpha 90.000000
_cell_angle_beta 49.594083
_cell_angle_gamma 90.000000
_cell_volume 830.917524
_symmetry_space_group_name_H-M "P 2/C"
_symmetry_group_IT_number 13
_symmetry_cell_setting 'monoclinic'
loop_
_space_group_symop_operation_xyz
x,y,z
-x,y,1/2-z
-x,-y,-z
x,-y,1/2+z
loop_
_atom_site_type_symbol
_atom_site_label
_atom_site_fract_x
_atom_site_fract_y
_atom_site_fract_z
Si Si1 0.652111 0.815663 0.464260
Si Si2 0.942681 0.304145 0.474023
Si Si3 0.888777 0.051749 0.627292
Si Si4 0.466549 0.462634 0.913166
Si Si5 0.500000 0.293171 0.750000
O O1 0.561781 0.688037 0.556686
O O2 0.641147 0.664375 0.400870
O O3 0.888273 0.881462 0.408370
O O4 0.500000 0.000000 0.500000
O O5 0.874250 0.145528 0.552716
O O6 0.739780 0.364049 0.492060
O O7 0.000000 0.500000 0.500000
O O8 0.107270 0.185091 0.379576
O O9 0.688960 0.152670 0.718917
O O10 0.459329 0.425651 0.831375
#
# Coordination Sequence:
#
# PCOD9227598 Si02
#       5
#     4   4   4   4   2
#     4  11  21  39  69  97 122 175 228 263 315 403
#     4  10  18  36  64  90 118 169 222 259 302 390
#     4  10  21  37  64  92 130 166 219 265 325 388
#     4  10  22  39  65  96 129 167 222 270 328 386
#     4  10  24  42  62  98 138 168 208 290 340 376
#
# _framework density 21.662800000000001
#
# number of rings (size 3 to 8) (size 9 to 14) (size 15 to 20)
#    0.000    1.778    4.444    0.000    0.000    0.889 
#    0.000   10.000    0.000    5.333    0.000    0.000 
#    0.000    0.000    0.000    0.000    0.000    0.000 
#
# Total GULP energy -100233.973524 kJ/mol
# GULP energy per Si atom -5568.554085 kJ/mol
# Density = 2.161349 g / cm^3
# Si number density = 21.662800 Si / 1000 Ang^3
#
#
#
# Elastic Constant Matrix: (Units=GPa)
#
#
# Indices 1 2 3 4 5 6 
#
# 1 124.5638 54.4416 30.7480 0.0000 -16.2553 0.0000
# 2 54.4416 160.6570 46.8397 0.0000 -8.1072 0.0000
# 3 30.7480 46.8397 63.2934 0.0000 0.4771 0.0000
# 4 0.0000 0.0000 0.0000 22.7572 0.0000 2.8375
# 5 -16.2553 -8.1072 0.4771 0.0000 33.8329 0.0000
# 6 0.0000 0.0000 0.0000 2.8375 0.0000 44.7260
#
#
#
# Elastic Compliance Matrix: (Units=1/GPa)
#
#
# Indices 1 2 3 4 5 6 
#
# 1 0.010476 -0.002331 -0.003398 0.000000 0.004523 0.000000
# 2 -0.002331 0.008591 -0.005233 0.000000 0.001013 0.000000
# 3 -0.003398 -0.005233 0.021347 0.000000 -0.003188 0.000000
# 4 0.000000 0.000000 0.000000 0.044292 0.000000 -0.002810
# 5 0.004523 0.001013 -0.003188 0.000000 0.032017 0.000000
# 6 0.000000 0.000000 0.000000 -0.002810 0.000000 0.022537
#
#
# Mechanical properties :
#
#
# Convention : Reuss Voigt Hill
#
# Bulk Modulus (GPa) = 54.08488 68.06365 61.07426
# Shear Modulus (GPa) = 29.87784 34.69555 32.28670
#
# Velocity S-wave (km/s) = 3.71782 4.00636 3.86479
# Velocity P-wave (km/s) = 6.59170 7.27249 6.94045
#
# Compressibility (1/GPa) = 0.01848946
#
# Stress axis : x y z
#
# Youngs Moduli (GPa) = 95.45826 116.39930 46.84494
#
# Poissons Ratio (x) = 0.27132 0.15919
# Poissons Ratio (y) = 0.22251 0.24514
# Poissons Ratio (z) = 0.32439 0.60912
#
# Static dielectric constant tensor:
#      x y z
#    x 1.875750 0.000000 -0.061730 
#    y 0.000000 1.876150 0.000000 
#    z -0.061730 0.000000 1.931840 
# 
# From -- ./inp_files/62461.got.cif
#   From: 2010.05.17/outbox.cif.g08.bks.cpg/sg13_32_cif.got.tgz:62461.got - 2010.06.03 16:44:36.
