data_PCOD9227366
_publ_section_title
;
Structure prediction by ZEFSAII (Michael W. Deem and Ramdas Pophale) SiO2 
 PCOD9227366
Probable space group: P 2/C
;
_chemical_formula_sum "Si O2"
_cell_formula_units_Z 26
_cell_length_a 12.202715
_cell_length_b 8.023309
_cell_length_c 14.560249
_cell_angle_alpha 90.000000
_cell_angle_beta 66.898664
_cell_angle_gamma 90.000000
_cell_volume 1311.227426
_symmetry_space_group_name_H-M "P 2/C"
_symmetry_group_IT_number 13
_symmetry_cell_setting 'monoclinic'
loop_
_space_group_symop_operation_xyz
x,y,z
-x,y,1/2-z
-x,-y,-z
x,-y,1/2+z
loop_
_atom_site_type_symbol
_atom_site_label
_atom_site_fract_x
_atom_site_fract_y
_atom_site_fract_z
Si Si1 0.787041 0.252395 0.863651
Si Si2 0.500000 0.223281 0.250000
Si Si3 0.440049 0.037184 0.616923
Si Si4 0.000000 0.966851 0.250000
Si Si5 0.227747 0.359130 0.823320
Si Si6 0.885129 0.993786 0.603375
Si Si7 0.500000 0.275513 0.750000
Si Si8 0.740140 0.323875 0.082928
O O1 0.686611 0.121088 0.862823
O O2 0.908089 0.150154 0.835289
O O3 0.806263 0.376328 0.772320
O O4 0.745944 0.333273 0.971282
O O5 0.604334 0.318391 0.162899
O O6 0.563355 0.115171 0.310059
O O7 0.516052 0.167374 0.652050
O O8 0.500000 0.000000 0.500000
O O9 0.073433 0.054933 0.306628
O O10 0.371686 0.355909 0.778289
O O11 0.192895 0.518186 0.894886
O O12 0.175360 0.178579 0.871297
O O13 0.797303 0.852487 0.593972
O O14 0.000000 0.000000 0.500000
#
# Coordination Sequence:
#
# PCOD9227366 Si02
#       8
#     4   2   4   2   4   4   2   4
#     4  10  21  40  63  89 129 166 204 264 316 365
#     4  11  21  36  64  99 127 168 215 259 306 395
#     4  10  18  34  62  93 125 166 208 252 315 370
#     4  10  20  42  64  88 124 160 206 264 308 366
#     4  10  24  43  61  94 132 163 209 263 313 375
#     4  11  23  43  68  92 123 167 212 261 319 371
#     4   9  19  38  58  85 133 166 193 261 314 361
#     4  12  23  43  66  95 128 165 214 258 315 380
#
# _framework density 19.828748999999998
#
# number of rings (size 3 to 8) (size 9 to 14) (size 15 to 20)
#    0.000    1.538    3.077    4.154    0.000    0.615 
#    5.538    3.077    0.000    0.000    0.000    0.000 
#    0.000    0.000    0.000    0.000    0.000    0.000 
#
# Total GULP energy -144945.538104 kJ/mol
# GULP energy per Si atom -5574.828389 kJ/mol
# Density = 1.978362 g / cm^3
# Si number density = 19.828749 Si / 1000 Ang^3
#
#
#
# Elastic Constant Matrix: (Units=GPa)
#
#
# Indices 1 2 3 4 5 6 
#
# 1 59.7456 17.4640 24.5646 0.0000 5.7830 0.0000
# 2 17.4640 90.1938 48.5208 0.0000 15.7504 0.0000
# 3 24.5646 48.5208 145.5038 0.0000 15.9282 0.0000
# 4 0.0000 0.0000 0.0000 11.8229 0.0000 12.4254
# 5 5.7830 15.7504 15.9282 0.0000 39.7647 0.0000
# 6 0.0000 0.0000 0.0000 12.4254 0.0000 8.6937
#
#
#
# Elastic Compliance Matrix: (Units=1/GPa)
#
#
# Indices 1 2 3 4 5 6 
#
# 1 0.018399 -0.002178 -0.002281 0.000000 -0.000899 0.000000
# 2 -0.002178 0.014313 -0.003994 0.000000 -0.003753 0.000000
# 3 -0.002281 -0.003994 0.008765 0.000000 -0.001597 0.000000
# 4 0.000000 0.000000 0.000000 -0.168460 0.000000 0.240772
# 5 -0.000899 -0.003753 -0.001597 0.000000 0.027405 0.000000
# 6 0.000000 0.000000 0.000000 0.240772 0.000000 -0.229096
#
#
# Mechanical properties :
#
#
# Convention : Reuss Voigt Hill
#
# Bulk Modulus (GPa) = 40.70189 52.94911 46.82550
# Shear Modulus (GPa) = -16.47032 25.71583 4.62275
#
# Velocity S-wave (km/s) = -2.88519 3.60515 1.52853
# Velocity P-wave (km/s) = 3.07769 6.64008 5.17508
#
# Compressibility (1/GPa) = 0.02456889
#
# Stress axis : x y z
#
# Youngs Moduli (GPa) = 54.34950 69.86578 114.09458
#
# Poissons Ratio (x) = 0.15219 0.26030
# Poissons Ratio (y) = 0.11839 0.45574
# Poissons Ratio (z) = 0.12400 0.27907
#
# Static dielectric constant tensor:
#      x y z
#    x 1.542690 0.000000 0.016200 
#    y 0.000000 1.737270 0.000000 
#    z 0.016200 0.000000 1.709120 
# 
# From -- ./inp_files/49626.got.cif
#   From: 2010.05.17/outbox.cif.g08.bks.cpg/sg13_25_cif.got.tgz:49626.got - 2010.06.03 16:44:36.
