data_PCOD9227955
_publ_section_title
;
Structure prediction by ZEFSAII (Michael W. Deem and Ramdas Pophale) SiO2 
 PCOD9227955
Probable space group: P 2/C
;
_chemical_formula_sum "Si O2"
_cell_formula_units_Z 22
_cell_length_a 31.395221
_cell_length_b 5.359560
_cell_length_c 5.129744
_cell_angle_alpha 90.000000
_cell_angle_beta 99.978441
_cell_angle_gamma 90.000000
_cell_volume 850.097258
_symmetry_space_group_name_H-M "P 2/C"
_symmetry_group_IT_number 13
_symmetry_cell_setting 'monoclinic'
loop_
_space_group_symop_operation_xyz
x,y,z
-x,y,1/2-z
-x,-y,-z
x,-y,1/2+z
loop_
_atom_site_type_symbol
_atom_site_label
_atom_site_fract_x
_atom_site_fract_y
_atom_site_fract_z
Si Si1 0.770806 0.654933 0.587064
Si Si2 0.596107 0.642568 0.410842
Si Si3 0.955210 0.175018 0.139864
Si Si4 0.500000 0.167160 0.750000
Si Si5 0.866884 0.153661 0.190305
Si Si6 0.683044 0.676021 0.349284
O O1 0.767772 0.579551 0.885109
O O2 0.818847 0.750939 0.587953
O O3 0.728430 0.811861 0.456349
O O4 0.601160 0.594430 0.721760
O O5 0.546316 0.702292 0.303745
O O6 0.636904 0.806413 0.355586
O O7 0.909470 0.307298 0.149776
O O8 0.000000 0.314984 0.250000
O O9 0.955700 0.948414 0.355048
O O10 0.500000 0.000000 0.500000
O O11 0.869995 0.081467 0.495692
O O12 0.683481 0.454007 0.568764
#
# Coordination Sequence:
#
# PCOD9227955 Si02
#       6
#     4   4   4   2   4   4
#     4  10  19  33  51  72  99 130 159 194 244 292
#     4  10  19  36  58  75  93 130 176 203 225 278
#     4   8  14  25  42  63  87 117 155 196 233 272
#     4  12  24  36  50  78 112 132 152 198 258 294
#     4  10  19  31  48  72  97 123 160 202 239 283
#     4   8  16  30  51  73  92 121 166 204 227 271
#
# _framework density 25.879390000000001
#
# number of rings (size 3 to 8) (size 9 to 14) (size 15 to 20)
#    0.000    2.545    0.000    2.727    0.000    0.000 
#    0.000    1.818    0.000    1.091    0.000    0.000 
#    0.000    0.000    0.000    0.000    0.000    0.000 
#
# Total GULP energy -122712.549842 kJ/mol
# GULP energy per Si atom -5577.843175 kJ/mol
# Density = 2.582049 g / cm^3
# Si number density = 25.879390 Si / 1000 Ang^3
#
#
#
# Elastic Constant Matrix: (Units=GPa)
#
#
# Indices 1 2 3 4 5 6 
#
# 1 293.5539 19.1980 25.4871 0.0000 33.7610 0.0000
# 2 19.1980 26.9121 26.0274 0.0000 -3.2015 0.0000
# 3 25.4871 26.0274 157.9217 0.0000 0.0850 0.0000
# 4 0.0000 0.0000 0.0000 31.2919 0.0000 -6.8163
# 5 33.7610 -3.2015 0.0850 0.0000 58.1315 0.0000
# 6 0.0000 0.0000 0.0000 -6.8163 0.0000 7.6008
#
#
#
# Elastic Compliance Matrix: (Units=1/GPa)
#
#
# Indices 1 2 3 4 5 6 
#
# 1 0.003888 -0.002922 -0.000145 0.000000 -0.002419 0.000000
# 2 -0.002922 0.046749 -0.007236 0.000000 0.004282 0.000000
# 3 -0.000145 -0.007236 0.007548 0.000000 -0.000325 0.000000
# 4 0.000000 0.000000 0.000000 0.039716 0.000000 0.035617
# 5 -0.002419 0.004282 -0.000325 0.000000 0.018844 0.000000
# 6 0.000000 0.000000 0.000000 0.035617 0.000000 0.163506
#
#
# Mechanical properties :
#
#
# Convention : Reuss Voigt Hill
#
# Bulk Modulus (GPa) = 26.60843 68.86807 47.73825
# Shear Modulus (GPa) = 15.95496 46.58318 31.26907
#
# Velocity S-wave (km/s) = 2.48566 4.24726 3.47978
# Velocity P-wave (km/s) = 4.30605 7.12188 5.88486
#
# Compressibility (1/GPa) = 0.03758207
#
# Stress axis : x y z
#
# Youngs Moduli (GPa) = 257.17788 21.39070 132.48010
#
# Poissons Ratio (x) = 0.06249 0.01917
# Poissons Ratio (y) = 0.75137 0.95858
# Poissons Ratio (z) = 0.03722 0.15478
#
# Static dielectric constant tensor:
#      x y z
#    x 2.332300 0.000000 0.061750 
#    y 0.000000 1.734700 0.000000 
#    z 0.061750 0.000000 1.936780 
# 
# From -- ./inp_files/7952.got.cif
#   From: 2010.05.17/outbox.cif.g08.bks.cpg/sg13_4_cif.got.tgz:7952.got - 2010.06.03 16:44:36.
