data_PCOD9227220
_publ_section_title
;
Structure prediction by ZEFSAII (Michael W. Deem and Ramdas Pophale) SiO2 
 PCOD9227220
Probable space group: P 2/C
;
_chemical_formula_sum "Si O2"
_cell_formula_units_Z 24
_cell_length_a 15.187692
_cell_length_b 12.376528
_cell_length_c 26.765127
_cell_angle_alpha 90.000000
_cell_angle_beta 13.938046
_cell_angle_gamma 90.000000
_cell_volume 1211.845541
_symmetry_space_group_name_H-M "P 2/C"
_symmetry_group_IT_number 13
_symmetry_cell_setting 'monoclinic'
loop_
_space_group_symop_operation_xyz
x,y,z
-x,y,1/2-z
-x,-y,-z
x,-y,1/2+z
loop_
_atom_site_type_symbol
_atom_site_label
_atom_site_fract_x
_atom_site_fract_y
_atom_site_fract_z
Si Si1 0.644571 0.329176 0.251544
Si Si2 0.782971 0.743510 0.140867
Si Si3 0.480673 0.891940 0.131841
Si Si4 0.428826 0.125646 0.026308
Si Si5 0.353235 0.542446 0.387341
Si Si6 0.341127 0.859513 0.682421
O O1 0.347056 0.422636 0.411682
O O2 0.553821 0.226868 0.334299
O O3 0.837644 0.286021 0.094543
O O4 0.970424 0.398154 0.097611
O O5 0.500000 0.764925 0.250000
O O6 0.769810 0.841442 0.186939
O O7 0.630565 0.636193 0.252587
O O8 0.455273 0.021009 0.137870
O O9 0.385732 0.846724 0.128560
O O10 0.899299 0.863868 0.917127
O O11 0.507647 0.175472 0.036963
O O12 0.000000 0.138046 0.250000
O O13 0.500000 0.000000 0.000000
O O14 0.500000 0.525546 0.250000
#
# Coordination Sequence:
#
# PCOD9227220 Si02
#       6
#     4   4   4   4   4   4
#     4  10  19  34  52  75  99 132 169 209 245 287
#     4   9  16  31  50  69 100 131 160 197 247 287
#     4  10  18  34  51  74 104 134 158 200 251 298
#     4   8  16  29  52  71  92 130 167 195 234 292
#     4   9  17  33  53  69  98 129 176 207 238 283
#     4  10  19  34  50  77 103 129 164 203 246 301
#
# _framework density 19.804504000000001
#
# number of rings (size 3 to 8) (size 9 to 14) (size 15 to 20)
#    0.000    3.000    3.333    2.000    0.000    0.667 
#    6.000    0.000    0.000    1.000    0.000    0.000 
#    0.000    0.000    0.000    0.000    0.000    0.000 
#
# Total GULP energy -133653.435024 kJ/mol
# GULP energy per Si atom -5568.893126 kJ/mol
# Density = 1.975943 g / cm^3
# Si number density = 19.804504 Si / 1000 Ang^3
#
#
#
# Elastic Constant Matrix: (Units=GPa)
#
#
# Indices 1 2 3 4 5 6 
#
# 1 77.6694 57.1662 30.9484 0.0000 12.3925 0.0000
# 2 57.1662 102.5830 19.1056 0.0000 13.0677 0.0000
# 3 30.9484 19.1056 30.0021 0.0000 4.9319 0.0000
# 4 0.0000 0.0000 0.0000 -11.8781 0.0000 -1.9844
# 5 12.3925 13.0677 4.9319 0.0000 23.7036 0.0000
# 6 0.0000 0.0000 0.0000 -1.9844 0.0000 12.1559
#
#
#
# Elastic Compliance Matrix: (Units=1/GPa)
#
#
# Indices 1 2 3 4 5 6 
#
# 1 0.033603 -0.013381 -0.025333 0.000000 -0.004920 0.000000
# 2 -0.013381 0.016941 0.003520 0.000000 -0.003076 0.000000
# 3 -0.025333 0.003520 0.057324 0.000000 -0.000624 0.000000
# 4 0.000000 0.000000 0.000000 -0.081953 0.000000 -0.013378
# 5 -0.004920 -0.003076 -0.000624 0.000000 0.046586 0.000000
# 6 0.000000 0.000000 0.000000 -0.013378 0.000000 0.080080
#
#
# Mechanical properties :
#
#
# Convention : Reuss Voigt Hill
#
# Bulk Modulus (GPa) = 26.68029 47.18833 36.93431
# Shear Modulus (GPa) = 21.23494 11.66524 16.45009
#
# Velocity S-wave (km/s) = 3.27804 2.42961 2.88518
# Velocity P-wave (km/s) = 5.27527 5.63466 5.45793
#
# Compressibility (1/GPa) = 0.03748085
#
# Stress axis : x y z
#
# Youngs Moduli (GPa) = 29.75925 59.02763 17.44485
#
# Poissons Ratio (x) = 0.78985 0.44193
# Poissons Ratio (y) = 0.39821 -0.06141
# Poissons Ratio (z) = 0.75389 -0.20780
#
# Static dielectric constant tensor:
#      x y z
#    x 1.773390 0.000000 -0.025310 
#    y 0.000000 1.702860 0.000000 
#    z -0.025310 0.000000 1.764670 
# 
# From -- ./inp_files/92871.got.cif
#   From: 2010.05.17/outbox.cif.g08.bks.cpg/sg13_47_cif.got.tgz:92871.got - 2010.06.03 16:44:36.
