data_PCOD9227133
_publ_section_title
;
Structure prediction by ZEFSAII (Michael W. Deem and Ramdas Pophale) SiO2 
 PCOD9227133
Probable space group: P 2/C
;
_chemical_formula_sum "Si O2"
_cell_formula_units_Z 22
_cell_length_a 8.176920
_cell_length_b 17.556940
_cell_length_c 9.505385
_cell_angle_alpha 90.000000
_cell_angle_beta 49.507232
_cell_angle_gamma 90.000000
_cell_volume 1037.768810
_symmetry_space_group_name_H-M "P 2/C"
_symmetry_group_IT_number 13
_symmetry_cell_setting 'monoclinic'
loop_
_space_group_symop_operation_xyz
x,y,z
-x,y,1/2-z
-x,-y,-z
x,-y,1/2+z
loop_
_atom_site_type_symbol
_atom_site_label
_atom_site_fract_x
_atom_site_fract_y
_atom_site_fract_z
Si Si1 0.746369 0.049745 0.897732
Si Si2 0.500000 0.505131 0.750000
Si Si3 0.274412 0.873687 0.357488
Si Si4 0.776630 0.906974 0.695751
Si Si5 0.740742 0.412158 0.369515
Si Si6 0.255809 0.760217 0.610405
O O1 0.728241 0.124426 0.808610
O O2 0.000000 0.036426 0.750000
O O3 0.682698 0.969660 0.856754
O O4 0.705137 0.071941 0.079929
O O5 0.633994 0.455294 0.562115
O O6 0.340181 0.552383 0.734430
O O7 0.500000 0.918545 0.250000
O O8 0.305679 0.798998 0.432933
O O9 0.042250 0.906012 0.538632
O O10 0.706378 0.824590 0.792105
O O11 0.659420 0.324286 0.415599
O O12 0.000000 0.416003 0.250000
O O13 0.000000 0.750939 0.750000
#
# Coordination Sequence:
#
# PCOD9227133 Si02
#       6
#     4   2   4   4   4   4
#     4  10  18  33  55  74 104 150 197 240 288 348
#     4  10  22  40  68 102 130 162 216 250 306 384
#     4  10  20  34  53  81 108 141 194 246 293 340
#     4  10  19  37  56  74 105 154 197 239 293 359
#     4  10  21  41  67  97 133 171 204 256 315 374
#     4   9  19  37  58  79 114 156 191 232 301 362
#
# _framework density 21.199328000000001
#
# number of rings (size 3 to 8) (size 9 to 14) (size 15 to 20)
#    0.000    2.182    0.000    5.455    1.273    0.000 
#    3.273   14.545    0.000    1.091    0.000    0.000 
#    0.000    0.000    0.000    0.000    0.000    0.000 
#
# Total GULP energy -122522.913131 kJ/mol
# GULP energy per Si atom -5569.223324 kJ/mol
# Density = 2.115108 g / cm^3
# Si number density = 21.199328 Si / 1000 Ang^3
#
#
#
# Elastic Constant Matrix: (Units=GPa)
#
#
# Indices 1 2 3 4 5 6 
#
# 1 109.5888 72.2109 64.4040 0.0000 25.9683 0.0000
# 2 72.2109 174.8508 87.1106 0.0000 35.6698 0.0000
# 3 64.4040 87.1106 169.3341 0.0000 22.7313 0.0000
# 4 0.0000 0.0000 0.0000 -10.9890 0.0000 -29.8188
# 5 25.9683 35.6698 22.7313 0.0000 50.4161 0.0000
# 6 0.0000 0.0000 0.0000 -29.8188 0.0000 -23.1623
#
#
#
# Elastic Compliance Matrix: (Units=1/GPa)
#
#
# Indices 1 2 3 4 5 6 
#
# 1 0.014091 -0.003623 -0.003050 0.000000 -0.003320 0.000000
# 2 -0.003623 0.009413 -0.003003 0.000000 -0.003440 0.000000
# 3 -0.003050 -0.003003 0.008637 0.000000 -0.000199 0.000000
# 4 0.000000 0.000000 0.000000 0.036497 0.000000 -0.046986
# 5 -0.003320 -0.003440 -0.000199 0.000000 0.024068 0.000000
# 6 0.000000 0.000000 0.000000 -0.046986 0.000000 0.017316
#
#
# Mechanical properties :
#
#
# Convention : Reuss Voigt Hill
#
# Bulk Modulus (GPa) = 78.18543 100.13609 89.16076
# Shear Modulus (GPa) = 37.41486 18.58950 28.00218
#
# Velocity S-wave (km/s) = 4.20564 2.96445 3.63836
# Velocity P-wave (km/s) = 7.78102 7.68475 7.73303
#
# Compressibility (1/GPa) = 0.01279011
#
# Stress axis : x y z
#
# Youngs Moduli (GPa) = 70.96562 106.23630 115.78178
#
# Poissons Ratio (x) = 0.38486 0.35316
# Poissons Ratio (y) = 0.25708 0.34766
# Poissons Ratio (z) = 0.21646 0.31900
#
# Static dielectric constant tensor:
#      x y z
#    x 1.888490 0.000000 -0.029630 
#    y 0.000000 1.793410 0.000000 
#    z -0.029630 0.000000 1.797450 
# 
# From -- ./inp_files/13045.got.cif
#   From: 2010.05.17/outbox.cif.g08.bks.cpg/sg13_7_cif.got.tgz:13045.got - 2010.06.03 16:44:36.
