data_PCOD9227908
_publ_section_title
;
Structure prediction by ZEFSAII (Michael W. Deem and Ramdas Pophale) SiO2 
 PCOD9227908
Probable space group: P 2/C
;
_chemical_formula_sum "Si O2"
_cell_formula_units_Z 22
_cell_length_a 10.036478
_cell_length_b 22.080210
_cell_length_c 5.346292
_cell_angle_alpha 90.000000
_cell_angle_beta 98.517562
_cell_angle_gamma 90.000000
_cell_volume 1171.711126
_symmetry_space_group_name_H-M "P 2/C"
_symmetry_group_IT_number 13
_symmetry_cell_setting 'monoclinic'
loop_
_space_group_symop_operation_xyz
x,y,z
-x,y,1/2-z
-x,-y,-z
x,-y,1/2+z
loop_
_atom_site_type_symbol
_atom_site_label
_atom_site_fract_x
_atom_site_fract_y
_atom_site_fract_z
Si Si1 0.837064 0.964476 0.210646
Si Si2 0.000000 0.750898 0.250000
Si Si3 0.140870 0.332249 0.144986
Si Si4 0.844970 0.525545 0.941327
Si Si5 0.653734 0.232370 0.227575
Si Si6 0.761324 0.172858 0.774626
O O1 0.777479 0.898654 0.250520
O O2 0.000000 0.958975 0.250000
O O3 0.798917 0.008816 0.429165
O O4 0.907593 0.796916 0.382774
O O5 0.109444 0.704076 0.384696
O O6 0.159187 0.403187 0.108630
O O7 0.263328 0.294742 0.295427
O O8 0.000000 0.324378 0.250000
O O9 0.782279 0.491349 0.688637
O O10 0.000000 0.500000 0.000000
O O11 0.500000 0.245527 0.250000
O O12 0.715628 0.198053 0.488997
O O13 0.667904 0.192844 0.979407
#
# Coordination Sequence:
#
# PCOD9227908 Si02
#       6
#     4   2   4   4   4   4
#     4  10  20  34  56  90 124 150 184 241 300 345
#     4  10  20  32  54  94 110 146 190 248 286 342
#     4  11  20  34  58  85 117 146 193 243 289 343
#     4  10  19  30  50  80 115 143 180 231 289 333
#     4  11  25  40  59  85 119 158 194 241 295 347
#     4  11  21  38  62  82 122 149 197 235 296 348
#
# _framework density 18.775960000000001
#
# number of rings (size 3 to 8) (size 9 to 14) (size 15 to 20)
#    0.000    1.455    4.545    2.727    0.000    0.000 
#    0.000    0.000    0.000   12.000    0.000    0.000 
#    0.000    0.000    0.000    0.000    0.000    0.000 
#
# Total GULP energy -122531.200608 kJ/mol
# GULP energy per Si atom -5569.600028 kJ/mol
# Density = 1.873322 g / cm^3
# Si number density = 18.775960 Si / 1000 Ang^3
#
#
#
# Elastic Constant Matrix: (Units=GPa)
#
#
# Indices 1 2 3 4 5 6 
#
# 1 69.0977 45.5938 14.2742 0.0000 -18.0357 0.0000
# 2 45.5938 164.2463 39.0918 0.0000 -11.2822 0.0000
# 3 14.2742 39.0918 100.2981 0.0000 -23.7697 0.0000
# 4 0.0000 0.0000 0.0000 118.2289 0.0000 -141.9423
# 5 -18.0357 -11.2822 -23.7697 0.0000 22.5286 0.0000
# 6 0.0000 0.0000 0.0000 -141.9423 0.0000 211.2379
#
#
#
# Elastic Compliance Matrix: (Units=1/GPa)
#
#
# Indices 1 2 3 4 5 6 
#
# 1 0.022468 -0.005781 0.003510 0.000000 0.018795 0.000000
# 2 -0.005781 0.008209 -0.003333 0.000000 -0.004033 0.000000
# 3 0.003510 -0.003333 0.014721 0.000000 0.016673 0.000000
# 4 0.000000 0.000000 0.000000 0.043764 0.000000 0.029407
# 5 0.018795 -0.004033 0.016673 0.000000 0.075006 0.000000
# 6 0.000000 0.000000 0.000000 0.029407 0.000000 0.024494
#
#
# Mechanical properties :
#
#
# Convention : Reuss Voigt Hill
#
# Bulk Modulus (GPa) = 29.24830 59.06243 44.15536
# Shear Modulus (GPa) = 23.66674 86.04457 54.85566
#
# Velocity S-wave (km/s) = 3.55418 6.77691 5.41104
# Velocity P-wave (km/s) = 5.69686 9.63120 7.91247
#
# Compressibility (1/GPa) = 0.03419003
#
# Stress axis : x y z
#
# Youngs Moduli (GPa) = 44.50824 121.81111 67.93001
#
# Poissons Ratio (x) = 0.70422 -0.23843
# Poissons Ratio (y) = 0.25731 0.22640
# Poissons Ratio (z) = -0.15622 0.40597
#
# Static dielectric constant tensor:
#      x y z
#    x 1.661050 0.000000 0.007530 
#    y 0.000000 1.626080 0.000000 
#    z 0.007530 0.000000 1.856590 
# 
# From -- ./inp_files/2136.got.cif
#   From: 2010.05.17/outbox.cif.g08.bks.cpg/sg13_2_cif.got.tgz:2136.got - 2010.06.03 16:44:36.
