data_PCOD9227706
_publ_section_title
;
Structure prediction by ZEFSAII (Michael W. Deem and Ramdas Pophale) SiO2 
 PCOD9227706
Probable space group: P 2/C
;
_chemical_formula_sum "Si O2"
_cell_formula_units_Z 22
_cell_length_a 15.714520
_cell_length_b 14.882194
_cell_length_c 9.776636
_cell_angle_alpha 90.000000
_cell_angle_beta 23.759436
_cell_angle_gamma 90.000000
_cell_volume 921.195952
_symmetry_space_group_name_H-M "P 2/C"
_symmetry_group_IT_number 13
_symmetry_cell_setting 'monoclinic'
loop_
_space_group_symop_operation_xyz
x,y,z
-x,y,1/2-z
-x,-y,-z
x,-y,1/2+z
loop_
_atom_site_type_symbol
_atom_site_label
_atom_site_fract_x
_atom_site_fract_y
_atom_site_fract_z
Si Si1 0.281258 0.958919 0.886107
Si Si2 0.842257 0.310937 0.274321
Si Si3 0.690764 0.657169 0.290117
Si Si4 0.842159 0.524542 0.610169
Si Si5 0.245930 0.893524 0.644750
Si Si6 0.500000 0.188241 0.250000
O O1 0.183231 0.922495 0.889874
O O2 0.338615 0.880443 0.911539
O O3 0.500000 0.000000 0.500000
O O4 0.175309 0.038782 0.128997
O O5 0.700624 0.333965 0.613511
O O6 0.780354 0.374047 0.238358
O O7 0.829393 0.206863 0.263248
O O8 0.079056 0.327994 0.980343
O O9 0.659327 0.551077 0.369789
O O10 0.562636 0.740117 0.540359
O O11 0.000000 0.500000 0.500000
O O12 0.000000 0.521018 0.250000
O O13 0.500000 0.892522 0.250000
#
# Coordination Sequence:
#
# PCOD9227706 Si02
#       6
#     4   4   4   4   4   2
#     4  10  19  37  61  83 122 163 198 247 314 367
#     4  10  21  39  66  87 128 161 211 252 312 369
#     4  10  21  39  62  93 120 170 203 258 308 368
#     4  10  18  38  63  87 122 166 197 245 317 368
#     4  10  20  36  62  88 117 163 201 249 309 368
#     4  12  22  38  68  88 124 166 214 248 312 374
#
# _framework density 23.881996000000001
#
# number of rings (size 3 to 8) (size 9 to 14) (size 15 to 20)
#    0.000    1.818    6.364    2.182    0.000    2.909 
#    1.636    1.818    4.000    0.000    0.000    0.000 
#    0.000    0.000    0.000    0.000    0.000    0.000 
#
# Total GULP energy -122848.617317 kJ/mol
# GULP energy per Si atom -5584.028060 kJ/mol
# Density = 2.382764 g / cm^3
# Si number density = 23.881996 Si / 1000 Ang^3
#
#
#
# Elastic Constant Matrix: (Units=GPa)
#
#
# Indices 1 2 3 4 5 6 
#
# 1 75.0395 60.2329 13.1048 0.0000 26.9443 0.0000
# 2 60.2329 239.0869 44.2796 0.0000 32.9499 0.0000
# 3 13.1048 44.2796 52.4160 0.0000 29.7824 0.0000
# 4 0.0000 0.0000 0.0000 108.7477 0.0000 34.7247
# 5 26.9443 32.9499 29.7824 0.0000 47.6298 0.0000
# 6 0.0000 0.0000 0.0000 34.7247 0.0000 41.0463
#
#
#
# Elastic Compliance Matrix: (Units=1/GPa)
#
#
# Indices 1 2 3 4 5 6 
#
# 1 0.020164 -0.004464 0.005361 0.000000 -0.011671 0.000000
# 2 -0.004464 0.005996 -0.004695 0.000000 0.001314 0.000000
# 3 0.005361 -0.004695 0.033475 0.000000 -0.020716 0.000000
# 4 0.000000 0.000000 0.000000 0.012599 0.000000 -0.010659
# 5 -0.011671 0.001314 -0.020716 0.000000 0.039642 0.000000
# 6 0.000000 0.000000 0.000000 -0.010659 0.000000 0.033380
#
#
# Mechanical properties :
#
#
# Convention : Reuss Voigt Hill
#
# Bulk Modulus (GPa) = 19.21660 66.86410 43.04035
# Shear Modulus (GPa) = 29.37732 56.07978 42.72855
#
# Velocity S-wave (km/s) = 3.51109 4.85108 4.23443
# Velocity P-wave (km/s) = 4.94984 7.70946 6.47830
#
# Compressibility (1/GPa) = 0.05203834
#
# Stress axis : x y z
#
# Youngs Moduli (GPa) = 49.59292 166.78172 29.87296
#
# Poissons Ratio (x) = 0.74459 -0.16016
# Poissons Ratio (y) = 0.22141 0.14026
# Poissons Ratio (z) = -0.26589 0.78310
#
# Static dielectric constant tensor:
#      x y z
#    x 1.941560 0.000000 -0.077070 
#    y 0.000000 2.079170 0.000000 
#    z -0.077070 0.000000 1.974700 
# 
# From -- ./inp_files/21921.got.cif
#   From: 2010.05.17/outbox.cif.g08.bks.cpg/sg13_11_cif.got.tgz:21921.got - 2010.06.03 16:44:36.
