data_PCOD9227282
_publ_section_title
;
Structure prediction by ZEFSAII (Michael W. Deem and Ramdas Pophale) SiO2 
 PCOD9227282
Probable space group: P 2/C
;
_chemical_formula_sum "Si O2"
_cell_formula_units_Z 28
_cell_length_a 11.640159
_cell_length_b 8.917371
_cell_length_c 17.123243
_cell_angle_alpha 90.000000
_cell_angle_beta 121.397693
_cell_angle_gamma 90.000000
_cell_volume 1517.126568
_symmetry_space_group_name_H-M "P 2/C"
_symmetry_group_IT_number 13
_symmetry_cell_setting 'monoclinic'
loop_
_space_group_symop_operation_xyz
x,y,z
-x,y,1/2-z
-x,-y,-z
x,-y,1/2+z
loop_
_atom_site_type_symbol
_atom_site_label
_atom_site_fract_x
_atom_site_fract_y
_atom_site_fract_z
Si Si1 0.727494 0.497606 0.782976
Si Si2 0.860588 0.067926 0.918498
Si Si3 0.292580 0.332116 0.560847
Si Si4 0.961073 0.279023 0.826554
Si Si5 0.653309 0.797492 0.832621
Si Si6 0.443178 0.380508 0.917540
Si Si7 0.251233 0.348308 0.978537
O O1 0.685776 0.406877 0.846275
O O2 0.724408 0.671936 0.803418
O O3 0.620436 0.465653 0.677927
O O4 0.869235 0.427198 0.805769
O O5 0.809333 0.197501 0.959724
O O6 0.882839 0.145200 0.841905
O O7 0.743532 0.945418 0.868507
O O8 0.000000 0.000000 0.000000
O O9 0.433501 0.283788 0.571748
O O10 0.243408 0.472271 0.490789
O O11 0.099189 0.293233 0.923709
O O12 0.000000 0.258357 0.750000
O O13 0.500000 0.819834 0.750000
O O14 0.661530 0.723659 0.921570
O O15 0.322466 0.305692 0.922502
O O16 0.500000 0.500000 0.000000
#
# Coordination Sequence:
#
# PCOD9227282 Si02
#       7
#     4   4   4   4   4   4   4
#     4  10  20  35  64  88 118 152 204 256 303 350
#     4  11  24  41  61  85 127 169 206 244 299 371
#     4   9  21  35  61  88 113 158 205 250 301 358
#     4  11  22  40  62  92 122 161 198 254 308 359
#     4  11  23  41  62  91 124 162 207 248 302 366
#     4  10  18  34  57  91 121 146 195 261 307 346
#     4  10  20  38  64  90 123 152 201 260 309 350
#
# _framework density 18.455942
#
# number of rings (size 3 to 8) (size 9 to 14) (size 15 to 20)
#    0.000    1.714    2.857    3.000    2.000    4.000 
#    0.000    5.714    0.000    0.000    0.000    0.000 
#    0.000    0.000    0.000    0.000    0.000    0.000 
#
# Total GULP energy -156103.622944 kJ/mol
# GULP energy per Si atom -5575.129391 kJ/mol
# Density = 1.841394 g / cm^3
# Si number density = 18.455942 Si / 1000 Ang^3
#
#
#
# Elastic Constant Matrix: (Units=GPa)
#
#
# Indices 1 2 3 4 5 6 
#
# 1 117.6308 57.5963 26.4762 0.0000 -6.4713 0.0000
# 2 57.5963 96.1880 18.3998 0.0000 1.0488 0.0000
# 3 26.4762 18.3998 60.3314 0.0000 3.9884 0.0000
# 4 0.0000 0.0000 0.0000 14.7993 0.0000 4.9951
# 5 -6.4713 1.0488 3.9884 0.0000 40.2447 0.0000
# 6 0.0000 0.0000 0.0000 4.9951 0.0000 26.2802
#
#
#
# Elastic Compliance Matrix: (Units=1/GPa)
#
#
# Indices 1 2 3 4 5 6 
#
# 1 0.012939 -0.007070 -0.003696 0.000000 0.002631 0.000000
# 2 -0.007070 0.014903 -0.001351 0.000000 -0.001391 0.000000
# 3 -0.003696 -0.001351 0.018769 0.000000 -0.002419 0.000000
# 4 0.000000 0.000000 0.000000 0.072203 0.000000 -0.013724
# 5 0.002631 -0.001391 -0.002419 0.000000 0.025547 0.000000
# 6 0.000000 0.000000 0.000000 -0.013724 0.000000 0.040660
#
#
# Mechanical properties :
#
#
# Convention : Reuss Voigt Hill
#
# Bulk Modulus (GPa) = 44.68588 53.23275 48.95932
# Shear Modulus (GPa) = 23.07188 27.71003 25.39096
#
# Velocity S-wave (km/s) = 3.53952 3.87901 3.71315
# Velocity P-wave (km/s) = 6.40070 6.99772 6.70586
#
# Compressibility (1/GPa) = 0.02237843
#
# Stress axis : x y z
#
# Youngs Moduli (GPa) = 77.28317 67.10033 53.27917
#
# Poissons Ratio (x) = 0.47437 0.19693
# Poissons Ratio (y) = 0.54636 0.07196
# Poissons Ratio (z) = 0.28566 0.09063
#
# Static dielectric constant tensor:
#      x y z
#    x 1.686750 0.000000 -0.004890 
#    y 0.000000 1.632870 0.000000 
#    z -0.004890 0.000000 1.633100 
# 
# From -- ./inp_files/50100.got.cif
#   From: 2010.05.17/outbox.cif.g08.bks.cpg/sg13_26_cif.got.tgz:50100.got - 2010.06.03 16:44:36.
