data_PCOD9227618
_publ_section_title
;
Structure prediction by ZEFSAII (Michael W. Deem and Ramdas Pophale) SiO2 
 PCOD9227618
Probable space group: P 2/C
;
_chemical_formula_sum "Si O2"
_cell_formula_units_Z 26
_cell_length_a 5.453359
_cell_length_b 8.130925
_cell_length_c 28.864387
_cell_angle_alpha 90.000000
_cell_angle_beta 70.826307
_cell_angle_gamma 90.000000
_cell_volume 1208.873570
_symmetry_space_group_name_H-M "P 2/C"
_symmetry_group_IT_number 13
_symmetry_cell_setting 'monoclinic'
loop_
_space_group_symop_operation_xyz
x,y,z
-x,y,1/2-z
-x,-y,-z
x,-y,1/2+z
loop_
_atom_site_type_symbol
_atom_site_label
_atom_site_fract_x
_atom_site_fract_y
_atom_site_fract_z
Si Si1 0.000000 0.639937 0.750000
Si Si2 0.596177 0.915401 0.922131
Si Si3 0.124394 0.914133 0.393532
Si Si4 0.617582 0.641832 0.847312
Si Si5 0.818218 0.433811 0.578524
Si Si6 0.307200 0.880779 0.798307
Si Si7 0.710200 0.642023 0.982749
O O1 0.186358 0.552485 0.700800
O O2 0.141566 0.765505 0.775515
O O3 0.709940 0.785682 0.876723
O O4 0.569485 0.797424 0.968475
O O5 0.340477 0.002258 0.915399
O O6 0.827460 0.036880 0.922003
O O7 0.136897 0.718172 0.390756
O O8 0.182348 0.987963 0.339590
O O9 0.446115 0.521708 0.889487
O O10 0.440646 0.748342 0.823806
O O11 0.809238 0.343287 0.529129
O O12 0.043310 0.571444 0.561319
O O13 0.500000 0.966162 0.750000
O O14 0.500000 0.500000 0.000000
#
# Coordination Sequence:
#
# PCOD9227618 Si02
#       7
#     2   4   4   4   4   4   4
#     4  10  18  36  70 100 118 178 232 268 318 424
#     4  11  23  43  70  95 137 178 229 267 340 404
#     4  11  25  43  66 103 136 178 215 293 339 399
#     4  10  20  39  66  97 130 178 221 273 322 411
#     4  11  26  42  67  99 142 172 227 282 343 381
#     4   9  19  37  64  94 128 174 227 266 335 408
#     4  11  24  44  68  96 131 188 227 275 327 413
#
# _framework density 21.507625999999998
#
# number of rings (size 3 to 8) (size 9 to 14) (size 15 to 20)
#    0.000    1.538    3.077    1.846    4.308    1.231 
#    0.000    2.308    0.000    0.923    0.000    0.000 
#    0.000    0.000    0.000    0.000    0.000    0.000 
#
# Total GULP energy -144902.034274 kJ/mol
# GULP energy per Si atom -5573.155164 kJ/mol
# Density = 2.145867 g / cm^3
# Si number density = 21.507626 Si / 1000 Ang^3
#
#
#
# Elastic Constant Matrix: (Units=GPa)
#
#
# Indices 1 2 3 4 5 6 
#
# 1 75.6004 10.2544 30.0583 0.0000 0.8009 0.0000
# 2 10.2544 63.7230 27.9718 0.0000 -10.8415 0.0000
# 3 30.0583 27.9718 91.7194 0.0000 -13.7164 0.0000
# 4 0.0000 0.0000 0.0000 23.6145 0.0000 6.6436
# 5 0.8009 -10.8415 -13.7164 0.0000 39.9164 0.0000
# 6 0.0000 0.0000 0.0000 6.6436 0.0000 8.5087
#
#
#
# Elastic Compliance Matrix: (Units=1/GPa)
#
#
# Indices 1 2 3 4 5 6 
#
# 1 0.015400 -0.000576 -0.005209 0.000000 -0.002255 0.000000
# 2 -0.000576 0.018533 -0.004964 0.000000 0.003339 0.000000
# 3 -0.005209 -0.004964 0.014693 0.000000 0.003805 0.000000
# 4 0.000000 0.000000 0.000000 0.054268 0.000000 -0.042372
# 5 -0.002255 0.003339 0.003805 0.000000 0.027312 0.000000
# 6 0.000000 0.000000 0.000000 -0.042372 0.000000 0.150611
#
#
# Mechanical properties :
#
#
# Convention : Reuss Voigt Hill
#
# Bulk Modulus (GPa) = 36.86043 40.84574 38.85309
# Shear Modulus (GPa) = 16.05876 25.25845 20.65861
#
# Velocity S-wave (km/s) = 2.73546 3.43066 3.10260
# Velocity P-wave (km/s) = 5.21081 5.89280 5.56227
#
# Compressibility (1/GPa) = 0.02712936
#
# Stress axis : x y z
#
# Youngs Moduli (GPa) = 64.93350 53.95886 68.06082
#
# Poissons Ratio (x) = 0.03105 0.35451
# Poissons Ratio (y) = 0.03737 0.33785
# Poissons Ratio (z) = 0.33822 0.26785
#
# Static dielectric constant tensor:
#      x y z
#    x 1.781650 0.000000 -0.187080 
#    y 0.000000 1.780540 0.000000 
#    z -0.187080 0.000000 1.670670 
# 
# From -- ./inp_files/94741.got.cif
#   From: 2010.05.17/outbox.cif.g08.bks.cpg/sg13_48_cif.got.tgz:94741.got - 2010.06.03 16:44:36.
