data_PCOD9227895
_publ_section_title
;
Structure prediction by ZEFSAII (Michael W. Deem and Ramdas Pophale) SiO2 
 PCOD9227895
Probable space group: P 2/C
;
_chemical_formula_sum "Si O2"
_cell_formula_units_Z 24
_cell_length_a 4.965251
_cell_length_b 10.822602
_cell_length_c 24.275007
_cell_angle_alpha 90.000000
_cell_angle_beta 78.546173
_cell_angle_gamma 90.000000
_cell_volume 1278.486140
_symmetry_space_group_name_H-M "P 2/C"
_symmetry_group_IT_number 13
_symmetry_cell_setting 'monoclinic'
loop_
_space_group_symop_operation_xyz
x,y,z
-x,y,1/2-z
-x,-y,-z
x,-y,1/2+z
loop_
_atom_site_type_symbol
_atom_site_label
_atom_site_fract_x
_atom_site_fract_y
_atom_site_fract_z
Si Si1 0.283229 0.093293 0.438418
Si Si2 0.976940 0.309512 0.863839
Si Si3 0.792224 0.928717 0.431174
Si Si4 0.413659 0.357152 0.399654
Si Si5 0.857709 0.523487 0.947599
Si Si6 0.546417 0.567803 0.312453
O O1 0.231527 0.123544 0.505270
O O2 0.413742 0.210038 0.402464
O O3 0.492115 0.978186 0.427965
O O4 0.994599 0.046213 0.426737
O O5 0.915756 0.170730 0.884361
O O6 0.843125 0.393629 0.917176
O O7 0.818401 0.355410 0.816046
O O8 0.292520 0.350680 0.846347
O O9 0.570533 0.407473 0.448387
O O10 0.550222 0.437073 0.345068
O O11 0.093555 0.393560 0.409485
O O12 0.000000 0.500000 0.000000
O O13 0.500000 0.548582 0.250000
#
# Coordination Sequence:
#
# PCOD9227895 Si02
#       6
#     4   4   4   4   4   4
#     4  10  20  33  51  76 112 147 172 201 246 312
#     4  10  20  34  54  79 104 135 175 216 265 319
#     4  10  20  33  51  77 109 145 173 201 247 313
#     4  10  20  33  51  76 102 136 176 212 259 313
#     4  10  19  30  49  76 107 134 164 213 263 314
#     4  10  21  37  57  77  99 132 175 230 279 308
#
# _framework density 18.772200000000002
#
# number of rings (size 3 to 8) (size 9 to 14) (size 15 to 20)
#    0.000    2.000    0.000    4.000    0.000    5.333 
#    0.000    0.000    0.000    6.000    0.000    0.000 
#    0.000    0.000    0.000    0.000    0.000    0.000 
#
# Total GULP energy -133816.880525 kJ/mol
# GULP energy per Si atom -5575.703355 kJ/mol
# Density = 1.872947 g / cm^3
# Si number density = 18.772200 Si / 1000 Ang^3
#
#
#
# Elastic Constant Matrix: (Units=GPa)
#
#
# Indices 1 2 3 4 5 6 
#
# 1 77.3676 -1.7576 -3.7498 0.0000 8.4913 0.0000
# 2 -1.7576 71.9238 29.5360 0.0000 -1.5852 0.0000
# 3 -3.7498 29.5360 76.3445 0.0000 13.7050 0.0000
# 4 0.0000 0.0000 0.0000 10.6946 0.0000 -4.0100
# 5 8.4913 -1.5852 13.7050 0.0000 25.5648 0.0000
# 6 0.0000 0.0000 0.0000 -4.0100 0.0000 18.2994
#
#
#
# Elastic Compliance Matrix: (Units=1/GPa)
#
#
# Indices 1 2 3 4 5 6 
#
# 1 0.013615 -0.000565 0.001887 0.000000 -0.005569 0.000000
# 2 -0.000565 0.017134 -0.007614 0.000000 0.005332 0.000000
# 3 0.001887 -0.007614 0.018073 0.000000 -0.010788 0.000000
# 4 0.000000 0.000000 0.000000 0.101876 0.000000 0.022324
# 5 -0.005569 0.005332 -0.010788 0.000000 0.047080 0.000000
# 6 0.000000 0.000000 0.000000 0.022324 0.000000 0.059539
#
#
# Mechanical properties :
#
#
# Convention : Reuss Voigt Hill
#
# Bulk Modulus (GPa) = 27.59441 30.41036 29.00238
# Shear Modulus (GPa) = 17.73178 24.35223 21.04201
#
# Velocity S-wave (km/s) = 3.07673 3.60564 3.35164
# Velocity P-wave (km/s) = 5.23003 5.79388 5.51916
#
# Compressibility (1/GPa) = 0.03623923
#
# Stress axis : x y z
#
# Youngs Moduli (GPa) = 73.44773 58.36386 55.33024
#
# Poissons Ratio (x) = 0.03297 -0.10441
# Poissons Ratio (y) = 0.04149 0.42126
# Poissons Ratio (z) = -0.13860 0.44436
#
# Static dielectric constant tensor:
#      x y z
#    x 1.672190 0.000000 0.004710 
#    y 0.000000 1.644680 0.000000 
#    z 0.004710 0.000000 1.687410 
# 
# From -- ./inp_files/83338.got.cif
#   From: 2010.05.17/outbox.cif.g08.bks.cpg/sg13_42_cif.got.tgz:83338.got - 2010.06.03 16:44:36.
