data_PCOD9227690
_publ_section_title
;
Structure prediction by ZEFSAII (Michael W. Deem and Ramdas Pophale) SiO2 
 PCOD9227690
Probable space group: P 2/C
;
_chemical_formula_sum "Si O2"
_cell_formula_units_Z 32
_cell_length_a 9.143084
_cell_length_b 23.247604
_cell_length_c 15.552972
_cell_angle_alpha 90.000000
_cell_angle_beta 151.298519
_cell_angle_gamma 90.000000
_cell_volume 1587.626024
_symmetry_space_group_name_H-M "P 2/C"
_symmetry_group_IT_number 13
_symmetry_cell_setting 'monoclinic'
loop_
_space_group_symop_operation_xyz
x,y,z
-x,y,1/2-z
-x,-y,-z
x,-y,1/2+z
loop_
_atom_site_type_symbol
_atom_site_label
_atom_site_fract_x
_atom_site_fract_y
_atom_site_fract_z
Si Si1 0.275582 0.581719 0.442680
Si Si2 0.695691 0.660047 0.434336
Si Si3 0.367961 0.742821 0.947853
Si Si4 0.631437 0.127583 0.054191
Si Si5 0.616019 0.076783 0.399255
Si Si6 0.748347 0.455919 0.048459
Si Si7 0.597270 0.315180 0.204122
Si Si8 0.660111 0.950008 0.242483
O O1 0.200320 0.521702 0.452885
O O2 0.449635 0.555542 0.450221
O O3 0.460083 0.624332 0.598469
O O4 0.000000 0.611667 0.250000
O O5 0.500000 0.672419 0.250000
O O6 0.554868 0.692722 0.444501
O O7 0.732382 0.591787 0.467421
O O8 0.038944 0.681963 0.604604
O O9 0.446747 0.807353 0.014668
O O10 0.493238 0.728715 0.917938
O O11 0.000000 0.741038 0.750000
O O12 0.472264 0.114042 0.063412
O O13 0.000000 0.122359 0.250000
O O14 0.500689 0.083460 0.917644
O O15 0.500000 0.103971 0.250000
O O16 0.975940 0.061460 0.575265
O O17 0.423415 0.017401 0.309230
O O18 0.000000 0.440477 0.250000
O O19 0.500000 0.301845 0.250000
O O20 0.500000 0.931947 0.250000
#
# Coordination Sequence:
#
# PCOD9227690 Si02
#       8
#     4   4   4   4   4   4   4   4
#     4  10  21  34  60  88 118 149 189 237 300 348
#     4  11  22  40  63  84 112 156 198 236 295 359
#     4   9  21  43  63  81 115 157 200 247 297 346
#     4  11  22  39  64  90 119 160 206 252 301 359
#     4  11  22  39  62  93 129 165 202 247 298 353
#     4  10  18  38  61  83 115 157 188 236 291 361
#     4  11  23  40  60  88 116 148 194 249 293 351
#     4  11  22  39  62  93 129 165 202 247 296 355
#
# _framework density 20.155878999999999
#
# number of rings (size 3 to 8) (size 9 to 14) (size 15 to 20)
#    0.000    1.500    2.500    4.125    1.750    1.500 
#    0.000    7.500    0.000    0.000    0.000    0.000 
#    0.000    0.000    0.000    0.000    0.000    0.000 
#
# Total GULP energy -178453.586696 kJ/mol
# GULP energy per Si atom -5576.674584 kJ/mol
# Density = 2.011000 g / cm^3
# Si number density = 20.155879 Si / 1000 Ang^3
#
#
#
# Elastic Constant Matrix: (Units=GPa)
#
#
# Indices 1 2 3 4 5 6 
#
# 1 93.9084 12.1054 19.2924 0.0000 -3.1757 0.0000
# 2 12.1054 44.7401 8.5274 0.0000 -8.5233 0.0000
# 3 19.2924 8.5274 94.5514 0.0000 -0.5996 0.0000
# 4 0.0000 0.0000 0.0000 14.9555 0.0000 5.5833
# 5 -3.1757 -8.5233 -0.5996 0.0000 37.9137 0.0000
# 6 0.0000 0.0000 0.0000 5.5833 0.0000 8.3078
#
#
#
# Elastic Compliance Matrix: (Units=1/GPa)
#
#
# Indices 1 2 3 4 5 6 
#
# 1 0.011429 -0.002630 -0.002093 0.000000 0.000333 0.000000
# 2 -0.002630 0.024370 -0.001628 0.000000 0.005233 0.000000
# 3 -0.002093 -0.001628 0.011148 0.000000 -0.000365 0.000000
# 4 0.000000 0.000000 0.000000 0.089260 0.000000 -0.059987
# 5 0.000333 0.005233 -0.000365 0.000000 0.027574 0.000000
# 6 0.000000 0.000000 0.000000 -0.059987 0.000000 0.160682
#
#
# Mechanical properties :
#
#
# Convention : Reuss Voigt Hill
#
# Bulk Modulus (GPa) = 29.20119 34.78337 31.99228
# Shear Modulus (GPa) = 14.34393 25.12038 19.73216
#
# Velocity S-wave (km/s) = 2.67057 3.53413 3.13226
# Velocity P-wave (km/s) = 4.90188 5.82650 5.38407
#
# Compressibility (1/GPa) = 0.03424518
#
# Stress axis : x y z
#
# Youngs Moduli (GPa) = 87.49771 41.03392 89.70408
#
# Poissons Ratio (x) = 0.10792 0.18772
# Poissons Ratio (y) = 0.23012 0.14605
# Poissons Ratio (z) = 0.18310 0.06681
#
# Static dielectric constant tensor:
#      x y z
#    x 1.778670 0.000000 0.063820 
#    y 0.000000 1.825960 0.000000 
#    z 0.063820 0.000000 1.653920 
# 
# From -- ./inp_files/48306.got.cif
#   From: 2010.05.17/outbox.cif.g08.bks.cpg/sg13_25_cif.got.tgz:48306.got - 2010.06.03 16:44:36.
