data_PCOD9227090
_publ_section_title
;
Structure prediction by ZEFSAII (Michael W. Deem and Ramdas Pophale) SiO2 
 PCOD9227090
Probable space group: P 2/C
;
_chemical_formula_sum "Si O2"
_cell_formula_units_Z 28
_cell_length_a 5.317186
_cell_length_b 8.816664
_cell_length_c 29.835601
_cell_angle_alpha 90.000000
_cell_angle_beta 108.119225
_cell_angle_gamma 90.000000
_cell_volume 1329.329327
_symmetry_space_group_name_H-M "P 2/C"
_symmetry_group_IT_number 13
_symmetry_cell_setting 'monoclinic'
loop_
_space_group_symop_operation_xyz
x,y,z
-x,y,1/2-z
-x,-y,-z
x,-y,1/2+z
loop_
_atom_site_type_symbol
_atom_site_label
_atom_site_fract_x
_atom_site_fract_y
_atom_site_fract_z
Si Si1 0.172745 0.191893 0.647471
Si Si2 0.935645 0.402526 0.934812
Si Si3 0.000000 0.921353 0.750000
Si Si4 0.118325 0.887095 0.851147
Si Si5 0.386411 0.984402 0.578691
Si Si6 0.979734 0.245835 0.062503
Si Si7 0.499217 0.749143 0.475526
Si Si8 0.500000 0.125976 0.750000
O O1 0.084729 0.345682 0.618166
O O2 0.289546 0.101642 0.611311
O O3 0.371080 0.211863 0.700285
O O4 0.955675 0.068081 0.652190
O O5 0.935369 0.582391 0.939178
O O6 0.219420 0.333179 0.965479
O O7 0.696502 0.341363 0.952489
O O8 0.048133 0.830781 0.798262
O O9 0.262875 0.022403 0.756542
O O10 0.419462 0.877756 0.882505
O O11 0.978095 0.800916 0.883615
O O12 0.148067 0.883461 0.546379
O O13 0.531614 0.086704 0.549615
O O14 0.675812 0.237113 0.029740
#
# Coordination Sequence:
#
# PCOD9227090 Si02
#       8
#     4   4   2   4   4   4   4   2
#     4   9  19  37  58  88 113 154 196 249 291 359
#     4  11  24  41  61  86 124 162 205 248 304 364
#     4  10  20  36  62  92 114 152 196 252 296 366
#     4  10  20  37  62  85 121 149 202 244 309 349
#     4  10  20  38  59  90 116 158 196 256 297 356
#     4  11  25  37  60  90 123 164 199 254 307 369
#     4  11  24  42  61  86 122 165 209 246 297 368
#     4  10  18  32  64  88 112 146 202 246 298 344
#
# _framework density 21.063251999999999
#
# number of rings (size 3 to 8) (size 9 to 14) (size 15 to 20)
#    0.000    1.714    2.857    1.286    4.000    0.571 
#    0.000    0.000    3.143    0.857    0.000    0.000 
#    0.000    0.000    0.000    0.000    0.000    0.000 
#
# Total GULP energy -156247.712479 kJ/mol
# GULP energy per Si atom -5580.275446 kJ/mol
# Density = 2.101531 g / cm^3
# Si number density = 21.063252 Si / 1000 Ang^3
#
#
#
# Elastic Constant Matrix: (Units=GPa)
#
#
# Indices 1 2 3 4 5 6 
#
# 1 73.8700 13.4344 4.9752 0.0000 7.9784 0.0000
# 2 13.4344 81.5253 36.0295 0.0000 -0.3496 0.0000
# 3 4.9752 36.0295 148.9175 0.0000 7.0976 0.0000
# 4 0.0000 0.0000 0.0000 17.4477 0.0000 -0.8748
# 5 7.9784 -0.3496 7.0976 0.0000 31.4460 0.0000
# 6 0.0000 0.0000 0.0000 -0.8748 0.0000 17.2003
#
#
#
# Elastic Compliance Matrix: (Units=1/GPa)
#
#
# Indices 1 2 3 4 5 6 
#
# 1 0.014380 -0.002522 0.000308 0.000000 -0.003746 0.000000
# 2 -0.002522 0.014203 -0.003427 0.000000 0.001571 0.000000
# 3 0.000308 -0.003427 0.007621 0.000000 -0.001837 0.000000
# 4 0.000000 0.000000 0.000000 0.057461 0.000000 0.002922
# 5 -0.003746 0.001571 -0.001837 0.000000 0.033183 0.000000
# 6 0.000000 0.000000 0.000000 0.002922 0.000000 0.058287
#
#
# Mechanical properties :
#
#
# Convention : Reuss Voigt Hill
#
# Bulk Modulus (GPa) = 40.12347 45.91010 43.01678
# Shear Modulus (GPa) = 24.42314 29.87705 27.15009
#
# Velocity S-wave (km/s) = 3.40886 3.77031 3.59413
# Velocity P-wave (km/s) = 5.88083 6.38727 6.13928
#
# Compressibility (1/GPa) = 0.02492307
#
# Stress axis : x y z
#
# Youngs Moduli (GPa) = 69.54219 70.40783 131.20802
#
# Poissons Ratio (x) = 0.17756 -0.04045
# Poissons Ratio (y) = 0.17538 0.44964
# Poissons Ratio (z) = -0.02144 0.24128
#
# Static dielectric constant tensor:
#      x y z
#    x 1.832170 0.000000 -0.019640 
#    y 0.000000 1.757910 0.000000 
#    z -0.019640 0.000000 1.794510 
# 
# From -- ./inp_files/90266.got.cif
#   From: 2010.05.17/outbox.cif.g08.bks.cpg/sg13_46_cif.got.tgz:90266.got - 2010.06.03 16:44:36.
