data_PCOD9227296
_publ_section_title
;
Structure prediction by ZEFSAII (Michael W. Deem and Ramdas Pophale) SiO2 
 PCOD9227296
Probable space group: P 2/C
;
_chemical_formula_sum "Si O2"
_cell_formula_units_Z 30
_cell_length_a 12.167733
_cell_length_b 7.469357
_cell_length_c 13.607865
_cell_angle_alpha 90.000000
_cell_angle_beta 89.314072
_cell_angle_gamma 90.000000
_cell_volume 1236.664113
_symmetry_space_group_name_H-M "P 2/C"
_symmetry_group_IT_number 13
_symmetry_cell_setting 'monoclinic'
loop_
_space_group_symop_operation_xyz
x,y,z
-x,y,1/2-z
-x,-y,-z
x,-y,1/2+z
loop_
_atom_site_type_symbol
_atom_site_label
_atom_site_fract_x
_atom_site_fract_y
_atom_site_fract_z
Si Si1 0.613686 0.815431 0.213232
Si Si2 0.034348 0.801989 0.466960
Si Si3 0.732395 0.944019 0.024586
Si Si4 0.000000 0.652913 0.250000
Si Si5 0.388369 0.533148 0.906775
Si Si6 0.229519 0.545125 0.188076
Si Si7 0.601320 0.693969 0.896329
Si Si8 0.825431 0.341442 0.025617
O O1 0.500000 0.901487 0.250000
O O2 0.677695 0.929777 0.131984
O O3 0.574581 0.637037 0.155764
O O4 0.701879 0.726750 0.286528
O O5 0.165272 0.804591 0.478062
O O6 0.006778 0.765917 0.352206
O O7 0.956316 0.678565 0.536515
O O8 0.000000 0.000000 0.500000
O O9 0.777170 0.141892 0.009396
O O10 0.647571 0.874286 0.943608
O O11 0.886325 0.543575 0.254223
O O12 0.471234 0.692377 0.879932
O O13 0.259471 0.574599 0.896353
O O14 0.394251 0.461174 0.018843
O O15 0.317250 0.381872 0.187525
O O16 0.188892 0.558560 0.076665
#
# Coordination Sequence:
#
# PCOD9227296 Si02
#       8
#     4   4   4   2   4   4   4   4
#     4  11  20  35  57  77 108 149 186 223 277 339
#     4   9  18  35  58  82 114 150 186 226 286 341
#     4  10  20  36  57  83 108 144 188 225 280 338
#     4  10  18  34  58  84 110 146 192 242 274 334
#     4   9  18  34  52  75 104 144 177 217 271 328
#     4  10  19  36  56  80 108 144 187 231 284 325
#     4   9  18  33  54  75 105 140 181 220 268 333
#     4   9  20  36  56  80 109 144 183 229 278 331
#
# _framework density 24.25881
#
# number of rings (size 3 to 8) (size 9 to 14) (size 15 to 20)
#    0.000    2.400    2.667    0.000    1.867    0.533 
#    2.400    4.667    2.933    0.800    0.000    0.000 
#    0.000    0.000    0.000    0.000    0.000    0.000 
#
# Total GULP energy -167388.250302 kJ/mol
# GULP energy per Si atom -5579.608343 kJ/mol
# Density = 2.420360 g / cm^3
# Si number density = 24.258810 Si / 1000 Ang^3
#
#
#
# Elastic Constant Matrix: (Units=GPa)
#
#
# Indices 1 2 3 4 5 6 
#
# 1 138.7080 21.7719 35.1677 0.0000 -34.7650 0.0000
# 2 21.7719 64.3958 12.0497 0.0000 -8.7302 0.0000
# 3 35.1677 12.0497 91.5614 0.0000 -26.2593 0.0000
# 4 0.0000 0.0000 0.0000 12.9221 0.0000 -0.2883
# 5 -34.7650 -8.7302 -26.2593 0.0000 50.6057 0.0000
# 6 0.0000 0.0000 0.0000 -0.2883 0.0000 23.6813
#
#
#
# Elastic Compliance Matrix: (Units=1/GPa)
#
#
# Indices 1 2 3 4 5 6 
#
# 1 0.009272 -0.002106 -0.001834 0.000000 0.005054 0.000000
# 2 -0.002106 0.016565 -0.001135 0.000000 0.000822 0.000000
# 3 -0.001834 -0.001135 0.013344 0.000000 0.005468 0.000000
# 4 0.000000 0.000000 0.000000 0.077408 0.000000 0.000942
# 5 0.005054 0.000822 0.005468 0.000000 0.026212 0.000000
# 6 0.000000 0.000000 0.000000 0.000942 0.000000 0.042239
#
#
# Mechanical properties :
#
#
# Convention : Reuss Voigt Hill
#
# Bulk Modulus (GPa) = 34.44909 48.07155 41.26032
# Shear Modulus (GPa) = 24.40596 32.48686 28.44641
#
# Velocity S-wave (km/s) = 3.17530 3.66345 3.42807
# Velocity P-wave (km/s) = 5.26069 6.14440 5.71963
#
# Compressibility (1/GPa) = 0.02902834
#
# Stress axis : x y z
#
# Youngs Moduli (GPa) = 107.85288 60.36856 74.94092
#
# Poissons Ratio (x) = 0.12715 0.13748
# Poissons Ratio (y) = 0.22717 0.08509
# Poissons Ratio (z) = 0.19785 0.06854
#
# Static dielectric constant tensor:
#      x y z
#    x 2.028280 0.000000 -0.038690 
#    y 0.000000 1.913020 0.000000 
#    z -0.038690 0.000000 2.016030 
# 
# From -- ./inp_files/50311.got.cif
#   From: 2010.05.17/outbox.cif.g08.bks.cpg/sg13_26_cif.got.tgz:50311.got - 2010.06.03 16:44:36.
