data_PCOD9227589
_publ_section_title
;
Structure prediction by ZEFSAII (Michael W. Deem and Ramdas Pophale) SiO2 
 PCOD9227589
Probable space group: P 2/C
;
_chemical_formula_sum "Si O2"
_cell_formula_units_Z 24
_cell_length_a 29.456741
_cell_length_b 7.966696
_cell_length_c 14.371346
_cell_angle_alpha 90.000000
_cell_angle_beta 19.744423
_cell_angle_gamma 90.000000
_cell_volume 1139.337279
_symmetry_space_group_name_H-M "P 2/C"
_symmetry_group_IT_number 13
_symmetry_cell_setting 'monoclinic'
loop_
_space_group_symop_operation_xyz
x,y,z
-x,y,1/2-z
-x,-y,-z
x,-y,1/2+z
loop_
_atom_site_type_symbol
_atom_site_label
_atom_site_fract_x
_atom_site_fract_y
_atom_site_fract_z
Si Si1 0.160821 0.250101 0.112086
Si Si2 0.500000 0.694339 0.250000
Si Si3 0.083202 0.417495 0.995923
Si Si4 0.774368 0.769362 0.808606
Si Si5 0.432206 0.558065 0.034437
Si Si6 0.795392 0.919716 0.156368
Si Si7 0.500000 0.808983 0.750000
O O1 0.193791 0.175785 0.148184
O O2 0.027374 0.362754 0.366383
O O3 0.288409 0.363091 0.835910
O O4 0.149429 0.111659 0.053237
O O5 0.383709 0.772736 0.410571
O O6 0.582429 0.588413 0.013493
O O7 0.000000 0.459655 0.250000
O O8 0.173453 0.577915 0.798924
O O9 0.162737 0.246807 0.867143
O O10 0.839748 0.905098 0.614057
O O11 0.517058 0.692926 0.809442
O O12 0.500000 0.500000 0.000000
O O13 0.633302 0.911920 0.469995
#
# Coordination Sequence:
#
# PCOD9227589 Si02
#       7
#     4   2   4   4   4   4   2
#     4  10  22  41  63  95 128 165 212 261 315 373
#     4  11  21  36  62  99 125 162 215 259 308 375
#     4  10  22  42  65  90 126 167 206 258 315 375
#     4  12  23  41  66  94 125 166 217 256 310 383
#     4  10  18  36  63  92 123 160 206 258 311 368
#     4  10  23  42  61  90 132 164 203 266 316 365
#     4   9  19  38  58  85 131 162 199 259 318 357
#
# _framework density 21.064876999999999
#
# number of rings (size 3 to 8) (size 9 to 14) (size 15 to 20)
#    0.000    1.667    1.667    5.000    0.000    2.667 
#    3.000    5.833    0.000    0.000    0.000    0.000 
#    0.000    0.000    0.000    0.000    0.000    0.000 
#
# Total GULP energy -133910.969089 kJ/mol
# GULP energy per Si atom -5579.623712 kJ/mol
# Density = 2.101693 g / cm^3
# Si number density = 21.064877 Si / 1000 Ang^3
#
#
#
# Elastic Constant Matrix: (Units=GPa)
#
#
# Indices 1 2 3 4 5 6 
#
# 1 156.0797 47.0744 21.1766 0.0000 -6.4515 0.0000
# 2 47.0744 71.5179 6.3333 0.0000 -9.1805 0.0000
# 3 21.1766 6.3333 60.4035 0.0000 -17.8874 0.0000
# 4 0.0000 0.0000 0.0000 7.8910 0.0000 12.6463
# 5 -6.4515 -9.1805 -17.8874 0.0000 21.8953 0.0000
# 6 0.0000 0.0000 0.0000 12.6463 0.0000 21.1299
#
#
#
# Elastic Compliance Matrix: (Units=1/GPa)
#
#
# Indices 1 2 3 4 5 6 
#
# 1 0.008402 -0.005562 -0.003060 0.000000 -0.002357 0.000000
# 2 -0.005562 0.018466 0.002403 0.000000 0.008067 0.000000
# 3 -0.003060 0.002403 0.022963 0.000000 0.018865 0.000000
# 4 0.000000 0.000000 0.000000 3.104573 0.000000 -1.858097
# 5 -0.002357 0.008067 0.018865 0.000000 0.063772 0.000000
# 6 0.000000 0.000000 0.000000 -1.858097 0.000000 1.159403
#
#
# Mechanical properties :
#
#
# Convention : Reuss Voigt Hill
#
# Bulk Modulus (GPa) = 26.74382 48.57442 37.65912
# Shear Modulus (GPa) = 1.13572 24.41104 12.77338
#
# Velocity S-wave (km/s) = 0.73507 3.40788 2.46516
# Velocity P-wave (km/s) = 3.66660 6.21244 5.10090
#
# Compressibility (1/GPa) = 0.03739182
#
# Stress axis : x y z
#
# Youngs Moduli (GPa) = 119.01424 54.15276 43.54836
#
# Poissons Ratio (x) = 0.30120 0.13328
# Poissons Ratio (y) = 0.66197 -0.10463
# Poissons Ratio (z) = 0.36423 -0.13011
#
# Static dielectric constant tensor:
#      x y z
#    x 1.757930 0.000000 -0.026170 
#    y 0.000000 1.809550 0.000000 
#    z -0.026170 0.000000 1.781760 
# 
# From -- ./inp_files/59884.got.cif
#   From: 2010.05.17/outbox.cif.g08.bks.cpg/sg13_30_cif.got.tgz:59884.got - 2010.06.03 16:44:36.
