data_PCOD9227683
_publ_section_title
;
Structure prediction by ZEFSAII (Michael W. Deem and Ramdas Pophale) SiO2 
 PCOD9227683
Probable space group: P 2/C
;
_chemical_formula_sum "Si O2"
_cell_formula_units_Z 30
_cell_length_a 5.247418
_cell_length_b 16.805579
_cell_length_c 17.678269
_cell_angle_alpha 90.000000
_cell_angle_beta 81.941188
_cell_angle_gamma 90.000000
_cell_volume 1543.578672
_symmetry_space_group_name_H-M "P 2/C"
_symmetry_group_IT_number 13
_symmetry_cell_setting 'monoclinic'
loop_
_space_group_symop_operation_xyz
x,y,z
-x,y,1/2-z
-x,-y,-z
x,-y,1/2+z
loop_
_atom_site_type_symbol
_atom_site_label
_atom_site_fract_x
_atom_site_fract_y
_atom_site_fract_z
Si Si1 0.960310 0.401954 0.340275
Si Si2 0.500000 0.291300 0.750000
Si Si3 0.774200 0.470187 0.955856
Si Si4 0.015826 0.907013 0.483053
Si Si5 0.535329 0.301474 0.158259
Si Si6 0.661865 0.302898 0.900367
Si Si7 0.931081 0.171370 0.672828
Si Si8 0.516363 0.185013 0.472510
O O1 0.857607 0.484642 0.376519
O O2 0.723517 0.342357 0.361061
O O3 0.000000 0.410619 0.250000
O O4 0.221017 0.361229 0.361364
O O5 0.574309 0.338605 0.822654
O O6 0.706475 0.231037 0.706001
O O7 0.773993 0.375952 0.942884
O O8 0.500000 0.500000 0.000000
O O9 0.000000 0.500000 0.000000
O O10 0.119439 0.887710 0.393908
O O11 0.217599 0.862983 0.530483
O O12 0.728912 0.870697 0.499448
O O13 0.000000 0.000000 0.500000
O O14 0.500000 0.286357 0.250000
O O15 0.551759 0.223921 0.105436
O O16 0.853632 0.233211 0.865754
O O17 0.471077 0.255954 0.964775
O O18 0.000000 0.130606 0.750000
#
# Coordination Sequence:
#
# PCOD9227683 Si02
#       8
#     4   2   4   4   4   4   4   4
#     4  10  21  39  59  84 119 161 203 253 314 360
#     4  10  18  38  60  88 118 152 216 254 300 360
#     4  12  26  40  58  88 125 161 207 261 315 369
#     4  11  23  40  62  93 125 159 195 240 312 375
#     4  10  21  40  64  88 115 161 211 255 300 364
#     4  10  22  36  61  87 120 161 211 256 306 361
#     4   9  20  38  61  90 119 162 202 250 300 365
#     4  11  21  39  64  88 120 159 201 252 297 367
#
# _framework density 19.435357
#
# number of rings (size 3 to 8) (size 9 to 14) (size 15 to 20)
#    0.000    1.600    1.333    3.600    1.867    2.667 
#    3.600    1.333    0.000    0.000    0.000    0.000 
#    0.000    0.000    0.000    0.000    0.000    0.000 
#
# Total GULP energy -167210.974401 kJ/mol
# GULP energy per Si atom -5573.699147 kJ/mol
# Density = 1.939112 g / cm^3
# Si number density = 19.435357 Si / 1000 Ang^3
#
#
#
# Elastic Constant Matrix: (Units=GPa)
#
#
# Indices 1 2 3 4 5 6 
#
# 1 86.2074 16.0292 17.5367 0.0000 -6.3716 0.0000
# 2 16.0292 97.4803 38.6897 0.0000 6.4301 0.0000
# 3 17.5367 38.6897 63.4455 0.0000 3.2792 0.0000
# 4 0.0000 0.0000 0.0000 22.9336 0.0000 0.5355
# 5 -6.3716 6.4301 3.2792 0.0000 22.3252 0.0000
# 6 0.0000 0.0000 0.0000 0.5355 0.0000 25.7696
#
#
#
# Elastic Compliance Matrix: (Units=1/GPa)
#
#
# Indices 1 2 3 4 5 6 
#
# 1 0.012765 -0.001187 -0.003033 0.000000 0.004431 0.000000
# 2 -0.001187 0.013809 -0.007930 0.000000 -0.003151 0.000000
# 3 -0.003033 -0.007930 0.021526 0.000000 -0.001744 0.000000
# 4 0.000000 0.000000 0.000000 0.043625 0.000000 -0.000907
# 5 0.004431 -0.003151 -0.001744 0.000000 0.047221 0.000000
# 6 0.000000 0.000000 0.000000 -0.000907 0.000000 0.038824
#
#
# Mechanical properties :
#
#
# Convention : Reuss Voigt Hill
#
# Bulk Modulus (GPa) = 42.01853 43.51603 42.76728
# Shear Modulus (GPa) = 23.80906 25.86417 24.83661
#
# Velocity S-wave (km/s) = 3.50385 3.65194 3.57866
# Velocity P-wave (km/s) = 6.16732 6.34200 6.25527
#
# Compressibility (1/GPa) = 0.02379902
#
# Stress axis : x y z
#
# Youngs Moduli (GPa) = 78.33773 72.41709 46.45605
#
# Poissons Ratio (x) = 0.08599 0.14091
# Poissons Ratio (y) = 0.09302 0.36838
# Poissons Ratio (z) = 0.23762 0.57425
#
# Static dielectric constant tensor:
#      x y z
#    x 1.153720 0.000000 -0.091000 
#    y 0.000000 1.700270 0.000000 
#    z -0.091000 0.000000 1.820720 
# 
# From -- ./inp_files/61586.got.cif
#   From: 2010.05.17/outbox.cif.g08.bks.cpg/sg13_31_cif.got.tgz:61586.got - 2010.06.03 16:44:36.
