data_PCOD9227271
_publ_section_title
;
Structure prediction by ZEFSAII (Michael W. Deem and Ramdas Pophale) SiO2 
 PCOD9227271
Probable space group: P 2/C
;
_chemical_formula_sum "Si O2"
_cell_formula_units_Z 18
_cell_length_a 7.997360
_cell_length_b 5.178819
_cell_length_c 21.524125
_cell_angle_alpha 90.000000
_cell_angle_beta 123.929994
_cell_angle_gamma 90.000000
_cell_volume 739.664108
_symmetry_space_group_name_H-M "P 2/C"
_symmetry_group_IT_number 13
_symmetry_cell_setting 'monoclinic'
loop_
_space_group_symop_operation_xyz
x,y,z
-x,y,1/2-z
-x,-y,-z
x,-y,1/2+z
loop_
_atom_site_type_symbol
_atom_site_label
_atom_site_fract_x
_atom_site_fract_y
_atom_site_fract_z
Si Si1 0.691354 0.179353 0.587142
Si Si2 0.676219 0.006253 0.839100
Si Si3 0.000000 0.322003 0.750000
Si Si4 0.548646 0.307404 0.435640
Si Si5 0.257386 0.477475 0.195331
O O1 0.875551 0.174614 0.672341
O O2 0.722812 0.286367 0.523952
O O3 0.536352 0.400015 0.583905
O O4 0.617656 0.884403 0.569014
O O5 0.500000 0.043791 0.750000
O O6 0.598652 0.854715 0.883796
O O7 0.828707 0.795108 0.843950
O O8 0.770377 0.289983 0.859351
O O9 0.835768 0.470462 0.757059
O O10 0.500000 0.445751 0.250000
#
# Coordination Sequence:
#
# PCOD9227271 Si02
#       5
#     4   4   2   4   4
#     4  10  22  36  62  91 124 162 204 252 304 361
#     4  10  18  34  57  82 113 157 199 239 294 358
#     4  12  24  42  64  96 122 158 212 254 298 368
#     4  10  20  40  61  89 125 165 201 248 310 365
#     4  10  22  36  58  86 119 157 195 247 302 353
#
# _framework density 24.335370999999999
#
# number of rings (size 3 to 8) (size 9 to 14) (size 15 to 20)
#    0.000    1.778    0.000    6.667    0.000    3.556 
#    0.000    2.222    0.000    0.000    0.000    0.000 
#    0.000    0.000    0.000    0.000    0.000    0.000 
#
# Total GULP energy -100237.307561 kJ/mol
# GULP energy per Si atom -5568.739309 kJ/mol
# Density = 2.427998 g / cm^3
# Si number density = 24.335371 Si / 1000 Ang^3
#
#
#
# Elastic Constant Matrix: (Units=GPa)
#
#
# Indices 1 2 3 4 5 6 
#
# 1 79.5103 -2.7980 0.0689 0.0000 -12.2619 0.0000
# 2 -2.7980 153.8950 -6.8028 0.0000 10.5294 0.0000
# 3 0.0689 -6.8028 120.6163 0.0000 -2.2277 0.0000
# 4 0.0000 0.0000 0.0000 179.1654 0.0000 60.6637
# 5 -12.2619 10.5294 -2.2277 0.0000 31.1459 0.0000
# 6 0.0000 0.0000 0.0000 60.6637 0.0000 19.3089
#
#
#
# Elastic Compliance Matrix: (Units=1/GPa)
#
#
# Indices 1 2 3 4 5 6 
#
# 1 0.013393 -0.000117 0.000084 0.000000 0.005318 0.000000
# 2 -0.000117 0.006666 0.000334 0.000000 -0.002276 0.000000
# 3 0.000084 0.000334 0.008319 0.000000 0.000515 0.000000
# 4 0.000000 0.000000 0.000000 -0.087528 0.000000 0.274992
# 5 0.005318 -0.002276 0.000515 0.000000 0.035007 0.000000
# 6 0.000000 0.000000 0.000000 0.274992 0.000000 -0.812167
#
#
# Mechanical properties :
#
#
# Convention : Reuss Voigt Hill
#
# Bulk Modulus (GPa) = 34.50534 37.21753 35.86144
# Shear Modulus (GPa) = -6.04410 70.16094 32.05842
#
# Velocity S-wave (km/s) = -1.57768 5.37526 3.63348
# Velocity P-wave (km/s) = 3.30017 7.33835 5.68957
#
# Compressibility (1/GPa) = 0.02898102
#
# Stress axis : x y z
#
# Youngs Moduli (GPa) = 74.66611 150.00868 120.20590
#
# Poissons Ratio (x) = 0.01750 -0.01010
# Poissons Ratio (y) = 0.00871 -0.04015
# Poissons Ratio (z) = -0.00627 -0.05011
#
# Static dielectric constant tensor:
#      x y z
#    x 2.053580 0.000000 0.008600 
#    y 0.000000 2.025180 0.000000 
#    z 0.008600 0.000000 2.185140 
# 
# From -- ./inp_files/62468.got.cif
#   From: 2010.05.17/outbox.cif.g08.bks.cpg/sg13_32_cif.got.tgz:62468.got - 2010.06.03 16:44:36.
