data_PCOD9227327
_publ_section_title
;
Structure prediction by ZEFSAII (Michael W. Deem and Ramdas Pophale) SiO2 
 PCOD9227327
Probable space group: P 2/C
;
_chemical_formula_sum "Si O2"
_cell_formula_units_Z 28
_cell_length_a 13.556971
_cell_length_b 9.630561
_cell_length_c 8.834295
_cell_angle_alpha 90.000000
_cell_angle_beta 96.718059
_cell_angle_gamma 90.000000
_cell_volume 1145.496919
_symmetry_space_group_name_H-M "P 2/C"
_symmetry_group_IT_number 13
_symmetry_cell_setting 'monoclinic'
loop_
_space_group_symop_operation_xyz
x,y,z
-x,y,1/2-z
-x,-y,-z
x,-y,1/2+z
loop_
_atom_site_type_symbol
_atom_site_label
_atom_site_fract_x
_atom_site_fract_y
_atom_site_fract_z
Si Si1 0.565599 0.774250 0.916432
Si Si2 0.898812 0.809878 0.820993
Si Si3 0.394926 0.529903 0.148443
Si Si4 0.796372 0.526363 0.695352
Si Si5 0.079552 0.401732 0.936732
Si Si6 0.379714 0.171894 0.543626
Si Si7 0.289209 0.958502 0.726002
O O1 0.500000 0.785027 0.750000
O O2 0.586578 0.612577 0.938357
O O3 0.497539 0.841656 0.033322
O O4 0.664754 0.855512 0.893421
O O5 0.837447 0.680136 0.734325
O O6 0.921881 0.748085 0.991042
O O7 0.828344 0.942525 0.806627
O O8 0.000000 0.829140 0.750000
O O9 0.500000 0.561050 0.250000
O O10 0.309263 0.503901 0.256486
O O11 0.188318 0.480003 0.979288
O O12 0.892241 0.419649 0.734903
O O13 0.633750 0.663431 0.455018
O O14 0.000000 0.500000 0.000000
O O15 0.324363 0.099918 0.393335
O O16 0.336352 0.104475 0.687363
#
# Coordination Sequence:
#
# PCOD9227327 Si02
#       7
#     4   4   4   4   4   4   4
#     4   9  19  39  65  95 129 168 218 276 333 398
#     4  10  21  38  68  93 131 174 225 278 342 403
#     4  11  24  39  63 105 140 173 223 284 346 407
#     4  10  21  35  63  95 140 172 212 281 345 399
#     4  10  18  34  59  99 133 168 221 277 344 402
#     4  11  26  42  68  93 139 183 229 277 334 411
#     4  11  24  46  66  96 129 184 231 275 343 404
#
# _framework density 24.443539000000001
#
# number of rings (size 3 to 8) (size 9 to 14) (size 15 to 20)
#    0.857    0.857    2.857    1.286    2.000    6.286 
#    0.000    0.714    0.000    2.571    0.000    0.000 
#    0.000    0.000    0.000    0.000    0.000    0.000 
#
# Total GULP energy -156096.935257 kJ/mol
# GULP energy per Si atom -5574.890545 kJ/mol
# Density = 2.438790 g / cm^3
# Si number density = 24.443539 Si / 1000 Ang^3
#
#
#
# Elastic Constant Matrix: (Units=GPa)
#
#
# Indices 1 2 3 4 5 6 
#
# 1 161.8814 19.0795 51.9509 0.0000 -51.3747 0.0000
# 2 19.0795 83.6284 14.4471 0.0000 -8.1198 0.0000
# 3 51.9509 14.4471 63.1246 0.0000 -6.4839 0.0000
# 4 0.0000 0.0000 0.0000 25.6848 0.0000 -8.9505
# 5 -51.3747 -8.1198 -6.4839 0.0000 32.6683 0.0000
# 6 0.0000 0.0000 0.0000 -8.9505 0.0000 32.0509
#
#
#
# Elastic Compliance Matrix: (Units=1/GPa)
#
#
# Indices 1 2 3 4 5 6 
#
# 1 0.018930 0.000565 -0.012900 0.000000 0.027350 0.000000
# 2 0.000565 0.012684 -0.003014 0.000000 0.003443 0.000000
# 3 -0.012900 -0.003014 0.025507 0.000000 -0.015973 0.000000
# 4 0.000000 0.000000 0.000000 0.043131 0.000000 0.012045
# 5 0.027350 0.003443 -0.015973 0.000000 0.071308 0.000000
# 6 0.000000 0.000000 0.000000 0.012045 0.000000 0.034564
#
#
# Mechanical properties :
#
#
# Convention : Reuss Voigt Hill
#
# Bulk Modulus (GPa) = 37.84469 53.28772 45.56621
# Shear Modulus (GPa) = 20.35590 32.95794 26.65692
#
# Velocity S-wave (km/s) = 2.88891 3.67594 3.30593
# Velocity P-wave (km/s) = 5.16177 6.31383 5.76664
#
# Compressibility (1/GPa) = 0.02642378
#
# Stress axis : x y z
#
# Youngs Moduli (GPa) = 52.82516 78.84094 39.20478
#
# Poissons Ratio (x) = -0.04455 0.50572
# Poissons Ratio (y) = -0.02985 0.11818
# Poissons Ratio (z) = 0.68142 0.23765
#
# Static dielectric constant tensor:
#      x y z
#    x 1.935100 0.000000 0.077720 
#    y 0.000000 1.914010 0.000000 
#    z 0.077720 0.000000 2.034080 
# 
# From -- ./inp_files/33251.got.cif
#   From: 2010.05.17/outbox.cif.g08.bks.cpg/sg13_17_cif.got.tgz:33251.got - 2010.06.03 16:44:36.
