data_PCOD9227881
_publ_section_title
;
Structure prediction by ZEFSAII (Michael W. Deem and Ramdas Pophale) SiO2 
 PCOD9227881
Probable space group: P 2/C
;
_chemical_formula_sum "Si O2"
_cell_formula_units_Z 32
_cell_length_a 5.174480
_cell_length_b 13.153118
_cell_length_c 22.633940
_cell_angle_alpha 90.000000
_cell_angle_beta 102.664654
_cell_angle_gamma 90.000000
_cell_volume 1502.998451
_symmetry_space_group_name_H-M "P 2/C"
_symmetry_group_IT_number 13
_symmetry_cell_setting 'monoclinic'
loop_
_space_group_symop_operation_xyz
x,y,z
-x,y,1/2-z
-x,-y,-z
x,-y,1/2+z
loop_
_atom_site_type_symbol
_atom_site_label
_atom_site_fract_x
_atom_site_fract_y
_atom_site_fract_z
Si Si1 0.017497 0.752122 0.314807
Si Si2 0.434347 0.801070 0.124579
Si Si3 0.260842 0.393662 0.021750
Si Si4 0.055036 0.853566 0.819663
Si Si5 0.967720 0.521054 0.180705
Si Si6 0.808229 0.661603 0.593650
Si Si7 0.556919 0.991771 0.820823
Si Si8 0.792999 0.401961 0.919755
O O1 0.248856 0.805481 0.362240
O O2 0.130561 0.637063 0.315658
O O3 0.000000 0.799948 0.250000
O O4 0.725218 0.757754 0.326144
O O5 0.336783 0.708652 0.078270
O O6 0.361990 0.919289 0.129408
O O7 0.527636 0.333891 0.047007
O O8 0.307566 0.512347 0.040463
O O9 0.042750 0.356275 0.058605
O O10 0.104641 0.387742 0.952125
O O11 0.132403 0.760803 0.865219
O O12 0.291850 0.934892 0.827806
O O13 0.000000 0.816486 0.750000
O O14 0.791660 0.910556 0.827723
O O15 0.806255 0.435876 0.137599
O O16 0.000000 0.484742 0.250000
O O17 0.208635 0.546524 0.145998
O O18 0.500000 0.029604 0.750000
#
# Coordination Sequence:
#
# PCOD9227881 Si02
#       8
#     4   4   4   4   4   4   4   4
#     4  10  19  30  47  76 112 145 173 207 262 335
#     4  11  20  33  54  77 110 146 184 226 272 331
#     4  10  22  38  61  85 114 153 196 236 275 335
#     4  10  21  37  57  82 112 146 190 241 292 345
#     4   9  19  34  55  86 120 149 180 224 283 347
#     4  11  21  38  60  82 110 149 194 241 286 328
#     4  10  20  34  54  80 110 147 186 229 286 349
#     4   9  21  38  58  87 119 154 193 230 278 341
#
# _framework density 21.290773999999999
#
# number of rings (size 3 to 8) (size 9 to 14) (size 15 to 20)
#    0.000    2.000    0.000    3.750    0.000    7.500 
#    0.000    8.750    0.000    4.500    0.000    0.000 
#    0.000    0.000    0.000    0.000    0.000    0.000 
#
# Total GULP energy -178258.352064 kJ/mol
# GULP energy per Si atom -5570.573502 kJ/mol
# Density = 2.124231 g / cm^3
# Si number density = 21.290774 Si / 1000 Ang^3
#
#
#
# Elastic Constant Matrix: (Units=GPa)
#
#
# Indices 1 2 3 4 5 6 
#
# 1 74.6627 6.7033 31.8268 0.0000 10.8329 0.0000
# 2 6.7033 85.0544 31.5524 0.0000 14.5489 0.0000
# 3 31.8268 31.5524 88.3642 0.0000 -4.0516 0.0000
# 4 0.0000 0.0000 0.0000 13.2405 0.0000 7.0463
# 5 10.8329 14.5489 -4.0516 0.0000 24.9378 0.0000
# 6 0.0000 0.0000 0.0000 7.0463 0.0000 22.2034
#
#
#
# Elastic Compliance Matrix: (Units=1/GPa)
#
#
# Indices 1 2 3 4 5 6 
#
# 1 0.018318 0.003639 -0.008422 0.000000 -0.011449 0.000000
# 2 0.003639 0.016483 -0.007768 0.000000 -0.012459 0.000000
# 3 -0.008422 -0.007768 0.017631 0.000000 0.011055 0.000000
# 4 0.000000 0.000000 0.000000 0.090873 0.000000 -0.028838
# 5 -0.011449 -0.012459 0.011055 0.000000 0.054138 0.000000
# 6 0.000000 0.000000 0.000000 -0.028838 0.000000 0.054190
#
#
# Mechanical properties :
#
#
# Convention : Reuss Voigt Hill
#
# Bulk Modulus (GPa) = 36.58923 43.13847 39.86385
# Shear Modulus (GPa) = 17.49210 23.94294 20.71752
#
# Velocity S-wave (km/s) = 2.86943 3.35710 3.12280
# Velocity P-wave (km/s) = 5.31046 5.94410 5.63619
#
# Compressibility (1/GPa) = 0.02733045
#
# Stress axis : x y z
#
# Youngs Moduli (GPa) = 54.59109 60.66836 56.71944
#
# Poissons Ratio (x) = -0.22077 0.47769
# Poissons Ratio (y) = -0.19865 0.44057
# Poissons Ratio (z) = 0.45977 0.47124
#
# Static dielectric constant tensor:
#      x y z
#    x 1.819260 0.000000 -0.012730 
#    y 0.000000 1.789610 0.000000 
#    z -0.012730 0.000000 1.858840 
# 
# From -- ./inp_files/83823.got.cif
#   From: 2010.05.17/outbox.cif.g08.bks.cpg/sg13_42_cif.got.tgz:83823.got - 2010.06.03 16:44:36.
