data_PCOD9227718
_publ_section_title
;
Structure prediction by ZEFSAII (Michael W. Deem and Ramdas Pophale) SiO2 
 PCOD9227718
Probable space group: P 2/C
;
_chemical_formula_sum "Si O2"
_cell_formula_units_Z 30
_cell_length_a 8.307391
_cell_length_b 11.037203
_cell_length_c 28.997500
_cell_angle_alpha 90.000000
_cell_angle_beta 145.346260
_cell_angle_gamma 90.000000
_cell_volume 1511.830037
_symmetry_space_group_name_H-M "P 2/C"
_symmetry_group_IT_number 13
_symmetry_cell_setting 'monoclinic'
loop_
_space_group_symop_operation_xyz
x,y,z
-x,y,1/2-z
-x,-y,-z
x,-y,1/2+z
loop_
_atom_site_type_symbol
_atom_site_label
_atom_site_fract_x
_atom_site_fract_y
_atom_site_fract_z
Si Si1 0.729804 0.485721 0.388789
Si Si2 0.847292 0.374604 0.259850
Si Si3 0.765896 0.411344 0.061801
Si Si4 0.982936 0.702144 0.009950
Si Si5 0.088488 0.170902 0.436383
Si Si6 0.218029 0.060065 0.015075
Si Si7 0.285542 0.908702 0.794967
Si Si8 0.500000 0.901248 0.750000
O O1 0.441358 0.444881 0.297839
O O2 0.754543 0.624404 0.410130
O O3 0.999069 0.457429 0.419757
O O4 0.759796 0.400700 0.441521
O O5 0.767738 0.232756 0.231918
O O6 0.000000 0.419630 0.250000
O O7 0.069645 0.399457 0.351845
O O8 0.703041 0.270191 0.035885
O O9 0.500000 0.500000 0.000000
O O10 0.032415 0.773408 0.973894
O O11 0.883344 0.805048 0.021449
O O12 0.786470 0.165527 0.337560
O O13 0.216057 0.037302 0.473515
O O14 0.493682 0.079923 0.111375
O O15 0.000000 0.000000 0.000000
O O16 0.393635 0.965702 0.772137
O O17 0.000000 0.958009 0.750000
#
# Coordination Sequence:
#
# PCOD9227718 Si02
#       8
#     4   4   4   4   4   4   4   2
#     4  10  20  36  62  88 124 164 204 261 335 385
#     4  11  23  37  64  95 122 162 217 271 326 400
#     4  11  24  38  61  94 129 162 217 269 326 396
#     4   9  18  32  62  90 118 156 212 255 325 390
#     4  10  21  36  67  89 125 172 211 267 334 390
#     4  10  18  38  64  93 123 166 215 267 329 396
#     4  11  22  36  64  95 125 158 222 275 321 393
#     4  12  18  40  64  96 124 166 216 274 328 384
#
# _framework density 19.843502000000001
#
# number of rings (size 3 to 8) (size 9 to 14) (size 15 to 20)
#    0.000    1.600    5.333    1.200    5.600    0.000 
#    0.000    0.667    8.800    0.000    0.000    0.000 
#    0.000    0.000    0.000    0.000    0.000    0.000 
#
# Total GULP energy -167050.731853 kJ/mol
# GULP energy per Si atom -5568.357728 kJ/mol
# Density = 1.979834 g / cm^3
# Si number density = 19.843502 Si / 1000 Ang^3
#
#
#
# Elastic Constant Matrix: (Units=GPa)
#
#
# Indices 1 2 3 4 5 6 
#
# 1 71.2180 32.2281 32.4070 0.0000 6.2953 0.0000
# 2 32.2281 126.4234 65.1070 0.0000 -4.5691 0.0000
# 3 32.4070 65.1070 110.4786 0.0000 -0.7169 0.0000
# 4 0.0000 0.0000 0.0000 19.9653 0.0000 -7.2336
# 5 6.2953 -4.5691 -0.7169 0.0000 31.5437 0.0000
# 6 0.0000 0.0000 0.0000 -7.2336 0.0000 14.9390
#
#
#
# Elastic Compliance Matrix: (Units=1/GPa)
#
#
# Indices 1 2 3 4 5 6 
#
# 1 0.017201 -0.002749 -0.003451 0.000000 -0.003910 0.000000
# 2 -0.002749 0.011867 -0.006173 0.000000 0.002127 0.000000
# 3 -0.003451 -0.006173 0.013702 0.000000 0.000106 0.000000
# 4 0.000000 0.000000 0.000000 0.060743 0.000000 0.029412
# 5 -0.003910 0.002127 0.000106 0.000000 0.032793 0.000000
# 6 0.000000 0.000000 0.000000 0.029412 0.000000 0.081181
#
#
# Mechanical properties :
#
#
# Convention : Reuss Voigt Hill
#
# Bulk Modulus (GPa) = 55.48103 63.06714 59.27409
# Shear Modulus (GPa) = 20.14169 25.18145 22.66157
#
# Velocity S-wave (km/s) = 3.18941 3.56617 3.38304
# Velocity P-wave (km/s) = 6.44849 6.98627 6.72276
#
# Compressibility (1/GPa) = 0.01802418
#
# Stress axis : x y z
#
# Youngs Moduli (GPa) = 58.13491 84.26957 72.97987
#
# Poissons Ratio (x) = 0.23166 0.25186
# Poissons Ratio (y) = 0.15982 0.45051
# Poissons Ratio (z) = 0.20063 0.52020
#
# Static dielectric constant tensor:
#      x y z
#    x 1.781940 0.000000 -0.004160 
#    y 0.000000 1.765460 0.000000 
#    z -0.004160 0.000000 1.733580 
# 
# From -- ./inp_files/96090.got.cif
#   From: 2010.05.17/outbox.cif.g08.bks.cpg/sg13_49_cif.got.tgz:96090.got - 2010.06.03 16:44:36.
