data_PCOD9227689
_publ_section_title
;
Structure prediction by ZEFSAII (Michael W. Deem and Ramdas Pophale) SiO2 
 PCOD9227689
Probable space group: P 2/C
;
_chemical_formula_sum "Si O2"
_cell_formula_units_Z 18
_cell_length_a 9.606960
_cell_length_b 5.539554
_cell_length_c 18.021742
_cell_angle_alpha 90.000000
_cell_angle_beta 130.400696
_cell_angle_gamma 90.000000
_cell_volume 730.373177
_symmetry_space_group_name_H-M "P 2/C"
_symmetry_group_IT_number 13
_symmetry_cell_setting 'monoclinic'
loop_
_space_group_symop_operation_xyz
x,y,z
-x,y,1/2-z
-x,-y,-z
x,-y,1/2+z
loop_
_atom_site_type_symbol
_atom_site_label
_atom_site_fract_x
_atom_site_fract_y
_atom_site_fract_z
Si Si1 0.209944 0.560424 0.901315
Si Si2 0.532016 0.179868 0.579264
Si Si3 0.134156 0.529447 0.616001
Si Si4 0.000000 0.940395 0.750000
Si Si5 0.258798 0.960161 0.211649
O O1 0.293149 0.339753 0.884524
O O2 0.012674 0.528234 0.868092
O O3 0.173370 0.777390 0.832332
O O4 0.357972 0.640678 0.014129
O O5 0.573021 0.059056 0.672287
O O6 0.500000 0.000000 0.500000
O O7 0.255025 0.288647 0.664440
O O8 0.000000 0.500000 0.500000
O O9 0.238848 0.787097 0.660155
O O10 0.924601 0.053572 0.799668
#
# Coordination Sequence:
#
# PCOD9227689 Si02
#       5
#     4   4   4   2   4
#     4  10  22  36  63  91 133 158 206 255 320 372
#     4  11  21  37  62  98 129 154 195 264 334 370
#     4  11  25  44  65  88 124 174 220 249 293 369
#     4  10  18  38  60  96 116 164 198 266 314 362
#     4  11  22  39  65  91 126 160 210 260 310 368
#
# _framework density 24.644933000000002
#
# number of rings (size 3 to 8) (size 9 to 14) (size 15 to 20)
#    0.000    1.333    2.222    4.667    6.222    0.889 
#    0.000    1.111    0.000    0.000    0.000    0.000 
#    0.000    0.000    0.000    0.000    0.000    0.000 
#
# Total GULP energy -100551.021717 kJ/mol
# GULP energy per Si atom -5586.167873 kJ/mol
# Density = 2.458884 g / cm^3
# Si number density = 24.644933 Si / 1000 Ang^3
#
#
#
# Elastic Constant Matrix: (Units=GPa)
#
#
# Indices 1 2 3 4 5 6 
#
# 1 44.4245 13.1936 -11.0795 0.0000 14.4410 0.0000
# 2 13.1936 193.5802 92.1466 0.0000 -13.5620 0.0000
# 3 -11.0795 92.1466 179.6930 0.0000 -16.9707 0.0000
# 4 0.0000 0.0000 0.0000 62.9915 0.0000 6.3130
# 5 14.4410 -13.5620 -16.9707 0.0000 30.1406 0.0000
# 6 0.0000 0.0000 0.0000 6.3130 0.0000 16.1412
#
#
#
# Elastic Compliance Matrix: (Units=1/GPa)
#
#
# Indices 1 2 3 4 5 6 
#
# 1 0.029088 -0.004229 0.002605 0.000000 -0.014373 0.000000
# 2 -0.004229 0.007488 -0.003793 0.000000 0.003260 0.000000
# 3 0.002605 -0.003793 0.007807 0.000000 0.001441 0.000000
# 4 0.000000 0.000000 0.000000 0.016523 0.000000 -0.006462
# 5 -0.014373 0.003260 0.001441 0.000000 0.042343 0.000000
# 6 0.000000 0.000000 0.000000 -0.006462 0.000000 0.064481
#
#
# Mechanical properties :
#
#
# Convention : Reuss Voigt Hill
#
# Bulk Modulus (GPa) = 29.80781 67.35767 48.58274
# Shear Modulus (GPa) = 26.35104 43.41712 34.88408
#
# Velocity S-wave (km/s) = 3.27345 4.20182 3.76635
# Velocity P-wave (km/s) = 5.13892 7.13659 6.21850
#
# Compressibility (1/GPa) = 0.03354826
#
# Stress axis : x y z
#
# Youngs Moduli (GPa) = 34.37829 133.55008 128.09652
#
# Poissons Ratio (x) = 0.56485 -0.33369
# Poissons Ratio (y) = 0.14540 0.48582
# Poissons Ratio (z) = -0.08955 0.50651
#
# Static dielectric constant tensor:
#      x y z
#    x 2.022700 0.000000 -0.034360 
#    y 0.000000 2.065930 0.000000 
#    z -0.034360 0.000000 1.994560 
# 
# From -- ./inp_files/58094.got.cif
#   From: 2010.05.17/outbox.cif.g08.bks.cpg/sg13_30_cif.got.tgz:58094.got - 2010.06.03 16:44:36.
