data_PCOD9227278
_publ_section_title
;
Structure prediction by ZEFSAII (Michael W. Deem and Ramdas Pophale) SiO2 
 PCOD9227278
Probable space group: P 2/C
;
_chemical_formula_sum "Si O2"
_cell_formula_units_Z 28
_cell_length_a 9.104528
_cell_length_b 16.717072
_cell_length_c 14.444805
_cell_angle_alpha 90.000000
_cell_angle_beta 31.293538
_cell_angle_gamma 90.000000
_cell_volume 1141.958420
_symmetry_space_group_name_H-M "P 2/C"
_symmetry_group_IT_number 13
_symmetry_cell_setting 'monoclinic'
loop_
_space_group_symop_operation_xyz
x,y,z
-x,y,1/2-z
-x,-y,-z
x,-y,1/2+z
loop_
_atom_site_type_symbol
_atom_site_label
_atom_site_fract_x
_atom_site_fract_y
_atom_site_fract_z
Si Si1 0.779177 0.350584 0.941390
Si Si2 0.291583 0.895692 0.780317
Si Si3 0.156265 0.732336 0.915512
Si Si4 0.339255 0.803557 0.076650
Si Si5 0.436215 0.500789 0.643884
Si Si6 0.928399 0.398486 0.398244
Si Si7 0.249972 0.042795 0.689397
O O1 0.585650 0.288900 0.984952
O O2 0.000000 0.386313 0.750000
O O3 0.943915 0.302331 0.932553
O O4 0.598568 0.418763 0.086943
O O5 0.500000 0.919479 0.750000
O O6 0.094492 0.824733 0.925102
O O7 0.484492 0.850450 0.598212
O O8 0.160574 0.977530 0.812915
O O9 0.500000 0.731186 0.750000
O O10 0.033840 0.676195 0.901449
O O11 0.358398 0.866735 0.151322
O O12 0.000000 0.796025 0.250000
O O13 0.500000 0.500000 0.500000
O O14 0.112358 0.523728 0.831576
O O15 0.602029 0.423370 0.589533
O O16 0.000000 0.387491 0.250000
O O17 0.000000 0.049863 0.750000
O O18 0.500000 0.000000 0.500000
#
# Coordination Sequence:
#
# PCOD9227278 Si02
#       7
#     4   4   4   4   4   4   4
#     4  11  20  35  60  83 118 163 212 247 307 370
#     4  10  18  34  57  86 121 150 198 254 304 366
#     4  11  20  37  59  93 117 163 214 255 308 373
#     4   9  17  32  54  80 110 153 199 238 286 370
#     4  10  20  37  58  91 122 167 204 256 313 367
#     4  10  21  37  59  88 129 159 211 258 312 365
#     4   9  19  35  57  87 116 153 201 239 300 368
#
# _framework density 24.519282
#
# number of rings (size 3 to 8) (size 9 to 14) (size 15 to 20)
#    0.000    2.000    4.286    1.286    0.000    1.143 
#    0.000    7.857    0.000    2.571    0.000    0.000 
#    0.000    0.000    0.000    0.000    0.000    0.000 
#
# Total GULP energy -155996.084163 kJ/mol
# GULP energy per Si atom -5571.288720 kJ/mol
# Density = 2.446348 g / cm^3
# Si number density = 24.519282 Si / 1000 Ang^3
#
#
#
# Elastic Constant Matrix: (Units=GPa)
#
#
# Indices 1 2 3 4 5 6 
#
# 1 87.5345 62.0063 13.0204 0.0000 14.1457 0.0000
# 2 62.0063 140.5172 -12.9033 0.0000 9.3231 0.0000
# 3 13.0204 -12.9033 46.8867 0.0000 12.0377 0.0000
# 4 0.0000 0.0000 0.0000 9.1538 0.0000 -15.0597
# 5 14.1457 9.3231 12.0377 0.0000 28.4797 0.0000
# 6 0.0000 0.0000 0.0000 -15.0597 0.0000 -2.9905
#
#
#
# Elastic Compliance Matrix: (Units=1/GPa)
#
#
# Indices 1 2 3 4 5 6 
#
# 1 0.019388 -0.008934 -0.006866 0.000000 -0.003803 0.000000
# 2 -0.008934 0.011769 0.006248 0.000000 -0.002056 0.000000
# 3 -0.006866 0.006248 0.027598 0.000000 -0.010300 0.000000
# 4 0.000000 0.000000 0.000000 0.011766 0.000000 -0.059251
# 5 -0.003803 -0.002056 -0.010300 0.000000 0.042029 0.000000
# 6 0.000000 0.000000 0.000000 -0.059251 0.000000 -0.036015
#
#
# Mechanical properties :
#
#
# Convention : Reuss Voigt Hill
#
# Bulk Modulus (GPa) = 25.22003 44.35392 34.78697
# Shear Modulus (GPa) = 45.93191 21.11628 33.52409
#
# Velocity S-wave (km/s) = 4.33286 2.93782 3.70165
# Velocity P-wave (km/s) = 5.94472 5.44393 5.69983
#
# Compressibility (1/GPa) = 0.03965102
#
# Stress axis : x y z
#
# Youngs Moduli (GPa) = 51.57746 84.97000 36.23388
#
# Poissons Ratio (x) = 0.75909 0.24879
# Poissons Ratio (y) = 0.46078 -0.22637
# Poissons Ratio (z) = 0.35414 -0.53085
#
# Static dielectric constant tensor:
#      x y z
#    x 2.193540 0.000000 -0.010100 
#    y 0.000000 2.118720 0.000000 
#    z -0.010100 0.000000 2.022510 
# 
# From -- ./inp_files/48066.got.cif
#   From: 2010.05.17/outbox.cif.g08.bks.cpg/sg13_25_cif.got.tgz:48066.got - 2010.06.03 16:44:36.
