data_PCOD9227897
_publ_section_title
;
Structure prediction by ZEFSAII (Michael W. Deem and Ramdas Pophale) SiO2 
 PCOD9227897
Probable space group: P 2/C
;
_chemical_formula_sum "Si O2"
_cell_formula_units_Z 32
_cell_length_a 13.123829
_cell_length_b 12.841486
_cell_length_c 9.038239
_cell_angle_alpha 90.000000
_cell_angle_beta 76.954627
_cell_angle_gamma 90.000000
_cell_volume 1483.898022
_symmetry_space_group_name_H-M "P 2/C"
_symmetry_group_IT_number 13
_symmetry_cell_setting 'monoclinic'
loop_
_space_group_symop_operation_xyz
x,y,z
-x,y,1/2-z
-x,-y,-z
x,-y,1/2+z
loop_
_atom_site_type_symbol
_atom_site_label
_atom_site_fract_x
_atom_site_fract_y
_atom_site_fract_z
Si Si1 0.074052 0.273153 0.379001
Si Si2 0.114838 0.358146 0.686679
Si Si3 0.753229 0.877728 0.636591
Si Si4 0.219225 0.429322 0.154615
Si Si5 0.405783 0.288031 0.170735
Si Si6 0.331252 0.947342 0.136680
Si Si7 0.376398 0.142032 0.922578
Si Si8 0.161411 0.738517 0.466989
O O1 0.101926 0.303279 0.536834
O O2 0.139837 0.169134 0.338530
O O3 0.128020 0.370727 0.277836
O O4 0.950332 0.250961 0.413854
O O5 0.199687 0.449170 0.657575
O O6 0.137650 0.272782 0.803157
O O7 0.000000 0.408498 0.750000
O O8 0.664069 0.799074 0.723457
O O9 0.735008 0.888212 0.466834
O O10 0.736684 0.985584 0.726314
O O11 0.330489 0.387189 0.173362
O O12 0.203560 0.375635 0.000375
O O13 0.500000 0.310989 0.250000
O O14 0.431720 0.232882 0.003548
O O15 0.393739 0.878259 0.239509
O O16 0.388885 0.035011 0.013982
O O17 0.253620 0.180841 0.971679
#
# Coordination Sequence:
#
# PCOD9227897 Si02
#       8
#     4   4   4   4   4   4   4   4
#     4  10  19  31  48  72 102 135 170 203 241 286
#     4  10  19  30  49  77 104 131 169 209 239 279
#     4   9  18  33  51  71 101 133 163 205 248 289
#     4  10  19  31  51  72  97 130 160 205 253 294
#     4   9  19  36  55  74  98 127 160 202 254 307
#     4   9  17  33  51  73 101 130 167 204 244 296
#     4   9  18  33  51  71 101 133 163 205 248 289
#     4  10  19  31  48  72 102 135 170 203 241 286
#
# _framework density 21.564823000000001
#
# number of rings (size 3 to 8) (size 9 to 14) (size 15 to 20)
#    0.000    2.500    0.000    3.375    0.000    2.000 
#    0.000   14.375    0.000   12.000    0.000    0.000 
#    0.000    0.000    0.000    0.000    0.000    0.000 
#
# Total GULP energy -178285.335113 kJ/mol
# GULP energy per Si atom -5571.416722 kJ/mol
# Density = 2.151574 g / cm^3
# Si number density = 21.564823 Si / 1000 Ang^3
#
#
#
# Elastic Constant Matrix: (Units=GPa)
#
#
# Indices 1 2 3 4 5 6 
#
# 1 96.4390 27.3687 23.8876 0.0000 30.1635 0.0000
# 2 27.3687 44.0996 -5.6448 0.0000 3.8797 0.0000
# 3 23.8876 -5.6448 99.7276 0.0000 27.4351 0.0000
# 4 0.0000 0.0000 0.0000 21.5838 0.0000 5.5834
# 5 30.1635 3.8797 27.4351 0.0000 28.5908 0.0000
# 6 0.0000 0.0000 0.0000 5.5834 0.0000 2.8228
#
#
#
# Elastic Compliance Matrix: (Units=1/GPa)
#
#
# Indices 1 2 3 4 5 6 
#
# 1 0.019163 -0.010234 0.000014 0.000000 -0.018842 0.000000
# 2 -0.010234 0.029062 0.003004 0.000000 0.003970 0.000000
# 3 0.000014 0.003004 0.014008 0.000000 -0.013864 0.000000
# 4 0.000000 0.000000 0.000000 0.094879 0.000000 -0.187672
# 5 -0.018842 0.003970 -0.013864 0.000000 0.067620 0.000000
# 6 0.000000 0.000000 0.000000 -0.187672 0.000000 0.725480
#
#
# Mechanical properties :
#
#
# Convention : Reuss Voigt Hill
#
# Bulk Modulus (GPa) = 20.91927 36.83215 28.87571
# Shear Modulus (GPa) = 5.09903 23.57645 14.33774
#
# Velocity S-wave (km/s) = 1.53937 3.31007 2.58130
# Velocity P-wave (km/s) = 3.58904 5.63254 4.72265
#
# Compressibility (1/GPa) = 0.04780282
#
# Stress axis : x y z
#
# Youngs Moduli (GPa) = 52.18291 34.40897 71.38752
#
# Poissons Ratio (x) = 0.35213 -0.00101
# Poissons Ratio (y) = 0.53402 -0.21445
# Poissons Ratio (z) = -0.00074 -0.10336
#
# Static dielectric constant tensor:
#      x y z
#    x 1.978500 0.000000 0.034870 
#    y 0.000000 1.773540 0.000000 
#    z 0.034870 0.000000 1.897380 
# 
# From -- ./inp_files/16794.got.cif
#   From: 2010.05.17/outbox.cif.g08.bks.cpg/sg13_9_cif.got.tgz:16794.got - 2010.06.03 16:44:36.
