data_PCOD9227356
_publ_section_title
;
Structure prediction by ZEFSAII (Michael W. Deem and Ramdas Pophale) SiO2 
 PCOD9227356
Probable space group: P 2/C
;
_chemical_formula_sum "Si O2"
_cell_formula_units_Z 26
_cell_length_a 11.138555
_cell_length_b 8.226543
_cell_length_c 20.235593
_cell_angle_alpha 90.000000
_cell_angle_beta 135.819368
_cell_angle_gamma 90.000000
_cell_volume 1292.250729
_symmetry_space_group_name_H-M "P 2/C"
_symmetry_group_IT_number 13
_symmetry_cell_setting 'monoclinic'
loop_
_space_group_symop_operation_xyz
x,y,z
-x,y,1/2-z
-x,-y,-z
x,-y,1/2+z
loop_
_atom_site_type_symbol
_atom_site_label
_atom_site_fract_x
_atom_site_fract_y
_atom_site_fract_z
Si Si1 0.447403 0.387282 0.418140
Si Si2 0.933858 0.799693 0.900885
Si Si3 0.767148 0.817383 0.071335
Si Si4 0.158455 0.842816 0.861023
Si Si5 0.226260 0.488847 0.720405
Si Si6 0.101084 0.166071 0.609237
Si Si7 0.000000 0.606310 0.250000
O O1 0.500000 0.500000 0.500000
O O2 0.606870 0.265963 0.473222
O O3 0.278519 0.290422 0.375314
O O4 0.395995 0.479379 0.330952
O O5 0.813439 0.642605 0.842368
O O6 0.072565 0.795994 0.896410
O O7 0.839608 0.977266 0.861446
O O8 0.038169 0.797899 0.010392
O O9 0.839741 0.713485 0.161544
O O10 0.929318 0.828201 0.086394
O O11 0.729794 0.996694 0.082322
O O12 0.000000 0.884011 0.750000
O O13 0.219145 0.313842 0.681841
O O14 0.071135 0.485144 0.713946
#
# Coordination Sequence:
#
# PCOD9227356 Si02
#       7
#     4   4   4   4   4   4   2
#     4  12  24  35  55  92 130 153 192 253 307 356
#     4  10  20  39  65  91 110 156 215 242 292 359
#     4  10  21  38  60  89 119 155 200 247 306 352
#     4  11  21  38  65  88 116 158 203 250 303 363
#     4  11  20  35  59  87 119 162 193 242 300 354
#     4   9  22  39  64  88 117 156 205 254 288 356
#     4  10  18  34  62  84 118 154 200 246 290 354
#
# _framework density 20.119935999999999
#
# number of rings (size 3 to 8) (size 9 to 14) (size 15 to 20)
#    0.000    1.538    3.846    1.846    2.154    0.000 
#    2.769    0.769    0.000    0.000    0.000    0.000 
#    0.000    0.000    0.000    0.000    0.000    0.000 
#
# Total GULP energy -145109.319200 kJ/mol
# GULP energy per Si atom -5581.127662 kJ/mol
# Density = 2.007414 g / cm^3
# Si number density = 20.119936 Si / 1000 Ang^3
#
#
#
# Elastic Constant Matrix: (Units=GPa)
#
#
# Indices 1 2 3 4 5 6 
#
# 1 11.1836 3.0920 7.6564 0.0000 -16.3710 0.0000
# 2 3.0920 134.9766 55.8900 0.0000 -8.3622 0.0000
# 3 7.6564 55.8900 89.8240 0.0000 -9.0275 0.0000
# 4 0.0000 0.0000 0.0000 41.7559 0.0000 -5.0138
# 5 -16.3710 -8.3622 -9.0275 0.0000 30.6100 0.0000
# 6 0.0000 0.0000 0.0000 -5.0138 0.0000 18.4469
#
#
#
# Elastic Compliance Matrix: (Units=1/GPa)
#
#
# Indices 1 2 3 4 5 6 
#
# 1 0.446595 0.013914 -0.023019 0.000000 0.235862 0.000000
# 2 0.013914 0.010439 -0.006850 0.000000 0.008273 0.000000
# 3 -0.023019 -0.006850 0.016418 0.000000 -0.009340 0.000000
# 4 0.000000 0.000000 0.000000 0.024757 0.000000 0.006729
# 5 0.235862 0.008273 -0.009340 0.000000 0.158319 0.000000
# 6 0.000000 0.000000 0.000000 0.006729 0.000000 0.056038
#
#
# Mechanical properties :
#
#
# Convention : Reuss Voigt Hill
#
# Bulk Modulus (GPa) = 2.26479 41.02899 21.64689
# Shear Modulus (GPa) = 5.60753 29.45228 17.52990
#
# Velocity S-wave (km/s) = 1.67126 3.83016 2.95493
# Velocity P-wave (km/s) = 2.20278 6.32429 4.73545
#
# Compressibility (1/GPa) = 0.44154178
#
# Stress axis : x y z
#
# Youngs Moduli (GPa) = 2.23916 95.79690 60.90798
#
# Poissons Ratio (x) = -1.33288 1.40204
# Poissons Ratio (y) = -0.03115 0.41720
# Poissons Ratio (z) = 0.05154 0.65618
#
# Static dielectric constant tensor:
#      x y z
#    x 1.706090 0.000000 -0.031210 
#    y 0.000000 1.824540 0.000000 
#    z -0.031210 0.000000 1.721960 
# 
# From -- ./inp_files/49904.got.cif
#   From: 2010.05.17/outbox.cif.g08.bks.cpg/sg13_25_cif.got.tgz:49904.got - 2010.06.03 16:44:36.
