data_PCOD9227686
_publ_section_title
;
Structure prediction by ZEFSAII (Michael W. Deem and Ramdas Pophale) SiO2 
 PCOD9227686
Probable space group: P 2/C
;
_chemical_formula_sum "Si O2"
_cell_formula_units_Z 24
_cell_length_a 8.161021
_cell_length_b 14.090500
_cell_length_c 10.089544
_cell_angle_alpha 90.000000
_cell_angle_beta 106.083650
_cell_angle_gamma 90.000000
_cell_volume 1114.812325
_symmetry_space_group_name_H-M "P 2/C"
_symmetry_group_IT_number 13
_symmetry_cell_setting 'monoclinic'
loop_
_space_group_symop_operation_xyz
x,y,z
-x,y,1/2-z
-x,-y,-z
x,-y,1/2+z
loop_
_atom_site_type_symbol
_atom_site_label
_atom_site_fract_x
_atom_site_fract_y
_atom_site_fract_z
Si Si1 0.678862 0.352467 0.109500
Si Si2 0.160804 0.159173 0.376512
Si Si3 0.500000 0.526066 0.750000
Si Si4 0.201846 0.607662 0.159058
Si Si5 0.385255 0.992680 0.343811
Si Si6 0.000000 0.466773 0.250000
Si Si7 0.159810 0.826764 0.193098
O O1 0.693605 0.239189 0.113490
O O2 0.507814 0.399773 0.128533
O O3 0.839907 0.396206 0.225206
O O4 0.731078 0.384445 0.974906
O O5 0.128835 0.154795 0.528369
O O6 0.000000 0.186801 0.250000
O O7 0.225183 0.059170 0.337325
O O8 0.649555 0.454243 0.742939
O O9 0.188698 0.713677 0.210442
O O10 0.031442 0.544917 0.140435
O O11 0.500000 0.030703 0.250000
O O12 0.316415 0.889958 0.281852
O O13 0.500000 0.000000 0.500000
O O14 0.000000 0.851085 0.250000
#
# Coordination Sequence:
#
# PCOD9227686 Si02
#       7
#     4   4   2   4   4   2   4
#     4  10  21  38  60  92 128 169 217 267 325 391
#     4  11  25  45  69  98 136 179 225 278 339 407
#     4  10  22  36  60  92 132 172 218 272 328 390
#     4  10  21  38  62  91 129 169 217 265 329 389
#     4  12  27  47  70 100 133 176 222 285 343 407
#     4  10  18  38  60  92 124 168 214 260 322 382
#     4  11  25  45  70 100 134 178 227 279 339 410
#
# _framework density 21.528285
#
# number of rings (size 3 to 8) (size 9 to 14) (size 15 to 20)
#    0.000    1.333    3.333    1.500    4.667    1.333 
#    0.000    1.667    0.000    0.000    0.000    0.000 
#    0.000    0.000    0.000    0.000    0.000    0.000 
#
# Total GULP energy -133662.358186 kJ/mol
# GULP energy per Si atom -5569.264924 kJ/mol
# Density = 2.147929 g / cm^3
# Si number density = 21.528285 Si / 1000 Ang^3
#
#
#
# Elastic Constant Matrix: (Units=GPa)
#
#
# Indices 1 2 3 4 5 6 
#
# 1 63.4843 26.8037 22.7866 0.0000 -17.4602 0.0000
# 2 26.8037 108.3065 40.6922 0.0000 -13.8126 0.0000
# 3 22.7866 40.6922 113.4311 0.0000 -13.2380 0.0000
# 4 0.0000 0.0000 0.0000 13.6289 0.0000 -10.3434
# 5 -17.4602 -13.8126 -13.2380 0.0000 30.7139 0.0000
# 6 0.0000 0.0000 0.0000 -10.3434 0.0000 30.3859
#
#
#
# Elastic Compliance Matrix: (Units=1/GPa)
#
#
# Indices 1 2 3 4 5 6 
#
# 1 0.020312 -0.003135 -0.001866 0.000000 0.009333 0.000000
# 2 -0.003135 0.011486 -0.003260 0.000000 0.001978 0.000000
# 3 -0.001866 -0.003260 0.010598 0.000000 0.002041 0.000000
# 4 0.000000 0.000000 0.000000 0.098931 0.000000 0.033676
# 5 0.009333 0.001978 0.002041 0.000000 0.039633 0.000000
# 6 0.000000 0.000000 0.000000 0.033676 0.000000 0.044373
#
#
# Mechanical properties :
#
#
# Convention : Reuss Voigt Hill
#
# Bulk Modulus (GPa) = 38.64955 51.75411 45.20183
# Shear Modulus (GPa) = 19.96147 27.94172 23.95159
#
# Velocity S-wave (km/s) = 3.04833 3.60656 3.33913
# Velocity P-wave (km/s) = 5.51196 6.43702 5.99237
#
# Compressibility (1/GPa) = 0.02587352
#
# Stress axis : x y z
#
# Youngs Moduli (GPa) = 49.23088 87.06240 94.35318
#
# Poissons Ratio (x) = 0.27298 0.17611
# Poissons Ratio (y) = 0.15436 0.30757
# Poissons Ratio (z) = 0.09189 0.28380
#
# Static dielectric constant tensor:
#      x y z
#    x 1.866170 0.000000 0.055010 
#    y 0.000000 1.771580 0.000000 
#    z 0.055010 0.000000 1.847760 
# 
# From -- ./inp_files/12582.got.cif
#   From: 2010.05.17/outbox.cif.g08.bks.cpg/sg13_7_cif.got.tgz:12582.got - 2010.06.03 16:44:36.
