data_PCOD9227250
_publ_section_title
;
Structure prediction by ZEFSAII (Michael W. Deem and Ramdas Pophale) SiO2 
 PCOD9227250
Probable space group: P 2/C
;
_chemical_formula_sum "Si O2"
_cell_formula_units_Z 28
_cell_length_a 21.404780
_cell_length_b 9.107759
_cell_length_c 9.960961
_cell_angle_alpha 90.000000
_cell_angle_beta 134.989466
_cell_angle_gamma 90.000000
_cell_volume 1373.372580
_symmetry_space_group_name_H-M "P 2/C"
_symmetry_group_IT_number 13
_symmetry_cell_setting 'monoclinic'
loop_
_space_group_symop_operation_xyz
x,y,z
-x,y,1/2-z
-x,-y,-z
x,-y,1/2+z
loop_
_atom_site_type_symbol
_atom_site_label
_atom_site_fract_x
_atom_site_fract_y
_atom_site_fract_z
Si Si1 0.788776 0.403576 0.571665
Si Si2 0.545876 0.731634 0.489338
Si Si3 0.500000 0.989443 0.250000
Si Si4 0.117613 0.085405 0.053856
Si Si5 0.500000 0.512455 0.750000
Si Si6 0.377150 0.244455 0.098345
Si Si7 0.080747 0.834357 0.196763
Si Si8 0.742037 0.335289 0.198363
O O1 0.724099 0.275858 0.532059
O O2 0.884146 0.332040 0.741427
O O3 0.767586 0.410236 0.380865
O O4 0.766257 0.551986 0.616419
O O5 0.485198 0.596591 0.351701
O O6 0.574625 0.740242 0.684825
O O7 0.638787 0.708263 0.550765
O O8 0.497676 0.879302 0.371156
O O9 0.414396 0.092244 0.101869
O O10 0.199164 0.187913 0.219931
O O11 0.115833 0.927525 0.123300
O O12 0.113043 0.086476 0.884437
O O13 0.025298 0.158742 0.961324
O O14 0.581118 0.616465 0.913439
#
# Coordination Sequence:
#
# PCOD9227250 Si02
#       8
#     4   4   2   4   2   4   4   4
#     4  10  21  37  55  79 110 141 178 219 265 316
#     4  10  20  35  52  75 104 137 174 219 264 312
#     4  10  22  34  52  76 102 134 178 222 264 320
#     4   9  19  36  58  82 110 142 176 216 263 315
#     4  10  18  34  56  72  98 138 178 214 254 322
#     4  10  20  35  52  75 104 137 174 219 264 312
#     4   9  19  36  58  82 110 142 176 216 263 315
#     4  10  21  37  55  79 110 141 178 219 265 316
#
# _framework density 20.387767
#
# number of rings (size 3 to 8) (size 9 to 14) (size 15 to 20)
#    0.000    2.286    1.429    0.857    2.000    1.714 
#    0.000    1.429    0.000    0.000    0.000    0.000 
#    0.000    0.000    0.000    0.000    0.000    0.000 
#
# Total GULP energy -156114.263244 kJ/mol
# GULP energy per Si atom -5575.509402 kJ/mol
# Density = 2.034136 g / cm^3
# Si number density = 20.387767 Si / 1000 Ang^3
#
#
#
# Elastic Constant Matrix: (Units=GPa)
#
#
# Indices 1 2 3 4 5 6 
#
# 1 45.5064 7.5873 -0.9847 0.0000 -6.3667 0.0000
# 2 7.5873 66.7885 1.6799 0.0000 -3.9991 0.0000
# 3 -0.9847 1.6799 39.8604 0.0000 9.1012 0.0000
# 4 0.0000 0.0000 0.0000 23.3613 0.0000 2.1161
# 5 -6.3667 -3.9991 9.1012 0.0000 21.1172 0.0000
# 6 0.0000 0.0000 0.0000 2.1161 0.0000 -102.4953
#
#
#
# Elastic Compliance Matrix: (Units=1/GPa)
#
#
# Indices 1 2 3 4 5 6 
#
# 1 0.023303 -0.002204 -0.000932 0.000000 0.007010 0.000000
# 2 -0.002204 0.015427 -0.001353 0.000000 0.002840 0.000000
# 3 -0.000932 -0.001353 0.028000 0.000000 -0.012605 0.000000
# 4 0.000000 0.000000 0.000000 0.042726 0.000000 0.000882
# 5 0.007010 0.002840 -0.012605 0.000000 0.055439 0.000000
# 6 0.000000 0.000000 0.000000 0.000882 0.000000 -0.009738
#
#
# Mechanical properties :
#
#
# Convention : Reuss Voigt Hill
#
# Bulk Modulus (GPa) = 17.31566 18.74671 18.03118
# Shear Modulus (GPa) = 27.26509 -2.01186 12.62662
#
# Velocity S-wave (km/s) = 3.66091 -0.99445 2.49132
# Velocity P-wave (km/s) = 5.13628 2.81006 4.13991
#
# Compressibility (1/GPa) = 0.05775119
#
# Stress axis : x y z
#
# Youngs Moduli (GPa) = 42.91292 64.82091 35.71492
#
# Poissons Ratio (x) = 0.14287 0.03329
# Poissons Ratio (y) = 0.09458 0.04833
# Poissons Ratio (z) = 0.04000 0.08771
#
# Static dielectric constant tensor:
#      x y z
#    x 1.778080 0.000000 0.000890 
#    y 0.000000 1.722500 0.000000 
#    z 0.000890 0.000000 1.712350 
# 
# From -- ./inp_files/41532.got.cif
#   From: 2010.05.17/outbox.cif.g08.bks.cpg/sg13_21_cif.got.tgz:41532.got - 2010.06.03 16:44:36.
