data_PCOD9227901
_publ_section_title
;
Structure prediction by ZEFSAII (Michael W. Deem and Ramdas Pophale) SiO2 
 PCOD9227901
Probable space group: P 2/C
;
_chemical_formula_sum "Si O2"
_cell_formula_units_Z 28
_cell_length_a 30.422802
_cell_length_b 11.936763
_cell_length_c 27.716725
_cell_angle_alpha 90.000000
_cell_angle_beta 170.975518
_cell_angle_gamma 90.000000
_cell_volume 1578.811075
_symmetry_space_group_name_H-M "P 2/C"
_symmetry_group_IT_number 13
_symmetry_cell_setting 'monoclinic'
loop_
_space_group_symop_operation_xyz
x,y,z
-x,y,1/2-z
-x,-y,-z
x,-y,1/2+z
loop_
_atom_site_type_symbol
_atom_site_label
_atom_site_fract_x
_atom_site_fract_y
_atom_site_fract_z
Si Si1 0.159576 0.404575 0.642819
Si Si2 0.106186 0.228854 0.085323
Si Si3 0.410783 0.089178 0.862839
Si Si4 0.335362 0.833167 0.524329
Si Si5 0.834839 0.685808 0.023453
Si Si6 0.769072 0.581450 0.851253
Si Si7 0.823337 0.990487 0.233788
O O1 0.149981 0.457046 0.579014
O O2 0.000000 0.500000 0.500000
O O3 0.012794 0.288894 0.496462
O O4 0.463163 0.403255 0.996419
O O5 0.431225 0.200710 0.448172
O O6 0.068223 0.316841 0.000065
O O7 0.946343 0.113495 0.899539
O O8 0.078789 0.075105 0.500084
O O9 0.500000 0.000000 0.000000
O O10 0.570828 0.049157 0.988183
O O11 0.500000 0.873827 0.750000
O O12 0.275085 0.930458 0.421368
O O13 0.046645 0.777759 0.230012
O O14 0.544849 0.742470 0.726501
O O15 0.000000 0.641999 0.250000
O O16 0.780233 0.600944 0.920270
#
# Coordination Sequence:
#
# PCOD9227901 Si02
#       7
#     4   4   4   4   4   4   4
#     4   9  20  32  47  74  99 139 175 205 263 316
#     4  10  19  30  50  66 105 140 166 211 251 303
#     4  10  22  31  46  74 102 136 177 202 251 309
#     4  10  20  33  51  75 103 139 173 203 257 312
#     4  10  20  33  52  77 104 138 172 206 256 316
#     4  10  19  32  51  72 106 140 169 211 260 317
#     4  11  20  33  49  73 106 138 169 210 253 304
#
# _framework density 17.734864000000002
#
# number of rings (size 3 to 8) (size 9 to 14) (size 15 to 20)
#    0.000    2.000    1.429    3.429   10.000    0.000 
#    0.000    0.000    0.000    0.000    0.000    0.000 
#   12.857    0.286    0.000    0.000    0.000    0.000 
#
# Total GULP energy -156076.742715 kJ/mol
# GULP energy per Si atom -5574.169383 kJ/mol
# Density = 1.769450 g / cm^3
# Si number density = 17.734864 Si / 1000 Ang^3
#
#
#
# Elastic Constant Matrix: (Units=GPa)
#
#
# Indices 1 2 3 4 5 6 
#
# 1 121.4718 41.1095 28.6516 0.0000 -12.6488 0.0000
# 2 41.1095 54.2576 26.6674 0.0000 -4.8182 0.0000
# 3 28.6516 26.6674 47.1424 0.0000 6.2672 0.0000
# 4 0.0000 0.0000 0.0000 27.7621 0.0000 2.4117
# 5 -12.6488 -4.8182 6.2672 0.0000 36.9650 0.0000
# 6 0.0000 0.0000 0.0000 2.4117 0.0000 40.0125
#
#
#
# Elastic Compliance Matrix: (Units=1/GPa)
#
#
# Indices 1 2 3 4 5 6 
#
# 1 0.011818 -0.006694 -0.003906 0.000000 0.003834 0.000000
# 2 -0.006694 0.030647 -0.013806 0.000000 0.004045 0.000000
# 3 -0.003906 -0.013806 0.032546 0.000000 -0.008654 0.000000
# 4 0.000000 0.000000 0.000000 0.036210 0.000000 -0.002182
# 5 0.003834 0.004045 -0.008654 0.000000 0.030359 0.000000
# 6 0.000000 0.000000 0.000000 -0.002182 0.000000 0.025124
#
#
# Mechanical properties :
#
#
# Convention : Reuss Voigt Hill
#
# Bulk Modulus (GPa) = 38.16718 46.19209 42.17963
# Shear Modulus (GPa) = 22.29669 29.37747 25.83708
#
# Velocity S-wave (km/s) = 3.54958 4.07440 3.82101
# Velocity P-wave (km/s) = 6.19412 6.94527 6.58042
#
# Compressibility (1/GPa) = 0.02620052
#
# Stress axis : x y z
#
# Youngs Moduli (GPa) = 84.61422 32.62928 30.72585
#
# Poissons Ratio (x) = 0.21843 0.12000
# Poissons Ratio (y) = 0.56644 0.42419
# Poissons Ratio (z) = 0.33047 0.45046
#
# Static dielectric constant tensor:
#      x y z
#    x 1.647580 0.000000 0.041340 
#    y 0.000000 1.643440 0.000000 
#    z 0.041340 0.000000 1.647920 
# 
# From -- ./inp_files/83546.got.cif
#   From: 2010.05.17/outbox.cif.g08.bks.cpg/sg13_42_cif.got.tgz:83546.got - 2010.06.03 16:44:36.
