data_PCOD9227080
_publ_section_title
;
Structure prediction by ZEFSAII (Michael W. Deem and Ramdas Pophale) SiO2 
 PCOD9227080
Probable space group: P 2/C
;
_chemical_formula_sum "Si O2"
_cell_formula_units_Z 18
_cell_length_a 25.230499
_cell_length_b 8.857430
_cell_length_c 20.093160
_cell_angle_alpha 90.000000
_cell_angle_beta 12.814693
_cell_angle_gamma 90.000000
_cell_volume 995.956869
_symmetry_space_group_name_H-M "P 2/C"
_symmetry_group_IT_number 13
_symmetry_cell_setting 'monoclinic'
loop_
_space_group_symop_operation_xyz
x,y,z
-x,y,1/2-z
-x,-y,-z
x,-y,1/2+z
loop_
_atom_site_type_symbol
_atom_site_label
_atom_site_fract_x
_atom_site_fract_y
_atom_site_fract_z
Si Si1 0.678566 0.399940 0.870308
Si Si2 0.085992 0.832684 0.909964
Si Si3 0.506407 0.336360 0.663619
Si Si4 0.000000 0.455993 0.250000
Si Si5 0.188730 0.646819 0.904225
O O1 0.752900 0.520632 0.723084
O O2 0.885288 0.281219 0.628075
O O3 0.628290 0.502025 0.996749
O O4 0.432247 0.326278 0.147077
O O5 0.334318 0.787629 0.569656
O O6 0.109834 0.791883 0.959005
O O7 0.000000 0.000000 0.000000
O O8 0.500000 0.309344 0.750000
O O9 0.239344 0.355986 0.961169
O O10 0.989955 0.566013 0.326098
#
# Coordination Sequence:
#
# PCOD9227080 Si02
#       5
#     4   4   4   2   4
#     4   9  18  34  56  78 102 135 181 226 262 308
#     4  11  22  35  53  80 116 149 173 208 268 334
#     4  10  19  34  57  81 104 137 183 231 268 308
#     4  10  18  32  60  84 100 130 188 242 266 296
#     4   9  18  34  56  79 101 136 182 225 264 306
#
# _framework density 18.073072
#
# number of rings (size 3 to 8) (size 9 to 14) (size 15 to 20)
#    0.000    2.222    0.000    6.667    0.000    0.889 
#    0.000    5.556    0.000    2.667    0.000    0.000 
#    0.000    0.000    0.000    0.000    0.000    0.000 
#
# Total GULP energy -100402.869205 kJ/mol
# GULP energy per Si atom -5577.937178 kJ/mol
# Density = 1.803194 g / cm^3
# Si number density = 18.073072 Si / 1000 Ang^3
#
#
#
# Elastic Constant Matrix: (Units=GPa)
#
#
# Indices 1 2 3 4 5 6 
#
# 1 78.7756 30.3140 28.0900 0.0000 6.8717 0.0000
# 2 30.3140 84.5930 56.1534 0.0000 -7.5117 0.0000
# 3 28.0900 56.1534 116.7763 0.0000 -4.5700 0.0000
# 4 0.0000 0.0000 0.0000 18.4781 0.0000 -4.0768
# 5 6.8717 -7.5117 -4.5700 0.0000 31.5122 0.0000
# 6 0.0000 0.0000 0.0000 -4.0768 0.0000 12.2543
#
#
#
# Elastic Compliance Matrix: (Units=1/GPa)
#
#
# Indices 1 2 3 4 5 6 
#
# 1 0.015583 -0.004991 -0.001536 0.000000 -0.004811 0.000000
# 2 -0.004991 0.019239 -0.007873 0.000000 0.004533 0.000000
# 3 -0.001536 -0.007873 0.012731 0.000000 0.000305 0.000000
# 4 0.000000 0.000000 0.000000 0.058405 0.000000 0.019430
# 5 -0.004811 0.004533 0.000305 0.000000 0.033907 0.000000
# 6 0.000000 0.000000 0.000000 0.019430 0.000000 0.088068
#
#
# Mechanical properties :
#
#
# Convention : Reuss Voigt Hill
#
# Bulk Modulus (GPa) = 53.33271 56.58443 54.95857
# Shear Modulus (GPa) = 19.01254 23.48807 21.25030
#
# Velocity S-wave (km/s) = 3.24695 3.60893 3.43271
# Velocity P-wave (km/s) = 6.60533 6.98158 6.79606
#
# Compressibility (1/GPa) = 0.01875022
#
# Stress axis : x y z
#
# Youngs Moduli (GPa) = 64.17451 51.97856 78.54968
#
# Poissons Ratio (x) = 0.25944 0.12069
# Poissons Ratio (y) = 0.32031 0.61843
# Poissons Ratio (z) = 0.09860 0.40924
#
# Static dielectric constant tensor:
#      x y z
#    x 1.652970 0.000000 -0.008040 
#    y 0.000000 1.589920 0.000000 
#    z -0.008040 0.000000 1.663220 
# 
# From -- ./inp_files/84507.got.cif
#   From: 2010.05.17/outbox.cif.g08.bks.cpg/sg13_43_cif.got.tgz:84507.got - 2010.06.03 16:44:36.
