data_PCOD9227472
_publ_section_title
;
Structure prediction by ZEFSAII (Michael W. Deem and Ramdas Pophale) SiO2 
 PCOD9227472
Probable space group: P 2/C
;
_chemical_formula_sum "Si O2"
_cell_formula_units_Z 28
_cell_length_a 9.602594
_cell_length_b 14.897851
_cell_length_c 12.094531
_cell_angle_alpha 90.000000
_cell_angle_beta 116.715424
_cell_angle_gamma 90.000000
_cell_volume 1545.519342
_symmetry_space_group_name_H-M "P 2/C"
_symmetry_group_IT_number 13
_symmetry_cell_setting 'monoclinic'
loop_
_space_group_symop_operation_xyz
x,y,z
-x,y,1/2-z
-x,-y,-z
x,-y,1/2+z
loop_
_atom_site_type_symbol
_atom_site_label
_atom_site_fract_x
_atom_site_fract_y
_atom_site_fract_z
Si Si1 0.000000 0.946282 0.250000
Si Si2 0.789621 0.428980 0.989327
Si Si3 0.657344 0.615571 0.675764
Si Si4 0.519503 0.197817 0.125624
Si Si5 0.500000 0.541525 0.250000
Si Si6 0.872534 0.369222 0.464781
Si Si7 0.850039 0.877412 0.763080
Si Si8 0.177415 0.173391 0.987976
O O1 0.071186 0.885303 0.370909
O O2 0.126878 0.015981 0.245440
O O3 0.642307 0.407290 0.858110
O O4 0.812915 0.537105 0.994791
O O5 0.753700 0.399378 0.099986
O O6 0.947874 0.385308 0.002107
O O7 0.535043 0.695431 0.613682
O O8 0.572517 0.524882 0.683500
O O9 0.770094 0.643602 0.816895
O O10 0.500000 0.184566 0.250000
O O11 0.685889 0.155468 0.154539
O O12 0.359225 0.160158 0.020792
O O13 0.854502 0.279967 0.529851
O O14 0.000000 0.837968 0.750000
O O15 0.851611 0.852824 0.893456
#
# Coordination Sequence:
#
# PCOD9227472 Si02
#       8
#     2   4   4   4   2   4   4   4
#     4  10  24  40  58  90 124 156 178 236 312 358
#     4  10  22  34  55  83 116 156 196 246 285 340
#     4  11  18  35  60  81 112 150 202 248 281 327
#     4  10  18  35  63  91 109 147 199 246 279 340
#     4  10  20  36  46  80 124 152 188 240 302 346
#     4  10  21  38  56  86 113 152 206 239 285 338
#     4   9  21  37  65  91 110 145 197 242 295 343
#     4  11  21  41  62  85 124 153 193 239 291 361
#
# _framework density 18.116886999999998
#
# number of rings (size 3 to 8) (size 9 to 14) (size 15 to 20)
#    0.429    1.429    3.571    2.143    2.000    0.571 
#   10.286    0.000    0.000    0.000    0.000    0.000 
#    0.000    0.000    0.000    0.000    0.000    0.000 
#
# Total GULP energy -156150.040585 kJ/mol
# GULP energy per Si atom -5576.787164 kJ/mol
# Density = 1.807565 g / cm^3
# Si number density = 18.116887 Si / 1000 Ang^3
#
#
#
# Elastic Constant Matrix: (Units=GPa)
#
#
# Indices 1 2 3 4 5 6 
#
# 1 101.0787 20.0008 20.3963 0.0000 14.4013 0.0000
# 2 20.0008 53.4276 16.4122 0.0000 2.5992 0.0000
# 3 20.3963 16.4122 34.7659 0.0000 4.2569 0.0000
# 4 0.0000 0.0000 0.0000 2.4888 0.0000 1.2829
# 5 14.4013 2.5992 4.2569 0.0000 8.4336 0.0000
# 6 0.0000 0.0000 0.0000 1.2829 0.0000 22.2026
#
#
#
# Elastic Compliance Matrix: (Units=1/GPa)
#
#
# Indices 1 2 3 4 5 6 
#
# 1 0.014444 -0.003002 -0.004423 0.000000 -0.021507 0.000000
# 2 -0.003002 0.022537 -0.009225 0.000000 0.002837 0.000000
# 3 -0.004423 -0.009225 0.036710 0.000000 -0.008133 0.000000
# 4 0.000000 0.000000 0.000000 0.414142 0.000000 -0.023931
# 5 -0.021507 0.002837 -0.008133 0.000000 0.158529 0.000000
# 6 0.000000 0.000000 0.000000 -0.023931 0.000000 0.046423
#
#
# Mechanical properties :
#
#
# Convention : Reuss Voigt Hill
#
# Bulk Modulus (GPa) = 24.75909 33.65452 29.20681
# Shear Modulus (GPa) = 6.76088 15.45584 11.10836
#
# Velocity S-wave (km/s) = 1.93389 2.92399 2.47887
# Velocity P-wave (km/s) = 4.32233 5.47871 4.93451
#
# Compressibility (1/GPa) = 0.04038920
#
# Stress axis : x y z
#
# Youngs Moduli (GPa) = 69.23220 44.37229 27.24072
#
# Poissons Ratio (x) = 0.13321 0.12050
# Poissons Ratio (y) = 0.20784 0.25130
# Poissons Ratio (z) = 0.30624 0.40934
#
# Static dielectric constant tensor:
#      x y z
#    x 1.641060 0.000000 0.021570 
#    y 0.000000 1.631890 0.000000 
#    z 0.021570 0.000000 1.610850 
# 
# From -- ./inp_files/30193.got.cif
#   From: 2010.05.17/outbox.cif.g08.bks.cpg/sg13_16_cif.got.tgz:30193.got - 2010.06.03 16:44:36.
