data_PCOD9227369
_publ_section_title
;
Structure prediction by ZEFSAII (Michael W. Deem and Ramdas Pophale) SiO2 
 PCOD9227369
Probable space group: P 2/C
;
_chemical_formula_sum "Si O2"
_cell_formula_units_Z 20
_cell_length_a 9.410901
_cell_length_b 7.326740
_cell_length_c 13.030079
_cell_angle_alpha 90.000000
_cell_angle_beta 51.382032
_cell_angle_gamma 90.000000
_cell_volume 701.973366
_symmetry_space_group_name_H-M "P 2/C"
_symmetry_group_IT_number 13
_symmetry_cell_setting 'monoclinic'
loop_
_space_group_symop_operation_xyz
x,y,z
-x,y,1/2-z
-x,-y,-z
x,-y,1/2+z
loop_
_atom_site_type_symbol
_atom_site_label
_atom_site_fract_x
_atom_site_fract_y
_atom_site_fract_z
Si Si1 0.386916 0.583083 0.208965
Si Si2 0.798503 0.093648 0.891814
Si Si3 0.681415 0.992777 0.228596
Si Si4 0.015955 0.779087 0.618120
Si Si5 0.266930 0.499027 0.058006
O O1 0.500000 0.490338 0.250000
O O2 0.298217 0.769760 0.290470
O O3 0.253226 0.483312 0.189334
O O4 0.556573 0.613886 0.055108
O O5 0.676258 0.010050 0.856327
O O6 0.724751 0.285433 0.963546
O O7 0.000000 0.140168 0.750000
O O8 0.834617 0.942167 0.961275
O O9 0.500000 0.039530 0.250000
O O10 0.840221 0.857702 0.642588
O O11 0.106511 0.584910 0.561941
O O12 0.000000 0.785905 0.750000
#
# Coordination Sequence:
#
# PCOD9227369 Si02
#       5
#     4   4   4   4   4
#     4   9  19  36  58  90 129 159 199 259 306 355
#     4   8  16  31  55  84 115 152 196 246 294 353
#     4   8  15  32  55  81 122 159 186 247 312 348
#     4   9  18  33  58  88 115 157 204 243 297 367
#     4  10  18  34  63  87 114 168 207 237 310 372
#
# _framework density 28.491108000000001
#
# number of rings (size 3 to 8) (size 9 to 14) (size 15 to 20)
#    0.000    3.600    0.000    0.600    0.000    0.000 
#    0.000   24.000    0.000   66.000    0.000   30.800 
#    0.000    0.000    0.000    0.000    0.000    0.000 
#
# Total GULP energy -111596.886600 kJ/mol
# GULP energy per Si atom -5579.844330 kJ/mol
# Density = 2.842626 g / cm^3
# Si number density = 28.491108 Si / 1000 Ang^3
#
#
#
# Elastic Constant Matrix: (Units=GPa)
#
#
# Indices 1 2 3 4 5 6 
#
# 1 269.0399 93.2373 32.4718 0.0000 9.8501 0.0000
# 2 93.2373 145.0606 18.3138 0.0000 -2.7582 0.0000
# 3 32.4718 18.3138 48.1434 0.0000 8.7356 0.0000
# 4 0.0000 0.0000 0.0000 25.9574 0.0000 -2.2614
# 5 9.8501 -2.7582 8.7356 0.0000 46.3593 0.0000
# 6 0.0000 0.0000 0.0000 -2.2614 0.0000 47.6836
#
#
#
# Elastic Compliance Matrix: (Units=1/GPa)
#
#
# Indices 1 2 3 4 5 6 
#
# 1 0.005038 -0.002988 -0.002107 0.000000 -0.000851 0.000000
# 2 -0.002988 0.009058 -0.001701 0.000000 0.001494 0.000000
# 3 -0.002107 -0.001701 0.023583 0.000000 -0.004097 0.000000
# 4 0.000000 0.000000 0.000000 0.038684 0.000000 0.001835
# 5 -0.000851 0.001494 -0.004097 0.000000 0.022612 0.000000
# 6 0.000000 0.000000 0.000000 0.001835 0.000000 0.021059
#
#
# Mechanical properties :
#
#
# Convention : Reuss Voigt Hill
#
# Bulk Modulus (GPa) = 41.51798 83.36550 62.44174
# Shear Modulus (GPa) = 35.29701 45.21481 40.25591
#
# Velocity S-wave (km/s) = 3.52359 3.98801 3.76297
# Velocity P-wave (km/s) = 5.58195 7.10840 6.39091
#
# Compressibility (1/GPa) = 0.02408595
#
# Stress axis : x y z
#
# Youngs Moduli (GPa) = 198.49140 110.40437 42.40373
#
# Poissons Ratio (x) = 0.32993 0.08934
# Poissons Ratio (y) = 0.59317 0.07213
# Poissons Ratio (z) = 0.41818 0.18781
#
# Static dielectric constant tensor:
#      x y z
#    x 2.204890 0.000000 -0.019510 
#    y 0.000000 2.249480 0.000000 
#    z -0.019510 0.000000 2.385500 
# 
# From -- ./inp_files/49485.got.cif
#   From: 2010.05.17/outbox.cif.g08.bks.cpg/sg13_25_cif.got.tgz:49485.got - 2010.06.03 16:44:36.
