data_PCOD9227614
_publ_section_title
;
Structure prediction by ZEFSAII (Michael W. Deem and Ramdas Pophale) SiO2 
 PCOD9227614
Probable space group: P 2/C
;
_chemical_formula_sum "Si O2"
_cell_formula_units_Z 18
_cell_length_a 5.146672
_cell_length_b 8.395611
_cell_length_c 16.464868
_cell_angle_alpha 90.000000
_cell_angle_beta 101.424263
_cell_angle_gamma 90.000000
_cell_volume 697.342543
_symmetry_space_group_name_H-M "P 2/C"
_symmetry_group_IT_number 13
_symmetry_cell_setting 'monoclinic'
loop_
_space_group_symop_operation_xyz
x,y,z
-x,y,1/2-z
-x,-y,-z
x,-y,1/2+z
loop_
_atom_site_type_symbol
_atom_site_label
_atom_site_fract_x
_atom_site_fract_y
_atom_site_fract_z
Si Si1 0.381469 0.664389 0.408331
Si Si2 0.000000 0.630993 0.250000
Si Si3 0.676744 0.401711 0.341694
Si Si4 0.081294 0.158569 0.552636
Si Si5 0.211909 0.928140 0.695012
O O1 0.504899 0.489365 0.399749
O O2 0.632781 0.770491 0.450479
O O3 0.258442 0.705742 0.310371
O O4 0.145499 0.708185 0.454922
O O5 0.896652 0.520541 0.318600
O O6 0.500000 0.377964 0.250000
O O7 0.779193 0.224697 0.364427
O O8 0.121211 0.087195 0.645462
O O9 0.000000 0.000000 0.500000
O O10 0.500000 0.952482 0.750000
O O11 0.000000 0.884633 0.750000
#
# Coordination Sequence:
#
# PCOD9227614 Si02
#       5
#     4   2   4   4   4
#     4  11  23  39  67  89 128 170 219 265 333 388
#     4  10  18  36  66  98 120 150 218 282 320 376
#     4   9  19  37  63  98 126 157 211 282 332 383
#     4  12  27  44  61  94 140 179 218 270 329 395
#     4  11  24  40  68  99 130 168 217 279 338 393
#
# _framework density 25.812280000000001
#
# number of rings (size 3 to 8) (size 9 to 14) (size 15 to 20)
#    0.000    1.333    3.333    2.000    4.667    0.000 
#    0.000    2.222    0.000    0.000    0.000    0.000 
#    0.000    0.000    0.000    0.000    0.000    0.000 
#
# Total GULP energy -100613.272818 kJ/mol
# GULP energy per Si atom -5589.626268 kJ/mol
# Density = 2.575353 g / cm^3
# Si number density = 25.812280 Si / 1000 Ang^3
#
#
#
# Elastic Constant Matrix: (Units=GPa)
#
#
# Indices 1 2 3 4 5 6 
#
# 1 165.5952 40.6693 24.9578 0.0000 10.9688 0.0000
# 2 40.6693 78.5684 8.3970 0.0000 10.9907 0.0000
# 3 24.9578 8.3970 59.6908 0.0000 5.4050 0.0000
# 4 0.0000 0.0000 0.0000 47.6721 0.0000 10.6287
# 5 10.9688 10.9907 5.4050 0.0000 25.2760 0.0000
# 6 0.0000 0.0000 0.0000 10.6287 0.0000 49.8592
#
#
#
# Elastic Compliance Matrix: (Units=1/GPa)
#
#
# Indices 1 2 3 4 5 6 
#
# 1 0.007315 -0.003356 -0.002479 0.000000 -0.001185 0.000000
# 2 -0.003356 0.015207 -0.000275 0.000000 -0.005098 0.000000
# 3 -0.002479 -0.000275 0.018070 0.000000 -0.002669 0.000000
# 4 0.000000 0.000000 0.000000 0.022023 0.000000 -0.004695
# 5 -0.001185 -0.005098 -0.002669 0.000000 0.042865 0.000000
# 6 0.000000 0.000000 0.000000 -0.004695 0.000000 0.021057
#
#
# Mechanical properties :
#
#
# Convention : Reuss Voigt Hill
#
# Bulk Modulus (GPa) = 35.24459 50.21138 42.72799
# Shear Modulus (GPa) = 33.73488 39.88348 36.80918
#
# Velocity S-wave (km/s) = 3.61907 3.93509 3.78038
# Velocity P-wave (km/s) = 5.58099 6.33571 5.97029
#
# Compressibility (1/GPa) = 0.02837315
#
# Stress axis : x y z
#
# Youngs Moduli (GPa) = 136.70276 65.75814 55.34065
#
# Poissons Ratio (x) = 0.22067 0.13720
# Poissons Ratio (y) = 0.45874 0.01520
# Poissons Ratio (z) = 0.33891 0.01806
#
# Static dielectric constant tensor:
#      x y z
#    x 2.057150 0.000000 0.062380 
#    y 0.000000 2.059410 0.000000 
#    z 0.062380 0.000000 2.064160 
# 
# From -- ./inp_files/60707.got.cif
#   From: 2010.05.17/outbox.cif.g08.bks.cpg/sg13_31_cif.got.tgz:60707.got - 2010.06.03 16:44:36.
