data_PCOD9227156
_publ_section_title
;
Structure prediction by ZEFSAII (Michael W. Deem and Ramdas Pophale) SiO2 
 PCOD9227156
Probable space group: P 2/C
;
_chemical_formula_sum "Si O2"
_cell_formula_units_Z 24
_cell_length_a 17.697599
_cell_length_b 8.792655
_cell_length_c 16.798101
_cell_angle_alpha 90.000000
_cell_angle_beta 153.023423
_cell_angle_gamma 90.000000
_cell_volume 1185.748850
_symmetry_space_group_name_H-M "P 2/C"
_symmetry_group_IT_number 13
_symmetry_cell_setting 'monoclinic'
loop_
_space_group_symop_operation_xyz
x,y,z
-x,y,1/2-z
-x,-y,-z
x,-y,1/2+z
loop_
_atom_site_type_symbol
_atom_site_label
_atom_site_fract_x
_atom_site_fract_y
_atom_site_fract_z
Si Si1 0.845382 0.315631 0.828579
Si Si2 0.181130 0.858627 0.616934
Si Si3 0.664067 0.047570 0.606362
Si Si4 0.147165 0.163490 0.494687
Si Si5 0.340885 0.607288 0.859372
Si Si6 0.245685 0.809886 0.917152
O O1 0.702885 0.223469 0.647242
O O2 0.817123 0.493230 0.791522
O O3 0.822982 0.265320 0.899331
O O4 0.015509 0.241767 0.957044
O O5 0.319667 0.731522 0.768820
O O6 0.189693 0.964045 0.704571
O O7 0.189608 0.987001 0.556799
O O8 0.500000 0.000000 0.500000
O O9 0.671956 0.971490 0.528254
O O10 0.251828 0.217733 0.516681
O O11 0.951597 0.179469 0.289159
O O12 0.330688 0.694298 0.934490
O O13 0.500000 0.500000 0.000000
#
# Coordination Sequence:
#
# PCOD9227156 Si02
#       6
#     4   4   4   4   4   4
#     4  11  18  35  60  87 115 158 201 238 292 366
#     4  10  19  36  58  89 113 154 209 238 286 357
#     4  10  18  33  56  83 116 154 196 242 289 353
#     4  10  19  36  63  90 113 147 209 265 289 339
#     4  11  23  37  58  89 126 161 196 241 307 377
#     4  10  20  37  59  89 118 150 203 256 306 336
#
# _framework density 20.240373999999999
#
# number of rings (size 3 to 8) (size 9 to 14) (size 15 to 20)
#    0.000    1.667    5.000    3.500    0.000    0.000 
#    0.000    9.167    0.000    4.000    0.000    0.000 
#    0.000    0.000    0.000    0.000    0.000    0.000 
#
# Total GULP energy -133759.611169 kJ/mol
# GULP energy per Si atom -5573.317132 kJ/mol
# Density = 2.019431 g / cm^3
# Si number density = 20.240374 Si / 1000 Ang^3
#
#
#
# Elastic Constant Matrix: (Units=GPa)
#
#
# Indices 1 2 3 4 5 6 
#
# 1 110.0381 15.8250 13.4676 0.0000 -10.7689 0.0000
# 2 15.8250 104.3883 17.6109 0.0000 -10.0325 0.0000
# 3 13.4676 17.6109 49.8814 0.0000 10.6184 0.0000
# 4 0.0000 0.0000 0.0000 40.1316 0.0000 8.6375
# 5 -10.7689 -10.0325 10.6184 0.0000 22.4438 0.0000
# 6 0.0000 0.0000 0.0000 8.6375 0.0000 24.3264
#
#
#
# Elastic Compliance Matrix: (Units=1/GPa)
#
#
# Indices 1 2 3 4 5 6 
#
# 1 0.010293 -0.000204 -0.004158 0.000000 0.006814 0.000000
# 2 -0.000204 0.011270 -0.005533 0.000000 0.007558 0.000000
# 3 -0.004158 -0.005533 0.026771 0.000000 -0.017133 0.000000
# 4 0.000000 0.000000 0.000000 0.026980 0.000000 -0.009580
# 5 0.006814 0.007558 -0.017133 0.000000 0.059310 0.000000
# 6 0.000000 0.000000 0.000000 -0.009580 0.000000 0.044509
#
#
# Mechanical properties :
#
#
# Convention : Reuss Voigt Hill
#
# Bulk Modulus (GPa) = 35.03226 39.79054 37.41140
# Shear Modulus (GPa) = 23.98818 31.87397 27.93108
#
# Velocity S-wave (km/s) = 3.44636 3.97264 3.71882
# Velocity P-wave (km/s) = 5.76040 6.38312 6.07974
#
# Compressibility (1/GPa) = 0.02854512
#
# Stress axis : x y z
#
# Youngs Moduli (GPa) = 97.15485 88.72889 37.35431
#
# Poissons Ratio (x) = 0.01811 0.15530
# Poissons Ratio (y) = 0.01982 0.20667
# Poissons Ratio (z) = 0.40393 0.49091
#
# Static dielectric constant tensor:
#      x y z
#    x 1.715190 0.000000 0.041170 
#    y 0.000000 1.740450 0.000000 
#    z 0.041170 0.000000 1.861560 
# 
# From -- ./inp_files/69512.got.cif
#   From: 2010.05.17/outbox.cif.g08.bks.cpg/sg13_35_cif.got.tgz:69512.got - 2010.06.03 16:44:36.
