data_PCOD9227579
_publ_section_title
;
Structure prediction by ZEFSAII (Michael W. Deem and Ramdas Pophale) SiO2 
 PCOD9227579
Probable space group: P 2/C
;
_chemical_formula_sum "Si O2"
_cell_formula_units_Z 30
_cell_length_a 11.989754
_cell_length_b 7.305700
_cell_length_c 13.702657
_cell_angle_alpha 90.000000
_cell_angle_beta 99.603124
_cell_angle_gamma 90.000000
_cell_volume 1183.444941
_symmetry_space_group_name_H-M "P 2/C"
_symmetry_group_IT_number 13
_symmetry_cell_setting 'monoclinic'
loop_
_space_group_symop_operation_xyz
x,y,z
-x,y,1/2-z
-x,-y,-z
x,-y,1/2+z
loop_
_atom_site_type_symbol
_atom_site_label
_atom_site_fract_x
_atom_site_fract_y
_atom_site_fract_z
Si Si1 0.754881 0.174638 0.273347
Si Si2 0.027868 0.292028 0.476771
Si Si3 0.438828 0.839879 0.898357
Si Si4 0.404905 0.218994 0.927935
Si Si5 0.725868 0.643388 0.471717
Si Si6 0.797450 0.213087 0.499253
Si Si7 0.373342 0.524783 0.240028
Si Si8 0.000000 0.821728 0.750000
O O1 0.633854 0.129284 0.210386
O O2 0.760496 0.140495 0.388716
O O3 0.737636 0.396744 0.263747
O O4 0.871181 0.100489 0.243561
O O5 0.155810 0.251623 0.523226
O O6 0.010316 0.275276 0.357593
O O7 0.000000 0.500000 0.500000
O O8 0.931253 0.183744 0.521990
O O9 0.483688 0.049243 0.911675
O O10 0.545382 0.724423 0.958320
O O11 0.344146 0.737486 0.952258
O O12 0.390000 0.359115 0.839905
O O13 0.282285 0.131339 0.930632
O O14 0.764590 0.432145 0.500839
O O15 0.653873 0.635864 0.361966
O O16 0.500000 0.434644 0.250000
#
# Coordination Sequence:
#
# PCOD9227579 Si02
#       8
#     4   4   4   4   4   4   4   2
#     4  10  22  37  65  91 114 152 198 240 300 344
#     4   9  18  34  58  89 117 148 191 240 300 342
#     4  11  23  39  61  83 116 167 193 239 296 358
#     4  11  25  40  56  84 124 156 199 240 298 350
#     4  10  19  38  62  86 114 151 197 242 297 340
#     4   9  21  38  60  91 114 147 196 252 288 355
#     4  11  23  39  59  90 119 150 197 252 293 347
#     4  10  18  36  62  90 120 150 188 248 292 352
#
# _framework density 25.349723000000001
#
# number of rings (size 3 to 8) (size 9 to 14) (size 15 to 20)
#    0.000    1.867    2.667    1.600    5.600    2.133 
#    0.000    0.667    2.933    0.000    0.000    0.000 
#    0.000    0.000    0.000    0.000    0.000    0.000 
#
# Total GULP energy -167029.033849 kJ/mol
# GULP energy per Si atom -5567.634462 kJ/mol
# Density = 2.529203 g / cm^3
# Si number density = 25.349723 Si / 1000 Ang^3
#
#
#
# Elastic Constant Matrix: (Units=GPa)
#
#
# Indices 1 2 3 4 5 6 
#
# 1 155.2330 0.3277 -4.4650 0.0000 25.2989 0.0000
# 2 0.3277 50.5329 17.0157 0.0000 2.5707 0.0000
# 3 -4.4650 17.0157 55.6818 0.0000 29.4003 0.0000
# 4 0.0000 0.0000 0.0000 17.3705 0.0000 10.2973
# 5 25.2989 2.5707 29.4003 0.0000 43.3885 0.0000
# 6 0.0000 0.0000 0.0000 10.2973 0.0000 19.7427
#
#
#
# Elastic Compliance Matrix: (Units=1/GPa)
#
#
# Indices 1 2 3 4 5 6 
#
# 1 0.007940 -0.001459 0.005421 0.000000 -0.008216 0.000000
# 2 -0.001459 0.023069 -0.010735 0.000000 0.006758 0.000000
# 3 0.005421 -0.010735 0.035825 0.000000 -0.026800 0.000000
# 4 0.000000 0.000000 0.000000 0.083336 0.000000 -0.043466
# 5 -0.008216 0.006758 -0.026800 0.000000 0.045598 0.000000
# 6 0.000000 0.000000 0.000000 -0.043466 0.000000 0.073322
#
#
# Mechanical properties :
#
#
# Convention : Reuss Voigt Hill
#
# Bulk Modulus (GPa) = 18.76582 31.91162 25.33872
# Shear Modulus (GPa) = 16.64455 32.67163 24.65809
#
# Velocity S-wave (km/s) = 2.56519 3.59393 3.12222
# Velocity P-wave (km/s) = 4.02399 5.46239 4.79740
#
# Compressibility (1/GPa) = 0.05328837
#
# Stress axis : x y z
#
# Youngs Moduli (GPa) = 125.94491 43.34736 27.91363
#
# Poissons Ratio (x) = 0.06324 -0.15131
# Poissons Ratio (y) = 0.18373 0.29965
# Poissons Ratio (z) = -0.68272 0.46533
#
# Static dielectric constant tensor:
#      x y z
#    x 2.103360 0.000000 -0.098800 
#    y 0.000000 2.190420 0.000000 
#    z -0.098800 0.000000 2.365000 
# 
# From -- ./inp_files/50129.got.cif
#   From: 2010.05.17/outbox.cif.g08.bks.cpg/sg13_26_cif.got.tgz:50129.got - 2010.06.03 16:44:36.
