data_PCOD9227697
_publ_section_title
;
Structure prediction by ZEFSAII (Michael W. Deem and Ramdas Pophale) SiO2 
 PCOD9227697
Probable space group: P 2/C
;
_chemical_formula_sum "Si O2"
_cell_formula_units_Z 32
_cell_length_a 15.061833
_cell_length_b 8.345915
_cell_length_c 16.122907
_cell_angle_alpha 90.000000
_cell_angle_beta 52.241790
_cell_angle_gamma 90.000000
_cell_volume 1602.333656
_symmetry_space_group_name_H-M "P 2/C"
_symmetry_group_IT_number 13
_symmetry_cell_setting 'monoclinic'
loop_
_space_group_symop_operation_xyz
x,y,z
-x,y,1/2-z
-x,-y,-z
x,-y,1/2+z
loop_
_atom_site_type_symbol
_atom_site_label
_atom_site_fract_x
_atom_site_fract_y
_atom_site_fract_z
Si Si1 0.901403 0.306613 0.255107
Si Si2 0.578021 0.307157 0.633060
Si Si3 0.062133 0.428311 0.041356
Si Si4 0.754896 0.052852 0.253526
Si Si5 0.495156 0.987999 0.601181
Si Si6 0.804554 0.112472 0.552250
Si Si7 0.749463 0.481407 0.959860
Si Si8 0.738101 0.884729 0.445371
O O1 0.833953 0.202659 0.227763
O O2 0.811377 0.387502 0.367052
O O3 0.000000 0.215303 0.250000
O O4 0.974790 0.440140 0.166854
O O5 0.500000 0.373164 0.750000
O O6 0.688754 0.212718 0.602865
O O7 0.626822 0.447285 0.547687
O O8 0.506161 0.167988 0.629908
O O9 0.177117 0.517625 0.997972
O O10 0.096413 0.242441 0.011282
O O11 0.000000 0.500000 0.000000
O O12 0.623902 0.088014 0.307367
O O13 0.800181 0.959452 0.147183
O O14 0.750818 0.964705 0.346709
O O15 0.610969 0.898903 0.554846
O O16 0.500000 0.000000 0.500000
O O17 0.808645 0.981457 0.475236
O O18 0.758096 0.302882 0.922151
#
# Coordination Sequence:
#
# PCOD9227697 Si02
#       8
#     4   4   4   4   4   4   4   4
#     4  10  22  43  61  84 122 170 207 260 328 366
#     4  10  18  38  62  88 128 165 200 251 321 382
#     4  10  23  42  62  87 123 163 208 265 317 373
#     4  11  21  39  66  91 121 163 215 256 313 379
#     4   9  18  36  61  89 120 159 203 251 307 374
#     4  10  22  40  66  92 124 163 211 260 315 376
#     4  10  22  41  62  86 128 169 202 258 324 378
#     4  10  22  39  61  95 127 158 211 259 308 384
#
# _framework density 19.970870999999999
#
# number of rings (size 3 to 8) (size 9 to 14) (size 15 to 20)
#    0.000    2.000    1.250    3.750    3.500    0.500 
#    4.500    5.625    0.000    0.000    0.000    0.000 
#    0.000    0.000    0.000    0.000    0.000    0.000 
#
# Total GULP energy -178291.868227 kJ/mol
# GULP energy per Si atom -5571.620882 kJ/mol
# Density = 1.992542 g / cm^3
# Si number density = 19.970871 Si / 1000 Ang^3
#
#
#
# Elastic Constant Matrix: (Units=GPa)
#
#
# Indices 1 2 3 4 5 6 
#
# 1 65.4509 17.9432 9.6464 0.0000 4.5733 0.0000
# 2 17.9432 53.6695 5.6416 0.0000 1.9530 0.0000
# 3 9.6464 5.6416 93.3868 0.0000 2.4060 0.0000
# 4 0.0000 0.0000 0.0000 20.3434 0.0000 8.9842
# 5 4.5733 1.9530 2.4060 0.0000 30.2178 0.0000
# 6 0.0000 0.0000 0.0000 8.9842 0.0000 11.2073
#
#
#
# Elastic Compliance Matrix: (Units=1/GPa)
#
#
# Indices 1 2 3 4 5 6 
#
# 1 0.017141 -0.005508 -0.001383 0.000000 -0.002128 0.000000
# 2 -0.005508 0.020560 -0.000662 0.000000 -0.000443 0.000000
# 3 -0.001383 -0.000662 0.010907 0.000000 -0.000616 0.000000
# 4 0.000000 0.000000 0.000000 0.076096 0.000000 -0.061001
# 5 -0.002128 -0.000443 -0.000616 0.000000 0.033493 0.000000
# 6 0.000000 0.000000 0.000000 -0.061001 0.000000 0.138128
#
#
# Mechanical properties :
#
#
# Convention : Reuss Voigt Hill
#
# Bulk Modulus (GPa) = 29.84862 30.99661 30.42262
# Shear Modulus (GPa) = 15.49919 24.30544 19.90231
#
# Velocity S-wave (km/s) = 2.78886 3.49240 3.16027
# Velocity P-wave (km/s) = 5.03476 5.64066 5.34630
#
# Compressibility (1/GPa) = 0.03350239
#
# Stress axis : x y z
#
# Youngs Moduli (GPa) = 58.33910 48.63888 91.68539
#
# Poissons Ratio (x) = 0.26790 0.12680
# Poissons Ratio (y) = 0.32133 0.06067
# Poissons Ratio (z) = 0.08068 0.03218
#
# Static dielectric constant tensor:
#      x y z
#    x 1.746520 0.000000 -0.001150 
#    y 0.000000 1.709160 0.000000 
#    z -0.001150 0.000000 1.725690 
# 
# From -- ./inp_files/53035.got.cif
#   From: 2010.05.17/outbox.cif.g08.bks.cpg/sg13_27_cif.got.tgz:53035.got - 2010.06.03 16:44:36.
