data_PCOD9227656
_publ_section_title
;
Structure prediction by ZEFSAII (Michael W. Deem and Ramdas Pophale) SiO2 
 PCOD9227656
Probable space group: P 2/C
;
_chemical_formula_sum "Si O2"
_cell_formula_units_Z 24
_cell_length_a 8.587616
_cell_length_b 14.122715
_cell_length_c 9.011334
_cell_angle_alpha 90.000000
_cell_angle_beta 103.789103
_cell_angle_gamma 90.000000
_cell_volume 1061.400927
_symmetry_space_group_name_H-M "P 2/C"
_symmetry_group_IT_number 13
_symmetry_cell_setting 'monoclinic'
loop_
_space_group_symop_operation_xyz
x,y,z
-x,y,1/2-z
-x,-y,-z
x,-y,1/2+z
loop_
_atom_site_type_symbol
_atom_site_label
_atom_site_fract_x
_atom_site_fract_y
_atom_site_fract_z
Si Si1 0.500000 0.279414 0.750000
Si Si2 0.997380 0.304448 0.005160
Si Si3 0.000000 0.027943 0.750000
Si Si4 0.784600 0.362231 0.672191
Si Si5 0.500000 0.844508 0.750000
Si Si6 0.278081 0.823216 0.964182
Si Si7 0.000000 0.462770 0.250000
Si Si8 0.223623 0.959463 0.538751
O O1 0.601103 0.346106 0.664429
O O2 0.384403 0.214866 0.624643
O O3 0.879662 0.329691 0.841586
O O4 0.164587 0.297426 0.955858
O O5 0.898898 0.223417 0.067530
O O6 0.022935 0.393320 0.117680
O O7 0.880001 0.086208 0.617773
O O8 0.109642 0.970980 0.657272
O O9 0.850839 0.468945 0.674080
O O10 0.373677 0.797096 0.835097
O O11 0.385203 0.907940 0.619613
O O12 0.260443 0.935379 0.985511
#
# Coordination Sequence:
#
# PCOD9227656 Si02
#       8
#     2   4   2   4   2   4   2   4
#     4  10  23  38  61  96 124 166 208 258 333 380
#     4   9  20  37  60  90 116 158 207 248 319 366
#     4  10  24  41  65  94 120 158 242 258 324 385
#     4   9  18  39  61  89 121 160 206 246 300 399
#     4  12  25  44  65  90 132 174 218 274 343 380
#     4  11  24  41  61  89 127 163 211 274 323 385
#     4  10  18  37  65  88 122 166 204 254 306 383
#     4  11  23  44  64  95 123 174 222 276 320 397
#
# _framework density 22.611625
#
# number of rings (size 3 to 8) (size 9 to 14) (size 15 to 20)
#    0.000    2.000    1.667    3.000    2.333    4.667 
#    3.000    8.333    0.000    0.000    0.000    0.000 
#    0.000    0.000    0.000    0.000    0.000    0.000 
#
# Total GULP energy -133983.527339 kJ/mol
# GULP energy per Si atom -5582.646972 kJ/mol
# Density = 2.256016 g / cm^3
# Si number density = 22.611625 Si / 1000 Ang^3
#
#
#
# Elastic Constant Matrix: (Units=GPa)
#
#
# Indices 1 2 3 4 5 6 
#
# 1 120.2571 34.1216 46.9201 0.0000 -20.3449 0.0000
# 2 34.1216 82.1922 29.1892 0.0000 -6.9615 0.0000
# 3 46.9201 29.1892 128.6952 0.0000 -12.7132 0.0000
# 4 0.0000 0.0000 0.0000 11.7191 0.0000 -9.1666
# 5 -20.3449 -6.9615 -12.7132 0.0000 52.3828 0.0000
# 6 0.0000 0.0000 0.0000 -9.1666 0.0000 6.5968
#
#
#
# Elastic Compliance Matrix: (Units=1/GPa)
#
#
# Indices 1 2 3 4 5 6 
#
# 1 0.010898 -0.003219 -0.002938 0.000000 0.003092 0.000000
# 2 -0.003219 0.014241 -0.002042 0.000000 0.000147 0.000000
# 3 -0.002938 -0.002042 0.009390 0.000000 0.000867 0.000000
# 4 0.000000 0.000000 0.000000 -0.982025 0.000000 -1.364571
# 5 0.003092 0.000147 0.000867 0.000000 0.020521 0.000000
# 6 0.000000 0.000000 0.000000 -1.364571 0.000000 -1.744548
#
#
# Mechanical properties :
#
#
# Convention : Reuss Voigt Hill
#
# Bulk Modulus (GPa) = 55.15255 61.28960 58.22108
# Shear Modulus (GPa) = -1.88745 28.86730 13.48993
#
# Velocity S-wave (km/s) = -0.91462 3.57691 2.44517
# Velocity P-wave (km/s) = 4.82999 6.65006 5.81171
#
# Compressibility (1/GPa) = 0.01813153
#
# Stress axis : x y z
#
# Youngs Moduli (GPa) = 91.75817 70.22210 106.49583
#
# Poissons Ratio (x) = 0.22606 0.31286
# Poissons Ratio (y) = 0.29538 0.21744
# Poissons Ratio (z) = 0.26956 0.14337
#
# Static dielectric constant tensor:
#      x y z
#    x 1.972030 0.000000 -0.032150 
#    y 0.000000 1.871380 0.000000 
#    z -0.032150 0.000000 1.868320 
# 
# From -- ./inp_files/12522.got.cif
#   From: 2010.05.17/outbox.cif.g08.bks.cpg/sg13_7_cif.got.tgz:12522.got - 2010.06.03 16:44:36.
