data_PCOD9227319
_publ_section_title
;
Structure prediction by ZEFSAII (Michael W. Deem and Ramdas Pophale) SiO2 
 PCOD9227319
Probable space group: P 2/C
;
_chemical_formula_sum "Si O2"
_cell_formula_units_Z 32
_cell_length_a 15.079328
_cell_length_b 14.417348
_cell_length_c 21.635639
_cell_angle_alpha 90.000000
_cell_angle_beta 160.338760
_cell_angle_gamma 90.000000
_cell_volume 1582.589662
_symmetry_space_group_name_H-M "P 2/C"
_symmetry_group_IT_number 13
_symmetry_cell_setting 'monoclinic'
loop_
_space_group_symop_operation_xyz
x,y,z
-x,y,1/2-z
-x,-y,-z
x,-y,1/2+z
loop_
_atom_site_type_symbol
_atom_site_label
_atom_site_fract_x
_atom_site_fract_y
_atom_site_fract_z
Si Si1 0.535467 0.440764 0.847492
Si Si2 0.106756 0.995453 0.891520
Si Si3 0.544326 0.353190 0.206648
Si Si4 0.490756 0.145311 0.879872
Si Si5 0.865147 0.719776 0.420023
Si Si6 0.103708 0.282898 0.415680
Si Si7 0.340221 0.855410 0.872614
Si Si8 0.236918 0.814214 0.451124
O O1 0.500000 0.447016 0.750000
O O2 0.493289 0.543556 0.845668
O O3 0.310951 0.366972 0.719157
O O4 0.814294 0.389237 0.042716
O O5 0.000000 0.996133 0.750000
O O6 0.889749 0.932767 0.783361
O O7 0.144542 0.101873 0.934505
O O8 0.389077 0.944432 0.075142
O O9 0.500000 0.361942 0.250000
O O10 0.833758 0.311378 0.385888
O O11 0.336245 0.278625 0.046918
O O12 0.228643 0.190699 0.679936
O O13 0.720934 0.220467 0.014843
O O14 0.498204 0.128663 0.958104
O O15 0.809152 0.735949 0.456083
O O16 0.809123 0.243762 0.218805
O O17 0.528106 0.854108 0.937449
O O18 0.000000 0.791672 0.250000
#
# Coordination Sequence:
#
# PCOD9227319 Si02
#       8
#     4   4   4   4   4   4   4   4
#     4   8  17  33  60  83 107 148 190 228 265 333
#     4   8  18  36  57  83 108 144 187 225 269 334
#     4  11  23  39  53  79 118 152 187 227 278 335
#     4   9  18  31  58  90 110 137 183 237 276 326
#     4  10  18  34  59  85 110 147 187 232 280 323
#     4   9  16  34  59  89 110 139 188 236 275 317
#     4  10  19  37  61  86 110 144 187 230 282 328
#     4  11  24  40  58  80 113 153 185 231 279 334
#
# _framework density 20.220022
#
# number of rings (size 3 to 8) (size 9 to 14) (size 15 to 20)
#    0.000    2.500    1.250    2.625    1.750    4.500 
#    0.000    5.625    0.000    3.750    0.000    0.000 
#    0.000    0.000    0.000    0.000    0.000    0.000 
#
# Total GULP energy -178424.071415 kJ/mol
# GULP energy per Si atom -5575.752232 kJ/mol
# Density = 2.017400 g / cm^3
# Si number density = 20.220022 Si / 1000 Ang^3
#
#
#
# Elastic Constant Matrix: (Units=GPa)
#
#
# Indices 1 2 3 4 5 6 
#
# 1 35.0730 -1.0285 -5.1386 0.0000 1.4185 0.0000
# 2 -1.0285 128.7015 62.9127 0.0000 -2.7435 0.0000
# 3 -5.1386 62.9127 74.9133 0.0000 12.4498 0.0000
# 4 0.0000 0.0000 0.0000 64.2767 0.0000 -6.1458
# 5 1.4185 -2.7435 12.4498 0.0000 19.4990 0.0000
# 6 0.0000 0.0000 0.0000 -6.1458 0.0000 21.8846
#
#
#
# Elastic Compliance Matrix: (Units=1/GPa)
#
#
# Indices 1 2 3 4 5 6 
#
# 1 0.029374 -0.002233 0.004808 0.000000 -0.005521 0.000000
# 2 -0.002233 0.015351 -0.015025 0.000000 0.011916 0.000000
# 3 0.004808 -0.015025 0.029876 0.000000 -0.021539 0.000000
# 4 0.000000 0.000000 0.000000 0.015987 0.000000 0.004490
# 5 -0.005521 0.011916 -0.021539 0.000000 0.067116 0.000000
# 6 0.000000 0.000000 0.000000 0.004490 0.000000 0.046955
#
#
# Mechanical properties :
#
#
# Convention : Reuss Voigt Hill
#
# Bulk Modulus (GPa) = 20.12060 39.13102 29.62581
# Shear Modulus (GPa) = 20.31476 33.26153 26.78815
#
# Velocity S-wave (km/s) = 3.17312 4.06024 3.64377
# Velocity P-wave (km/s) = 4.83708 6.43236 5.69090
#
# Compressibility (1/GPa) = 0.04970031
#
# Stress axis : x y z
#
# Youngs Moduli (GPa) = 34.04357 65.14342 33.47128
#
# Poissons Ratio (x) = 0.14547 -0.16092
# Poissons Ratio (y) = 0.07602 0.50291
# Poissons Ratio (z) = -0.16367 0.97879
#
# Static dielectric constant tensor:
#      x y z
#    x 20.880910 0.000000 4.439720 
#    y 0.000000 1.776460 0.000000 
#    z 4.439720 0.000000 2.748200 
# 
# From -- ./inp_files/76636.got.cif
#   From: 2010.05.17/outbox.cif.g08.bks.cpg/sg13_39_cif.got.tgz:76636.got - 2010.06.03 16:44:36.
