data_PCOD9227313
_publ_section_title
;
Structure prediction by ZEFSAII (Michael W. Deem and Ramdas Pophale) SiO2 
 PCOD9227313
Probable space group: P 2/C
;
_chemical_formula_sum "Si O2"
_cell_formula_units_Z 26
_cell_length_a 8.906727
_cell_length_b 5.632491
_cell_length_c 29.913089
_cell_angle_alpha 90.000000
_cell_angle_beta 121.188452
_cell_angle_gamma 90.000000
_cell_volume 1283.760504
_symmetry_space_group_name_H-M "P 2/C"
_symmetry_group_IT_number 13
_symmetry_cell_setting 'monoclinic'
loop_
_space_group_symop_operation_xyz
x,y,z
-x,y,1/2-z
-x,-y,-z
x,-y,1/2+z
loop_
_atom_site_type_symbol
_atom_site_label
_atom_site_fract_x
_atom_site_fract_y
_atom_site_fract_z
Si Si1 0.335429 0.138832 0.305754
Si Si2 0.620899 0.155581 0.895759
Si Si3 0.615008 0.484208 0.320627
Si Si4 0.913320 0.885113 0.881842
Si Si5 0.830027 0.206990 0.791021
Si Si6 0.000000 0.561158 0.750000
Si Si7 0.088809 0.246970 0.495338
O O1 0.455424 0.303012 0.292020
O O2 0.164891 0.286585 0.292449
O O3 0.459275 0.025468 0.363283
O O4 0.258175 0.936222 0.262543
O O5 0.575311 0.393539 0.862027
O O6 0.782054 0.042016 0.892395
O O7 0.710957 0.225964 0.956337
O O8 0.792930 0.334310 0.349608
O O9 0.669261 0.685804 0.294522
O O10 0.061625 0.782825 0.937810
O O11 0.943475 0.043703 0.842441
O O12 0.940968 0.404866 0.782949
O O13 0.000000 0.500000 0.500000
O O14 0.000000 0.000000 0.500000
#
# Coordination Sequence:
#
# PCOD9227313 Si02
#       7
#     4   4   4   4   4   2   4
#     4  11  24  39  58  86 120 162 210 261 320 386
#     4   9  19  33  56  88 124 159 201 253 318 379
#     4  10  20  36  58  88 118 153 192 257 320 380
#     4   9  19  33  56  88 124 159 201 253 318 379
#     4  11  24  39  58  86 120 162 210 261 320 386
#     4  12  26  42  56  76 120 170 218 260 320 390
#     4  10  18  34  58  93 135 167 208 259 325 385
#
# _framework density 20.252998999999999
#
# number of rings (size 3 to 8) (size 9 to 14) (size 15 to 20)
#    0.000    1.846    1.538    2.308    0.000   14.769 
#    0.000    0.000    0.000    0.923    0.000   10.769 
#    0.000    0.000    0.000    0.000    0.000    0.000 
#
# Total GULP energy -144879.371826 kJ/mol
# GULP energy per Si atom -5572.283532 kJ/mol
# Density = 2.020690 g / cm^3
# Si number density = 20.252999 Si / 1000 Ang^3
#
#
#
# Elastic Constant Matrix: (Units=GPa)
#
#
# Indices 1 2 3 4 5 6 
#
# 1 65.5438 33.7423 55.3639 0.0000 20.4107 0.0000
# 2 33.7423 99.0732 46.2862 0.0000 18.6785 0.0000
# 3 55.3639 46.2862 142.5240 0.0000 28.3532 0.0000
# 4 0.0000 0.0000 0.0000 7.6139 0.0000 2.2985
# 5 20.4107 18.6785 28.3532 0.0000 12.9113 0.0000
# 6 0.0000 0.0000 0.0000 2.2985 0.0000 38.3977
#
#
#
# Elastic Compliance Matrix: (Units=1/GPa)
#
#
# Indices 1 2 3 4 5 6 
#
# 1 0.031526 -0.001549 -0.004039 0.000000 -0.038727 0.000000
# 2 -0.001549 0.014022 -0.000717 0.000000 -0.016263 0.000000
# 3 -0.004039 -0.000717 0.013037 0.000000 -0.021207 0.000000
# 4 0.000000 0.000000 0.000000 0.133757 0.000000 -0.008007
# 5 -0.038727 -0.016263 -0.021207 0.000000 0.208770 0.000000
# 6 0.000000 0.000000 0.000000 -0.008007 0.000000 0.026523
#
#
# Mechanical properties :
#
#
# Convention : Reuss Voigt Hill
#
# Bulk Modulus (GPa) = 21.75085 64.21396 42.98240
# Shear Modulus (GPa) = 10.97528 23.23448 17.10488
#
# Velocity S-wave (km/s) = 2.33042 3.39073 2.90928
# Velocity P-wave (km/s) = 4.24311 6.86324 5.70562
#
# Compressibility (1/GPa) = 0.04597522
#
# Stress axis : x y z
#
# Youngs Moduli (GPa) = 31.72000 71.31653 76.70432
#
# Poissons Ratio (x) = 0.11045 0.30982
# Poissons Ratio (y) = 0.04913 0.05499
# Poissons Ratio (z) = 0.12812 0.05113
#
# Static dielectric constant tensor:
#      x y z
#    x 1.704180 0.000000 0.003530 
#    y 0.000000 1.874840 0.000000 
#    z 0.003530 0.000000 1.827910 
# 
# From -- ./inp_files/90845.got.cif
#   From: 2010.05.17/outbox.cif.g08.bks.cpg/sg13_46_cif.got.tgz:90845.got - 2010.06.03 16:44:36.
