data_PCOD9227517
_publ_section_title
;
Structure prediction by ZEFSAII (Michael W. Deem and Ramdas Pophale) SiO2 
 PCOD9227517
Probable space group: P 2/C
;
_chemical_formula_sum "Si O2"
_cell_formula_units_Z 26
_cell_length_a 7.815885
_cell_length_b 12.711515
_cell_length_c 12.432249
_cell_angle_alpha 90.000000
_cell_angle_beta 66.972962
_cell_angle_gamma 90.000000
_cell_volume 1136.748021
_symmetry_space_group_name_H-M "P 2/C"
_symmetry_group_IT_number 13
_symmetry_cell_setting 'monoclinic'
loop_
_space_group_symop_operation_xyz
x,y,z
-x,y,1/2-z
-x,-y,-z
x,-y,1/2+z
loop_
_atom_site_type_symbol
_atom_site_label
_atom_site_fract_x
_atom_site_fract_y
_atom_site_fract_z
Si Si1 0.000000 0.074689 0.250000
Si Si2 0.544909 0.419445 0.626912
Si Si3 0.735572 0.927746 0.438141
Si Si4 0.844049 0.590806 0.633580
Si Si5 0.412731 0.881145 0.388514
Si Si6 0.231266 0.438086 0.119010
Si Si7 0.007036 0.804283 0.521683
O O1 0.977424 0.143377 0.147162
O O2 0.824635 0.999967 0.322016
O O3 0.500000 0.362232 0.750000
O O4 0.679356 0.518819 0.628219
O O5 0.657153 0.375721 0.498937
O O6 0.353766 0.463143 0.625279
O O7 0.580951 0.850606 0.427285
O O8 0.900294 0.869168 0.457465
O O9 0.646103 0.005000 0.549013
O O10 0.786170 0.628515 0.767780
O O11 0.916506 0.688823 0.548372
O O12 0.033447 0.528425 0.618198
O O13 0.500000 0.887890 0.250000
O O14 0.224156 0.814629 0.439934
#
# Coordination Sequence:
#
# PCOD9227517 Si02
#       7
#     2   4   4   4   4   4   4
#     4  10  18  36  58  78 110 152 196 234 272 324
#     4   9  18  34  59  85 109 141 179 219 265 327
#     4  10  20  34  57  82 108 149 197 235 271 325
#     4  10  20  34  55  84 114 143 176 224 278 324
#     4  10  20  36  56  79 110 151 192 230 275 329
#     4   9  18  35  57  81 110 142 178 218 263 327
#     4  11  22  35  55  84 115 145 184 237 285 326
#
# _framework density 22.872261000000002
#
# number of rings (size 3 to 8) (size 9 to 14) (size 15 to 20)
#    0.000    2.154    0.000    5.077    0.000    1.231 
#    0.000   12.308    0.000   18.462    0.000    0.000 
#    0.000    0.000    0.000    0.000    0.000    0.000 
#
# Total GULP energy -145136.727594 kJ/mol
# GULP energy per Si atom -5582.181831 kJ/mol
# Density = 2.282020 g / cm^3
# Si number density = 22.872261 Si / 1000 Ang^3
#
#
#
# Elastic Constant Matrix: (Units=GPa)
#
#
# Indices 1 2 3 4 5 6 
#
# 1 135.1511 32.7759 21.9604 0.0000 -2.9435 0.0000
# 2 32.7759 44.7400 21.7491 0.0000 -4.3940 0.0000
# 3 21.9604 21.7491 170.7630 0.0000 -19.0476 0.0000
# 4 0.0000 0.0000 0.0000 14.0228 0.0000 -6.4719
# 5 -2.9435 -4.3940 -19.0476 0.0000 32.2105 0.0000
# 6 0.0000 0.0000 0.0000 -6.4719 0.0000 13.9447
#
#
#
# Elastic Compliance Matrix: (Units=1/GPa)
#
#
# Indices 1 2 3 4 5 6 
#
# 1 0.009018 -0.006455 -0.000368 0.000000 -0.000274 0.000000
# 2 -0.006455 0.028520 -0.002606 0.000000 0.001760 0.000000
# 3 -0.000368 -0.002606 0.006629 0.000000 0.003531 0.000000
# 4 0.000000 0.000000 0.000000 0.090751 0.000000 0.042118
# 5 -0.000274 0.001760 0.003531 0.000000 0.033349 0.000000
# 6 0.000000 0.000000 0.000000 0.042118 0.000000 0.091259
#
#
# Mechanical properties :
#
#
# Convention : Reuss Voigt Hill
#
# Bulk Modulus (GPa) = 39.51114 55.95833 47.73474
# Shear Modulus (GPa) = 17.43250 30.31351 23.87301
#
# Velocity S-wave (km/s) = 2.76373 3.64447 3.23422
# Velocity P-wave (km/s) = 5.24371 6.49833 5.90444
#
# Compressibility (1/GPa) = 0.02530932
#
# Stress axis : x y z
#
# Youngs Moduli (GPa) = 110.88535 35.06359 150.84754
#
# Poissons Ratio (x) = 0.22632 0.05555
# Poissons Ratio (y) = 0.71572 0.39311
# Poissons Ratio (z) = 0.04084 0.09138
#
# Static dielectric constant tensor:
#      x y z
#    x 1.861750 0.000000 -0.019660 
#    y 0.000000 1.849630 0.000000 
#    z -0.019660 0.000000 1.930640 
# 
# From -- ./inp_files/30024.got.cif
#   From: 2010.05.17/outbox.cif.g08.bks.cpg/sg13_16_cif.got.tgz:30024.got - 2010.06.03 16:44:36.
