data_PCOD9227415
_publ_section_title
;
Structure prediction by ZEFSAII (Michael W. Deem and Ramdas Pophale) SiO2 
 PCOD9227415
Probable space group: P 2/C
;
_chemical_formula_sum "Si O2"
_cell_formula_units_Z 26
_cell_length_a 7.658999
_cell_length_b 14.805705
_cell_length_c 10.296121
_cell_angle_alpha 90.000000
_cell_angle_beta 69.683323
_cell_angle_gamma 90.000000
_cell_volume 1094.912398
_symmetry_space_group_name_H-M "P 2/C"
_symmetry_group_IT_number 13
_symmetry_cell_setting 'monoclinic'
loop_
_space_group_symop_operation_xyz
x,y,z
-x,y,1/2-z
-x,-y,-z
x,-y,1/2+z
loop_
_atom_site_type_symbol
_atom_site_label
_atom_site_fract_x
_atom_site_fract_y
_atom_site_fract_z
Si Si1 0.000000 0.103950 0.750000
Si Si2 0.205974 0.754233 0.906634
Si Si3 0.715452 0.605131 0.029100
Si Si4 0.187696 0.935768 0.632509
Si Si5 0.201789 0.197869 0.902764
Si Si6 0.500000 0.891857 0.750000
Si Si7 0.610327 0.414364 0.094009
Si Si8 0.000000 0.339621 0.250000
O O1 0.172171 0.159154 0.766680
O O2 0.099780 0.033816 0.623418
O O3 0.371837 0.824454 0.867781
O O4 0.242764 0.662673 0.974821
O O5 0.162939 0.720604 0.770809
O O6 0.014364 0.792151 0.004862
O O7 0.537013 0.591758 0.983287
O O8 0.897690 0.606553 0.890168
O O9 0.711135 0.702349 0.101724
O O10 0.703451 0.510149 0.107115
O O11 0.263598 0.876897 0.492662
O O12 0.352906 0.943210 0.696050
O O13 0.000000 0.894427 0.750000
O O14 0.500000 0.383980 0.250000
#
# Coordination Sequence:
#
# PCOD9227415 Si02
#       8
#     2   4   4   4   4   2   4   2
#     4  10  24  47  63  92 142 174 212 288 351 407
#     4  11  19  33  63  92 123 164 219 272 313 392
#     4  10  23  38  62  90 129 177 219 284 330 400
#     4  10  22  39  71  96 129 168 220 281 337 398
#     4  11  22  43  66  96 132 178 225 274 341 408
#     4  12  18  36  68 106 122 166 222 282 330 394
#     4  11  21  40  59  93 135 172 224 277 338 392
#     4  10  18  35  57  90 122 162 230 264 317 387
#
# _framework density 23.746193000000002
#
# number of rings (size 3 to 8) (size 9 to 14) (size 15 to 20)
#    0.462    0.923    3.846    3.231    1.077    2.462 
#    5.538    5.385    0.000    0.000    0.000    0.000 
#    0.000    0.000    0.000    0.000    0.000    0.000 
#
# Total GULP energy -144945.288211 kJ/mol
# GULP energy per Si atom -5574.818777 kJ/mol
# Density = 2.369215 g / cm^3
# Si number density = 23.746193 Si / 1000 Ang^3
#
#
#
# Elastic Constant Matrix: (Units=GPa)
#
#
# Indices 1 2 3 4 5 6 
#
# 1 102.1647 33.6018 5.1209 0.0000 17.3364 0.0000
# 2 33.6018 129.8092 11.3498 0.0000 15.8689 0.0000
# 3 5.1209 11.3498 16.6880 0.0000 6.7338 0.0000
# 4 0.0000 0.0000 0.0000 28.8041 0.0000 6.6120
# 5 17.3364 15.8689 6.7338 0.0000 28.8188 0.0000
# 6 0.0000 0.0000 0.0000 6.6120 0.0000 43.0216
#
#
#
# Elastic Compliance Matrix: (Units=1/GPa)
#
#
# Indices 1 2 3 4 5 6 
#
# 1 0.011502 -0.002308 0.000352 0.000000 -0.005731 0.000000
# 2 -0.002308 0.008995 -0.004384 0.000000 -0.002540 0.000000
# 3 0.000352 -0.004384 0.068353 0.000000 -0.013769 0.000000
# 4 0.000000 0.000000 0.000000 0.035987 0.000000 -0.005531
# 5 -0.005731 -0.002540 -0.013769 0.000000 0.042763 0.000000
# 6 0.000000 0.000000 0.000000 -0.005531 0.000000 0.024094
#
#
# Mechanical properties :
#
#
# Convention : Reuss Voigt Hill
#
# Bulk Modulus (GPa) = 13.12840 38.75634 25.94237
# Shear Modulus (GPa) = 21.76152 33.36820 27.56486
#
# Velocity S-wave (km/s) = 3.03053 3.75267 3.41076
# Velocity P-wave (km/s) = 4.21736 5.92733 5.14390
#
# Compressibility (1/GPa) = 0.07617075
#
# Stress axis : x y z
#
# Youngs Moduli (GPa) = 86.94233 111.17493 14.62991
#
# Poissons Ratio (x) = 0.25654 -0.00516
# Poissons Ratio (y) = 0.20062 0.06414
# Poissons Ratio (z) = -0.03064 0.48743
#
# Static dielectric constant tensor:
#      x y z
#    x 1.947440 0.000000 0.145590 
#    y 0.000000 1.989560 0.000000 
#    z 0.145590 0.000000 2.109480 
# 
# From -- ./inp_files/29891.got.cif
#   From: 2010.05.17/outbox.cif.g08.bks.cpg/sg13_15_cif.got.tgz:29891.got - 2010.06.03 16:44:36.
