data_PCOD9227109
_publ_section_title
;
Structure prediction by ZEFSAII (Michael W. Deem and Ramdas Pophale) SiO2 
 PCOD9227109
Probable space group: P 2/C
;
_chemical_formula_sum "Si O2"
_cell_formula_units_Z 28
_cell_length_a 13.250936
_cell_length_b 20.742237
_cell_length_c 18.244960
_cell_angle_alpha 90.000000
_cell_angle_beta 160.877350
_cell_angle_gamma 90.000000
_cell_volume 1642.773139
_symmetry_space_group_name_H-M "P 2/C"
_symmetry_group_IT_number 13
_symmetry_cell_setting 'monoclinic'
loop_
_space_group_symop_operation_xyz
x,y,z
-x,y,1/2-z
-x,-y,-z
x,-y,1/2+z
loop_
_atom_site_type_symbol
_atom_site_label
_atom_site_fract_x
_atom_site_fract_y
_atom_site_fract_z
Si Si1 0.265341 0.646025 0.487376
Si Si2 0.768805 0.586524 0.378025
Si Si3 0.905419 0.303718 0.468809
Si Si4 0.968654 0.042193 0.848378
Si Si5 0.516132 0.055057 0.115099
Si Si6 0.595990 0.475881 0.146604
Si Si7 0.787896 0.838829 0.895849
O O1 0.147110 0.659893 0.488896
O O2 0.359798 0.572970 0.526983
O O3 0.583919 0.685579 0.704624
O O4 0.000000 0.667936 0.250000
O O5 0.500000 0.586093 0.250000
O O6 0.671724 0.537919 0.247281
O O7 0.830910 0.656648 0.389150
O O8 0.081669 0.562404 0.631419
O O9 0.965355 0.227967 0.510840
O O10 0.721057 0.056919 0.615013
O O11 0.805965 0.988228 0.787656
O O12 0.299141 0.029090 0.034022
O O13 0.023384 0.105465 0.934083
O O14 0.643632 0.124848 0.226714
O O15 0.500000 0.500000 0.000000
O O16 0.500000 0.821163 0.750000
#
# Coordination Sequence:
#
# PCOD9227109 Si02
#       7
#     4   4   4   4   4   4   4
#     4  10  20  33  57  78 105 133 175 224 273 317
#     4  10  23  37  55  75 110 142 172 224 280 326
#     4  10  21  38  50  80 111 140 181 220 270 329
#     4   9  18  32  53  79 109 139 178 222 272 309
#     4   9  18  32  52  80 109 139 177 224 268 312
#     4  10  22  36  57  82 102 135 180 225 276 334
#     4  10  18  33  53  77 107 139 179 220 256 315
#
# _framework density 17.044350999999999
#
# number of rings (size 3 to 8) (size 9 to 14) (size 15 to 20)
#    0.000    2.286    1.429    1.286    8.000    1.143 
#    0.000    1.429    0.000    0.000    0.000    0.000 
#    0.000    0.000    0.000    0.000    0.000    0.000 
#
# Total GULP energy -155886.773329 kJ/mol
# GULP energy per Si atom -5567.384762 kJ/mol
# Density = 1.700556 g / cm^3
# Si number density = 17.044351 Si / 1000 Ang^3
#
#
#
# Elastic Constant Matrix: (Units=GPa)
#
#
# Indices 1 2 3 4 5 6 
#
# 1 72.1402 50.8374 46.9593 0.0000 -7.6547 0.0000
# 2 50.8374 98.4533 17.6368 0.0000 5.9927 0.0000
# 3 46.9593 17.6368 57.0471 0.0000 -4.1580 0.0000
# 4 0.0000 0.0000 0.0000 14.7639 0.0000 8.3361
# 5 -7.6547 5.9927 -4.1580 0.0000 28.7780 0.0000
# 6 0.0000 0.0000 0.0000 8.3361 0.0000 19.8354
#
#
#
# Elastic Compliance Matrix: (Units=1/GPa)
#
#
# Indices 1 2 3 4 5 6 
#
# 1 0.057118 -0.023439 -0.038716 0.000000 0.014480 0.000000
# 2 -0.023439 0.020591 0.012291 0.000000 -0.008747 0.000000
# 3 -0.038716 0.012291 0.045137 0.000000 -0.006336 0.000000
# 4 0.000000 0.000000 0.000000 0.088806 0.000000 -0.037322
# 5 0.014480 -0.008747 -0.006336 0.000000 0.039506 0.000000
# 6 0.000000 0.000000 0.000000 -0.037322 0.000000 0.066100
#
#
# Mechanical properties :
#
#
# Convention : Reuss Voigt Hill
#
# Bulk Modulus (GPa) = 43.25630 50.94531 47.10080
# Shear Modulus (GPa) = 11.77325 20.15594 15.96460
#
# Velocity S-wave (km/s) = 2.63105 3.44257 3.06379
# Velocity P-wave (km/s) = 5.88758 6.76435 6.34114
#
# Compressibility (1/GPa) = 0.02311802
#
# Stress axis : x y z
#
# Youngs Moduli (GPa) = 17.50769 48.56538 22.15478
#
# Poissons Ratio (x) = 1.13834 0.85773
# Poissons Ratio (y) = 0.41037 -0.27231
# Poissons Ratio (z) = 0.67782 -0.59692
#
# Static dielectric constant tensor:
#      x y z
#    x 1.597230 0.000000 -0.007910 
#    y 0.000000 1.577270 0.000000 
#    z -0.007910 0.000000 1.588040 
# 
# From -- ./inp_files/67015.got.cif
#   From: 2010.05.17/outbox.cif.g08.bks.cpg/sg13_34_cif.got.tgz:67015.got - 2010.06.03 16:44:36.
