data_PCOD9227730
_publ_section_title
;
Structure prediction by ZEFSAII (Michael W. Deem and Ramdas Pophale) SiO2 
 PCOD9227730
Probable space group: P 2/C
;
_chemical_formula_sum "Si O2"
_cell_formula_units_Z 24
_cell_length_a 15.955611
_cell_length_b 8.689826
_cell_length_c 13.152761
_cell_angle_alpha 90.000000
_cell_angle_beta 146.532130
_cell_angle_gamma 90.000000
_cell_volume 1005.686849
_symmetry_space_group_name_H-M "P 2/C"
_symmetry_group_IT_number 13
_symmetry_cell_setting 'monoclinic'
loop_
_space_group_symop_operation_xyz
x,y,z
-x,y,1/2-z
-x,-y,-z
x,-y,1/2+z
loop_
_atom_site_type_symbol
_atom_site_label
_atom_site_fract_x
_atom_site_fract_y
_atom_site_fract_z
Si Si1 0.785553 0.748852 0.108279
Si Si2 0.000000 0.685040 0.750000
Si Si3 0.648454 0.554546 0.207508
Si Si4 0.274849 0.908071 0.984195
Si Si5 0.500000 0.429362 0.250000
Si Si6 0.919607 0.396431 0.538444
Si Si7 0.558722 0.117646 0.644086
O O1 0.848039 0.706128 0.057509
O O2 0.915661 0.677478 0.312852
O O3 0.775095 0.929924 0.113421
O O4 0.617642 0.673743 0.934869
O O5 0.952041 0.567616 0.613407
O O6 0.862200 0.792305 0.641885
O O7 0.606057 0.529139 0.283748
O O8 0.786349 0.436123 0.324638
O O9 0.653839 0.737924 0.198429
O O10 0.500000 0.500000 0.000000
O O11 0.342366 0.951785 0.163674
O O12 0.405302 0.832086 0.047516
O O13 0.500000 0.000000 0.500000
#
# Coordination Sequence:
#
# PCOD9227730 Si02
#       7
#     4   2   4   4   2   4   4
#     4   9  19  34  65  95 123 163 216 261 325 385
#     4  10  18  38  66  94 122 174 218 256 338 398
#     4  11  24  41  68  89 127 173 217 278 321 387
#     4  11  22  41  72  89 134 182 205 274 340 391
#     4  10  20  38  68  94 122 162 226 256 326 390
#     4   9  20  38  62  96 129 161 224 273 316 399
#     4  11  26  42  63 100 132 168 232 266 330 399
#
# _framework density 23.864286
#
# number of rings (size 3 to 8) (size 9 to 14) (size 15 to 20)
#    0.000    2.000    1.667    3.000   11.667    0.000 
#    0.000    1.667    0.000    0.000    0.000    0.000 
#    0.000    0.000    0.000    0.000    0.000    0.000 
#
# Total GULP energy -134118.630404 kJ/mol
# GULP energy per Si atom -5588.276267 kJ/mol
# Density = 2.380997 g / cm^3
# Si number density = 23.864286 Si / 1000 Ang^3
#
#
#
# Elastic Constant Matrix: (Units=GPa)
#
#
# Indices 1 2 3 4 5 6 
#
# 1 66.9860 12.3639 8.1445 0.0000 16.6116 0.0000
# 2 12.3639 113.9516 36.8593 0.0000 22.5861 0.0000
# 3 8.1445 36.8593 149.3643 0.0000 29.4974 0.0000
# 4 0.0000 0.0000 0.0000 48.2939 0.0000 8.8969
# 5 16.6116 22.5861 29.4974 0.0000 40.9385 0.0000
# 6 0.0000 0.0000 0.0000 8.8969 0.0000 29.2482
#
#
#
# Elastic Compliance Matrix: (Units=1/GPa)
#
#
# Indices 1 2 3 4 5 6 
#
# 1 0.016671 -0.000648 0.000602 0.000000 -0.006841 0.000000
# 2 -0.000648 0.010210 -0.001660 0.000000 -0.004174 0.000000
# 3 0.000602 -0.001660 0.008090 0.000000 -0.005158 0.000000
# 4 0.000000 0.000000 0.000000 0.021936 0.000000 -0.006673
# 5 -0.006841 -0.004174 -0.005158 0.000000 0.033222 0.000000
# 6 0.000000 0.000000 0.000000 -0.006673 0.000000 0.036220
#
#
# Mechanical properties :
#
#
# Convention : Reuss Voigt Hill
#
# Bulk Modulus (GPa) = 31.68520 49.44860 40.56690
# Shear Modulus (GPa) = 35.64264 41.89173 38.76718
#
# Velocity S-wave (km/s) = 3.86885 4.19431 4.03486
# Velocity P-wave (km/s) = 5.76744 6.64997 6.22437
#
# Compressibility (1/GPa) = 0.03156048
#
# Stress axis : x y z
#
# Youngs Moduli (GPa) = 59.98323 97.94105 123.60249
#
# Poissons Ratio (x) = 0.06342 -0.07438
# Poissons Ratio (y) = 0.03884 0.20518
# Poissons Ratio (z) = -0.03610 0.16258
#
# Static dielectric constant tensor:
#      x y z
#    x 2.025190 0.000000 -0.025560 
#    y 0.000000 1.851310 0.000000 
#    z -0.025560 0.000000 1.984790 
# 
# From -- ./inp_files/55394.got.cif
#   From: 2010.05.17/outbox.cif.g08.bks.cpg/sg13_28_cif.got.tgz:55394.got - 2010.06.03 16:44:36.
