data_PCOD9227378
_publ_section_title
;
Structure prediction by ZEFSAII (Michael W. Deem and Ramdas Pophale) SiO2 
 PCOD9227378
Probable space group: P 2/C
;
_chemical_formula_sum "Si O2"
_cell_formula_units_Z 20
_cell_length_a 8.182576
_cell_length_b 8.905340
_cell_length_c 13.152287
_cell_angle_alpha 90.000000
_cell_angle_beta 93.058337
_cell_angle_gamma 90.000000
_cell_volume 957.024017
_symmetry_space_group_name_H-M "P 2/C"
_symmetry_group_IT_number 13
_symmetry_cell_setting 'monoclinic'
loop_
_space_group_symop_operation_xyz
x,y,z
-x,y,1/2-z
-x,-y,-z
x,-y,1/2+z
loop_
_atom_site_type_symbol
_atom_site_label
_atom_site_fract_x
_atom_site_fract_y
_atom_site_fract_z
Si Si1 0.000000 0.969800 0.750000
Si Si2 0.350227 0.804457 0.038638
Si Si3 0.027140 0.272501 0.420147
Si Si4 0.000000 0.478253 0.750000
Si Si5 0.696232 0.844553 0.013181
Si Si6 0.745751 0.784509 0.250416
O O1 0.133368 0.081794 0.708982
O O2 0.938037 0.862372 0.658645
O O3 0.375642 0.771279 0.159030
O O4 0.317616 0.982242 0.021184
O O5 0.518749 0.770079 0.983982
O O6 0.187004 0.719577 0.996146
O O7 0.858749 0.230651 0.472187
O O8 0.003363 0.418473 0.350079
O O9 0.844040 0.370036 0.745157
O O10 0.707388 0.836095 0.135377
#
# Coordination Sequence:
#
# PCOD9227378 Si02
#       6
#     2   4   4   2   4   4
#     4  10  18  34  66  86 116 164 206 254 308 340
#     4  11  23  39  67  98 124 162 213 265 314 367
#     4  11  21  43  63  92 124 168 208 261 300 381
#     4  10  26  40  66  92 130 170 212 246 326 372
#     4  11  23  39  67  98 124 162 213 265 314 367
#     4  11  21  40  61  94 128 164 204 264 305 375
#
# _framework density 20.898115000000001
#
# number of rings (size 3 to 8) (size 9 to 14) (size 15 to 20)
#    0.000    1.200    4.000    3.600    0.000    3.200 
#    0.000   10.000    0.000    0.000    0.000    0.000 
#    0.000    0.000    0.000    0.000    0.000    0.000 
#
# Total GULP energy -111630.596647 kJ/mol
# GULP energy per Si atom -5581.529832 kJ/mol
# Density = 2.085055 g / cm^3
# Si number density = 20.898115 Si / 1000 Ang^3
#
#
#
# Elastic Constant Matrix: (Units=GPa)
#
#
# Indices 1 2 3 4 5 6 
#
# 1 127.1475 25.7534 40.7451 0.0000 -17.0809 0.0000
# 2 25.7534 71.1165 23.8637 0.0000 -4.9196 0.0000
# 3 40.7451 23.8637 113.6555 0.0000 -5.6351 0.0000
# 4 0.0000 0.0000 0.0000 24.7059 0.0000 -6.9871
# 5 -17.0809 -4.9196 -5.6351 0.0000 25.9527 0.0000
# 6 0.0000 0.0000 0.0000 -6.9871 0.0000 -31.6328
#
#
#
# Elastic Compliance Matrix: (Units=1/GPa)
#
#
# Indices 1 2 3 4 5 6 
#
# 1 0.009973 -0.002283 -0.002822 0.000000 0.005518 0.000000
# 2 -0.002283 0.015775 -0.002446 0.000000 0.000957 0.000000
# 3 -0.002822 -0.002446 0.010320 0.000000 -0.000081 0.000000
# 4 0.000000 0.000000 0.000000 0.038096 0.000000 -0.008415
# 5 0.005518 0.000957 -0.000081 0.000000 0.042327 0.000000
# 6 0.000000 0.000000 0.000000 -0.008415 0.000000 -0.029754
#
#
# Mechanical properties :
#
#
# Convention : Reuss Voigt Hill
#
# Bulk Modulus (GPa) = 47.69840 54.73822 51.21831
# Shear Modulus (GPa) = 45.94347 18.57565 32.25956
#
# Velocity S-wave (km/s) = 4.69385 2.98462 3.93320
# Velocity P-wave (km/s) = 7.22842 6.17471 6.72225
#
# Compressibility (1/GPa) = 0.02096507
#
# Stress axis : x y z
#
# Youngs Moduli (GPa) = 100.27062 63.39069 96.89908
#
# Poissons Ratio (x) = 0.14470 0.27349
# Poissons Ratio (y) = 0.22889 0.23706
# Poissons Ratio (z) = 0.28300 0.15508
#
# Static dielectric constant tensor:
#      x y z
#    x 1.832510 0.000000 -0.001430 
#    y 0.000000 1.698760 0.000000 
#    z -0.001430 0.000000 1.997850 
# 
# From -- ./inp_files/28149.got.cif
#   From: 2010.05.17/outbox.cif.g08.bks.cpg/sg13_15_cif.got.tgz:28149.got - 2010.06.03 16:44:36.
