data_PCOD9227217
_publ_section_title
;
Structure prediction by ZEFSAII (Michael W. Deem and Ramdas Pophale) SiO2 
 PCOD9227217
Probable space group: P 2/C
;
_chemical_formula_sum "Si O2"
_cell_formula_units_Z 18
_cell_length_a 5.736193
_cell_length_b 10.853697
_cell_length_c 12.705844
_cell_angle_alpha 90.000000
_cell_angle_beta 100.017756
_cell_angle_gamma 90.000000
_cell_volume 778.991418
_symmetry_space_group_name_H-M "P 2/C"
_symmetry_group_IT_number 13
_symmetry_cell_setting 'monoclinic'
loop_
_space_group_symop_operation_xyz
x,y,z
-x,y,1/2-z
-x,-y,-z
x,-y,1/2+z
loop_
_atom_site_type_symbol
_atom_site_label
_atom_site_fract_x
_atom_site_fract_y
_atom_site_fract_z
Si Si1 0.780811 0.570795 0.575967
Si Si2 0.730386 0.344701 0.436604
Si Si3 0.000000 0.868162 0.250000
Si Si4 0.669126 0.893373 0.052123
Si Si5 0.351595 0.698179 0.149478
O O1 0.759453 0.425346 0.548371
O O2 0.545421 0.624306 0.614980
O O3 0.748401 0.622440 0.454419
O O4 0.051235 0.612114 0.621446
O O5 0.757160 0.200123 0.467633
O O6 0.136189 0.943570 0.350799
O O7 0.154564 0.774972 0.193440
O O8 0.516183 0.801768 0.111579
O O9 0.500000 0.000000 0.000000
O O10 0.500000 0.626647 0.250000
#
# Coordination Sequence:
#
# PCOD9227217 Si02
#       5
#     4   4   2   4   4
#     4   9  16  30  50  76 104 130 171 222 281 330
#     4   9  17  30  50  77 103 133 171 223 275 334
#     4  10  18  34  50  74 112 138 190 238 282 332
#     4  10  20  33  52  81 107 148 193 232 284 340
#     4   9  18  31  51  77 105 139 182 234 280 334
#
# _framework density 23.1068
#
# number of rings (size 3 to 8) (size 9 to 14) (size 15 to 20)
#    0.000    2.667    2.222    0.000    0.000    0.889 
#    0.000    0.000    0.000    4.000    0.000    1.556 
#    0.000    0.000    0.000    0.000    0.000    0.000 
#
# Total GULP energy -100247.813793 kJ/mol
# GULP energy per Si atom -5569.322988 kJ/mol
# Density = 2.305421 g / cm^3
# Si number density = 23.106800 Si / 1000 Ang^3
#
#
#
# Elastic Constant Matrix: (Units=GPa)
#
#
# Indices 1 2 3 4 5 6 
#
# 1 154.5672 12.6944 16.1884 0.0000 9.0810 0.0000
# 2 12.6944 93.5043 30.8134 0.0000 22.3054 0.0000
# 3 16.1884 30.8134 50.5154 0.0000 15.4634 0.0000
# 4 0.0000 0.0000 0.0000 20.5138 0.0000 13.6562
# 5 9.0810 22.3054 15.4634 0.0000 36.8407 0.0000
# 6 0.0000 0.0000 0.0000 13.6562 0.0000 29.5479
#
#
#
# Elastic Compliance Matrix: (Units=1/GPa)
#
#
# Indices 1 2 3 4 5 6 
#
# 1 0.006719 -0.000113 -0.001834 0.000000 -0.000818 0.000000
# 2 -0.000113 0.014381 -0.006975 0.000000 -0.005751 0.000000
# 3 -0.001834 -0.006975 0.026629 0.000000 -0.006502 0.000000
# 4 0.000000 0.000000 0.000000 0.070411 0.000000 -0.032542
# 5 -0.000818 -0.005751 -0.006502 0.000000 0.033557 0.000000
# 6 0.000000 0.000000 0.000000 -0.032542 0.000000 0.048883
#
#
# Mechanical properties :
#
#
# Convention : Reuss Voigt Hill
#
# Bulk Modulus (GPa) = 33.46210 46.44213 39.95212
# Shear Modulus (GPa) = 21.89283 33.30652 27.59968
#
# Velocity S-wave (km/s) = 3.08143 3.80072 3.45982
# Velocity P-wave (km/s) = 5.21279 6.27719 5.76959
#
# Compressibility (1/GPa) = 0.02988455
#
# Stress axis : x y z
#
# Youngs Moduli (GPa) = 148.82977 69.53831 37.55338
#
# Poissons Ratio (x) = 0.00783 0.06888
# Poissons Ratio (y) = 0.01676 0.26194
# Poissons Ratio (z) = 0.27296 0.48505
#
# Static dielectric constant tensor:
#      x y z
#    x 2.065360 0.000000 0.059580 
#    y 0.000000 1.869840 0.000000 
#    z 0.059580 0.000000 2.065180 
# 
# From -- ./inp_files/43416.got.cif
#   From: 2010.05.17/outbox.cif.g08.bks.cpg/sg13_22_cif.got.tgz:43416.got - 2010.06.03 16:44:36.
