data_PCOD9227353
_publ_section_title
;
Structure prediction by ZEFSAII (Michael W. Deem and Ramdas Pophale) SiO2 
 PCOD9227353
Probable space group: P 2/C
;
_chemical_formula_sum "Si O2"
_cell_formula_units_Z 28
_cell_length_a 27.182065
_cell_length_b 9.043480
_cell_length_c 8.468103
_cell_angle_alpha 90.000000
_cell_angle_beta 39.504659
_cell_angle_gamma 90.000000
_cell_volume 1324.212011
_symmetry_space_group_name_H-M "P 2/C"
_symmetry_group_IT_number 13
_symmetry_cell_setting 'monoclinic'
loop_
_space_group_symop_operation_xyz
x,y,z
-x,y,1/2-z
-x,-y,-z
x,-y,1/2+z
loop_
_atom_site_type_symbol
_atom_site_label
_atom_site_fract_x
_atom_site_fract_y
_atom_site_fract_z
Si Si1 0.910039 0.316496 0.935441
Si Si2 0.259734 0.181143 0.667979
Si Si3 0.170353 0.417325 0.670177
Si Si4 0.782824 0.128521 0.369453
Si Si5 0.595298 0.441316 0.386244
Si Si6 0.303961 0.380840 0.107874
Si Si7 0.564836 0.722256 0.686337
O O1 0.867876 0.447134 0.141684
O O2 0.868331 0.165681 0.093394
O O3 0.891609 0.344305 0.796099
O O4 0.000000 0.318568 0.750000
O O5 0.211555 0.303279 0.687830
O O6 0.351360 0.209532 0.478824
O O7 0.248075 0.032070 0.597049
O O8 0.222402 0.158956 0.932454
O O9 0.238631 0.459538 0.377034
O O10 0.730941 0.246896 0.402361
O O11 0.633772 0.331524 0.416695
O O12 0.576327 0.584049 0.537804
O O13 0.536631 0.349472 0.422958
O O14 0.656284 0.507135 0.110271
O O15 0.500000 0.813960 0.750000
#
# Coordination Sequence:
#
# PCOD9227353 Si02
#       7
#     4   4   4   4   4   4   4
#     4  11  24  42  66 102 135 163 208 267 329 381
#     4  12  25  43  65  93 124 171 229 263 313 397
#     4  11  22  37  66  97 128 167 212 262 318 377
#     4  11  24  41  65  89 124 171 218 260 318 381
#     4  10  20  34  61  94 127 156 212 266 324 375
#     4  10  18  34  61  92 119 162 212 265 298 377
#     4  11  23  39  63  95 134 169 210 278 334 374
#
# _framework density 21.144648
#
# number of rings (size 3 to 8) (size 9 to 14) (size 15 to 20)
#    0.000    1.143    2.857    5.143    6.000    0.000 
#    0.000    4.286    0.000    0.000    0.000    0.000 
#    0.000    0.000    0.000    0.000    0.000    0.000 
#
# Total GULP energy -156226.532566 kJ/mol
# GULP energy per Si atom -5579.519020 kJ/mol
# Density = 2.109652 g / cm^3
# Si number density = 21.144648 Si / 1000 Ang^3
#
#
#
# Elastic Constant Matrix: (Units=GPa)
#
#
# Indices 1 2 3 4 5 6 
#
# 1 201.1946 38.4871 57.3269 0.0000 0.1290 0.0000
# 2 38.4871 67.6082 34.0738 0.0000 -8.9429 0.0000
# 3 57.3269 34.0738 71.2920 0.0000 -0.2538 0.0000
# 4 0.0000 0.0000 0.0000 18.1952 0.0000 4.4174
# 5 0.1290 -8.9429 -0.2538 0.0000 41.1943 0.0000
# 6 0.0000 0.0000 0.0000 4.4174 0.0000 28.6944
#
#
#
# Elastic Compliance Matrix: (Units=1/GPa)
#
#
# Indices 1 2 3 4 5 6 
#
# 1 0.006554 -0.001480 -0.004564 0.000000 -0.000370 0.000000
# 2 -0.001480 0.020563 -0.008623 0.000000 0.004416 0.000000
# 3 -0.004564 -0.008623 0.021812 0.000000 -0.001723 0.000000
# 4 0.000000 0.000000 0.000000 0.057093 0.000000 -0.008789
# 5 -0.000370 0.004416 -0.001723 0.000000 0.025224 0.000000
# 6 0.000000 0.000000 0.000000 -0.008789 0.000000 0.036203
#
#
# Mechanical properties :
#
#
# Convention : Reuss Voigt Hill
#
# Bulk Modulus (GPa) = 51.03034 66.65228 58.84131
# Shear Modulus (GPa) = 24.59231 31.63058 28.11144
#
# Velocity S-wave (km/s) = 3.41405 3.87190 3.65016
# Velocity P-wave (km/s) = 6.30296 7.18187 6.75672
#
# Compressibility (1/GPa) = 0.01959619
#
# Stress axis : x y z
#
# Youngs Moduli (GPa) = 152.57537 48.63060 45.84587
#
# Poissons Ratio (x) = 0.07195 0.20926
# Poissons Ratio (y) = 0.22574 0.39531
# Poissons Ratio (z) = 0.69642 0.41933
#
# Static dielectric constant tensor:
#      x y z
#    x 1.847220 0.000000 -0.046840 
#    y 0.000000 1.783270 0.000000 
#    z -0.046840 0.000000 1.830510 
# 
# From -- ./inp_files/24517.got.cif
#   From: 2010.05.17/outbox.cif.g08.bks.cpg/sg13_13_cif.got.tgz:24517.got - 2010.06.03 16:44:36.
