data_PCOD9227857
_publ_section_title
;
Structure prediction by ZEFSAII (Michael W. Deem and Ramdas Pophale) SiO2 
 PCOD9227857
Probable space group: P 2/C
;
_chemical_formula_sum "Si O2"
_cell_formula_units_Z 20
_cell_length_a 12.001575
_cell_length_b 7.013334
_cell_length_c 16.743140
_cell_angle_alpha 90.000000
_cell_angle_beta 30.262460
_cell_angle_gamma 90.000000
_cell_volume 710.227217
_symmetry_space_group_name_H-M "P 2/C"
_symmetry_group_IT_number 13
_symmetry_cell_setting 'monoclinic'
loop_
_space_group_symop_operation_xyz
x,y,z
-x,y,1/2-z
-x,-y,-z
x,-y,1/2+z
loop_
_atom_site_type_symbol
_atom_site_label
_atom_site_fract_x
_atom_site_fract_y
_atom_site_fract_z
Si Si1 0.262629 0.460006 0.566019
Si Si2 0.184744 0.812891 0.706720
Si Si3 0.670615 0.846447 0.574227
Si Si4 0.128226 0.866388 0.355216
Si Si5 0.227820 0.279594 0.948601
O O1 0.327507 0.640407 0.581727
O O2 0.368601 0.251942 0.486754
O O3 0.000000 0.440720 0.750000
O O4 0.967321 0.714976 0.631005
O O5 0.000000 0.861299 0.750000
O O6 0.253262 0.004545 0.712297
O O7 0.500000 0.800701 0.750000
O O8 0.919412 0.778917 0.440576
O O9 0.685847 0.452084 0.553372
O O10 0.255455 0.728103 0.336372
O O11 0.685484 0.077200 0.568923
O O12 0.000000 0.000000 0.000000
#
# Coordination Sequence:
#
# PCOD9227857 Si02
#       5
#     4   4   4   4   4
#     4   9  18  31  50  76 100 128 167 210 246 291
#     4   7  12  25  45  68  91 118 159 206 237 270
#     4  10  19  29  48  78 104 126 158 207 261 300
#     4   8  15  30  51  70  96 133 172 205 236 290
#     4   8  17  33  51  69  96 136 174 205 235 289
#
# _framework density 28.160001000000001
#
# number of rings (size 3 to 8) (size 9 to 14) (size 15 to 20)
#    0.000    4.400    0.000    0.000    0.000    8.800 
#    0.000    0.000    0.000   19.200    0.000  282.800 
#    0.000    0.000    0.000    0.000    0.000    0.000 
#
# Total GULP energy -111365.319235 kJ/mol
# GULP energy per Si atom -5568.265962 kJ/mol
# Density = 2.809591 g / cm^3
# Si number density = 28.160001 Si / 1000 Ang^3
#
#
#
# Elastic Constant Matrix: (Units=GPa)
#
#
# Indices 1 2 3 4 5 6 
#
# 1 104.9111 68.9536 41.6666 0.0000 19.1684 0.0000
# 2 68.9536 129.1466 73.0043 0.0000 24.0391 0.0000
# 3 41.6666 73.0043 111.4913 0.0000 13.6432 0.0000
# 4 0.0000 0.0000 0.0000 10.3332 0.0000 -4.9588
# 5 19.1684 24.0391 13.6432 0.0000 23.6936 0.0000
# 6 0.0000 0.0000 0.0000 -4.9588 0.0000 28.4890
#
#
#
# Elastic Compliance Matrix: (Units=1/GPa)
#
#
# Indices 1 2 3 4 5 6 
#
# 1 0.015173 -0.006845 -0.000577 0.000000 -0.004998 0.000000
# 2 -0.006845 0.017175 -0.007782 0.000000 -0.007408 0.000000
# 3 -0.000577 -0.007782 0.014262 0.000000 0.000150 0.000000
# 4 0.000000 0.000000 0.000000 0.105596 0.000000 0.018380
# 5 -0.004998 -0.007408 0.000150 0.000000 0.053679 0.000000
# 6 0.000000 0.000000 0.000000 0.018380 0.000000 0.038301
#
#
# Mechanical properties :
#
#
# Convention : Reuss Voigt Hill
#
# Bulk Modulus (GPa) = 61.71493 79.19976 70.45735
# Shear Modulus (GPa) = 17.85755 23.29813 20.57784
#
# Velocity S-wave (km/s) = 2.52096 2.87949 2.70617
# Velocity P-wave (km/s) = 5.51698 6.26428 5.90247
#
# Compressibility (1/GPa) = 0.01620353
#
# Stress axis : x y z
#
# Youngs Moduli (GPa) = 65.90681 58.22269 70.11506
#
# Poissons Ratio (x) = 0.39851 0.04046
# Poissons Ratio (y) = 0.45110 0.54564
# Poissons Ratio (z) = 0.03803 0.45309
#
# Static dielectric constant tensor:
#      x y z
#    x 2.565940 0.000000 -0.098620 
#    y 0.000000 2.221740 0.000000 
#    z -0.098620 0.000000 2.196050 
# 
# From -- ./inp_files/87606.got.cif
#   From: 2010.05.17/outbox.cif.g08.bks.cpg/sg13_44_cif.got.tgz:87606.got - 2010.06.03 16:44:36.
