data_PCOD9227409
_publ_section_title
;
Structure prediction by ZEFSAII (Michael W. Deem and Ramdas Pophale) SiO2 
 PCOD9227409
Probable space group: P 2/C
;
_chemical_formula_sum "Si O2"
_cell_formula_units_Z 32
_cell_length_a 8.405887
_cell_length_b 8.902942
_cell_length_c 23.088668
_cell_angle_alpha 90.000000
_cell_angle_beta 89.938006
_cell_angle_gamma 90.000000
_cell_volume 1727.888508
_symmetry_space_group_name_H-M "P 2/C"
_symmetry_group_IT_number 13
_symmetry_cell_setting 'monoclinic'
loop_
_space_group_symop_operation_xyz
x,y,z
-x,y,1/2-z
-x,-y,-z
x,-y,1/2+z
loop_
_atom_site_type_symbol
_atom_site_label
_atom_site_fract_x
_atom_site_fract_y
_atom_site_fract_z
Si Si1 0.144594 0.779705 0.551141
Si Si2 0.882305 0.700603 0.203685
Si Si3 0.389667 0.955434 0.054050
Si Si4 0.106860 0.497430 0.123147
Si Si5 0.372132 0.438207 0.710823
Si Si6 0.409898 0.775153 0.361199
Si Si7 0.159064 0.298407 0.510893
Si Si8 0.656962 0.558944 0.031990
O O1 0.088216 0.675004 0.604313
O O2 0.257096 0.677278 0.510207
O O3 0.984597 0.801116 0.513647
O O4 0.253061 0.921721 0.566588
O O5 0.763715 0.606832 0.244136
O O6 0.764253 0.803325 0.165924
O O7 0.000000 0.778342 0.250000
O O8 0.981372 0.584440 0.163892
O O9 0.504668 0.912964 0.107113
O O10 0.297570 0.805589 0.035140
O O11 0.500000 0.000000 0.000000
O O12 0.277704 0.499554 0.155683
O O13 0.107193 0.596088 0.064381
O O14 0.500000 0.528211 0.750000
O O15 0.470069 0.295698 0.685808
O O16 0.381642 0.643873 0.408872
O O17 0.228094 0.414498 0.463369
O O18 0.500000 0.500000 0.000000
#
# Coordination Sequence:
#
# PCOD9227409 Si02
#       8
#     4   4   4   4   4   4   4   4
#     4  11  22  34  51  82 119 158 184 217 280 350
#     4   9  19  33  56  88 104 131 189 256 295 324
#     4  12  23  36  51  80 121 161 187 222 275 356
#     4  10  18  35  57  83 108 140 184 237 286 329
#     4   9  18  32  56  86 104 133 185 248 287 321
#     4  11  18  34  54  80 119 149 184 236 292 335
#     4  11  21  35  53  81 116 153 193 227 272 337
#     4  11  18  33  55  83 116 152 192 228 272 339
#
# _framework density 18.519712999999999
#
# number of rings (size 3 to 8) (size 9 to 14) (size 15 to 20)
#    0.000    1.500    3.750    4.125    0.000    0.000 
#    0.000    0.000    0.000    2.250    9.750    0.000 
#    0.000    0.000    0.000    0.000    0.000    0.000 
#
# Total GULP energy -178302.669577 kJ/mol
# GULP energy per Si atom -5571.958424 kJ/mol
# Density = 1.847756 g / cm^3
# Si number density = 18.519713 Si / 1000 Ang^3
#
#
#
# Elastic Constant Matrix: (Units=GPa)
#
#
# Indices 1 2 3 4 5 6 
#
# 1 111.8067 25.4461 41.3533 0.0000 27.7737 0.0000
# 2 25.4461 66.8979 20.3648 0.0000 5.8388 0.0000
# 3 41.3533 20.3648 81.9943 0.0000 12.3434 0.0000
# 4 0.0000 0.0000 0.0000 11.7865 0.0000 0.7019
# 5 27.7737 5.8388 12.3434 0.0000 52.5274 0.0000
# 6 0.0000 0.0000 0.0000 0.7019 0.0000 27.3005
#
#
#
# Elastic Compliance Matrix: (Units=1/GPa)
#
#
# Indices 1 2 3 4 5 6 
#
# 1 0.012721 -0.002886 -0.004908 0.000000 -0.005252 0.000000
# 2 -0.002886 0.016865 -0.002779 0.000000 0.000304 0.000000
# 3 -0.004908 -0.002779 0.015472 0.000000 -0.000732 0.000000
# 4 0.000000 0.000000 0.000000 0.084973 0.000000 -0.002185
# 5 -0.005252 0.000304 -0.000732 0.000000 0.021953 0.000000
# 6 0.000000 0.000000 0.000000 -0.002185 0.000000 0.036686
#
#
# Mechanical properties :
#
#
# Convention : Reuss Voigt Hill
#
# Bulk Modulus (GPa) = 41.82145 48.33636 45.07891
# Shear Modulus (GPa) = 22.95824 29.89186 26.42505
#
# Velocity S-wave (km/s) = 3.52471 4.02189 3.78148
# Velocity P-wave (km/s) = 6.26066 6.90826 6.59242
#
# Compressibility (1/GPa) = 0.02391117
#
# Stress axis : x y z
#
# Youngs Moduli (GPa) = 78.61106 59.29311 64.63393
#
# Poissons Ratio (x) = 0.17113 0.31724
# Poissons Ratio (y) = 0.22688 0.17962
# Poissons Ratio (z) = 0.38584 0.16478
#
# Static dielectric constant tensor:
#      x y z
#    x 1.707130 0.000000 0.046760 
#    y 0.000000 1.625210 0.000000 
#    z 0.046760 0.000000 1.687000 
# 
# From -- ./inp_files/84808.got.cif
#   From: 2010.05.17/outbox.cif.g08.bks.cpg/sg13_43_cif.got.tgz:84808.got - 2010.06.03 16:44:36.
