data_PCOD9227593
_publ_section_title
;
Structure prediction by ZEFSAII (Michael W. Deem and Ramdas Pophale) SiO2 
 PCOD9227593
Probable space group: P 2/C
;
_chemical_formula_sum "Si O2"
_cell_formula_units_Z 18
_cell_length_a 11.322128
_cell_length_b 10.543757
_cell_length_c 16.735821
_cell_angle_alpha 90.000000
_cell_angle_beta 25.100470
_cell_angle_gamma 90.000000
_cell_volume 847.516475
_symmetry_space_group_name_H-M "P 2/C"
_symmetry_group_IT_number 13
_symmetry_cell_setting 'monoclinic'
loop_
_space_group_symop_operation_xyz
x,y,z
-x,y,1/2-z
-x,-y,-z
x,-y,1/2+z
loop_
_atom_site_type_symbol
_atom_site_label
_atom_site_fract_x
_atom_site_fract_y
_atom_site_fract_z
Si Si1 0.500000 0.667401 0.750000
Si Si2 0.208169 0.762801 0.774392
Si Si3 0.180877 0.976504 0.220054
Si Si4 0.755137 0.703798 0.335171
Si Si5 0.974098 0.504424 0.920818
O O1 0.694553 0.574997 0.577779
O O2 0.323039 0.746896 0.794368
O O3 0.102504 0.904345 0.822666
O O4 0.467140 0.730735 0.556739
O O5 0.987285 0.651599 0.890855
O O6 0.169312 0.832799 0.259794
O O7 0.000000 0.979343 0.250000
O O8 0.500000 0.000000 0.000000
O O9 0.000000 0.691260 0.250000
O O10 0.776642 0.576844 0.270473
O O11 0.000000 0.500000 0.000000
#
# Coordination Sequence:
#
# PCOD9227593 Si02
#       5
#     2   4   4   4   4
#     4  10  20  38  56  84 126 162 192 250 310 358
#     4  10  20  37  62  88 117 155 204 251 300 361
#     4   9  20  38  62  92 120 151 204 257 297 359
#     4  10  18  36  64  83 112 157 199 245 305 360
#     4  10  21  36  56  84 118 154 200 243 297 356
#
# _framework density 21.238524999999999
#
# number of rings (size 3 to 8) (size 9 to 14) (size 15 to 20)
#    0.000    2.222    2.222    0.667    0.000    0.889 
#   16.000    4.444    0.000    1.333    0.000    0.000 
#    0.000    0.000    0.000    0.000    0.000    0.000 
#
# Total GULP energy -100361.891455 kJ/mol
# GULP energy per Si atom -5575.660636 kJ/mol
# Density = 2.119019 g / cm^3
# Si number density = 21.238525 Si / 1000 Ang^3
#
#
#
# Elastic Constant Matrix: (Units=GPa)
#
#
# Indices 1 2 3 4 5 6 
#
# 1 46.0012 31.7346 -0.6608 0.0000 -4.6551 0.0000
# 2 31.7346 142.1401 -7.6439 0.0000 20.8081 0.0000
# 3 -0.6608 -7.6439 44.4302 0.0000 7.9169 0.0000
# 4 0.0000 0.0000 0.0000 24.3955 0.0000 1.7917
# 5 -4.6551 20.8081 7.9169 0.0000 23.2368 0.0000
# 6 0.0000 0.0000 0.0000 1.7917 0.0000 27.8454
#
#
#
# Elastic Compliance Matrix: (Units=1/GPa)
#
#
# Indices 1 2 3 4 5 6 
#
# 1 0.029452 -0.009019 -0.003837 0.000000 0.015284 0.000000
# 2 -0.009019 0.011215 0.004159 0.000000 -0.013267 0.000000
# 3 -0.003837 0.004159 0.025515 0.000000 -0.013187 0.000000
# 4 0.000000 0.000000 0.000000 0.041186 0.000000 -0.002650
# 5 0.015284 -0.013267 -0.013187 0.000000 0.062470 0.000000
# 6 0.000000 0.000000 0.000000 -0.002650 0.000000 0.036083
#
#
# Mechanical properties :
#
#
# Convention : Reuss Voigt Hill
#
# Bulk Modulus (GPa) = 20.49696 31.04792 25.77244
# Shear Modulus (GPa) = 20.86996 29.03831 24.95414
#
# Velocity S-wave (km/s) = 3.13812 3.70164 3.43147
# Velocity P-wave (km/s) = 4.77516 5.73759 5.27836
#
# Compressibility (1/GPa) = 0.04878772
#
# Stress axis : x y z
#
# Youngs Moduli (GPa) = 33.95315 89.16779 39.19207
#
# Poissons Ratio (x) = 0.80425 0.15039
# Poissons Ratio (y) = 0.30624 -0.16301
# Poissons Ratio (z) = 0.13028 -0.37087
#
# Static dielectric constant tensor:
#      x y z
#    x 1.750700 0.000000 -0.010530 
#    y 0.000000 1.834930 0.000000 
#    z -0.010530 0.000000 1.827080 
# 
# From -- ./inp_files/66361.got.cif
#   From: 2010.05.17/outbox.cif.g08.bks.cpg/sg13_34_cif.got.tgz:66361.got - 2010.06.03 16:44:36.
