data_PCOD9227603
_publ_section_title
;
Structure prediction by ZEFSAII (Michael W. Deem and Ramdas Pophale) SiO2 
 PCOD9227603
Probable space group: P 2/C
;
_chemical_formula_sum "Si O2"
_cell_formula_units_Z 24
_cell_length_a 19.480998
_cell_length_b 6.504620
_cell_length_c 13.978534
_cell_angle_alpha 90.000000
_cell_angle_beta 143.532324
_cell_angle_gamma 90.000000
_cell_volume 1052.812534
_symmetry_space_group_name_H-M "P 2/C"
_symmetry_group_IT_number 13
_symmetry_cell_setting 'monoclinic'
loop_
_space_group_symop_operation_xyz
x,y,z
-x,y,1/2-z
-x,-y,-z
x,-y,1/2+z
loop_
_atom_site_type_symbol
_atom_site_label
_atom_site_fract_x
_atom_site_fract_y
_atom_site_fract_z
Si Si1 0.223292 0.643974 0.641814
Si Si2 0.036377 0.658503 0.892034
Si Si3 0.423188 0.549997 0.570645
Si Si4 0.590918 0.282643 0.644980
Si Si5 0.778411 0.257196 0.156354
Si Si6 0.234935 0.026700 0.547866
O O1 0.109853 0.507511 0.531191
O O2 0.324001 0.478477 0.744224
O O3 0.243422 0.784096 0.757077
O O4 0.213725 0.788477 0.540152
O O5 0.000000 0.561702 0.750000
O O6 0.916574 0.725203 0.802659
O O7 0.124134 0.844368 0.963139
O O8 0.500000 0.599154 0.750000
O O9 0.480740 0.350868 0.582592
O O10 0.425944 0.719533 0.488639
O O11 0.293881 0.467087 0.447535
O O12 0.655257 0.094913 0.766080
O O13 0.743625 0.094100 0.036854
#
# Coordination Sequence:
#
# PCOD9227603 Si02
#       6
#     4   4   4   4   4   4
#     4  10  21  38  61  89 116 153 194 237 290 351
#     4   9  20  37  60  87 117 154 189 237 289 346
#     4  10  18  36  65  82 113 158 192 237 293 340
#     4   9  20  38  61  88 115 151 195 242 288 342
#     4  10  20  37  61  86 117 157 193 237 293 342
#     4  10  20  39  59  85 124 149 186 245 292 339
#
# _framework density 22.796082999999999
#
# number of rings (size 3 to 8) (size 9 to 14) (size 15 to 20)
#    0.000    2.333    1.667    0.500    0.000    2.667 
#    3.000   10.833    0.000    0.000    0.000    0.000 
#    0.000    0.000    0.000    0.000    0.000    0.000 
#
# Total GULP energy -133959.996382 kJ/mol
# GULP energy per Si atom -5581.666516 kJ/mol
# Density = 2.274420 g / cm^3
# Si number density = 22.796083 Si / 1000 Ang^3
#
#
#
# Elastic Constant Matrix: (Units=GPa)
#
#
# Indices 1 2 3 4 5 6 
#
# 1 54.7366 8.7224 8.5493 0.0000 -4.3568 0.0000
# 2 8.7224 36.5613 9.5562 0.0000 -11.2456 0.0000
# 3 8.5493 9.5562 90.7567 0.0000 0.8339 0.0000
# 4 0.0000 0.0000 0.0000 2.2436 0.0000 -10.5370
# 5 -4.3568 -11.2456 0.8339 0.0000 42.4414 0.0000
# 6 0.0000 0.0000 0.0000 -10.5370 0.0000 14.9329
#
#
#
# Elastic Compliance Matrix: (Units=1/GPa)
#
#
# Indices 1 2 3 4 5 6 
#
# 1 0.019189 -0.003916 -0.001404 0.000000 0.000960 0.000000
# 2 -0.003916 0.031542 -0.003026 0.000000 0.008015 0.000000
# 3 -0.001404 -0.003026 0.011480 0.000000 -0.001171 0.000000
# 4 0.000000 0.000000 0.000000 -0.192620 0.000000 -0.135918
# 5 0.000960 0.008015 -0.001171 0.000000 0.025807 0.000000
# 6 0.000000 0.000000 0.000000 -0.135918 0.000000 -0.028941
#
#
# Mechanical properties :
#
#
# Convention : Reuss Voigt Hill
#
# Bulk Modulus (GPa) = 21.96870 26.19006 24.07938
# Shear Modulus (GPa) = -49.17456 22.27203 -13.45127
#
# Velocity S-wave (km/s) = -4.64955 3.12911 -2.43177
# Velocity P-wave (km/s) = 4.37795 4.95670 1.64353
#
# Compressibility (1/GPa) = 0.04551931
#
# Stress axis : x y z
#
# Youngs Moduli (GPa) = 52.11320 31.70407 87.10704
#
# Poissons Ratio (x) = 0.12414 0.12231
# Poissons Ratio (y) = 0.20406 0.26358
# Poissons Ratio (z) = 0.07317 0.09594
#
# Static dielectric constant tensor:
#      x y z
#    x 1.922420 0.000000 0.013260 
#    y 0.000000 1.798860 0.000000 
#    z 0.013260 0.000000 1.885920 
# 
# From -- ./inp_files/56631.got.cif
#   From: 2010.05.17/outbox.cif.g08.bks.cpg/sg13_29_cif.got.tgz:56631.got - 2010.06.03 16:44:36.
