data_PCOD9227679
_publ_section_title
;
Structure prediction by ZEFSAII (Michael W. Deem and Ramdas Pophale) SiO2 
 PCOD9227679
Probable space group: P 2/C
;
_chemical_formula_sum "Si O2"
_cell_formula_units_Z 20
_cell_length_a 4.836989
_cell_length_b 4.770330
_cell_length_c 28.800304
_cell_angle_alpha 90.000000
_cell_angle_beta 92.652082
_cell_angle_gamma 90.000000
_cell_volume 663.827413
_symmetry_space_group_name_H-M "P 2/C"
_symmetry_group_IT_number 13
_symmetry_cell_setting 'monoclinic'
loop_
_space_group_symop_operation_xyz
x,y,z
-x,y,1/2-z
-x,-y,-z
x,-y,1/2+z
loop_
_atom_site_type_symbol
_atom_site_label
_atom_site_fract_x
_atom_site_fract_y
_atom_site_fract_z
Si Si1 0.240208 0.418519 0.467521
Si Si2 0.333429 0.903865 0.405715
Si Si3 0.274298 0.730990 0.158451
Si Si4 0.000000 0.492843 0.750000
Si Si5 0.500000 0.972012 0.250000
Si Si6 0.239055 0.301459 0.325230
O O1 0.500000 0.500000 0.500000
O O2 0.213679 0.610059 0.421548
O O3 0.000000 0.500000 0.500000
O O4 0.285158 0.108992 0.448423
O O5 0.654557 0.864865 0.392555
O O6 0.179080 0.050134 0.360426
O O7 0.379803 0.982846 0.192137
O O8 0.514160 0.494783 0.156952
O O9 0.031722 0.523890 0.178721
O O10 0.251846 0.271905 0.757080
O O11 0.234346 0.245833 0.269602
#
# Coordination Sequence:
#
# PCOD9227679 Si02
#       6
#     4   4   4   2   2   4
#     4  12  28  57  88 117 152 195 254 337 422 492
#     4  11  26  51  76 112 154 198 260 329 398 467
#     4  11  22  43  63 100 154 199 256 310 356 455
#     4  12  22  40  68 106 150 224 260 294 378 422
#     4  10  18  38  60  82 146 190 244 292 356 404
#     4  11  22  43  63 100 154 199 256 310 356 455
#
# _framework density 30.128309999999999
#
# number of rings (size 3 to 8) (size 9 to 14) (size 15 to 20)
#    0.000    0.800    6.000    1.200    0.000    2.400 
#    7.200    0.000    0.000    0.000    0.000    0.000 
#    0.000    0.000    0.000    0.000    0.000    0.000 
#
# Total GULP energy -111536.430118 kJ/mol
# GULP energy per Si atom -5576.821506 kJ/mol
# Density = 3.005974 g / cm^3
# Si number density = 30.128310 Si / 1000 Ang^3
#
#
#
# Elastic Constant Matrix: (Units=GPa)
#
#
# Indices 1 2 3 4 5 6 
#
# 1 195.8583 7.6523 43.3139 0.0000 -46.9046 0.0000
# 2 7.6523 191.3254 23.2936 0.0000 -14.3218 0.0000
# 3 43.3139 23.2936 150.7473 0.0000 -52.6398 0.0000
# 4 0.0000 0.0000 0.0000 68.0995 0.0000 24.8476
# 5 -46.9046 -14.3218 -52.6398 0.0000 75.7068 0.0000
# 6 0.0000 0.0000 0.0000 24.8476 0.0000 -2.1844
#
#
#
# Elastic Compliance Matrix: (Units=1/GPa)
#
#
# Indices 1 2 3 4 5 6 
#
# 1 0.006033 0.000080 -0.000575 0.000000 0.003353 0.000000
# 2 0.000080 0.005347 -0.000632 0.000000 0.000621 0.000000
# 3 -0.000575 -0.000632 0.008888 0.000000 0.005704 0.000000
# 4 0.000000 0.000000 0.000000 0.002851 0.000000 0.032431
# 5 0.003353 0.000621 0.005704 0.000000 0.019370 0.000000
# 6 0.000000 0.000000 0.000000 0.032431 0.000000 -0.088884
#
#
# Mechanical properties :
#
#
# Convention : Reuss Voigt Hill
#
# Bulk Modulus (GPa) = 55.51383 76.27229 65.89306
# Shear Modulus (GPa) = -131.11248 59.23580 -35.93834
#
# Velocity S-wave (km/s) = -6.60398 4.43890 -3.45750
# Velocity P-wave (km/s) = 6.29954 7.18628 2.44524
#
# Compressibility (1/GPa) = 0.01801353
#
# Stress axis : x y z
#
# Youngs Moduli (GPa) = 165.76262 187.02132 112.50578
#
# Poissons Ratio (x) = -0.01490 0.06467
# Poissons Ratio (y) = -0.01321 0.07112
# Poissons Ratio (z) = 0.09529 0.11823
#
# Static dielectric constant tensor:
#      x y z
#    x 3.113070 0.000000 1.964470 
#    y 0.000000 2.432170 0.000000 
#    z 1.964470 0.000000 14.164550 
# 
# From -- ./inp_files/89914.got.cif
#   From: 2010.05.17/outbox.cif.g08.bks.cpg/sg13_45_cif.got.tgz:89914.got - 2010.06.03 16:44:36.
