data_PCOD9227523
_publ_section_title
;
Structure prediction by ZEFSAII (Michael W. Deem and Ramdas Pophale) SiO2 
 PCOD9227523
Probable space group: P 2/C
;
_chemical_formula_sum "Si O2"
_cell_formula_units_Z 18
_cell_length_a 11.101567
_cell_length_b 11.019843
_cell_length_c 15.830967
_cell_angle_alpha 90.000000
_cell_angle_beta 155.683411
_cell_angle_gamma 90.000000
_cell_volume 797.499665
_symmetry_space_group_name_H-M "P 2/C"
_symmetry_group_IT_number 13
_symmetry_cell_setting 'monoclinic'
loop_
_space_group_symop_operation_xyz
x,y,z
-x,y,1/2-z
-x,-y,-z
x,-y,1/2+z
loop_
_atom_site_type_symbol
_atom_site_label
_atom_site_fract_x
_atom_site_fract_y
_atom_site_fract_z
Si Si1 0.000000 0.699628 0.750000
Si Si2 0.701973 0.117065 0.749964
Si Si3 0.858489 0.615240 0.291687
Si Si4 0.055227 0.095598 0.405727
Si Si5 0.619695 0.473135 0.459575
O O1 0.095013 0.788456 0.734551
O O2 0.767494 0.606992 0.561621
O O3 0.765970 0.252250 0.760173
O O4 0.362365 0.084589 0.551099
O O5 0.854490 0.114798 0.939591
O O6 0.850322 0.021854 0.780675
O O7 0.708508 0.591780 0.103959
O O8 0.718684 0.507020 0.258360
O O9 0.204052 0.597625 0.499140
#
# Coordination Sequence:
#
# PCOD9227523 Si02
#       5
#     2   4   4   4   4
#     4  10  18  36  58  86 108 154 184 242 280 344
#     4  10  21  41  57  84 115 159 184 245 280 351
#     4   9  17  36  58  80 117 150 186 231 293 324
#     4  10  22  38  61  80 120 148 198 230 298 328
#     4   9  19  34  58  87 116 150 186 241 278 343
#
# _framework density 22.570542
#
# number of rings (size 3 to 8) (size 9 to 14) (size 15 to 20)
#    0.000    2.667    2.222    0.000    0.000    2.667 
#   16.000    4.444    0.000    0.000    0.000    0.000 
#    0.000    0.000    0.000    0.000    0.000    0.000 
#
# Total GULP energy -100399.638091 kJ/mol
# GULP energy per Si atom -5577.757672 kJ/mol
# Density = 2.251917 g / cm^3
# Si number density = 22.570542 Si / 1000 Ang^3
#
#
#
# Elastic Constant Matrix: (Units=GPa)
#
#
# Indices 1 2 3 4 5 6 
#
# 1 126.1312 77.8830 33.7228 0.0000 32.7734 0.0000
# 2 77.8830 132.1241 19.5414 0.0000 17.2104 0.0000
# 3 33.7228 19.5414 47.5939 0.0000 10.6804 0.0000
# 4 0.0000 0.0000 0.0000 6.5570 0.0000 19.5325
# 5 32.7734 17.2104 10.6804 0.0000 40.3839 0.0000
# 6 0.0000 0.0000 0.0000 19.5325 0.0000 34.0914
#
#
#
# Elastic Compliance Matrix: (Units=1/GPa)
#
#
# Indices 1 2 3 4 5 6 
#
# 1 0.016731 -0.007757 -0.006766 0.000000 -0.008483 0.000000
# 2 -0.007757 0.011945 0.000341 0.000000 0.001114 0.000000
# 3 -0.006766 0.000341 0.026009 0.000000 -0.001533 0.000000
# 4 0.000000 0.000000 0.000000 -0.215794 0.000000 0.123638
# 5 -0.008483 0.001114 -0.001533 0.000000 0.031577 0.000000
# 6 0.000000 0.000000 0.000000 0.123638 0.000000 -0.041505
#
#
# Mechanical properties :
#
#
# Convention : Reuss Voigt Hill
#
# Bulk Modulus (GPa) = 37.99049 63.12708 50.55878
# Shear Modulus (GPa) = -37.34188 27.85325 -4.74431
#
# Velocity S-wave (km/s) = -4.07191 3.51672 -1.45140
# Velocity P-wave (km/s) = 2.28885 6.67228 4.43173
#
# Compressibility (1/GPa) = 0.02632238
#
# Stress axis : x y z
#
# Youngs Moduli (GPa) = 59.76907 83.71432 38.44783
#
# Poissons Ratio (x) = 0.64935 0.26015
# Poissons Ratio (y) = 0.46361 -0.01313
# Poissons Ratio (z) = 0.40442 -0.02859
#
# Static dielectric constant tensor:
#      x y z
#    x 1.912190 0.000000 0.030800 
#    y 0.000000 1.792570 0.000000 
#    z 0.030800 0.000000 2.002200 
# 
# From -- ./inp_files/87809.got.cif
#   From: 2010.05.17/outbox.cif.g08.bks.cpg/sg13_44_cif.got.tgz:87809.got - 2010.06.03 16:44:36.
