data_PCOD9227341
_publ_section_title
;
Structure prediction by ZEFSAII (Michael W. Deem and Ramdas Pophale) SiO2 
 PCOD9227341
Probable space group: P 2/C
;
_chemical_formula_sum "Si O2"
_cell_formula_units_Z 30
_cell_length_a 4.972014
_cell_length_b 15.263064
_cell_length_c 19.718896
_cell_angle_alpha 90.000000
_cell_angle_beta 85.014994
_cell_angle_gamma 90.000000
_cell_volume 1490.770599
_symmetry_space_group_name_H-M "P 2/C"
_symmetry_group_IT_number 13
_symmetry_cell_setting 'monoclinic'
loop_
_space_group_symop_operation_xyz
x,y,z
-x,y,1/2-z
-x,-y,-z
x,-y,1/2+z
loop_
_atom_site_type_symbol
_atom_site_label
_atom_site_fract_x
_atom_site_fract_y
_atom_site_fract_z
Si Si1 0.443270 0.256784 0.115102
Si Si2 0.059631 0.200493 0.587244
Si Si3 0.022803 0.847667 0.936553
Si Si4 0.738003 0.388812 0.964479
Si Si5 0.206261 0.417227 0.054223
Si Si6 0.141723 0.025151 0.316987
Si Si7 0.500000 0.823776 0.750000
Si Si8 0.532615 0.851954 0.170864
O O1 0.744638 0.220859 0.093957
O O2 0.338807 0.354900 0.106855
O O3 0.375377 0.231609 0.192971
O O4 0.261044 0.199963 0.068312
O O5 0.063965 0.146650 0.516439
O O6 0.177166 0.297856 0.571094
O O7 0.251953 0.154650 0.637792
O O8 0.759888 0.202305 0.625028
O O9 0.013791 0.935215 0.889505
O O10 0.804167 0.480657 0.926590
O O11 0.421718 0.398419 0.988683
O O12 0.915118 0.393478 0.030052
O O13 0.354928 0.951006 0.331916
O O14 0.000000 0.991698 0.250000
O O15 0.283305 0.111815 0.286226
O O16 0.500000 0.824581 0.250000
#
# Coordination Sequence:
#
# PCOD9227341 Si02
#       8
#     4   4   4   4   4   4   2   4
#     4  11  19  36  57  96 125 163 197 244 312 375
#     4  12  23  42  63  94 125 159 212 265 318 354
#     4  11  23  36  64  93 128 159 199 263 312 369
#     4  10  20  34  60  94 119 163 196 252 304 362
#     4  10  18  34  60  91 130 154 201 241 303 379
#     4  11  22  42  61  88 126 163 213 247 314 378
#     4  10  22  34  64  84 124 160 206 248 304 376
#     4  12  27  43  65  85 117 168 217 264 309 381
#
# _framework density 20.123821
#
# number of rings (size 3 to 8) (size 9 to 14) (size 15 to 20)
#    0.000    1.067    4.667    2.800    0.000    1.067 
#    0.000    0.000    1.467    0.000    6.933    0.000 
#    0.000    0.000    0.000    0.000    0.000    0.000 
#
# Total GULP energy -167274.604778 kJ/mol
# GULP energy per Si atom -5575.820159 kJ/mol
# Density = 2.007802 g / cm^3
# Si number density = 20.123821 Si / 1000 Ang^3
#
#
#
# Elastic Constant Matrix: (Units=GPa)
#
#
# Indices 1 2 3 4 5 6 
#
# 1 56.1585 -3.9726 -2.1975 0.0000 4.9735 0.0000
# 2 -3.9726 82.9833 30.2004 0.0000 5.6738 0.0000
# 3 -2.1975 30.2004 99.7620 0.0000 5.6076 0.0000
# 4 0.0000 0.0000 0.0000 25.8292 0.0000 7.9988
# 5 4.9735 5.6738 5.6076 0.0000 34.4793 0.0000
# 6 0.0000 0.0000 0.0000 7.9988 0.0000 24.0280
#
#
#
# Elastic Compliance Matrix: (Units=1/GPa)
#
#
# Indices 1 2 3 4 5 6 
#
# 1 0.018135 0.000964 0.000266 0.000000 -0.002818 0.000000
# 2 0.000964 0.013679 -0.004022 0.000000 -0.001736 0.000000
# 3 0.000266 -0.004022 0.011316 0.000000 -0.001217 0.000000
# 4 0.000000 0.000000 0.000000 0.043166 0.000000 -0.014370
# 5 -0.002818 -0.001736 -0.001217 0.000000 0.029893 0.000000
# 6 0.000000 0.000000 0.000000 -0.014370 0.000000 0.046402
#
#
# Mechanical properties :
#
#
# Convention : Reuss Voigt Hill
#
# Bulk Modulus (GPa) = 26.63437 31.88495 29.25966
# Shear Modulus (GPa) = 27.67168 31.19218 29.43193
#
# Velocity S-wave (km/s) = 3.71222 3.94129 3.82847
# Velocity P-wave (km/s) = 5.62477 6.04901 5.84074
#
# Compressibility (1/GPa) = 0.03754547
#
# Stress axis : x y z
#
# Youngs Moduli (GPa) = 55.14232 73.10326 88.37238
#
# Poissons Ratio (x) = -0.07047 -0.02351
# Poissons Ratio (y) = -0.05316 0.35546
# Poissons Ratio (z) = -0.01467 0.29404
#
# Static dielectric constant tensor:
#      x y z
#    x 1.751700 0.000000 -0.017490 
#    y 0.000000 1.744820 0.000000 
#    z -0.017490 0.000000 1.743640 
# 
# From -- ./inp_files/61409.got.cif
#   From: 2010.05.17/outbox.cif.g08.bks.cpg/sg13_31_cif.got.tgz:61409.got - 2010.06.03 16:44:36.
