data_PCOD9227386
_publ_section_title
;
Structure prediction by ZEFSAII (Michael W. Deem and Ramdas Pophale) SiO2 
 PCOD9227386
Probable space group: P 2/C
;
_chemical_formula_sum "Si O2"
_cell_formula_units_Z 32
_cell_length_a 21.442393
_cell_length_b 13.094073
_cell_length_c 9.942221
_cell_angle_alpha 90.000000
_cell_angle_beta 43.883613
_cell_angle_gamma 90.000000
_cell_volume 1935.028174
_symmetry_space_group_name_H-M "P 2/C"
_symmetry_group_IT_number 13
_symmetry_cell_setting 'monoclinic'
loop_
_space_group_symop_operation_xyz
x,y,z
-x,y,1/2-z
-x,-y,-z
x,-y,1/2+z
loop_
_atom_site_type_symbol
_atom_site_label
_atom_site_fract_x
_atom_site_fract_y
_atom_site_fract_z
Si Si1 0.606915 0.908793 0.936452
Si Si2 0.705961 0.308616 0.667974
Si Si3 0.600297 0.411855 0.617877
Si Si4 0.303174 0.393466 0.530061
Si Si5 0.090928 0.387437 0.549732
Si Si6 0.283660 0.288248 0.280325
Si Si7 0.852055 0.449182 0.319468
Si Si8 0.400615 0.105944 0.736741
O O1 0.684040 0.827487 0.782669
O O2 0.615795 0.012138 0.838052
O O3 0.609959 0.927280 0.091692
O O4 0.506717 0.864449 0.058898
O O5 0.632988 0.386351 0.717056
O O6 0.712692 0.324273 0.816113
O O7 0.798333 0.350203 0.458165
O O8 0.667502 0.198440 0.687825
O O9 0.500000 0.376998 0.750000
O O10 0.613522 0.531438 0.573593
O O11 0.664698 0.350609 0.416316
O O12 0.313405 0.330779 0.378395
O O13 0.220639 0.472636 0.633887
O O14 0.178399 0.315343 0.428592
O O15 0.084497 0.417521 0.402728
O O16 0.108090 0.487565 0.617154
O O17 0.000000 0.340087 0.750000
#
# Coordination Sequence:
#
# PCOD9227386 Si02
#       8
#     4   4   4   4   4   4   4   4
#     4  10  21  38  52  77 104 135 179 230 268 309
#     4  11  19  34  54  72 105 143 177 213 269 314
#     4  11  20  33  50  71 105 145 178 209 255 315
#     4  10  21  32  49  75 108 140 178 212 258 312
#     4  11  20  33  55  81 108 144 176 212 266 319
#     4  11  21  36  53  74 110 138 177 224 260 314
#     4  10  18  35  51  78 112 137 174 221 255 320
#     4  10  21  35  56  75 102 138 181 222 270 316
#
# _framework density 16.537227000000001
#
# number of rings (size 3 to 8) (size 9 to 14) (size 15 to 20)
#    0.000    1.500    5.000    2.625    1.750    3.000 
#    0.000    0.000    0.000    0.000    0.000    4.375 
#    0.000    0.000    0.000    0.000    0.000    0.000 
#
# Total GULP energy -178453.595241 kJ/mol
# GULP energy per Si atom -5576.674851 kJ/mol
# Density = 1.649959 g / cm^3
# Si number density = 16.537227 Si / 1000 Ang^3
#
#
#
# Elastic Constant Matrix: (Units=GPa)
#
#
# Indices 1 2 3 4 5 6 
#
# 1 50.3284 28.8985 37.7379 0.0000 2.0067 0.0000
# 2 28.8985 73.0720 44.5275 0.0000 4.3660 0.0000
# 3 37.7379 44.5275 85.3080 0.0000 -3.5932 0.0000
# 4 0.0000 0.0000 0.0000 23.5222 0.0000 5.7363
# 5 2.0067 4.3660 -3.5932 0.0000 35.6869 0.0000
# 6 0.0000 0.0000 0.0000 5.7363 0.0000 16.9829
#
#
#
# Elastic Compliance Matrix: (Units=1/GPa)
#
#
# Indices 1 2 3 4 5 6 
#
# 1 0.031483 -0.005536 -0.011131 0.000000 -0.002214 0.000000
# 2 -0.005536 0.021493 -0.008905 0.000000 -0.003215 0.000000
# 3 -0.011131 -0.008905 0.021458 0.000000 0.003876 0.000000
# 4 0.000000 0.000000 0.000000 0.046329 0.000000 -0.015649
# 5 -0.002214 -0.003215 0.003876 0.000000 0.028930 0.000000
# 6 0.000000 0.000000 0.000000 -0.015649 0.000000 0.064168
#
#
# Mechanical properties :
#
#
# Convention : Reuss Voigt Hill
#
# Bulk Modulus (GPa) = 42.93711 47.89290 45.41500
# Shear Modulus (GPa) = 18.33069 21.74138 20.03604
#
# Velocity S-wave (km/s) = 3.33295 3.62980 3.48454
# Velocity P-wave (km/s) = 6.38997 6.82575 6.61145
#
# Compressibility (1/GPa) = 0.02328988
#
# Stress axis : x y z
#
# Youngs Moduli (GPa) = 31.76357 46.52701 46.60365
#
# Poissons Ratio (x) = 0.25756 0.51874
# Poissons Ratio (y) = 0.17583 0.41501
# Poissons Ratio (z) = 0.35356 0.41432
#
# Static dielectric constant tensor:
#      x y z
#    x 1.576370 0.000000 -0.010400 
#    y 0.000000 1.542470 0.000000 
#    z -0.010400 0.000000 1.575650 
# 
# From -- ./inp_files/23347.got.cif
#   From: 2010.05.17/outbox.cif.g08.bks.cpg/sg13_12_cif.got.tgz:23347.got - 2010.06.03 16:44:36.
