data_PCOD9227104
_publ_section_title
;
Structure prediction by ZEFSAII (Michael W. Deem and Ramdas Pophale) SiO2 
 PCOD9227104
Probable space group: P 2/C
;
_chemical_formula_sum "Si O2"
_cell_formula_units_Z 22
_cell_length_a 26.358789
_cell_length_b 5.694373
_cell_length_c 14.418260
_cell_angle_alpha 90.000000
_cell_angle_beta 154.888422
_cell_angle_gamma 90.000000
_cell_volume 918.420542
_symmetry_space_group_name_H-M "P 2/C"
_symmetry_group_IT_number 13
_symmetry_cell_setting 'monoclinic'
loop_
_space_group_symop_operation_xyz
x,y,z
-x,y,1/2-z
-x,-y,-z
x,-y,1/2+z
loop_
_atom_site_type_symbol
_atom_site_label
_atom_site_fract_x
_atom_site_fract_y
_atom_site_fract_z
Si Si1 0.468174 0.100683 0.808505
Si Si2 0.809416 0.386866 0.360369
Si Si3 0.798909 0.089377 0.168235
Si Si4 0.974782 0.249734 0.042825
Si Si5 0.000000 0.883767 0.250000
Si Si6 0.442943 0.395410 0.050248
O O1 0.500000 0.107631 0.750000
O O2 0.529110 0.860832 0.944927
O O3 0.326827 0.065603 0.588791
O O4 0.504977 0.360026 0.904384
O O5 0.767092 0.191078 0.217178
O O6 0.876173 0.260491 0.555105
O O7 0.920296 0.523410 0.498601
O O8 0.699414 0.561850 0.188903
O O9 0.892918 0.269350 0.278538
O O10 0.877312 0.854410 0.309795
O O11 0.984264 0.049686 0.136217
O O12 0.500000 0.386445 0.250000
#
# Coordination Sequence:
#
# PCOD9227104 Si02
#       6
#     4   4   4   4   2   4
#     4  10  18  33  52  91 118 155 184 248 302 357
#     4  11  20  37  58  88 118 159 204 247 303 365
#     4  10  20  34  59  91 120 145 202 252 309 355
#     4  10  21  37  58  85 118 159 195 255 303 354
#     4  10  24  38  56  84 116 166 206 240 304 368
#     4  10  19  31  58  85 119 152 199 244 298 357
#
# _framework density 23.954167000000002
#
# number of rings (size 3 to 8) (size 9 to 14) (size 15 to 20)
#    0.000    1.818    3.636    3.273    2.545    0.000 
#    0.000    0.000    0.000    2.182    0.000    0.000 
#    0.000    0.000    0.000    0.000    0.000    0.000 
#
# Total GULP energy -122829.157010 kJ/mol
# GULP energy per Si atom -5583.143500 kJ/mol
# Density = 2.389965 g / cm^3
# Si number density = 23.954167 Si / 1000 Ang^3
#
#
#
# Elastic Constant Matrix: (Units=GPa)
#
#
# Indices 1 2 3 4 5 6 
#
# 1 19.4283 14.9471 25.1291 0.0000 5.0391 0.0000
# 2 14.9471 126.8267 26.9759 0.0000 -2.2120 0.0000
# 3 25.1291 26.9759 137.2436 0.0000 23.3639 0.0000
# 4 0.0000 0.0000 0.0000 73.0573 0.0000 12.0540
# 5 5.0391 -2.2120 23.3639 0.0000 26.9894 0.0000
# 6 0.0000 0.0000 0.0000 12.0540 0.0000 29.0213
#
#
#
# Elastic Compliance Matrix: (Units=1/GPa)
#
#
# Indices 1 2 3 4 5 6 
#
# 1 0.071809 -0.006148 -0.011226 0.000000 -0.004193 0.000000
# 2 -0.006148 0.008894 -0.001105 0.000000 0.002833 0.000000
# 3 -0.011226 -0.001105 0.010811 0.000000 -0.007353 0.000000
# 4 0.000000 0.000000 0.000000 0.014695 0.000000 -0.006104
# 5 -0.004193 0.002833 -0.007353 0.000000 0.044432 0.000000
# 6 0.000000 0.000000 0.000000 -0.006104 0.000000 0.036993
#
#
# Mechanical properties :
#
#
# Convention : Reuss Voigt Hill
#
# Bulk Modulus (GPa) = 18.32990 46.40031 32.36510
# Shear Modulus (GPa) = 20.59515 40.24337 30.41926
#
# Velocity S-wave (km/s) = 2.93537 4.10325 3.56742
# Velocity P-wave (km/s) = 4.37690 6.47003 5.52352
#
# Compressibility (1/GPa) = 0.05455568
#
# Stress axis : x y z
#
# Youngs Moduli (GPa) = 13.92584 112.43830 92.50178
#
# Poissons Ratio (x) = 0.69132 1.03840
# Poissons Ratio (y) = 0.08562 0.10218
# Poissons Ratio (z) = 0.15633 0.12420
#
# Static dielectric constant tensor:
#      x y z
#    x 1.973960 0.000000 -0.021840 
#    y 0.000000 1.934210 0.000000 
#    z -0.021840 0.000000 1.900010 
# 
# From -- ./inp_files/58172.got.cif
#   From: 2010.05.17/outbox.cif.g08.bks.cpg/sg13_30_cif.got.tgz:58172.got - 2010.06.03 16:44:36.
