data_PCOD9227212
_publ_section_title
;
Structure prediction by ZEFSAII (Michael W. Deem and Ramdas Pophale) SiO2 
 PCOD9227212
Probable space group: P 2/C
;
_chemical_formula_sum "Si O2"
_cell_formula_units_Z 30
_cell_length_a 13.367612
_cell_length_b 13.560943
_cell_length_c 22.649174
_cell_angle_alpha 90.000000
_cell_angle_beta 159.251819
_cell_angle_gamma 90.000000
_cell_volume 1454.520555
_symmetry_space_group_name_H-M "P 2/C"
_symmetry_group_IT_number 13
_symmetry_cell_setting 'monoclinic'
loop_
_space_group_symop_operation_xyz
x,y,z
-x,y,1/2-z
-x,-y,-z
x,-y,1/2+z
loop_
_atom_site_type_symbol
_atom_site_label
_atom_site_fract_x
_atom_site_fract_y
_atom_site_fract_z
Si Si1 0.820314 0.128499 0.512629
Si Si2 0.196295 0.523971 0.498453
Si Si3 0.304312 0.380024 0.276895
Si Si4 0.802525 0.980530 0.195548
Si Si5 0.081774 0.697993 0.527548
Si Si6 0.807744 0.934718 0.438589
Si Si7 0.764496 0.827130 0.747307
Si Si8 0.500000 0.369709 0.750000
O O1 0.559627 0.161613 0.409697
O O2 0.113991 0.102959 0.709404
O O3 0.848401 0.204486 0.473111
O O4 0.726935 0.019981 0.440522
O O5 0.380979 0.576944 0.550166
O O6 0.387339 0.441596 0.636305
O O7 0.910556 0.466733 0.326328
O O8 0.126208 0.607265 0.507440
O O9 0.226088 0.283581 0.271010
O O10 0.253280 0.336415 0.181279
O O11 0.000000 0.957053 0.250000
O O12 0.855127 0.087377 0.253079
O O13 0.500000 0.000000 0.000000
O O14 0.756370 0.692984 0.366395
O O15 0.500000 0.897677 0.250000
O O16 0.015873 0.851034 0.578415
O O17 0.000000 0.000000 0.500000
#
# Coordination Sequence:
#
# PCOD9227212 Si02
#       8
#     4   4   4   4   4   4   4   2
#     4  11  23  37  63  89 114 162 206 249 312 371
#     4  11  18  33  53  78 122 177 204 238 283 332
#     4  11  21  35  56  86 132 167 211 246 283 354
#     4  11  24  48  69  88 117 148 202 272 331 381
#     4  11  20  33  55  83 127 169 206 242 285 354
#     4  11  22  38  53  80 129 166 194 233 295 363
#     4  11  23  39  63  92 113 159 213 252 308 370
#     4  10  18  34  46  80 126 172 210 236 278 330
#
# _framework density 20.625351999999999
#
# number of rings (size 3 to 8) (size 9 to 14) (size 15 to 20)
#    0.000    1.067    6.667    1.600    0.000    0.000 
#   15.600    0.000    0.000    0.000    0.000    4.667 
#    0.000    0.000    0.000    0.000    0.000    0.000 
#
# Total GULP energy -167236.335248 kJ/mol
# GULP energy per Si atom -5574.544508 kJ/mol
# Density = 2.057841 g / cm^3
# Si number density = 20.625352 Si / 1000 Ang^3
#
#
#
# Elastic Constant Matrix: (Units=GPa)
#
#
# Indices 1 2 3 4 5 6 
#
# 1 23.0343 10.0851 9.7272 0.0000 1.3133 0.0000
# 2 10.0851 113.6136 22.9157 0.0000 5.0764 0.0000
# 3 9.7272 22.9157 108.1218 0.0000 9.2528 0.0000
# 4 0.0000 0.0000 0.0000 28.5696 0.0000 10.2672
# 5 1.3133 5.0764 9.2528 0.0000 21.5830 0.0000
# 6 0.0000 0.0000 0.0000 10.2672 0.0000 23.8330
#
#
#
# Elastic Compliance Matrix: (Units=1/GPa)
#
#
# Indices 1 2 3 4 5 6 
#
# 1 0.046373 -0.003405 -0.003402 0.000000 -0.000562 0.000000
# 2 -0.003405 0.009484 -0.001589 0.000000 -0.001342 0.000000
# 3 -0.003402 -0.001589 0.010217 0.000000 -0.003799 0.000000
# 4 0.000000 0.000000 0.000000 0.041414 0.000000 -0.017841
# 5 -0.000562 -0.001342 -0.003799 0.000000 0.048312 0.000000
# 6 0.000000 0.000000 0.000000 -0.017841 0.000000 0.049645
#
#
# Mechanical properties :
#
#
# Convention : Reuss Voigt Hill
#
# Bulk Modulus (GPa) = 20.29136 36.69175 28.49155
# Shear Modulus (GPa) = 20.94995 28.26657 24.60826
#
# Velocity S-wave (km/s) = 3.19052 3.70601 3.45789
# Velocity P-wave (km/s) = 4.84066 6.01173 5.45770
#
# Compressibility (1/GPa) = 0.04928207
#
# Stress axis : x y z
#
# Youngs Moduli (GPa) = 21.56424 105.43535 97.87793
#
# Poissons Ratio (x) = 0.35901 0.33300
# Poissons Ratio (y) = 0.07343 0.15552
# Poissons Ratio (z) = 0.07337 0.16753
#
# Static dielectric constant tensor:
#      x y z
#    x 1.834270 0.000000 -0.053570 
#    y 0.000000 1.907230 0.000000 
#    z -0.053570 0.000000 1.813650 
# 
# From -- ./inp_files/92961.got.cif
#   From: 2010.05.17/outbox.cif.g08.bks.cpg/sg13_47_cif.got.tgz:92961.got - 2010.06.03 16:44:36.
