data_PCOD9227027
_publ_section_title
;
Structure prediction by ZEFSAII (Michael W. Deem and Ramdas Pophale) SiO2 
 PCOD9227027
Probable space group: P 2/C
;
_chemical_formula_sum "Si O2"
_cell_formula_units_Z 20
_cell_length_a 5.578609
_cell_length_b 20.546030
_cell_length_c 7.043304
_cell_angle_alpha 90.000000
_cell_angle_beta 78.077194
_cell_angle_gamma 90.000000
_cell_volume 789.875472
_symmetry_space_group_name_H-M "P 2/C"
_symmetry_group_IT_number 13
_symmetry_cell_setting 'monoclinic'
loop_
_space_group_symop_operation_xyz
x,y,z
-x,y,1/2-z
-x,-y,-z
x,-y,1/2+z
loop_
_atom_site_type_symbol
_atom_site_label
_atom_site_fract_x
_atom_site_fract_y
_atom_site_fract_z
Si Si1 0.282507 0.907229 0.057371
Si Si2 0.000000 0.141606 0.250000
Si Si3 0.957187 0.576436 0.978797
Si Si4 0.542906 0.635632 0.513903
Si Si5 0.554093 0.783480 0.965785
Si Si6 0.500000 0.002325 0.250000
O O1 0.110644 0.901701 0.902300
O O2 0.367181 0.834535 0.091229
O O3 0.506443 0.945684 0.921127
O O4 0.270920 0.952944 0.244187
O O5 0.827861 0.189019 0.407242
O O6 0.176070 0.612887 0.055063
O O7 0.000000 0.592447 0.750000
O O8 0.672213 0.594589 0.052141
O O9 0.000000 0.500000 0.000000
O O10 0.500000 0.630689 0.750000
O O11 0.493126 0.710263 0.466195
O O12 0.500000 0.785974 0.750000
#
# Coordination Sequence:
#
# PCOD9227027 Si02
#       6
#     4   2   4   4   4   2
#     4  10  20  36  53  79 108 146 183 240 285 354
#     4  10  18  32  56  82 104 142 184 248 278 340
#     4  10  20  35  56  85 114 148 186 231 280 335
#     4   9  19  31  56  85 111 148 190 236 277 332
#     4   9  18  32  53  80 107 137 188 236 282 328
#     4  10  20  38  52  76 116 142 184 234 304 346
#
# _framework density 25.320446
#
# number of rings (size 3 to 8) (size 9 to 14) (size 15 to 20)
#    0.000    2.400    3.000    0.600    9.800    0.800 
#    0.000    0.000    4.400    0.000    0.000    0.000 
#    0.000    0.000    0.000    0.000    0.000    0.000 
#
# Total GULP energy -111405.712056 kJ/mol
# GULP energy per Si atom -5570.285603 kJ/mol
# Density = 2.526282 g / cm^3
# Si number density = 25.320446 Si / 1000 Ang^3
#
#
#
# Elastic Constant Matrix: (Units=GPa)
#
#
# Indices 1 2 3 4 5 6 
#
# 1 166.0671 78.4744 56.9103 0.0000 26.5737 0.0000
# 2 78.4744 172.0627 12.8428 0.0000 17.5188 0.0000
# 3 56.9103 12.8428 103.9038 0.0000 22.9079 0.0000
# 4 0.0000 0.0000 0.0000 -4.7850 0.0000 25.3976
# 5 26.5737 17.5188 22.9079 0.0000 50.2144 0.0000
# 6 0.0000 0.0000 0.0000 25.3976 0.0000 23.1868
#
#
#
# Elastic Compliance Matrix: (Units=1/GPa)
#
#
# Indices 1 2 3 4 5 6 
#
# 1 0.009657 -0.003898 -0.004426 0.000000 -0.001732 0.000000
# 2 -0.003898 0.007608 0.001473 0.000000 -0.001264 0.000000
# 3 -0.004426 0.001473 0.012745 0.000000 -0.003986 0.000000
# 4 0.000000 0.000000 0.000000 -0.030671 0.000000 0.033595
# 5 -0.001732 -0.001264 -0.003986 0.000000 0.023090 0.000000
# 6 0.000000 0.000000 0.000000 0.033595 0.000000 0.006329
#
#
# Mechanical properties :
#
#
# Convention : Reuss Voigt Hill
#
# Bulk Modulus (GPa) = 61.31396 82.05427 71.68412
# Shear Modulus (GPa) = 104.38853 33.31031 68.84942
#
# Velocity S-wave (km/s) = 6.42779 3.63099 5.22018
# Velocity P-wave (km/s) = 8.90822 7.07499 8.04400
#
# Compressibility (1/GPa) = 0.01630950
#
# Stress axis : x y z
#
# Youngs Moduli (GPa) = 103.54657 131.43540 78.46061
#
# Poissons Ratio (x) = 0.51232 0.34727
# Poissons Ratio (y) = 0.40362 -0.11559
# Poissons Ratio (z) = 0.45830 -0.19363
#
# Static dielectric constant tensor:
#      x y z
#    x 2.339790 0.000000 -0.381760 
#    y 0.000000 1.943840 0.000000 
#    z -0.381760 0.000000 2.476790 
# 
# From -- ./inp_files/9524.got.cif
#   From: 2010.05.17/outbox.cif.g08.bks.cpg/sg13_5_cif.got.tgz:9524.got - 2010.06.03 16:44:36.
