data_PCOD9227164
_publ_section_title
;
Structure prediction by ZEFSAII (Michael W. Deem and Ramdas Pophale) SiO2 
 PCOD9227164
Probable space group: P 2/C
;
_chemical_formula_sum "Si O2"
_cell_formula_units_Z 30
_cell_length_a 14.604789
_cell_length_b 8.480160
_cell_length_c 24.869342
_cell_angle_alpha 90.000000
_cell_angle_beta 28.628951
_cell_angle_gamma 90.000000
_cell_volume 1475.781008
_symmetry_space_group_name_H-M "P 2/C"
_symmetry_group_IT_number 13
_symmetry_cell_setting 'monoclinic'
loop_
_space_group_symop_operation_xyz
x,y,z
-x,y,1/2-z
-x,-y,-z
x,-y,1/2+z
loop_
_atom_site_type_symbol
_atom_site_label
_atom_site_fract_x
_atom_site_fract_y
_atom_site_fract_z
Si Si1 0.633876 0.294799 0.788403
Si Si2 0.600346 0.296228 0.413913
Si Si3 0.500000 0.189661 0.750000
Si Si4 0.849038 0.191717 0.127636
Si Si5 0.916755 0.460631 0.174489
Si Si6 0.515052 0.939101 0.871099
Si Si7 0.190328 0.954166 0.962595
Si Si8 0.677044 0.446700 0.480050
O O1 0.609051 0.291321 0.737588
O O2 0.833466 0.368123 0.703210
O O3 0.585123 0.118894 0.832647
O O4 0.470579 0.405528 0.896995
O O5 0.766924 0.378522 0.292724
O O6 0.557089 0.132338 0.407569
O O7 0.665542 0.307428 0.441742
O O8 0.407951 0.400469 0.506092
O O9 0.341348 0.078605 0.858944
O O10 0.921560 0.351087 0.118583
O O11 0.645568 0.152724 0.259806
O O12 0.834852 0.179948 0.070155
O O13 0.993078 0.049308 0.069887
O O14 0.117480 0.467333 0.100606
O O15 0.297609 0.914082 0.962711
#
# Coordination Sequence:
#
# PCOD9227164 Si02
#       8
#     4   4   2   4   4   4   4   4
#     4  10  21  36  57  83 118 152 190 238 294 345
#     4   9  21  37  61  82 106 152 194 233 291 349
#     4  10  18  38  52  78 118 160 176 242 292 336
#     4  10  19  33  54  81 109 154 199 221 289 348
#     4  10  20  36  56  85 115 151 183 242 290 351
#     4  10  19  37  57  83 114 144 195 238 282 339
#     4  10  18  33  57  77 114 159 190 238 282 339
#     4  10  20  40  58  81 114 148 191 238 296 343
#
# _framework density 20.328219000000001
#
# number of rings (size 3 to 8) (size 9 to 14) (size 15 to 20)
#    0.000    2.133    2.667    2.000    0.000    1.600 
#    7.200    1.333    0.000    9.600    0.000    0.000 
#    0.000    0.000    0.000    0.000    0.000    0.000 
#
# Total GULP energy -167416.326255 kJ/mol
# GULP energy per Si atom -5580.544208 kJ/mol
# Density = 2.028195 g / cm^3
# Si number density = 20.328219 Si / 1000 Ang^3
#
#
#
# Elastic Constant Matrix: (Units=GPa)
#
#
# Indices 1 2 3 4 5 6 
#
# 1 147.1715 52.3372 29.9963 0.0000 -29.6379 0.0000
# 2 52.3372 47.1927 1.4397 0.0000 -12.4734 0.0000
# 3 29.9963 1.4397 35.8143 0.0000 -12.5986 0.0000
# 4 0.0000 0.0000 0.0000 15.9942 0.0000 3.0673
# 5 -29.6379 -12.4734 -12.5986 0.0000 33.3047 0.0000
# 6 0.0000 0.0000 0.0000 3.0673 0.0000 25.2603
#
#
#
# Elastic Compliance Matrix: (Units=1/GPa)
#
#
# Indices 1 2 3 4 5 6 
#
# 1 0.015352 -0.015733 -0.010949 0.000000 0.003627 0.000000
# 2 -0.015733 0.039834 0.013725 0.000000 0.006110 0.000000
# 3 -0.010949 0.013725 0.040282 0.000000 0.010634 0.000000
# 4 0.000000 0.000000 0.000000 0.064013 0.000000 -0.007773
# 5 0.003627 0.006110 0.010634 0.000000 0.039565 0.000000
# 6 0.000000 0.000000 0.000000 -0.007773 0.000000 0.040532
#
#
# Mechanical properties :
#
#
# Convention : Reuss Voigt Hill
#
# Bulk Modulus (GPa) = 14.37755 44.19165 29.28460
# Shear Modulus (GPa) = 17.32048 24.67218 20.99633
#
# Velocity S-wave (km/s) = 2.92214 3.48759 3.21731
# Velocity P-wave (km/s) = 4.29805 6.16473 5.31400
#
# Compressibility (1/GPa) = 0.06955288
#
# Stress axis : x y z
#
# Youngs Moduli (GPa) = 65.13884 25.10447 24.82519
#
# Poissons Ratio (x) = 0.39496 0.27182
# Poissons Ratio (y) = 1.02480 -0.34072
# Poissons Ratio (z) = 0.71324 -0.34456
#
# Static dielectric constant tensor:
#      x y z
#    x 1.745410 0.000000 0.010130 
#    y 0.000000 1.743990 0.000000 
#    z 0.010130 0.000000 1.731650 
# 
# From -- ./inp_files/87283.got.cif
#   From: 2010.05.17/outbox.cif.g08.bks.cpg/sg13_44_cif.got.tgz:87283.got - 2010.06.03 16:44:36.
