data_PCOD9227069
_publ_section_title
;
Structure prediction by ZEFSAII (Michael W. Deem and Ramdas Pophale) SiO2 
 PCOD9227069
Probable space group: P 2/C
;
_chemical_formula_sum "Si O2"
_cell_formula_units_Z 30
_cell_length_a 25.505636
_cell_length_b 10.976240
_cell_length_c 14.486606
_cell_angle_alpha 90.000000
_cell_angle_beta 21.424484
_cell_angle_gamma 90.000000
_cell_volume 1481.412119
_symmetry_space_group_name_H-M "P 2/C"
_symmetry_group_IT_number 13
_symmetry_cell_setting 'monoclinic'
loop_
_space_group_symop_operation_xyz
x,y,z
-x,y,1/2-z
-x,-y,-z
x,-y,1/2+z
loop_
_atom_site_type_symbol
_atom_site_label
_atom_site_fract_x
_atom_site_fract_y
_atom_site_fract_z
Si Si1 0.741953 0.541201 0.606735
Si Si2 0.667514 0.070544 0.004850
Si Si3 0.548564 0.325332 0.572851
Si Si4 0.328377 0.011884 0.798475
Si Si5 0.781772 0.876246 0.686465
Si Si6 0.340853 0.274636 0.751020
Si Si7 0.000000 0.708826 0.250000
Si Si8 0.414192 0.670914 0.800703
O O1 0.754278 0.395947 0.596346
O O2 0.676723 0.578140 0.613562
O O3 0.881483 0.621263 0.398530
O O4 0.630116 0.582400 0.870284
O O5 0.500000 0.054898 0.250000
O O6 0.679167 0.214658 0.008261
O O7 0.694856 0.004790 0.056292
O O8 0.765612 0.000477 0.770134
O O9 0.500000 0.375666 0.750000
O O10 0.654621 0.214537 0.423772
O O11 0.419818 0.276879 0.720728
O O12 0.272777 0.142400 0.855347
O O13 0.500000 0.000000 0.500000
O O14 0.252772 0.908130 0.863215
O O15 0.925305 0.796902 0.447797
O O16 0.464924 0.280776 0.469508
O O17 0.500000 0.627106 0.750000
#
# Coordination Sequence:
#
# PCOD9227069 Si02
#       8
#     4   4   4   4   4   4   2   4
#     4  10  23  39  57  82 118 170 212 242 295 365
#     4  11  18  30  57  93 123 148 187 255 331 373
#     4  10  18  32  58  88 117 145 196 260 318 363
#     4  12  18  33  57  92 129 144 181 261 331 377
#     4  11  21  36  59  87 119 165 201 243 308 368
#     4  11  20  32  55  88 122 154 190 249 322 369
#     4  10  24  46  60  74 124 182 224 246 268 366
#     4  10  19  34  59  93 125 147 186 257 326 369
#
# _framework density 20.250948000000001
#
# number of rings (size 3 to 8) (size 9 to 14) (size 15 to 20)
#    0.000    1.333    4.000    5.200    0.000    2.133 
#    0.000    3.333    0.000   12.800    0.000    0.000 
#    0.000    0.000    0.000    0.000    0.000    0.000 
#
# Total GULP energy -167461.328872 kJ/mol
# GULP energy per Si atom -5582.044296 kJ/mol
# Density = 2.020486 g / cm^3
# Si number density = 20.250948 Si / 1000 Ang^3
#
#
#
# Elastic Constant Matrix: (Units=GPa)
#
#
# Indices 1 2 3 4 5 6 
#
# 1 111.9499 21.4688 30.4126 0.0000 24.0384 0.0000
# 2 21.4688 141.6127 31.5144 0.0000 1.5284 0.0000
# 3 30.4126 31.5144 49.3852 0.0000 -0.0802 0.0000
# 4 0.0000 0.0000 0.0000 18.5679 0.0000 -1.0055
# 5 24.0384 1.5284 -0.0802 0.0000 20.2975 0.0000
# 6 0.0000 0.0000 0.0000 -1.0055 0.0000 -2.2066
#
#
#
# Elastic Compliance Matrix: (Units=1/GPa)
#
#
# Indices 1 2 3 4 5 6 
#
# 1 0.015472 -0.000024 -0.009542 0.000000 -0.018359 0.000000
# 2 -0.000024 0.008239 -0.005244 0.000000 -0.000613 0.000000
# 3 -0.009542 -0.005244 0.029491 0.000000 0.011812 0.000000
# 4 0.000000 0.000000 0.000000 0.052559 0.000000 -0.023950
# 5 -0.018359 -0.000613 0.011812 0.000000 0.071102 0.000000
# 6 0.000000 0.000000 0.000000 -0.023950 0.000000 -0.442274
#
#
# Mechanical properties :
#
#
# Convention : Reuss Voigt Hill
#
# Bulk Modulus (GPa) = 42.40666 52.19328 47.29997
# Shear Modulus (GPa) = -21.93644 21.96856 0.01606
#
# Velocity S-wave (km/s) = -3.29482 3.29723 0.08915
# Velocity P-wave (km/s) = 2.55179 6.35018 4.83924
#
# Compressibility (1/GPa) = 0.02358120
#
# Stress axis : x y z
#
# Youngs Moduli (GPa) = 64.63478 121.37878 33.90884
#
# Poissons Ratio (x) = 0.00289 0.32357
# Poissons Ratio (y) = 0.00154 0.17781
# Poissons Ratio (z) = 0.61677 0.63648
#
# Static dielectric constant tensor:
#      x y z
#    x 1.702320 0.000000 0.008860 
#    y 0.000000 1.769490 0.000000 
#    z 0.008860 0.000000 1.726990 
# 
# From -- ./inp_files/59613.got.cif
#   From: 2010.05.17/outbox.cif.g08.bks.cpg/sg13_30_cif.got.tgz:59613.got - 2010.06.03 16:44:36.
