data_PCOD9227502
_publ_section_title
;
Structure prediction by ZEFSAII (Michael W. Deem and Ramdas Pophale) SiO2 
 PCOD9227502
Probable space group: P 2/C
;
_chemical_formula_sum "Si O2"
_cell_formula_units_Z 30
_cell_length_a 8.858198
_cell_length_b 8.810067
_cell_length_c 19.632038
_cell_angle_alpha 90.000000
_cell_angle_beta 92.328076
_cell_angle_gamma 90.000000
_cell_volume 1530.845530
_symmetry_space_group_name_H-M "P 2/C"
_symmetry_group_IT_number 13
_symmetry_cell_setting 'monoclinic'
loop_
_space_group_symop_operation_xyz
x,y,z
-x,y,1/2-z
-x,-y,-z
x,-y,1/2+z
loop_
_atom_site_type_symbol
_atom_site_label
_atom_site_fract_x
_atom_site_fract_y
_atom_site_fract_z
Si Si1 0.969795 0.745965 0.980846
Si Si2 0.544073 0.811348 0.671999
Si Si3 0.856110 0.895730 0.714559
Si Si4 0.500000 0.664604 0.250000
Si Si5 0.251206 0.530336 0.007514
Si Si6 0.023225 0.046676 0.603996
Si Si7 0.324815 0.925024 0.174304
Si Si8 0.482412 0.497980 0.390313
O O1 0.130374 0.661350 0.989789
O O2 0.969628 0.873610 0.922814
O O3 0.844725 0.616458 0.971157
O O4 0.944729 0.843420 0.048970
O O5 0.500000 0.777353 0.750000
O O6 0.726267 0.810892 0.670250
O O7 0.482815 0.679309 0.623034
O O8 0.470102 0.975573 0.654187
O O9 0.928442 0.030413 0.671255
O O10 0.000000 0.809722 0.750000
O O11 0.761016 0.965655 0.774334
O O12 0.375178 0.777164 0.215974
O O13 0.450491 0.568355 0.315231
O O14 0.344841 0.491932 0.940809
O O15 0.373468 0.568999 0.068228
O O16 0.194952 0.102434 0.617056
#
# Coordination Sequence:
#
# PCOD9227502 Si02
#       8
#     4   4   4   2   4   4   4   4
#     4  10  21  39  60  79 117 152 195 238 287 336
#     4  10  18  36  56  83 112 155 185 233 277 351
#     4   9  18  32  55  81 112 143 183 233 282 336
#     4  12  22  36  60  88 118 150 184 254 290 346
#     4  10  23  41  58  84 118 160 193 243 283 346
#     4  10  20  35  59  87 107 150 195 237 283 348
#     4  10  20  35  57  84 118 145 185 239 297 335
#     4  11  23  38  61  85 118 155 201 232 291 346
#
# _framework density 19.597014000000001
#
# number of rings (size 3 to 8) (size 9 to 14) (size 15 to 20)
#    0.000    1.867    2.667    2.400    1.867    0.000 
#    0.000    0.000    0.000    8.800    0.000    0.000 
#    0.000    0.000    0.000    0.000    0.000    0.000 
#
# Total GULP energy -167187.940132 kJ/mol
# GULP energy per Si atom -5572.931338 kJ/mol
# Density = 1.955241 g / cm^3
# Si number density = 19.597014 Si / 1000 Ang^3
#
#
#
# Elastic Constant Matrix: (Units=GPa)
#
#
# Indices 1 2 3 4 5 6 
#
# 1 101.7289 20.7278 25.4781 0.0000 6.0252 0.0000
# 2 20.7278 55.6847 13.4286 0.0000 2.6469 0.0000
# 3 25.4781 13.4286 50.5733 0.0000 5.8724 0.0000
# 4 0.0000 0.0000 0.0000 24.6720 0.0000 10.5125
# 5 6.0252 2.6469 5.8724 0.0000 17.3154 0.0000
# 6 0.0000 0.0000 0.0000 10.5125 0.0000 15.2151
#
#
#
# Elastic Compliance Matrix: (Units=1/GPa)
#
#
# Indices 1 2 3 4 5 6 
#
# 1 0.011808 -0.003122 -0.004891 0.000000 -0.001973 0.000000
# 2 -0.003122 0.020039 -0.003663 0.000000 -0.000735 0.000000
# 3 -0.004891 -0.003663 0.023888 0.000000 -0.005840 0.000000
# 4 0.000000 0.000000 0.000000 0.057443 0.000000 -0.039688
# 5 -0.001973 -0.000735 -0.005840 0.000000 0.060531 0.000000
# 6 0.000000 0.000000 0.000000 -0.039688 0.000000 0.093146
#
#
# Mechanical properties :
#
#
# Convention : Reuss Voigt Hill
#
# Bulk Modulus (GPa) = 30.87984 36.36175 33.62080
# Shear Modulus (GPa) = 16.61137 21.33067 18.97102
#
# Velocity S-wave (km/s) = 2.91460 3.30277 3.11474
# Velocity P-wave (km/s) = 5.20751 5.75668 5.48897
#
# Compressibility (1/GPa) = 0.03238359
#
# Stress axis : x y z
#
# Youngs Moduli (GPa) = 84.68906 49.90374 41.86257
#
# Poissons Ratio (x) = 0.15581 0.20473
# Poissons Ratio (y) = 0.26441 0.15333
# Poissons Ratio (z) = 0.41418 0.18278
#
# Static dielectric constant tensor:
#      x y z
#    x 1.721200 0.000000 0.043370 
#    y 0.000000 1.681200 0.000000 
#    z 0.043370 0.000000 1.726860 
# 
# From -- ./inp_files/75729.got.cif
#   From: 2010.05.17/outbox.cif.g08.bks.cpg/sg13_38_cif.got.tgz:75729.got - 2010.06.03 16:44:36.
