data_PCOD9227934
_publ_section_title
;
Structure prediction by ZEFSAII (Michael W. Deem and Ramdas Pophale) SiO2 
 PCOD9227934
Probable space group: P 2/C
;
_chemical_formula_sum "Si O2"
_cell_formula_units_Z 24
_cell_length_a 13.662062
_cell_length_b 5.241516
_cell_length_c 27.847218
_cell_angle_alpha 90.000000
_cell_angle_beta 151.118928
_cell_angle_gamma 90.000000
_cell_volume 963.154475
_symmetry_space_group_name_H-M "P 2/C"
_symmetry_group_IT_number 13
_symmetry_cell_setting 'monoclinic'
loop_
_space_group_symop_operation_xyz
x,y,z
-x,y,1/2-z
-x,-y,-z
x,-y,1/2+z
loop_
_atom_site_type_symbol
_atom_site_label
_atom_site_fract_x
_atom_site_fract_y
_atom_site_fract_z
Si Si1 0.071475 0.367242 0.981297
Si Si2 0.534143 0.325689 0.209505
Si Si3 0.115341 0.140450 0.448995
Si Si4 0.765687 0.760535 0.603489
Si Si5 0.705778 0.258899 0.631751
Si Si6 0.591731 0.823253 0.186452
O O1 0.311853 0.341062 0.090969
O O2 0.027272 0.584957 0.923989
O O3 0.015679 0.087791 0.937277
O O4 0.000000 0.500000 0.000000
O O5 0.500000 0.253390 0.250000
O O6 0.611293 0.613586 0.236587
O O7 0.647451 0.103946 0.229075
O O8 0.117245 0.129575 0.392390
O O9 0.353889 0.153247 0.568160
O O10 0.807184 0.483055 0.643971
O O11 0.532066 0.737796 0.485359
O O12 0.776486 0.976977 0.648296
O O13 0.709513 0.281771 0.690695
#
# Coordination Sequence:
#
# PCOD9227934 Si02
#       6
#     4   4   4   4   4   4
#     4  10  19  31  46  64  89 120 152 187 225 266
#     4  10  19  31  46  64  89 120 152 187 225 266
#     4   9  17  28  42  62  89 119 148 181 224 267
#     4   9  15  23  37  58  85 115 143 172 213 266
#     4   9  15  23  37  58  85 115 143 172 213 266
#     4   9  17  28  42  62  89 119 148 181 224 267
#
# _framework density 24.918123000000001
#
# number of rings (size 3 to 8) (size 9 to 14) (size 15 to 20)
#    0.000    2.667    0.000    3.000    0.000    8.000 
#    0.000    0.000    0.000    0.000    0.000    0.000 
#    0.000   20.000    0.000    0.000    0.000    0.000 
#
# Total GULP energy -134118.083275 kJ/mol
# GULP energy per Si atom -5588.253470 kJ/mol
# Density = 2.486141 g / cm^3
# Si number density = 24.918123 Si / 1000 Ang^3
#
#
#
# Elastic Constant Matrix: (Units=GPa)
#
#
# Indices 1 2 3 4 5 6 
#
# 1 78.7304 25.7972 16.6811 0.0000 -20.5262 0.0000
# 2 25.7972 150.7286 22.6097 0.0000 -11.6924 0.0000
# 3 16.6811 22.6097 66.2502 0.0000 14.6238 0.0000
# 4 0.0000 0.0000 0.0000 17.8593 0.0000 -10.0030
# 5 -20.5262 -11.6924 14.6238 0.0000 39.6690 0.0000
# 6 0.0000 0.0000 0.0000 -10.0030 0.0000 39.5583
#
#
#
# Elastic Compliance Matrix: (Units=1/GPa)
#
#
# Indices 1 2 3 4 5 6 
#
# 1 0.017287 -0.001152 -0.006378 0.000000 0.010957 0.000000
# 2 -0.001152 0.007464 -0.002842 0.000000 0.002652 0.000000
# 3 -0.006378 -0.002842 0.020230 0.000000 -0.011596 0.000000
# 4 0.000000 0.000000 0.000000 0.065232 0.000000 0.016495
# 5 0.010957 0.002652 -0.011596 0.000000 0.035934 0.000000
# 6 0.000000 0.000000 0.000000 0.016495 0.000000 0.029450
#
#
# Mechanical properties :
#
#
# Convention : Reuss Voigt Hill
#
# Bulk Modulus (GPa) = 41.26176 47.32058 44.29117
# Shear Modulus (GPa) = 24.45937 34.79205 29.62571
#
# Velocity S-wave (km/s) = 3.13643 3.74070 3.45182
# Velocity P-wave (km/s) = 5.45079 6.13912 5.80517
#
# Compressibility (1/GPa) = 0.02423552
#
# Stress axis : x y z
#
# Youngs Moduli (GPa) = 57.84715 133.98219 49.43193
#
# Poissons Ratio (x) = 0.15435 0.31528
# Poissons Ratio (y) = 0.06664 0.14051
# Poissons Ratio (z) = 0.36895 0.38084
#
# Static dielectric constant tensor:
#      x y z
#    x 2.046430 0.000000 0.069640 
#    y 0.000000 2.037550 0.000000 
#    z 0.069640 0.000000 1.991870 
# 
# From -- ./inp_files/85534.got.cif
#   From: 2010.05.17/outbox.cif.g08.bks.cpg/sg13_43_cif.got.tgz:85534.got - 2010.06.03 16:44:36.
