data_PCOD9227658
_publ_section_title
;
Structure prediction by ZEFSAII (Michael W. Deem and Ramdas Pophale) SiO2 
 PCOD9227658
Probable space group: P 2/C
;
_chemical_formula_sum "Si O2"
_cell_formula_units_Z 32
_cell_length_a 14.416561
_cell_length_b 8.518631
_cell_length_c 21.292197
_cell_angle_alpha 90.000000
_cell_angle_beta 27.719186
_cell_angle_gamma 90.000000
_cell_volume 1216.281905
_symmetry_space_group_name_H-M "P 2/C"
_symmetry_group_IT_number 13
_symmetry_cell_setting 'monoclinic'
loop_
_space_group_symop_operation_xyz
x,y,z
-x,y,1/2-z
-x,-y,-z
x,-y,1/2+z
loop_
_atom_site_type_symbol
_atom_site_label
_atom_site_fract_x
_atom_site_fract_y
_atom_site_fract_z
Si Si1 0.866163 0.925313 0.704590
Si Si2 0.068025 0.777948 0.087502
Si Si3 0.681400 0.407340 0.963707
Si Si4 0.693914 0.599005 0.729238
Si Si5 0.876781 0.558083 0.006298
Si Si6 0.472176 0.182475 0.006747
Si Si7 0.233866 0.274460 0.038933
Si Si8 0.317434 0.086431 0.324194
O O1 0.705046 0.810042 0.834334
O O2 0.790927 0.960123 0.676474
O O3 0.066807 0.850130 0.617618
O O4 0.888699 0.107602 0.714649
O O5 0.045226 0.607429 0.068552
O O6 0.203852 0.726909 0.065077
O O7 0.168946 0.879893 0.970975
O O8 0.470444 0.449508 0.123131
O O9 0.620520 0.322852 0.936144
O O10 0.802963 0.570528 0.894135
O O11 0.763625 0.467696 0.638380
O O12 0.599388 0.743799 0.748040
O O13 0.918910 0.656619 0.613005
O O14 0.725103 0.638379 0.050505
O O15 0.403236 0.192225 0.976412
O O16 0.500000 0.000000 0.000000
O O17 0.500000 0.997442 0.250000
#
# Coordination Sequence:
#
# PCOD9227658 Si02
#       8
#     4   4   4   4   4   4   4   4
#     4  12  24  44  66  94 136 179 226 279 342 417
#     4  10  22  37  65  99 133 175 219 276 347 412
#     4  11  22  44  69  97 135 176 230 281 340 406
#     4  10  18  37  67  94 132 176 218 278 347 410
#     4   9  20  37  65  98 133 172 226 278 347 403
#     4  12  26  46  70  95 135 185 232 285 336 399
#     4  11  24  41  67  98 128 178 228 279 336 406
#     4  11  19  37  66  95 130 180 219 268 344 412
#
# _framework density 26.309691000000001
#
# number of rings (size 3 to 8) (size 9 to 14) (size 15 to 20)
#    0.000    1.250    3.750    1.875    0.000    1.000 
#    0.000    5.000    5.500    0.000    0.000    0.000 
#    0.000    0.000    0.000    0.000    0.000    0.000 
#
# Total GULP energy -178151.713001 kJ/mol
# GULP energy per Si atom -5567.241031 kJ/mol
# Density = 2.624981 g / cm^3
# Si number density = 26.309691 Si / 1000 Ang^3
#
#
#
# Elastic Constant Matrix: (Units=GPa)
#
#
# Indices 1 2 3 4 5 6 
#
# 1 211.0384 66.4169 8.8187 0.0000 -38.1655 0.0000
# 2 66.4169 101.0581 27.0721 0.0000 -11.7088 0.0000
# 3 8.8187 27.0721 50.6694 0.0000 -1.0884 0.0000
# 4 0.0000 0.0000 0.0000 24.9983 0.0000 -11.8032
# 5 -38.1655 -11.7088 -1.0884 0.0000 21.7884 0.0000
# 6 0.0000 0.0000 0.0000 -11.8032 0.0000 40.5399
#
#
#
# Elastic Compliance Matrix: (Units=1/GPa)
#
#
# Indices 1 2 3 4 5 6 
#
# 1 0.008255 -0.004315 0.001131 0.000000 0.012198 0.000000
# 2 -0.004315 0.014616 -0.007059 0.000000 -0.000057 0.000000
# 3 0.001131 -0.007059 0.023297 0.000000 -0.000649 0.000000
# 4 0.000000 0.000000 0.000000 0.046378 0.000000 0.013503
# 5 0.012198 -0.000057 -0.000649 0.000000 0.067199 0.000000
# 6 0.000000 0.000000 0.000000 0.013503 0.000000 0.028599
#
#
# Mechanical properties :
#
#
# Convention : Reuss Voigt Hill
#
# Bulk Modulus (GPa) = 38.94008 63.04237 50.99123
# Shear Modulus (GPa) = 23.00007 34.82920 28.91464
#
# Velocity S-wave (km/s) = 2.95990 3.64238 3.31873
# Velocity P-wave (km/s) = 5.14919 6.45778 5.84025
#
# Compressibility (1/GPa) = 0.02568048
#
# Stress axis : x y z
#
# Youngs Moduli (GPa) = 121.13666 68.41950 42.92452
#
# Poissons Ratio (x) = 0.29523 -0.04854
# Poissons Ratio (y) = 0.52271 0.30301
# Poissons Ratio (z) = -0.13698 0.48299
#
# Static dielectric constant tensor:
#      x y z
#    x 2.146630 0.000000 0.014140 
#    y 0.000000 2.144500 0.000000 
#    z 0.014140 0.000000 2.238920 
# 
# From -- ./inp_files/87302.got.cif
#   From: 2010.05.17/outbox.cif.g08.bks.cpg/sg13_44_cif.got.tgz:87302.got - 2010.06.03 16:44:36.
