data_PCOD9227737
_publ_section_title
;
Structure prediction by ZEFSAII (Michael W. Deem and Ramdas Pophale) SiO2 
 PCOD9227737
Probable space group: P 2/C
;
_chemical_formula_sum "Si O2"
_cell_formula_units_Z 28
_cell_length_a 20.542484
_cell_length_b 9.171235
_cell_length_c 12.407587
_cell_angle_alpha 90.000000
_cell_angle_beta 152.006432
_cell_angle_gamma 90.000000
_cell_volume 1097.199736
_symmetry_space_group_name_H-M "P 2/C"
_symmetry_group_IT_number 13
_symmetry_cell_setting 'monoclinic'
loop_
_space_group_symop_operation_xyz
x,y,z
-x,y,1/2-z
-x,-y,-z
x,-y,1/2+z
loop_
_atom_site_type_symbol
_atom_site_label
_atom_site_fract_x
_atom_site_fract_y
_atom_site_fract_z
Si Si1 0.709039 0.160494 0.815656
Si Si2 0.103298 0.930785 0.318653
Si Si3 0.086964 0.411690 0.478225
Si Si4 0.338973 0.594891 0.834731
Si Si5 0.354836 0.823920 0.035399
Si Si6 0.039426 0.186721 0.077327
Si Si7 0.491842 0.301167 0.367668
O O1 0.817975 0.272037 0.920141
O O2 0.574777 0.167606 0.543693
O O3 0.674894 0.222001 0.884892
O O4 0.764899 0.999093 0.928606
O O5 0.000000 0.856483 0.250000
O O6 0.028499 0.077718 0.163464
O O7 0.091263 0.836828 0.193355
O O8 0.186756 0.545383 0.646586
O O9 0.980809 0.348410 0.409621
O O10 0.000000 0.458429 0.250000
O O11 0.392589 0.702878 0.003942
O O12 0.352899 0.667523 0.735904
O O13 0.423536 0.445349 0.972921
O O14 0.194812 0.861445 0.765109
O O15 0.500000 0.916906 0.250000
O O16 0.500000 0.292030 0.250000
#
# Coordination Sequence:
#
# PCOD9227737 Si02
#       7
#     4   4   4   4   4   4   4
#     4  10  19  37  67  92 122 173 218 275 333 393
#     4  10  18  38  68  94 119 160 221 278 345 386
#     4  11  19  38  57  94 129 171 219 266 333 394
#     4  10  23  34  60  91 136 181 217 269 325 392
#     4  11  20  38  63  91 132 173 220 264 335 399
#     4  10  21  35  66  98 119 169 217 281 328 395
#     4  10  21  36  58  94 133 181 224 262 321 405
#
# _framework density 25.519508999999999
#
# number of rings (size 3 to 8) (size 9 to 14) (size 15 to 20)
#    0.000    1.714    5.714    0.429    4.000    0.571 
#    0.000    3.571    0.000    4.286    0.000    0.000 
#    0.000    0.000    0.000    0.000    0.000    0.000 
#
# Total GULP energy -155931.992697 kJ/mol
# GULP energy per Si atom -5568.999739 kJ/mol
# Density = 2.546143 g / cm^3
# Si number density = 25.519509 Si / 1000 Ang^3
#
#
#
# Elastic Constant Matrix: (Units=GPa)
#
#
# Indices 1 2 3 4 5 6 
#
# 1 131.0984 19.0398 41.6771 0.0000 -8.8720 0.0000
# 2 19.0398 41.1017 38.4822 0.0000 -10.3869 0.0000
# 3 41.6771 38.4822 101.4290 0.0000 -5.9100 0.0000
# 4 0.0000 0.0000 0.0000 -11.8074 0.0000 -13.4799
# 5 -8.8720 -10.3869 -5.9100 0.0000 50.4290 0.0000
# 6 0.0000 0.0000 0.0000 -13.4799 0.0000 3.4524
#
#
#
# Elastic Compliance Matrix: (Units=1/GPa)
#
#
# Indices 1 2 3 4 5 6 
#
# 1 0.008853 -0.000766 -0.003288 0.000000 0.001014 0.000000
# 2 -0.000766 0.039785 -0.014408 0.000000 0.006371 0.000000
# 3 -0.003288 -0.014408 0.016583 0.000000 -0.001603 0.000000
# 4 0.000000 0.000000 0.000000 -0.015518 0.000000 -0.060592
# 5 0.001014 0.006371 -0.001603 0.000000 0.021133 0.000000
# 6 0.000000 0.000000 0.000000 -0.060592 0.000000 0.053074
#
#
# Mechanical properties :
#
#
# Convention : Reuss Voigt Hill
#
# Bulk Modulus (GPa) = 35.34049 52.44747 43.89398
# Shear Modulus (GPa) = 29.36570 20.04347 24.70458
#
# Velocity S-wave (km/s) = 3.39590 2.80557 3.11475
# Velocity P-wave (km/s) = 5.40876 5.57597 5.49300
#
# Compressibility (1/GPa) = 0.02829616
#
# Stress axis : x y z
#
# Youngs Moduli (GPa) = 112.95564 25.13509 60.30189
#
# Poissons Ratio (x) = 0.01926 0.19826
# Poissons Ratio (y) = 0.08657 0.86885
# Poissons Ratio (z) = 0.37138 0.36215
#
# Static dielectric constant tensor:
#      x y z
#    x 2.136520 0.000000 0.110480 
#    y 0.000000 1.972500 0.000000 
#    z 0.110480 0.000000 2.104230 
# 
# From -- ./inp_files/40829.got.cif
#   From: 2010.05.17/outbox.cif.g08.bks.cpg/sg13_21_cif.got.tgz:40829.got - 2010.06.03 16:44:36.
