data_PCOD9227790
_publ_section_title
;
Structure prediction by ZEFSAII (Michael W. Deem and Ramdas Pophale) SiO2 
 PCOD9227790
Probable space group: P 2/C
;
_chemical_formula_sum "Si O2"
_cell_formula_units_Z 16
_cell_length_a 7.952231
_cell_length_b 5.992734
_cell_length_c 17.853189
_cell_angle_alpha 90.000000
_cell_angle_beta 56.226708
_cell_angle_gamma 90.000000
_cell_volume 707.225894
_symmetry_space_group_name_H-M "P 2/C"
_symmetry_group_IT_number 13
_symmetry_cell_setting 'monoclinic'
loop_
_space_group_symop_operation_xyz
x,y,z
-x,y,1/2-z
-x,-y,-z
x,-y,1/2+z
loop_
_atom_site_type_symbol
_atom_site_label
_atom_site_fract_x
_atom_site_fract_y
_atom_site_fract_z
Si Si1 0.263350 0.219707 0.815899
Si Si2 0.648205 0.308874 0.935581
Si Si3 0.500000 0.645757 0.750000
Si Si4 0.000000 0.277040 0.750000
Si Si5 0.631483 0.044780 0.082774
O O1 0.500000 0.152288 0.750000
O O2 0.299847 0.485628 0.800244
O O3 0.122249 0.143320 0.783508
O O4 0.215311 0.106693 0.906519
O O5 0.830123 0.401702 0.840227
O O6 0.526416 0.129348 0.915494
O O7 0.500000 0.500000 0.000000
O O8 0.723659 0.181373 0.990888
O O9 0.474516 0.778990 0.834107
#
# Coordination Sequence:
#
# PCOD9227790 Si02
#       5
#     4   4   2   2   4
#     4  10  21  39  66  97 134 173 221 271 324 388
#     4  11  24  42  68 101 135 174 225 279 327 397
#     4  10  18  40  68  90 136 176 206 278 332 378
#     4  12  22  44  70  94 132 184 224 262 346 392
#     4  11  20  41  68  93 138 172 216 280 330 381
#
# _framework density 22.623605999999999
#
# number of rings (size 3 to 8) (size 9 to 14) (size 15 to 20)
#    0.750    0.500    3.750    3.000    0.000    1.000 
#    0.000   25.000    0.000    0.000    0.000    0.000 
#    0.000    0.000    0.000    0.000    0.000    0.000 
#
# Total GULP energy -89068.684512 kJ/mol
# GULP energy per Si atom -5566.792782 kJ/mol
# Density = 2.257211 g / cm^3
# Si number density = 22.623606 Si / 1000 Ang^3
#
#
#
# Elastic Constant Matrix: (Units=GPa)
#
#
# Indices 1 2 3 4 5 6 
#
# 1 135.8202 30.7924 59.2128 0.0000 41.4985 0.0000
# 2 30.7924 86.2387 64.7524 0.0000 14.4599 0.0000
# 3 59.2128 64.7524 185.1149 0.0000 13.5104 0.0000
# 4 0.0000 0.0000 0.0000 28.4866 0.0000 16.1619
# 5 41.4985 14.4599 13.5104 0.0000 57.1041 0.0000
# 6 0.0000 0.0000 0.0000 16.1619 0.0000 13.9848
#
#
#
# Elastic Compliance Matrix: (Units=1/GPa)
#
#
# Indices 1 2 3 4 5 6 
#
# 1 0.010865 -0.000637 -0.002735 0.000000 -0.007087 0.000000
# 2 -0.000637 0.016192 -0.005286 0.000000 -0.002386 0.000000
# 3 -0.002735 -0.005286 0.008022 0.000000 0.001428 0.000000
# 4 0.000000 0.000000 0.000000 0.101951 0.000000 -0.117822
# 5 -0.007087 -0.002386 0.001428 0.000000 0.022929 0.000000
# 6 0.000000 0.000000 0.000000 -0.117822 0.000000 0.207671
#
#
# Mechanical properties :
#
#
# Convention : Reuss Voigt Hill
#
# Bulk Modulus (GPa) = 56.29976 79.63211 67.96594
# Shear Modulus (GPa) = 12.79206 36.74285 24.76746
#
# Velocity S-wave (km/s) = 2.38046 4.03438 3.31231
# Velocity P-wave (km/s) = 5.70043 7.54829 6.68848
#
# Compressibility (1/GPa) = 0.01776207
#
# Stress axis : x y z
#
# Youngs Moduli (GPa) = 92.03796 61.75724 124.66145
#
# Poissons Ratio (x) = 0.03936 0.34097
# Poissons Ratio (y) = 0.05867 0.65896
# Poissons Ratio (z) = 0.25174 0.32645
#
# Static dielectric constant tensor:
#      x y z
#    x 1.900250 0.000000 -0.008350 
#    y 0.000000 1.927270 0.000000 
#    z -0.008350 0.000000 1.934160 
# 
# From -- ./inp_files/61930.got.cif
#   From: 2010.05.17/outbox.cif.g08.bks.cpg/sg13_31_cif.got.tgz:61930.got - 2010.06.03 16:44:36.
