data_PCOD9227161
_publ_section_title
;
Structure prediction by ZEFSAII (Michael W. Deem and Ramdas Pophale) SiO2 
 PCOD9227161
Probable space group: P 2/C
;
_chemical_formula_sum "Si O2"
_cell_formula_units_Z 30
_cell_length_a 8.344915
_cell_length_b 11.499721
_cell_length_c 28.748688
_cell_angle_alpha 90.000000
_cell_angle_beta 31.118150
_cell_angle_gamma 90.000000
_cell_volume 1425.783480
_symmetry_space_group_name_H-M "P 2/C"
_symmetry_group_IT_number 13
_symmetry_cell_setting 'monoclinic'
loop_
_space_group_symop_operation_xyz
x,y,z
-x,y,1/2-z
-x,-y,-z
x,-y,1/2+z
loop_
_atom_site_type_symbol
_atom_site_label
_atom_site_fract_x
_atom_site_fract_y
_atom_site_fract_z
Si Si1 0.854898 0.663585 0.108936
Si Si2 0.959531 0.237939 0.123459
Si Si3 0.657489 0.560006 0.323335
Si Si4 0.923731 0.006300 0.089391
Si Si5 0.704603 0.547859 0.990760
Si Si6 0.716051 0.836569 0.553244
Si Si7 0.356331 0.699807 0.709849
Si Si8 0.500000 0.162754 0.750000
O O1 0.530804 0.645343 0.163229
O O2 0.784411 0.744214 0.171420
O O3 0.995678 0.536726 0.083799
O O4 0.079593 0.728383 0.016294
O O5 0.990315 0.100448 0.112110
O O6 0.917744 0.268610 0.187479
O O7 0.660707 0.277078 0.166591
O O8 0.225107 0.317738 0.036488
O O9 0.462680 0.540707 0.418523
O O10 0.677403 0.433722 0.294854
O O11 0.000000 0.602477 0.250000
O O12 0.851233 0.088432 0.062970
O O13 0.624997 0.927478 0.178651
O O14 0.223317 0.927651 0.003411
O O15 0.500000 0.500000 0.000000
O O16 0.409343 0.779336 0.651187
#
# Coordination Sequence:
#
# PCOD9227161 Si02
#       8
#     4   4   4   4   4   4   4   2
#     4  11  23  40  63  94 130 165 206 261 327 380
#     4  10  20  34  62  89 125 161 205 261 301 377
#     4  12  24  38  60  93 128 165 210 256 320 389
#     4   9  17  33  55  95 114 159 217 249 310 371
#     4  12  25  41  62  95 130 170 208 260 327 383
#     4   9  17  33  60  86 120 161 208 260 299 377
#     4  10  18  33  56  88 119 158 201 250 306 364
#     4  10  22  34  62  94 130 160 208 268 314 378
#
# _framework density 21.041063000000001
#
# number of rings (size 3 to 8) (size 9 to 14) (size 15 to 20)
#    0.000    1.600    2.667    4.400    3.733    0.000 
#    0.000    0.000    0.000    3.200   13.867    9.333 
#    0.000    0.000    0.000    0.000    0.000    0.000 
#
# Total GULP energy -167029.083400 kJ/mol
# GULP energy per Si atom -5567.636113 kJ/mol
# Density = 2.099317 g / cm^3
# Si number density = 21.041063 Si / 1000 Ang^3
#
#
#
# Elastic Constant Matrix: (Units=GPa)
#
#
# Indices 1 2 3 4 5 6 
#
# 1 55.5347 7.8256 20.0655 0.0000 1.8396 0.0000
# 2 7.8256 85.5784 33.7123 0.0000 13.7945 0.0000
# 3 20.0655 33.7123 88.2050 0.0000 33.3560 0.0000
# 4 0.0000 0.0000 0.0000 32.7178 0.0000 30.3384
# 5 1.8396 13.7945 33.3560 0.0000 35.6819 0.0000
# 6 0.0000 0.0000 0.0000 30.3384 0.0000 49.8347
#
#
#
# Elastic Compliance Matrix: (Units=1/GPa)
#
#
# Indices 1 2 3 4 5 6 
#
# 1 0.020188 -0.000116 -0.006453 0.000000 0.005036 0.000000
# 2 -0.000116 0.013766 -0.004988 0.000000 -0.000653 0.000000
# 3 -0.006453 -0.004988 0.021434 0.000000 -0.017776 0.000000
# 4 0.000000 0.000000 0.000000 0.070183 0.000000 -0.042726
# 5 0.005036 -0.000653 -0.017776 0.000000 0.044635 0.000000
# 6 0.000000 0.000000 0.000000 -0.042726 0.000000 0.046077
#
#
# Mechanical properties :
#
#
# Convention : Reuss Voigt Hill
#
# Bulk Modulus (GPa) = 30.98457 39.16940 35.07699
# Shear Modulus (GPa) = 19.98765 34.82786 27.40776
#
# Velocity S-wave (km/s) = 3.08545 4.07287 3.61305
# Velocity P-wave (km/s) = 5.23937 6.38544 5.84058
#
# Compressibility (1/GPa) = 0.03227412
#
# Stress axis : x y z
#
# Youngs Moduli (GPa) = 49.53512 72.64250 46.65551
#
# Poissons Ratio (x) = 0.00842 0.30105
# Poissons Ratio (y) = 0.00574 0.23273
# Poissons Ratio (z) = 0.31963 0.36235
#
# Static dielectric constant tensor:
#      x y z
#    x 1.786680 0.000000 0.034510 
#    y 0.000000 1.786620 0.000000 
#    z 0.034510 0.000000 1.654160 
# 
# From -- ./inp_files/96087.got.cif
#   From: 2010.05.17/outbox.cif.g08.bks.cpg/sg13_49_cif.got.tgz:96087.got - 2010.06.03 16:44:36.
