data_PCOD9227874
_publ_section_title
;
Structure prediction by ZEFSAII (Michael W. Deem and Ramdas Pophale) SiO2 
 PCOD9227874
Probable space group: P 2/C
;
_chemical_formula_sum "Si O2"
_cell_formula_units_Z 24
_cell_length_a 12.983982
_cell_length_b 5.307092
_cell_length_c 23.311007
_cell_angle_alpha 90.000000
_cell_angle_beta 50.809818
_cell_angle_gamma 90.000000
_cell_volume 1244.964117
_symmetry_space_group_name_H-M "P 2/C"
_symmetry_group_IT_number 13
_symmetry_cell_setting 'monoclinic'
loop_
_space_group_symop_operation_xyz
x,y,z
-x,y,1/2-z
-x,-y,-z
x,-y,1/2+z
loop_
_atom_site_type_symbol
_atom_site_label
_atom_site_fract_x
_atom_site_fract_y
_atom_site_fract_z
Si Si1 0.557608 0.644440 0.166017
Si Si2 0.927668 0.242431 0.952956
Si Si3 0.519092 0.789044 0.421965
Si Si4 0.913906 0.259156 0.096911
Si Si5 0.354825 0.288730 0.508393
Si Si6 0.640221 0.140012 0.168343
O O1 0.500000 0.615107 0.250000
O O2 0.454698 0.731541 0.154067
O O3 0.617747 0.371062 0.132960
O O4 0.665890 0.868606 0.130591
O O5 0.790114 0.261760 0.967425
O O6 0.022495 0.479653 0.906138
O O7 0.907912 0.254721 0.029085
O O8 0.998656 0.977917 0.915402
O O9 0.413702 0.567931 0.475828
O O10 0.637479 0.755685 0.425373
O O11 0.452415 0.063940 0.451815
O O12 0.760037 0.217936 0.167240
O O13 0.500000 0.105878 0.250000
#
# Coordination Sequence:
#
# PCOD9227874 Si02
#       6
#     4   4   4   4   4   4
#     4  10  19  31  50  75  98 126 163 211 255 287
#     4  10  19  30  46  71 100 131 160 195 252 307
#     4  10  19  32  50  73 103 134 167 205 248 303
#     4  10  19  30  47  70  99 130 162 201 247 303
#     4  10  20  32  49  73 103 137 165 199 253 307
#     4  10  20  33  50  74  99 128 167 213 253 287
#
# _framework density 19.277661999999999
#
# number of rings (size 3 to 8) (size 9 to 14) (size 15 to 20)
#    0.000    2.000    0.000    5.000    0.000    2.667 
#    0.000    0.000    0.000    0.000    0.000   28.000 
#    0.000    0.000    0.000    0.000    0.000    0.000 
#
# Total GULP energy -133787.140779 kJ/mol
# GULP energy per Si atom -5574.464199 kJ/mol
# Density = 1.923379 g / cm^3
# Si number density = 19.277662 Si / 1000 Ang^3
#
#
#
# Elastic Constant Matrix: (Units=GPa)
#
#
# Indices 1 2 3 4 5 6 
#
# 1 139.6892 22.3543 23.4280 0.0000 -4.5598 0.0000
# 2 22.3543 139.4037 -0.3616 0.0000 -8.3219 0.0000
# 3 23.4280 -0.3616 37.9573 0.0000 -0.2995 0.0000
# 4 0.0000 0.0000 0.0000 11.1633 0.0000 -1.1955
# 5 -4.5598 -8.3219 -0.2995 0.0000 36.3994 0.0000
# 6 0.0000 0.0000 0.0000 -1.1955 0.0000 30.4202
#
#
#
# Elastic Compliance Matrix: (Units=1/GPa)
#
#
# Indices 1 2 3 4 5 6 
#
# 1 0.008243 -0.001294 -0.005094 0.000000 0.000695 0.000000
# 2 -0.001294 0.007476 0.000882 0.000000 0.001554 0.000000
# 3 -0.005094 0.000882 0.029497 0.000000 -0.000194 0.000000
# 4 0.000000 0.000000 0.000000 0.089958 0.000000 0.003535
# 5 0.000695 0.001554 -0.000194 0.000000 0.027914 0.000000
# 6 0.000000 0.000000 0.000000 0.003535 0.000000 0.033012
#
#
# Mechanical properties :
#
#
# Convention : Reuss Voigt Hill
#
# Bulk Modulus (GPa) = 29.23706 45.32129 37.27917
# Shear Modulus (GPa) = 22.88201 33.70522 28.29361
#
# Velocity S-wave (km/s) = 3.44898 4.18593 3.83520
# Velocity P-wave (km/s) = 5.57314 6.85007 6.24433
#
# Compressibility (1/GPa) = 0.03420316
#
# Stress axis : x y z
#
# Youngs Moduli (GPa) = 121.31716 133.76284 33.90212
#
# Poissons Ratio (x) = 0.17303 0.17271
# Poissons Ratio (y) = 0.15693 -0.02990
# Poissons Ratio (z) = 0.61805 -0.11796
#
# Static dielectric constant tensor:
#      x y z
#    x 1.699300 0.000000 0.050510 
#    y 0.000000 1.764160 0.000000 
#    z 0.050510 0.000000 1.855010 
# 
# From -- ./inp_files/82651.got.cif
#   From: 2010.05.17/outbox.cif.g08.bks.cpg/sg13_42_cif.got.tgz:82651.got - 2010.06.03 16:44:36.
