data_PCOD9227841
_publ_section_title
;
Structure prediction by ZEFSAII (Michael W. Deem and Ramdas Pophale) SiO2 
 PCOD9227841
Probable space group: P 2/C
;
_chemical_formula_sum "Si O2"
_cell_formula_units_Z 32
_cell_length_a 14.627812
_cell_length_b 27.271857
_cell_length_c 5.229829
_cell_angle_alpha 90.000000
_cell_angle_beta 110.358342
_cell_angle_gamma 90.000000
_cell_volume 1956.001314
_symmetry_space_group_name_H-M "P 2/C"
_symmetry_group_IT_number 13
_symmetry_cell_setting 'monoclinic'
loop_
_space_group_symop_operation_xyz
x,y,z
-x,y,1/2-z
-x,-y,-z
x,-y,1/2+z
loop_
_atom_site_type_symbol
_atom_site_label
_atom_site_fract_x
_atom_site_fract_y
_atom_site_fract_z
Si Si1 0.381982 0.357753 0.131464
Si Si2 0.696814 0.812196 0.380624
Si Si3 0.318538 0.027598 0.062215
Si Si4 0.618242 0.296493 0.868412
Si Si5 0.618930 0.529866 0.863191
Si Si6 0.386658 0.861181 0.702072
Si Si7 0.890562 0.132946 0.166998
Si Si8 0.890323 0.934433 0.167389
O O1 0.500000 0.360041 0.250000
O O2 0.354405 0.323890 0.343519
O O3 0.347510 0.413836 0.116463
O O4 0.355486 0.331700 0.841681
O O5 0.669445 0.755665 0.386949
O O6 0.636167 0.841925 0.536751
O O7 0.807998 0.826731 0.547756
O O8 0.670234 0.830491 0.070573
O O9 0.354368 0.082496 0.145591
O O10 0.351774 0.992395 0.321890
O O11 0.200341 0.029480 0.948984
O O12 0.500000 0.289106 0.750000
O O13 0.500000 0.530969 0.750000
O O14 0.649178 0.498153 0.648628
O O15 0.500000 0.856184 0.750000
O O16 0.880806 0.105345 0.428930
O O17 0.000000 0.152885 0.250000
O O18 0.880180 0.092954 0.929371
O O19 0.000000 0.955642 0.250000
#
# Coordination Sequence:
#
# PCOD9227841 Si02
#       8
#     4   4   4   4   4   4   4   4
#     4   9  17  28  39  59  92 122 159 206 242 275
#     4  12  21  38  58  77  99 127 164 203 243 291
#     4  12  24  38  57  76 102 125 156 192 242 293
#     4  10  19  29  44  66  92 124 157 196 241 278
#     4   9  15  23  37  55  78 117 165 205 238 272
#     4  12  25  40  57  76  98 129 166 203 234 279
#     4  10  19  35  59  80 100 124 154 193 240 290
#     4  10  20  37  57  79 102 124 151 190 239 290
#
# _framework density 16.359905999999999
#
# number of rings (size 3 to 8) (size 9 to 14) (size 15 to 20)
#    0.000    1.500    2.500    4.125    0.000    5.000 
#    0.000    0.000    0.000    0.000    0.000    0.000 
#    0.000    0.000    0.000    0.000    0.000   12.500 
#
# Total GULP energy -178749.031713 kJ/mol
# GULP energy per Si atom -5585.907241 kJ/mol
# Density = 1.632267 g / cm^3
# Si number density = 16.359906 Si / 1000 Ang^3
#
#
#
# Elastic Constant Matrix: (Units=GPa)
#
#
# Indices 1 2 3 4 5 6 
#
# 1 33.3517 -3.0614 -0.6526 0.0000 4.5404 0.0000
# 2 -3.0614 79.0453 5.8455 0.0000 -3.2799 0.0000
# 3 -0.6526 5.8455 51.9976 0.0000 -10.1116 0.0000
# 4 0.0000 0.0000 0.0000 41.4931 0.0000 -48.3706
# 5 4.5404 -3.2799 -10.1116 0.0000 17.7387 0.0000
# 6 0.0000 0.0000 0.0000 -48.3706 0.0000 100.3103
#
#
#
# Elastic Compliance Matrix: (Units=1/GPa)
#
#
# Indices 1 2 3 4 5 6 
#
# 1 0.031215 0.000955 -0.001389 0.000000 -0.008605 0.000000
# 2 0.000955 0.012834 -0.001144 0.000000 0.001477 0.000000
# 3 -0.001389 -0.001144 0.021786 0.000000 0.012563 0.000000
# 4 0.000000 0.000000 0.000000 0.055041 0.000000 0.026541
# 5 -0.008605 0.001477 0.012563 0.000000 0.066010 0.000000
# 6 0.000000 0.000000 0.000000 0.026541 0.000000 0.022767
#
#
# Mechanical properties :
#
#
# Convention : Reuss Voigt Hill
#
# Bulk Modulus (GPa) = 15.95426 18.73972 17.34699
# Shear Modulus (GPa) = 21.39472 42.72597 32.06034
#
# Velocity S-wave (km/s) = 3.62021 5.11595 4.43164
# Velocity P-wave (km/s) = 5.21994 6.81005 6.06731
#
# Compressibility (1/GPa) = 0.06267918
#
# Stress axis : x y z
#
# Youngs Moduli (GPa) = 32.03547 77.91931 45.90156
#
# Poissons Ratio (x) = -0.07438 0.06375
# Poissons Ratio (y) = -0.03058 0.05249
# Poissons Ratio (z) = 0.04449 0.08911
#
# Static dielectric constant tensor:
#      x y z
#    x 1.557980 0.000000 0.007550 
#    y 0.000000 1.525630 0.000000 
#    z 0.007550 0.000000 1.601050 
# 
# From -- ./inp_files/5556.got.cif
#   From: 2010.05.17/outbox.cif.g08.bks.cpg/sg13_3_cif.got.tgz:5556.got - 2010.06.03 16:44:36.
