data_PCOD9227610
_publ_section_title
;
Structure prediction by ZEFSAII (Michael W. Deem and Ramdas Pophale) SiO2 
 PCOD9227610
Probable space group: P 2/C
;
_chemical_formula_sum "Si O2"
_cell_formula_units_Z 30
_cell_length_a 17.079755
_cell_length_b 8.571425
_cell_length_c 20.975065
_cell_angle_alpha 90.000000
_cell_angle_beta 27.389104
_cell_angle_gamma 90.000000
_cell_volume 1412.618933
_symmetry_space_group_name_H-M "P 2/C"
_symmetry_group_IT_number 13
_symmetry_cell_setting 'monoclinic'
loop_
_space_group_symop_operation_xyz
x,y,z
-x,y,1/2-z
-x,-y,-z
x,-y,1/2+z
loop_
_atom_site_type_symbol
_atom_site_label
_atom_site_fract_x
_atom_site_fract_y
_atom_site_fract_z
Si Si1 0.764187 0.350993 0.657045
Si Si2 0.171080 0.635421 0.653315
Si Si3 0.791517 0.072986 0.464395
Si Si4 0.292966 0.051457 0.715060
Si Si5 0.492181 0.543240 0.580265
Si Si6 0.058350 0.227537 0.364921
Si Si7 0.500000 0.773051 0.250000
Si Si8 0.640594 0.115675 0.975573
O O1 0.758284 0.194078 0.703621
O O2 0.681509 0.486871 0.760303
O O3 0.948610 0.340508 0.489981
O O4 0.629547 0.329875 0.697040
O O5 0.177266 0.799978 0.613006
O O6 0.344850 0.550333 0.510388
O O7 0.000000 0.554482 0.750000
O O8 0.150067 0.672126 0.743305
O O9 0.928653 0.111902 0.419747
O O10 0.612493 0.115521 0.625073
O O11 0.767930 0.913975 0.442308
O O12 0.270061 0.100515 0.657690
O O13 0.492778 0.015870 0.580476
O O14 0.187513 0.893303 0.804147
O O15 0.500000 0.500000 0.500000
O O16 0.540461 0.722814 0.552742
#
# Coordination Sequence:
#
# PCOD9227610 Si02
#       8
#     4   4   4   4   4   4   2   4
#     4  11  22  39  64  91 123 162 211 251 321 380
#     4  10  20  40  62  89 121 165 211 247 308 384
#     4  10  19  38  64  89 116 163 210 253 308 369
#     4  11  20  39  62  95 123 160 211 265 316 363
#     4  12  23  40  62  92 125 170 212 252 316 392
#     4  10  22  36  69  91 122 160 213 272 313 365
#     4  10  18  36  66  84 116 154 210 252 292 378
#     4  11  22  36  65  93 124 163 212 263 303 385
#
# _framework density 21.237148999999999
#
# number of rings (size 3 to 8) (size 9 to 14) (size 15 to 20)
#    0.000    1.333    5.333    1.200    0.000    0.000 
#    2.400    3.333    0.000    0.000    0.000    0.000 
#    0.000    0.000    0.000    0.000    0.000    0.000 
#
# Total GULP energy -167485.259908 kJ/mol
# GULP energy per Si atom -5582.841997 kJ/mol
# Density = 2.118881 g / cm^3
# Si number density = 21.237149 Si / 1000 Ang^3
#
#
#
# Elastic Constant Matrix: (Units=GPa)
#
#
# Indices 1 2 3 4 5 6 
#
# 1 58.5987 10.1715 14.8419 0.0000 1.2713 0.0000
# 2 10.1715 53.2761 23.4508 0.0000 2.3605 0.0000
# 3 14.8419 23.4508 137.1585 0.0000 10.5489 0.0000
# 4 0.0000 0.0000 0.0000 24.2703 0.0000 14.6263
# 5 1.2713 2.3605 10.5489 0.0000 35.8130 0.0000
# 6 0.0000 0.0000 0.0000 14.6263 0.0000 11.7376
#
#
#
# Elastic Compliance Matrix: (Units=1/GPa)
#
#
# Indices 1 2 3 4 5 6 
#
# 1 0.017918 -0.002776 -0.001463 0.000000 -0.000022 0.000000
# 2 -0.002776 0.020732 -0.003220 0.000000 -0.000320 0.000000
# 3 -0.001463 -0.003220 0.008164 0.000000 -0.002141 0.000000
# 4 0.000000 0.000000 0.000000 0.165443 0.000000 -0.206160
# 5 -0.000022 -0.000320 -0.002141 0.000000 0.028575 0.000000
# 6 0.000000 0.000000 0.000000 -0.206160 0.000000 0.342094
#
#
# Mechanical properties :
#
#
# Convention : Reuss Voigt Hill
#
# Bulk Modulus (GPa) = 31.35075 38.44017 34.89546
# Shear Modulus (GPa) = 8.21727 27.73548 17.97637
#
# Velocity S-wave (km/s) = 1.96918 3.61777 2.91255
# Velocity P-wave (km/s) = 4.46817 5.96580 5.27045
#
# Compressibility (1/GPa) = 0.03189717
#
# Stress axis : x y z
#
# Youngs Moduli (GPa) = 55.80970 48.23572 122.48584
#
# Poissons Ratio (x) = 0.13391 0.17914
# Poissons Ratio (y) = 0.15494 0.39436
# Poissons Ratio (z) = 0.08162 0.15530
#
# Static dielectric constant tensor:
#      x y z
#    x 1.823010 0.000000 -0.024230 
#    y 0.000000 1.755220 0.000000 
#    z -0.024230 0.000000 1.797770 
# 
# From -- ./inp_files/80924.got.cif
#   From: 2010.05.17/outbox.cif.g08.bks.cpg/sg13_41_cif.got.tgz:80924.got - 2010.06.03 16:44:36.
