data_PCOD9227601
_publ_section_title
;
Structure prediction by ZEFSAII (Michael W. Deem and Ramdas Pophale) SiO2 
 PCOD9227601
Probable space group: P 2/C
;
_chemical_formula_sum "Si O2"
_cell_formula_units_Z 16
_cell_length_a 19.510634
_cell_length_b 9.976443
_cell_length_c 9.990584
_cell_angle_alpha 90.000000
_cell_angle_beta 155.918834
_cell_angle_gamma 90.000000
_cell_volume 793.469940
_symmetry_space_group_name_H-M "P 2/C"
_symmetry_group_IT_number 13
_symmetry_cell_setting 'monoclinic'
loop_
_space_group_symop_operation_xyz
x,y,z
-x,y,1/2-z
-x,-y,-z
x,-y,1/2+z
loop_
_atom_site_type_symbol
_atom_site_label
_atom_site_fract_x
_atom_site_fract_y
_atom_site_fract_z
Si Si1 0.772016 0.734348 0.740138
Si Si2 0.388208 0.976787 0.172104
Si Si3 0.882108 0.553049 0.409174
Si Si4 0.846520 0.201210 0.671749
O O1 0.652016 0.822605 0.433855
O O2 0.760358 0.573436 0.715943
O O3 0.757448 0.775152 0.869632
O O4 0.958383 0.777038 0.019658
O O5 0.500000 0.031563 0.250000
O O6 0.500000 0.000000 0.500000
O O7 0.215870 0.059232 0.884324
O O8 0.805148 0.688220 0.211591
O O9 0.000000 0.500000 0.500000
O O10 0.000000 0.574168 0.750000
#
# Coordination Sequence:
#
# PCOD9227601 Si02
#       4
#     4   4   4   4
#     4  10  20  41  65  92 125 157 204 263 305 357
#     4  12  25  42  61  87 131 169 203 250 306 366
#     4  10  18  36  64  95 122 151 199 263 312 355
#     4  10  21  40  65  93 122 160 207 256 308 363
#
# _framework density 20.164594999999998
#
# number of rings (size 3 to 8) (size 9 to 14) (size 15 to 20)
#    0.000    1.500    7.500    0.750    0.000    4.000 
#    4.500    2.500    0.000    0.000    0.000    0.000 
#    0.000    0.000    0.000    0.000    0.000    0.000 
#
# Total GULP energy -89169.881531 kJ/mol
# GULP energy per Si atom -5573.117596 kJ/mol
# Density = 2.011870 g / cm^3
# Si number density = 20.164595 Si / 1000 Ang^3
#
#
#
# Elastic Constant Matrix: (Units=GPa)
#
#
# Indices 1 2 3 4 5 6 
#
# 1 94.5364 22.2500 29.4602 0.0000 -27.5551 0.0000
# 2 22.2500 121.7954 46.3969 0.0000 -20.2168 0.0000
# 3 29.4602 46.3969 95.0576 0.0000 -28.1643 0.0000
# 4 0.0000 0.0000 0.0000 26.7710 0.0000 -5.7206
# 5 -27.5551 -20.2168 -28.1643 0.0000 39.2359 0.0000
# 6 0.0000 0.0000 0.0000 -5.7206 0.0000 26.7858
#
#
#
# Elastic Compliance Matrix: (Units=1/GPa)
#
#
# Indices 1 2 3 4 5 6 
#
# 1 0.013555 -0.000544 -0.001521 0.000000 0.008147 0.000000
# 2 -0.000544 0.010247 -0.004295 0.000000 0.001814 0.000000
# 3 -0.001521 -0.004295 0.015388 0.000000 0.007764 0.000000
# 4 0.000000 0.000000 0.000000 0.039140 0.000000 0.008359
# 5 0.008147 0.001814 0.007764 0.000000 0.037717 0.000000
# 6 0.000000 0.000000 0.000000 0.008359 0.000000 0.039119
#
#
# Mechanical properties :
#
#
# Convention : Reuss Voigt Hill
#
# Bulk Modulus (GPa) = 37.78087 56.40041 47.09064
# Shear Modulus (GPa) = 28.29480 32.77737 30.53608
#
# Velocity S-wave (km/s) = 3.74998 4.03611 3.89568
# Velocity P-wave (km/s) = 6.12591 7.05344 6.60597
#
# Compressibility (1/GPa) = 0.02646842
#
# Stress axis : x y z
#
# Youngs Moduli (GPa) = 73.77475 97.58564 64.98363
#
# Poissons Ratio (x) = 0.05312 0.09886
# Poissons Ratio (y) = 0.04016 0.27913
# Poissons Ratio (z) = 0.11224 0.41917
#
# Static dielectric constant tensor:
#      x y z
#    x 1.697070 0.000000 0.032170 
#    y 0.000000 1.762230 0.000000 
#    z 0.032170 0.000000 1.730540 
# 
# From -- ./inp_files/11294.got.cif
#   From: 2010.05.17/outbox.cif.g08.bks.cpg/sg13_6_cif.got.tgz:11294.got - 2010.06.03 16:44:36.
