data_PCOD9227985
_publ_section_title
;
Structure prediction by ZEFSAII (Michael W. Deem and Ramdas Pophale) SiO2 
 PCOD9227985
Probable space group: P 2/C
;
_chemical_formula_sum "Si O2"
_cell_formula_units_Z 22
_cell_length_a 31.457182
_cell_length_b 5.309485
_cell_length_c 5.054197
_cell_angle_alpha 90.000000
_cell_angle_beta 79.361020
_cell_angle_gamma 90.000000
_cell_volume 829.648121
_symmetry_space_group_name_H-M "P 2/C"
_symmetry_group_IT_number 13
_symmetry_cell_setting 'monoclinic'
loop_
_space_group_symop_operation_xyz
x,y,z
-x,y,1/2-z
-x,-y,-z
x,-y,1/2+z
loop_
_atom_site_type_symbol
_atom_site_label
_atom_site_fract_x
_atom_site_fract_y
_atom_site_fract_z
Si Si1 0.455389 0.679116 0.234815
Si Si2 0.817355 0.158641 0.455429
Si Si3 0.000000 0.314685 0.250000
Si Si4 0.367122 0.345822 0.986737
Si Si5 0.912552 0.654440 0.711558
Si Si6 0.271002 0.158515 0.100182
O O1 0.500000 0.821033 0.250000
O O2 0.456066 0.446316 0.446045
O O3 0.409386 0.809570 0.346963
O O4 0.864223 0.262269 0.331860
O O5 0.773116 0.302747 0.428059
O O6 0.815646 0.084287 0.762780
O O7 0.953629 0.181503 0.266383
O O8 0.000000 0.500000 0.500000
O O9 0.370645 0.588820 0.790287
O O10 0.318559 0.259423 0.987977
O O11 0.916210 0.591475 0.398411
O O12 0.268972 0.082909 0.407576
#
# Coordination Sequence:
#
# PCOD9227985 Si02
#       6
#     4   4   2   4   4   4
#     4   8  14  25  42  66  94 120 148 190 241 280
#     4  10  21  36  51  71 100 131 162 198 243 290
#     4   8  16  30  48  72 100 126 154 192 242 288
#     4  10  19  31  51  76  96 120 164 209 233 273
#     4  10  19  33  54  76  98 128 164 200 237 283
#     4  10  21  36  51  68  99 136 159 190 249 300
#
# _framework density 26.517268000000001
#
# number of rings (size 3 to 8) (size 9 to 14) (size 15 to 20)
#    0.000    2.545    0.000    2.182    0.000    1.455 
#    0.000    0.909    0.000    1.091    0.000    0.000 
#    0.000    0.000    0.000    0.000    0.000    0.000 
#
# Total GULP energy -122767.124220 kJ/mol
# GULP energy per Si atom -5580.323828 kJ/mol
# Density = 2.645691 g / cm^3
# Si number density = 26.517268 Si / 1000 Ang^3
#
#
#
# Elastic Constant Matrix: (Units=GPa)
#
#
# Indices 1 2 3 4 5 6 
#
# 1 307.0836 24.5555 13.2229 0.0000 -26.7197 0.0000
# 2 24.5555 33.2535 20.9876 0.0000 3.0911 0.0000
# 3 13.2229 20.9876 124.7437 0.0000 -3.2945 0.0000
# 4 0.0000 0.0000 0.0000 36.6169 0.0000 -7.0887
# 5 -26.7197 3.0911 -3.2945 0.0000 51.1152 0.0000
# 6 0.0000 0.0000 0.0000 -7.0887 0.0000 69.0908
#
#
#
# Elastic Compliance Matrix: (Units=1/GPa)
#
#
# Indices 1 2 3 4 5 6 
#
# 1 0.003674 -0.003020 0.000174 0.000000 0.002115 0.000000
# 2 -0.003020 0.036424 -0.005918 0.000000 -0.004163 0.000000
# 3 0.000174 -0.005918 0.009021 0.000000 0.001030 0.000000
# 4 0.000000 0.000000 0.000000 0.027863 0.000000 0.002859
# 5 0.002115 -0.004163 0.001030 0.000000 0.020987 0.000000
# 6 0.000000 0.000000 0.000000 0.002859 0.000000 0.014767
#
#
# Mechanical properties :
#
#
# Convention : Reuss Voigt Hill
#
# Bulk Modulus (GPa) = 31.65328 64.73475 48.19402
# Shear Modulus (GPa) = 35.51269 58.45223 46.98246
#
# Velocity S-wave (km/s) = 3.66352 4.70010 4.21380
# Velocity P-wave (km/s) = 5.46424 7.34302 6.47216
#
# Compressibility (1/GPa) = 0.03159230
#
# Stress axis : x y z
#
# Youngs Moduli (GPa) = 272.15232 27.45430 110.85432
#
# Poissons Ratio (x) = 0.08291 -0.01934
# Poissons Ratio (y) = 0.82189 0.65604
# Poissons Ratio (z) = -0.04748 0.16248
#
# Static dielectric constant tensor:
#      x y z
#    x 2.260070 0.000000 -0.061770 
#    y 0.000000 2.149020 0.000000 
#    z -0.061770 0.000000 1.968980 
# 
# From -- ./inp_files/7353.got.cif
#   From: 2010.05.17/outbox.cif.g08.bks.cpg/sg13_4_cif.got.tgz:7353.got - 2010.06.03 16:44:36.
