data_PCOD9227840
_publ_section_title
;
Structure prediction by ZEFSAII (Michael W. Deem and Ramdas Pophale) SiO2 
 PCOD9227840
Probable space group: P 2/C
;
_chemical_formula_sum "Si O2"
_cell_formula_units_Z 32
_cell_length_a 23.322184
_cell_length_b 16.779168
_cell_length_c 5.578744
_cell_angle_alpha 90.000000
_cell_angle_beta 61.418642
_cell_angle_gamma 90.000000
_cell_volume 1917.075332
_symmetry_space_group_name_H-M "P 2/C"
_symmetry_group_IT_number 13
_symmetry_cell_setting 'monoclinic'
loop_
_space_group_symop_operation_xyz
x,y,z
-x,y,1/2-z
-x,-y,-z
x,-y,1/2+z
loop_
_atom_site_type_symbol
_atom_site_label
_atom_site_fract_x
_atom_site_fract_y
_atom_site_fract_z
Si Si1 0.916843 0.219762 0.166315
Si Si2 0.525956 0.409520 0.948089
Si Si3 0.981633 0.629697 0.036734
Si Si4 0.711964 0.334079 0.076041
Si Si5 0.778807 0.503464 0.942342
Si Si6 0.671289 0.360404 0.657391
Si Si7 0.926644 0.967646 0.646710
Si Si8 0.141758 0.726183 0.216484
O O1 0.975894 0.285341 0.048213
O O2 0.935255 0.127422 0.129489
O O3 0.877453 0.232879 0.493095
O O4 0.877452 0.232880 0.997097
O O5 0.500000 0.372953 0.750000
O O6 0.604163 0.409082 0.791671
O O7 0.500000 0.372953 0.250000
O O8 0.500000 0.500000 0.000000
O O9 0.000000 0.590859 0.750000
O O10 0.000000 0.590859 0.250000
O O11 0.905289 0.649302 0.189422
O O12 0.727272 0.429862 0.045414
O O13 0.675510 0.314960 0.901606
O O14 0.782833 0.294780 0.934329
O O15 0.675501 0.314967 0.396296
O O16 0.816265 0.499999 0.617426
O O17 0.735594 0.583457 0.028769
O O18 0.895912 0.000000 0.458176
O O19 0.000000 0.000000 0.500000
#
# Coordination Sequence:
#
# PCOD9227840 Si02
#       8
#     4   4   4   4   4   4   4   4
#     4  10  19  31  44  60  89 112 136 190 226 260
#     4  10  21  27  43  64  88 111 154 162 215 285
#     4   8  16  25  42  54  77 102 130 159 233 243
#     4  10  19  29  44  60  81 110 148 176 226 269
#     4   8  16  25  42  54  77 102 130 159 233 243
#     4  10  19  31  44  60  89 112 136 190 226 260
#     4  10  21  27  43  64  88 111 154 162 215 285
#     4  10  19  29  44  60  81 110 148 176 226 269
#
# _framework density 16.692094999999998
#
# number of rings (size 3 to 8) (size 9 to 14) (size 15 to 20)
#    0.000    2.500    0.000    2.250   21.000    0.000 
#    0.000    0.000    0.000    0.000    0.000    0.000 
#    0.000  243.000    0.000    0.000    0.000    0.000 
#
# Total GULP energy -178148.226756 kJ/mol
# GULP energy per Si atom -5567.132086 kJ/mol
# Density = 1.665410 g / cm^3
# Si number density = 16.692095 Si / 1000 Ang^3
#
#
#
# Elastic Constant Matrix: (Units=GPa)
#
#
# Indices 1 2 3 4 5 6 
#
# 1 78.3393 15.2967 61.8230 0.0000 19.3745 0.0000
# 2 15.2967 41.1153 16.6334 0.0000 1.3855 0.0000
# 3 61.8230 16.6334 143.5224 0.0000 48.2659 0.0000
# 4 0.0000 0.0000 0.0000 26.4927 0.0000 -3.2073
# 5 19.3745 1.3855 48.2659 0.0000 47.5730 0.0000
# 6 0.0000 0.0000 0.0000 -3.2073 0.0000 29.5710
#
#
#
# Elastic Compliance Matrix: (Units=1/GPa)
#
#
# Indices 1 2 3 4 5 6 
#
# 1 0.019995 -0.004111 -0.008255 0.000000 0.000352 0.000000
# 2 -0.004111 0.026737 -0.002472 0.000000 0.003404 0.000000
# 3 -0.008255 -0.002472 0.014655 0.000000 -0.011435 0.000000
# 4 0.000000 0.000000 0.000000 0.038249 0.000000 0.004148
# 5 0.000352 0.003404 -0.011435 0.000000 0.032380 0.000000
# 6 0.000000 0.000000 0.000000 0.004148 0.000000 0.034267
#
#
# Mechanical properties :
#
#
# Convention : Reuss Voigt Hill
#
# Bulk Modulus (GPa) = 31.53544 50.05370 40.79457
# Shear Modulus (GPa) = 24.20951 32.00893 28.10922
#
# Velocity S-wave (km/s) = 3.81249 4.38380 4.10809
# Velocity P-wave (km/s) = 6.18979 7.46158 6.85524
#
# Compressibility (1/GPa) = 0.03171036
#
# Stress axis : x y z
#
# Youngs Moduli (GPa) = 50.01176 37.40129 68.23398
#
# Poissons Ratio (x) = 0.15377 0.56326
# Poissons Ratio (y) = 0.20562 0.16871
# Poissons Ratio (z) = 0.41284 0.09247
#
# Static dielectric constant tensor:
#      x y z
#    x 1.687580 0.000000 0.247970 
#    y 0.000000 1.553240 0.000000 
#    z 0.247970 0.000000 1.926540 
# 
# From -- ./inp_files/7123.got.cif
#   From: 2010.05.17/outbox.cif.g08.bks.cpg/sg13_4_cif.got.tgz:7123.got - 2010.06.03 16:44:36.
