data_PCOD9227543
_publ_section_title
;
Structure prediction by ZEFSAII (Michael W. Deem and Ramdas Pophale) SiO2 
 PCOD9227543
Probable space group: P 2/C
;
_chemical_formula_sum "Si O2"
_cell_formula_units_Z 18
_cell_length_a 19.026381
_cell_length_b 9.239258
_cell_length_c 13.090378
_cell_angle_alpha 90.000000
_cell_angle_beta 160.987707
_cell_angle_gamma 90.000000
_cell_volume 749.648898
_symmetry_space_group_name_H-M "P 2/C"
_symmetry_group_IT_number 13
_symmetry_cell_setting 'monoclinic'
loop_
_space_group_symop_operation_xyz
x,y,z
-x,y,1/2-z
-x,-y,-z
x,-y,1/2+z
loop_
_atom_site_type_symbol
_atom_site_label
_atom_site_fract_x
_atom_site_fract_y
_atom_site_fract_z
Si Si1 0.892126 0.673828 0.463489
Si Si2 0.329898 0.455697 0.660813
Si Si3 0.500000 0.245279 0.750000
Si Si4 0.727906 0.245419 0.518053
Si Si5 0.911420 0.954356 0.768448
O O1 0.713798 0.588577 0.282983
O O2 0.851750 0.687578 0.287299
O O3 0.910550 0.841144 0.527846
O O4 0.115196 0.598854 0.803287
O O5 0.517614 0.357922 0.868860
O O6 0.326179 0.624641 0.632017
O O7 0.300697 0.141562 0.501882
O O8 0.846716 0.108025 0.632125
O O9 0.500000 0.191192 0.250000
O O10 0.000000 0.000000 0.000000
#
# Coordination Sequence:
#
# PCOD9227543 Si02
#       5
#     4   4   2   4   4
#     4   9  21  39  61  86 123 160 201 246 306 362
#     4  10  20  38  60  87 120 162 200 243 306 365
#     4  10  18  36  60  80 120 166 194 244 314 360
#     4  11  20  36  63  93 120 154 204 255 300 358
#     4   9  19  37  62  85 117 161 203 251 306 356
#
# _framework density 24.011239
#
# number of rings (size 3 to 8) (size 9 to 14) (size 15 to 20)
#    0.000    2.222    2.222    0.667    0.000    0.889 
#    0.000   13.333    4.889    0.000    0.000    0.000 
#    0.000    0.000    0.000    0.000    0.000    0.000 
#
# Total GULP energy -100466.158107 kJ/mol
# GULP energy per Si atom -5581.453228 kJ/mol
# Density = 2.395659 g / cm^3
# Si number density = 24.011239 Si / 1000 Ang^3
#
#
#
# Elastic Constant Matrix: (Units=GPa)
#
#
# Indices 1 2 3 4 5 6 
#
# 1 86.5738 66.4810 13.7416 0.0000 4.8979 0.0000
# 2 66.4810 216.7417 17.7125 0.0000 1.6830 0.0000
# 3 13.7416 17.7125 52.1239 0.0000 -19.4895 0.0000
# 4 0.0000 0.0000 0.0000 20.8259 0.0000 -2.8665
# 5 4.8979 1.6830 -19.4895 0.0000 35.8903 0.0000
# 6 0.0000 0.0000 0.0000 -2.8665 0.0000 -6.9783
#
#
#
# Elastic Compliance Matrix: (Units=1/GPa)
#
#
# Indices 1 2 3 4 5 6 
#
# 1 0.015929 -0.004504 -0.004270 0.000000 -0.004281 0.000000
# 2 -0.004504 0.006074 -0.000945 0.000000 -0.000184 0.000000
# 3 -0.004270 -0.000945 0.026183 0.000000 0.014845 0.000000
# 4 0.000000 0.000000 0.000000 0.045447 0.000000 -0.018669
# 5 -0.004281 -0.000184 0.014845 0.000000 0.036517 0.000000
# 6 0.000000 0.000000 0.000000 -0.018669 0.000000 -0.135633
#
#
# Mechanical properties :
#
#
# Convention : Reuss Voigt Hill
#
# Bulk Modulus (GPa) = 34.78507 61.25660 48.02084
# Shear Modulus (GPa) = 212.42813 27.11454 119.77134
#
# Velocity S-wave (km/s) = 9.41607 3.36407 7.07034
# Velocity P-wave (km/s) = 11.52106 6.37623 9.31105
#
# Compressibility (1/GPa) = 0.02874796
#
# Stress axis : x y z
#
# Youngs Moduli (GPa) = 62.77739 164.63867 38.19338
#
# Poissons Ratio (x) = 0.74150 0.16308
# Poissons Ratio (y) = 0.28274 0.03610
# Poissons Ratio (z) = 0.26805 0.15563
#
# Static dielectric constant tensor:
#      x y z
#    x 1.897890 0.000000 0.090500 
#    y 0.000000 1.946630 0.000000 
#    z 0.090500 0.000000 1.909030 
# 
# From -- ./inp_files/56971.got.cif
#   From: 2010.05.17/outbox.cif.g08.bks.cpg/sg13_29_cif.got.tgz:56971.got - 2010.06.03 16:44:36.
