data_PCOD9227972
_publ_section_title
;
Structure prediction by ZEFSAII (Michael W. Deem and Ramdas Pophale) SiO2 
 PCOD9227972
Probable space group: P 2/C
;
_chemical_formula_sum "Si O2"
_cell_formula_units_Z 24
_cell_length_a 12.173331
_cell_length_b 10.641614
_cell_length_c 9.762150
_cell_angle_alpha 90.000000
_cell_angle_beta 66.849425
_cell_angle_gamma 90.000000
_cell_volume 1162.792578
_symmetry_space_group_name_H-M "P 2/C"
_symmetry_group_IT_number 13
_symmetry_cell_setting 'monoclinic'
loop_
_space_group_symop_operation_xyz
x,y,z
-x,y,1/2-z
-x,-y,-z
x,-y,1/2+z
loop_
_atom_site_type_symbol
_atom_site_label
_atom_site_fract_x
_atom_site_fract_y
_atom_site_fract_z
Si Si1 0.887496 0.584920 0.016904
Si Si2 0.342993 0.257542 0.542927
Si Si3 0.389579 0.763379 0.526892
Si Si4 0.777749 0.177834 0.635965
Si Si5 0.738806 0.480450 0.338407
Si Si6 0.638017 0.932714 0.710506
O O1 0.892256 0.736338 0.039941
O O2 0.785429 0.533991 0.171891
O O3 0.849327 0.561743 0.879503
O O4 0.000000 0.500000 0.000000
O O5 0.469259 0.233854 0.553893
O O6 0.244501 0.202184 0.693345
O O7 0.322700 0.405621 0.549677
O O8 0.346483 0.184838 0.398936
O O9 0.322243 0.762244 0.416165
O O10 0.348491 0.637958 0.626691
O O11 0.355604 0.882769 0.637308
O O12 0.743879 0.031973 0.632509
O O13 0.500000 0.979462 0.750000
#
# Coordination Sequence:
#
# PCOD9227972 Si02
#       6
#     4   4   4   4   4   4
#     4  10  21  37  55  74  97 130 178 234 277 311
#     4  10  19  31  50  77 111 143 171 209 256 317
#     4  10  19  31  50  77 111 143 171 209 256 317
#     4  10  20  32  50  75 103 140 179 213 257 316
#     4  10  20  34  54  78 102 134 178 222 268 318
#     4  10  19  31  49  77 115 152 177 204 255 325
#
# _framework density 20.639969000000001
#
# number of rings (size 3 to 8) (size 9 to 14) (size 15 to 20)
#    0.000    2.000    0.000    4.500    0.000    2.667 
#    0.000    5.000    0.000    4.000    0.000   18.667 
#    0.000    0.000    0.000    0.000    0.000    0.000 
#
# Total GULP energy -133761.781441 kJ/mol
# GULP energy per Si atom -5573.407560 kJ/mol
# Density = 2.059299 g / cm^3
# Si number density = 20.639969 Si / 1000 Ang^3
#
#
#
# Elastic Constant Matrix: (Units=GPa)
#
#
# Indices 1 2 3 4 5 6 
#
# 1 28.8880 18.0147 10.0262 0.0000 5.2786 0.0000
# 2 18.0147 111.6697 8.0471 0.0000 -10.9436 0.0000
# 3 10.0262 8.0471 54.3255 0.0000 12.4948 0.0000
# 4 0.0000 0.0000 0.0000 16.5926 0.0000 -0.2031
# 5 5.2786 -10.9436 12.4948 0.0000 20.3582 0.0000
# 6 0.0000 0.0000 0.0000 -0.2031 0.0000 28.6182
#
#
#
# Elastic Compliance Matrix: (Units=1/GPa)
#
#
# Indices 1 2 3 4 5 6 
#
# 1 0.043342 -0.008018 -0.003767 0.000000 -0.013236 0.000000
# 2 -0.008018 0.011373 -0.002432 0.000000 0.009685 0.000000
# 3 -0.003767 -0.002432 0.022751 0.000000 -0.014294 0.000000
# 4 0.000000 0.000000 0.000000 0.060273 0.000000 0.000428
# 5 -0.013236 0.009685 -0.014294 0.000000 0.066531 0.000000
# 6 0.000000 0.000000 0.000000 0.000428 0.000000 0.034946
#
#
# Mechanical properties :
#
#
# Convention : Reuss Voigt Hill
#
# Bulk Modulus (GPa) = 20.39532 29.67326 25.03429
# Shear Modulus (GPa) = 17.60594 23.70014 20.65304
#
# Velocity S-wave (km/s) = 2.92379 3.39228 3.16671
# Velocity P-wave (km/s) = 4.61530 5.45447 5.05234
#
# Compressibility (1/GPa) = 0.04903087
#
# Stress axis : x y z
#
# Youngs Moduli (GPa) = 23.07215 87.92874 43.95453
#
# Poissons Ratio (x) = 0.70498 0.16559
# Poissons Ratio (y) = 0.18498 0.10692
# Poissons Ratio (z) = 0.08692 0.21389
#
# Static dielectric constant tensor:
#      x y z
#    x 1.720560 0.000000 -0.015030 
#    y 0.000000 1.802640 0.000000 
#    z -0.015030 0.000000 1.746370 
# 
# From -- ./inp_files/32511.got.cif
#   From: 2010.05.17/outbox.cif.g08.bks.cpg/sg13_17_cif.got.tgz:32511.got - 2010.06.03 16:44:36.
