data_PCOD9227580
_publ_section_title
;
Structure prediction by ZEFSAII (Michael W. Deem and Ramdas Pophale) SiO2 
 PCOD9227580
Probable space group: P 2/C
;
_chemical_formula_sum "Si O2"
_cell_formula_units_Z 26
_cell_length_a 11.766864
_cell_length_b 13.999089
_cell_length_c 9.550016
_cell_angle_alpha 90.000000
_cell_angle_beta 125.399565
_cell_angle_gamma 90.000000
_cell_volume 1282.308892
_symmetry_space_group_name_H-M "P 2/C"
_symmetry_group_IT_number 13
_symmetry_cell_setting 'monoclinic'
loop_
_space_group_symop_operation_xyz
x,y,z
-x,y,1/2-z
-x,-y,-z
x,-y,1/2+z
loop_
_atom_site_type_symbol
_atom_site_label
_atom_site_fract_x
_atom_site_fract_y
_atom_site_fract_z
Si Si1 0.393092 0.883128 0.920862
Si Si2 0.302634 0.797349 0.376774
Si Si3 0.620285 0.590860 0.726038
Si Si4 0.808287 0.762822 0.890948
Si Si5 0.500000 0.013556 0.750000
Si Si6 0.419940 0.626177 0.324144
Si Si7 0.957953 0.906591 0.381544
O O1 0.265957 0.816712 0.790236
O O2 0.413704 0.954578 0.804206
O O3 0.537301 0.825861 0.020699
O O4 0.392545 0.930506 0.072798
O O5 0.260948 0.790736 0.509187
O O6 0.301673 0.694033 0.303075
O O7 0.203344 0.875767 0.235750
O O8 0.500000 0.623322 0.750000
O O9 0.760597 0.652780 0.840074
O O10 0.542350 0.606914 0.523759
O O11 0.639862 0.477679 0.760182
O O12 0.959926 0.810398 0.011120
O O13 0.500000 0.671419 0.250000
O O14 0.000000 0.925057 0.250000
O O15 0.000000 0.000000 0.500000
#
# Coordination Sequence:
#
# PCOD9227580 Si02
#       7
#     4   4   4   4   2   4   4
#     4  11  21  35  57  81 112 145 198 243 298 344
#     4  11  21  39  59  87 118 156 197 244 297 361
#     4  10  18  36  62  90 122 152 190 247 302 355
#     4  11  20  39  62  84 113 162 200 238 297 362
#     4  10  24  32  50  86 110 144 190 256 286 344
#     4  10  21  34  59  96 123 147 190 249 305 348
#     4  10  26  43  61  83 120 162 203 245 299 351
#
# _framework density 20.275926999999999
#
# number of rings (size 3 to 8) (size 9 to 14) (size 15 to 20)
#    0.000    1.538    4.615    0.000    5.385    0.000 
#    2.769    0.769    0.000    0.000    0.000    0.000 
#    0.000    0.000    0.000    0.000    0.000    0.000 
#
# Total GULP energy -145053.368867 kJ/mol
# GULP energy per Si atom -5578.975726 kJ/mol
# Density = 2.022978 g / cm^3
# Si number density = 20.275927 Si / 1000 Ang^3
#
#
#
# Elastic Constant Matrix: (Units=GPa)
#
#
# Indices 1 2 3 4 5 6 
#
# 1 19.5260 8.6617 17.8432 0.0000 -4.1266 0.0000
# 2 8.6617 91.3453 28.3227 0.0000 -0.3021 0.0000
# 3 17.8432 28.3227 86.0579 0.0000 -13.4081 0.0000
# 4 0.0000 0.0000 0.0000 -8.2438 0.0000 14.8092
# 5 -4.1266 -0.3021 -13.4081 0.0000 27.1442 0.0000
# 6 0.0000 0.0000 0.0000 14.8092 0.0000 19.4222
#
#
#
# Elastic Compliance Matrix: (Units=1/GPa)
#
#
# Indices 1 2 3 4 5 6 
#
# 1 0.063928 -0.002366 -0.011881 0.000000 0.003824 0.000000
# 2 -0.002366 0.012380 -0.003920 0.000000 -0.002158 0.000000
# 3 -0.011881 -0.003920 0.016343 0.000000 0.006223 0.000000
# 4 0.000000 0.000000 0.000000 -0.051188 0.000000 0.039031
# 5 0.003824 -0.002158 0.006223 0.000000 0.040472 0.000000
# 6 0.000000 0.000000 0.000000 0.039031 0.000000 0.021727
#
#
# Mechanical properties :
#
#
# Convention : Reuss Voigt Hill
#
# Bulk Modulus (GPa) = 17.75609 34.06492 25.91051
# Shear Modulus (GPa) = 31.49270 17.13795 24.31533
#
# Velocity S-wave (km/s) = 3.94535 2.91045 3.46673
# Velocity P-wave (km/s) = 5.43421 5.30391 5.36945
#
# Compressibility (1/GPa) = 0.05631870
#
# Stress axis : x y z
#
# Youngs Moduli (GPa) = 15.64260 80.77440 61.18768
#
# Poissons Ratio (x) = 0.19107 0.72694
# Poissons Ratio (y) = 0.03700 0.23987
# Poissons Ratio (z) = 0.18584 0.31666
#
# Static dielectric constant tensor:
#      x y z
#    x 1.713890 0.000000 -0.033510 
#    y 0.000000 1.820910 0.000000 
#    z -0.033510 0.000000 1.784930 
# 
# From -- ./inp_files/16604.got.cif
#   From: 2010.05.17/outbox.cif.g08.bks.cpg/sg13_9_cif.got.tgz:16604.got - 2010.06.03 16:44:36.
