data_PCOD9227391
_publ_section_title
;
Structure prediction by ZEFSAII (Michael W. Deem and Ramdas Pophale) SiO2 
 PCOD9227391
Probable space group: P 2/C
;
_chemical_formula_sum "Si O2"
_cell_formula_units_Z 28
_cell_length_a 7.915466
_cell_length_b 31.197672
_cell_length_c 5.442793
_cell_angle_alpha 90.000000
_cell_angle_beta 119.880582
_cell_angle_gamma 90.000000
_cell_volume 1165.393174
_symmetry_space_group_name_H-M "P 2/C"
_symmetry_group_IT_number 13
_symmetry_cell_setting 'monoclinic'
loop_
_space_group_symop_operation_xyz
x,y,z
-x,y,1/2-z
-x,-y,-z
x,-y,1/2+z
loop_
_atom_site_type_symbol
_atom_site_label
_atom_site_fract_x
_atom_site_fract_y
_atom_site_fract_z
Si Si1 0.268339 0.020082 0.600354
Si Si2 0.218728 0.485497 0.466237
Si Si3 0.735070 0.387122 0.917099
Si Si4 0.262270 0.340060 0.083781
Si Si5 0.237187 0.792559 0.169273
Si Si6 0.873814 0.885635 0.409637
Si Si7 0.794097 0.242540 0.356365
O O1 0.500000 0.012821 0.750000
O O2 0.231572 0.068819 0.652034
O O3 0.193412 0.009528 0.271023
O O4 0.308163 0.512168 0.756932
O O5 0.210649 0.436867 0.554386
O O6 0.000000 0.501512 0.250000
O O7 0.500000 0.385596 0.750000
O O8 0.795971 0.359845 0.721944
O O9 0.796273 0.369086 0.226545
O O10 0.500000 0.336633 0.250000
O O11 0.182178 0.292958 0.085091
O O12 0.260017 0.843503 0.181512
O O13 0.310285 0.774493 0.477766
O O14 0.304257 0.769164 0.972011
O O15 0.004269 0.781177 0.003269
O O16 0.000000 0.883851 0.250000
O O17 0.000000 0.882598 0.750000
#
# Coordination Sequence:
#
# PCOD9227391 Si02
#       7
#     4   4   4   4   4   4   4
#     4  10  23  42  60  85 123 160 196 242 296 357
#     4  10  21  38  58  81 115 148 182 231 282 334
#     4  10  21  38  57  83 115 146 189 236 277 332
#     4  10  21  37  56  80 115 149 185 237 282 331
#     4  10  19  35  55  79 112 145 178 241 277 325
#     4  12  21  37  63  88 121 152 195 248 299 339
#     4  10  18  35  55  76 109 149 180 224 288 333
#
# _framework density 24.026226999999999
#
# number of rings (size 3 to 8) (size 9 to 14) (size 15 to 20)
#    0.000    1.714    2.857    2.571    0.000    2.286 
#    7.714    1.429    0.000    0.000    0.000    0.000 
#    0.000    0.000    0.000    0.000    0.000    0.000 
#
# Total GULP energy -156630.778492 kJ/mol
# GULP energy per Si atom -5593.956375 kJ/mol
# Density = 2.397154 g / cm^3
# Si number density = 24.026227 Si / 1000 Ang^3
#
#
#
# Elastic Constant Matrix: (Units=GPa)
#
#
# Indices 1 2 3 4 5 6 
#
# 1 110.3759 21.5243 50.8825 0.0000 -30.4883 0.0000
# 2 21.5243 169.1384 36.0678 0.0000 -41.4790 0.0000
# 3 50.8825 36.0678 180.4669 0.0000 -55.4412 0.0000
# 4 0.0000 0.0000 0.0000 74.7232 0.0000 43.4327
# 5 -30.4883 -41.4790 -55.4412 0.0000 53.7749 0.0000
# 6 0.0000 0.0000 0.0000 43.4327 0.0000 131.3320
#
#
#
# Elastic Compliance Matrix: (Units=1/GPa)
#
#
# Indices 1 2 3 4 5 6 
#
# 1 0.011109 0.000076 -0.001748 0.000000 0.004555 0.000000
# 2 0.000076 0.007312 0.000385 0.000000 0.006080 0.000000
# 3 -0.001748 0.000385 0.008406 0.000000 0.007973 0.000000
# 4 0.000000 0.000000 0.000000 0.016567 0.000000 -0.005479
# 5 0.004555 0.006080 0.007973 0.000000 0.034088 0.000000
# 6 0.000000 0.000000 0.000000 -0.005479 0.000000 0.009426
#
#
# Mechanical properties :
#
#
# Convention : Reuss Voigt Hill
#
# Bulk Modulus (GPa) = 41.23186 75.21450 58.22318
# Shear Modulus (GPa) = 51.24681 75.39979 63.32330
#
# Velocity S-wave (km/s) = 4.62340 5.60807 5.13937
# Velocity P-wave (km/s) = 6.76014 8.56195 7.71384
#
# Compressibility (1/GPa) = 0.02425309
#
# Stress axis : x y z
#
# Youngs Moduli (GPa) = 90.01607 136.77034 118.95649
#
# Poissons Ratio (x) = -0.01040 0.20795
# Poissons Ratio (y) = -0.00685 -0.04581
# Poissons Ratio (z) = 0.15736 -0.05267
#
# Static dielectric constant tensor:
#      x y z
#    x 1.731800 0.000000 -0.017740 
#    y 0.000000 1.851380 0.000000 
#    z -0.017740 0.000000 1.940320 
# 
# From -- ./inp_files/2750.got.cif
#   From: 2010.05.17/outbox.cif.g08.bks.cpg/sg13_2_cif.got.tgz:2750.got - 2010.06.03 16:44:36.
