data_PCOD9227074
_publ_section_title
;
Structure prediction by ZEFSAII (Michael W. Deem and Ramdas Pophale) SiO2 
 PCOD9227074
Probable space group: P 2/C
;
_chemical_formula_sum "Si O2"
_cell_formula_units_Z 22
_cell_length_a 15.344232
_cell_length_b 11.240568
_cell_length_c 12.152282
_cell_angle_alpha 90.000000
_cell_angle_beta 37.200233
_cell_angle_gamma 90.000000
_cell_volume 1267.246459
_symmetry_space_group_name_H-M "P 2/C"
_symmetry_group_IT_number 13
_symmetry_cell_setting 'monoclinic'
loop_
_space_group_symop_operation_xyz
x,y,z
-x,y,1/2-z
-x,-y,-z
x,-y,1/2+z
loop_
_atom_site_type_symbol
_atom_site_label
_atom_site_fract_x
_atom_site_fract_y
_atom_site_fract_z
Si Si1 0.164169 0.045541 0.226765
Si Si2 0.032080 0.327089 0.895226
Si Si3 0.333218 0.766036 0.443021
Si Si4 0.000000 0.140539 0.750000
Si Si5 0.151985 0.856386 0.419006
Si Si6 0.109708 0.419258 0.238694
O O1 0.016390 0.122852 0.380184
O O2 0.187773 0.975951 0.316731
O O3 0.294859 0.132704 0.070641
O O4 0.123543 0.945906 0.175173
O O5 0.956081 0.230281 0.892462
O O6 0.157088 0.252025 0.828307
O O7 0.095930 0.438414 0.764597
O O8 0.936434 0.373682 0.093413
O O9 0.500000 0.752886 0.250000
O O10 0.248209 0.819545 0.423685
O O11 0.258442 0.643020 0.555504
O O12 0.000000 0.384311 0.250000
#
# Coordination Sequence:
#
# PCOD9227074 Si02
#       6
#     4   4   4   2   4   4
#     4  10  19  34  59  84 113 142 190 238 279 325
#     4  10  20  33  62  86 108 137 188 255 283 318
#     4  12  23  36  54  82 124 159 184 220 279 355
#     4  10  18  32  58  96 106 134 182 246 296 316
#     4  10  19  36  58  83 110 143 191 243 279 323
#     4  11  20  37  59  84 109 145 196 241 283 328
#
# _framework density 17.360474
#
# number of rings (size 3 to 8) (size 9 to 14) (size 15 to 20)
#    0.000    1.455    6.364    0.000    0.000    0.727 
#    0.000    0.909    0.000    4.364    0.000    0.000 
#    0.000    0.000    0.000    0.000    0.000    0.000 
#
# Total GULP energy -122534.657846 kJ/mol
# GULP energy per Si atom -5569.757175 kJ/mol
# Density = 1.732096 g / cm^3
# Si number density = 17.360474 Si / 1000 Ang^3
#
#
#
# Elastic Constant Matrix: (Units=GPa)
#
#
# Indices 1 2 3 4 5 6 
#
# 1 39.8136 26.7196 29.6271 0.0000 9.0691 0.0000
# 2 26.7196 119.2972 56.6831 0.0000 -6.3472 0.0000
# 3 29.6271 56.6831 106.1323 0.0000 -13.7695 0.0000
# 4 0.0000 0.0000 0.0000 25.6788 0.0000 9.9016
# 5 9.0691 -6.3472 -13.7695 0.0000 22.6055 0.0000
# 6 0.0000 0.0000 0.0000 9.9016 0.0000 24.8829
#
#
#
# Elastic Compliance Matrix: (Units=1/GPa)
#
#
# Indices 1 2 3 4 5 6 
#
# 1 0.044747 -0.005166 -0.013300 0.000000 -0.027504 0.000000
# 2 -0.005166 0.011835 -0.004538 0.000000 0.002632 0.000000
# 3 -0.013300 -0.004538 0.017466 0.000000 0.014701 0.000000
# 4 0.000000 0.000000 0.000000 0.046001 0.000000 -0.018305
# 5 -0.027504 0.002632 0.014701 0.000000 0.064965 0.000000
# 6 0.000000 0.000000 0.000000 -0.018305 0.000000 0.047472
#
#
# Mechanical properties :
#
#
# Convention : Reuss Voigt Hill
#
# Bulk Modulus (GPa) = 35.66341 54.58919 45.12630
# Shear Modulus (GPa) = 17.37078 24.78100 21.07589
#
# Velocity S-wave (km/s) = 3.16665 3.78224 3.48805
# Velocity P-wave (km/s) = 5.82732 7.11243 6.50170
#
# Compressibility (1/GPa) = 0.02803995
#
# Stress axis : x y z
#
# Youngs Moduli (GPa) = 22.34811 84.49185 57.25495
#
# Poissons Ratio (x) = 0.43647 0.76152
# Poissons Ratio (y) = 0.11545 0.25980
# Poissons Ratio (z) = 0.29724 0.38339
#
# Static dielectric constant tensor:
#      x y z
#    x 1.603870 0.000000 0.069620 
#    y 0.000000 1.646880 0.000000 
#    z 0.069620 0.000000 1.607210 
# 
# From -- ./inp_files/36611.got.cif
#   From: 2010.05.17/outbox.cif.g08.bks.cpg/sg13_19_cif.got.tgz:36611.got - 2010.06.03 16:44:36.
