data_PCOD9227318
_publ_section_title
;
Structure prediction by ZEFSAII (Michael W. Deem and Ramdas Pophale) SiO2 
 PCOD9227318
Probable space group: P 2/C
;
_chemical_formula_sum "Si O2"
_cell_formula_units_Z 28
_cell_length_a 9.441517
_cell_length_b 9.328420
_cell_length_c 28.534498
_cell_angle_alpha 90.000000
_cell_angle_beta 35.611588
_cell_angle_gamma 90.000000
_cell_volume 1463.381314
_symmetry_space_group_name_H-M "P 2/C"
_symmetry_group_IT_number 13
_symmetry_cell_setting 'monoclinic'
loop_
_space_group_symop_operation_xyz
x,y,z
-x,y,1/2-z
-x,-y,-z
x,-y,1/2+z
loop_
_atom_site_type_symbol
_atom_site_label
_atom_site_fract_x
_atom_site_fract_y
_atom_site_fract_z
Si Si1 0.500000 0.827828 0.250000
Si Si2 0.714316 0.207848 0.968706
Si Si3 0.694309 0.563915 0.389708
Si Si4 0.000000 0.765829 0.250000
Si Si5 0.158929 0.739337 0.618993
Si Si6 0.145939 0.387992 0.021172
Si Si7 0.867157 0.673774 0.082168
Si Si8 0.059162 0.976878 0.319605
O O1 0.637474 0.730332 0.173965
O O2 0.295274 0.931286 0.284387
O O3 0.734310 0.336613 0.924789
O O4 0.895453 0.242066 0.962550
O O5 0.824562 0.068261 0.913803
O O6 0.430485 0.201401 0.056059
O O7 0.784584 0.660163 0.322731
O O8 0.840570 0.417372 0.357553
O O9 0.408540 0.537051 0.459471
O O10 0.938757 0.869903 0.224338
O O11 0.120912 0.712604 0.573398
O O12 0.967939 0.857900 0.686454
O O13 0.934873 0.507536 0.074830
O O14 0.159354 0.313078 0.966734
#
# Coordination Sequence:
#
# PCOD9227318 Si02
#       8
#     2   4   4   2   4   4   4   4
#     4  10  22  40  56  80 120 176 190 230 302 378
#     4   9  17  35  57  85 109 151 189 240 293 355
#     4  10  18  34  59  84 117 147 200 246 297 343
#     4  10  22  38  58  84 112 162 200 238 296 370
#     4  11  19  35  57  87 116 147 194 254 303 332
#     4  10  19  33  58  92 115 150 197 260 281 347
#     4  10  18  34  60  86 119 150 207 236 290 351
#     4  10  22  37  59  78 121 157 196 234 304 365
#
# _framework density 19.133769999999998
#
# number of rings (size 3 to 8) (size 9 to 14) (size 15 to 20)
#    0.000    2.000    2.857    2.143    0.000    0.571 
#    0.000    5.000    3.143    0.000    0.000    0.000 
#    0.000    0.000    0.000    0.000    0.000    0.000 
#
# Total GULP energy -156123.393990 kJ/mol
# GULP energy per Si atom -5575.835500 kJ/mol
# Density = 1.909022 g / cm^3
# Si number density = 19.133770 Si / 1000 Ang^3
#
#
#
# Elastic Constant Matrix: (Units=GPa)
#
#
# Indices 1 2 3 4 5 6 
#
# 1 82.3971 28.5647 14.7012 0.0000 4.7003 0.0000
# 2 28.5647 103.5087 35.4126 0.0000 -5.1609 0.0000
# 3 14.7012 35.4126 57.3568 0.0000 -2.2418 0.0000
# 4 0.0000 0.0000 0.0000 107.5845 0.0000 66.7945
# 5 4.7003 -5.1609 -2.2418 0.0000 19.0771 0.0000
# 6 0.0000 0.0000 0.0000 66.7945 0.0000 72.0034
#
#
#
# Elastic Compliance Matrix: (Units=1/GPa)
#
#
# Indices 1 2 3 4 5 6 
#
# 1 0.013899 -0.003529 -0.001562 0.000000 -0.004563 0.000000
# 2 -0.003529 0.013258 -0.007140 0.000000 0.003617 0.000000
# 3 -0.001562 -0.007140 0.022285 0.000000 0.001072 0.000000
# 4 0.000000 0.000000 0.000000 0.021919 0.000000 -0.020333
# 5 -0.004563 0.003617 0.001072 0.000000 0.054647 0.000000
# 6 0.000000 0.000000 0.000000 -0.020333 0.000000 0.032751
#
#
# Mechanical properties :
#
#
# Convention : Reuss Voigt Hill
#
# Bulk Modulus (GPa) = 40.03086 44.51329 42.27208
# Shear Modulus (GPa) = 26.10332 50.70529 38.40431
#
# Velocity S-wave (km/s) = 3.69759 5.15344 4.48498
# Velocity P-wave (km/s) = 6.26071 7.66325 6.99721
#
# Compressibility (1/GPa) = 0.02498073
#
# Stress axis : x y z
#
# Youngs Moduli (GPa) = 71.94981 75.42745 44.87297
#
# Poissons Ratio (x) = 0.26615 0.07010
# Poissons Ratio (y) = 0.25388 0.32038
# Poissons Ratio (z) = 0.11239 0.53853
#
# Static dielectric constant tensor:
#      x y z
#    x 1.358390 0.000000 0.034970 
#    y 0.000000 1.672320 0.000000 
#    z 0.034970 0.000000 1.695400 
# 
# From -- ./inp_files/95954.got.cif
#   From: 2010.05.17/outbox.cif.g08.bks.cpg/sg13_48_cif.got.tgz:95954.got - 2010.06.03 16:44:36.
