data_PCOD9227411
_publ_section_title
;
Structure prediction by ZEFSAII (Michael W. Deem and Ramdas Pophale) SiO2 
 PCOD9227411
Probable space group: P 2/C
;
_chemical_formula_sum "Si O2"
_cell_formula_units_Z 26
_cell_length_a 7.839957
_cell_length_b 6.983198
_cell_length_c 19.836008
_cell_angle_alpha 90.000000
_cell_angle_beta 79.242354
_cell_angle_gamma 90.000000
_cell_volume 1066.895632
_symmetry_space_group_name_H-M "P 2/C"
_symmetry_group_IT_number 13
_symmetry_cell_setting 'monoclinic'
loop_
_space_group_symop_operation_xyz
x,y,z
-x,y,1/2-z
-x,-y,-z
x,-y,1/2+z
loop_
_atom_site_type_symbol
_atom_site_label
_atom_site_fract_x
_atom_site_fract_y
_atom_site_fract_z
Si Si1 0.351135 0.275101 0.628859
Si Si2 0.500000 0.269297 0.750000
Si Si3 0.744453 0.092102 0.223947
Si Si4 0.257756 0.386573 0.498128
Si Si5 0.868451 0.783470 0.009394
Si Si6 0.377792 0.069041 0.403260
Si Si7 0.134248 0.073713 0.144990
O O1 0.439640 0.370977 0.686915
O O2 0.315596 0.412830 0.570320
O O3 0.475025 0.091878 0.603155
O O4 0.172070 0.154349 0.649228
O O5 0.337036 0.123407 0.771733
O O6 0.750917 0.158685 0.301101
O O7 0.938868 0.108101 0.182842
O O8 0.636067 0.170052 0.168684
O O9 0.242688 0.593658 0.467045
O O10 0.066468 0.286801 0.506789
O O11 0.389182 0.236973 0.455980
O O12 0.842976 0.850933 0.933133
O O13 0.796424 0.948372 0.063557
#
# Coordination Sequence:
#
# PCOD9227411 Si02
#       7
#     4   2   4   4   4   4   4
#     4  10  20  35  60  85 119 155 202 239 305 352
#     4   8  18  34  56  90 110 150 202 246 290 368
#     4   9  18  32  62  79 114 152 196 237 298 348
#     4  11  22  36  57  88 118 156 196 244 294 356
#     4  11  23  36  59  88 123 151 204 243 297 351
#     4  11  20  38  59  88 117 157 193 251 294 352
#     4  10  18  35  57  86 110 159 194 242 293 356
#
# _framework density 24.369769999999999
#
# number of rings (size 3 to 8) (size 9 to 14) (size 15 to 20)
#    0.000    1.846    3.077    1.846    0.000    0.615 
#    0.000    0.000   10.154    4.615    0.000    0.000 
#    0.000    0.000    0.000    0.000    0.000    0.000 
#
# Total GULP energy -144985.239775 kJ/mol
# GULP energy per Si atom -5576.355376 kJ/mol
# Density = 2.431430 g / cm^3
# Si number density = 24.369770 Si / 1000 Ang^3
#
#
#
# Elastic Constant Matrix: (Units=GPa)
#
#
# Indices 1 2 3 4 5 6 
#
# 1 101.8698 9.9676 31.0038 0.0000 19.5849 0.0000
# 2 9.9676 60.0003 3.5302 0.0000 4.8358 0.0000
# 3 31.0038 3.5302 117.6464 0.0000 45.7707 0.0000
# 4 0.0000 0.0000 0.0000 -5.5324 0.0000 10.8637
# 5 19.5849 4.8358 45.7707 0.0000 54.1014 0.0000
# 6 0.0000 0.0000 0.0000 10.8637 0.0000 16.4981
#
#
#
# Elastic Compliance Matrix: (Units=1/GPa)
#
#
# Indices 1 2 3 4 5 6 
#
# 1 0.010992 -0.001535 -0.002021 0.000000 -0.002132 0.000000
# 2 -0.001535 0.017003 0.000402 0.000000 -0.001304 0.000000
# 3 -0.002021 0.000402 0.013043 0.000000 -0.010339 0.000000
# 4 0.000000 0.000000 0.000000 -0.078827 0.000000 0.051906
# 5 -0.002132 -0.001304 -0.010339 0.000000 0.028119 0.000000
# 6 0.000000 0.000000 0.000000 0.051906 0.000000 0.026434
#
#
# Mechanical properties :
#
#
# Convention : Reuss Voigt Hill
#
# Bulk Modulus (GPa) = 28.79512 40.94662 34.87087
# Shear Modulus (GPa) = 144.30509 28.68109 86.49309
#
# Velocity S-wave (km/s) = 7.70346 3.43434 5.96398
# Velocity P-wave (km/s) = 9.53761 5.70657 7.85910
#
# Compressibility (1/GPa) = 0.03472811
#
# Stress axis : x y z
#
# Youngs Moduli (GPa) = 90.97790 58.81285 76.66948
#
# Poissons Ratio (x) = 0.09029 0.15497
# Poissons Ratio (y) = 0.13967 -0.03079
# Poissons Ratio (z) = 0.18389 -0.02362
#
# Static dielectric constant tensor:
#      x y z
#    x 2.116610 0.000000 -0.093460 
#    y 0.000000 1.862130 0.000000 
#    z -0.093460 0.000000 2.103560 
# 
# From -- ./inp_files/75258.got.cif
#   From: 2010.05.17/outbox.cif.g08.bks.cpg/sg13_38_cif.got.tgz:75258.got - 2010.06.03 16:44:36.
