data_PCOD9227475
_publ_section_title
;
Structure prediction by ZEFSAII (Michael W. Deem and Ramdas Pophale) SiO2 
 PCOD9227475
Probable space group: P 2/C
;
_chemical_formula_sum "Si O2"
_cell_formula_units_Z 20
_cell_length_a 7.605619
_cell_length_b 7.755809
_cell_length_c 22.252081
_cell_angle_alpha 90.000000
_cell_angle_beta 141.748411
_cell_angle_gamma 90.000000
_cell_volume 812.651124
_symmetry_space_group_name_H-M "P 2/C"
_symmetry_group_IT_number 13
_symmetry_cell_setting 'monoclinic'
loop_
_space_group_symop_operation_xyz
x,y,z
-x,y,1/2-z
-x,-y,-z
x,-y,1/2+z
loop_
_atom_site_type_symbol
_atom_site_label
_atom_site_fract_x
_atom_site_fract_y
_atom_site_fract_z
Si Si1 0.733058 0.659319 0.497465
Si Si2 0.979101 0.825448 0.032276
Si Si3 0.562296 0.991194 0.600390
Si Si4 0.878199 0.503828 0.659253
Si Si5 0.131691 0.126828 0.705676
O O1 0.608954 0.850361 0.475241
O O2 0.903511 0.593711 0.601259
O O3 0.450230 0.544106 0.417538
O O4 0.906743 0.679926 0.481970
O O5 0.151496 0.852299 0.139773
O O6 0.641564 0.825627 0.957465
O O7 0.000000 0.000000 0.000000
O O8 0.866790 0.002479 0.650828
O O9 0.624957 0.052489 0.685918
O O10 0.049061 0.322236 0.702162
O O11 0.000000 0.602337 0.750000
#
# Coordination Sequence:
#
# PCOD9227475 Si02
#       5
#     4   4   4   4   4
#     4   9  19  34  59  89 118 157 207 259 314 360
#     4  10  21  34  58  88 128 155 201 269 313 362
#     4   9  18  37  60  88 119 166 208 249 311 384
#     4  10  18  37  63  84 119 166 219 248 305 396
#     4  10  18  35  64  87 115 173 211 235 320 391
#
# _framework density 24.610807999999999
#
# number of rings (size 3 to 8) (size 9 to 14) (size 15 to 20)
#    0.000    2.400    4.000    0.600    0.000    4.000 
#    0.000    0.000   57.200    0.000    0.000    0.000 
#    0.000    0.000    0.000    0.000    0.000    0.000 
#
# Total GULP energy -111739.000012 kJ/mol
# GULP energy per Si atom -5586.950001 kJ/mol
# Density = 2.455479 g / cm^3
# Si number density = 24.610808 Si / 1000 Ang^3
#
#
#
# Elastic Constant Matrix: (Units=GPa)
#
#
# Indices 1 2 3 4 5 6 
#
# 1 141.4931 17.4740 54.5028 0.0000 -38.6832 0.0000
# 2 17.4740 57.3310 16.3402 0.0000 -6.6107 0.0000
# 3 54.5028 16.3402 185.8540 0.0000 -56.9034 0.0000
# 4 0.0000 0.0000 0.0000 23.4276 0.0000 -16.8251
# 5 -38.6832 -6.6107 -56.9034 0.0000 58.2825 0.0000
# 6 0.0000 0.0000 0.0000 -16.8251 0.0000 34.2596
#
#
#
# Elastic Compliance Matrix: (Units=1/GPa)
#
#
# Indices 1 2 3 4 5 6 
#
# 1 0.008995 -0.001904 -0.001011 0.000000 0.004767 0.000000
# 2 -0.001904 0.018314 -0.001145 0.000000 -0.000304 0.000000
# 3 -0.001011 -0.001145 0.007891 0.000000 0.006904 0.000000
# 4 0.000000 0.000000 0.000000 0.065943 0.000000 0.032385
# 5 0.004767 -0.000304 0.006904 0.000000 0.027028 0.000000
# 6 0.000000 0.000000 0.000000 0.032385 0.000000 0.045093
#
#
# Mechanical properties :
#
#
# Convention : Reuss Voigt Hill
#
# Bulk Modulus (GPa) = 36.92566 62.36801 49.64683
# Shear Modulus (GPa) = 26.25891 42.95135 34.60513
#
# Velocity S-wave (km/s) = 3.26999 4.18212 3.75386
# Velocity P-wave (km/s) = 5.41235 6.97975 6.24541
#
# Compressibility (1/GPa) = 0.02708144
#
# Stress axis : x y z
#
# Youngs Moduli (GPa) = 111.16800 54.60272 126.71901
#
# Poissons Ratio (x) = 0.10396 0.12810
# Poissons Ratio (y) = 0.21165 0.14509
# Poissons Ratio (z) = 0.11238 0.06252
#
# Static dielectric constant tensor:
#      x y z
#    x 2.141120 0.000000 0.013440 
#    y 0.000000 1.953440 0.000000 
#    z 0.013440 0.000000 1.984350 
# 
# From -- ./inp_files/84889.got.cif
#   From: 2010.05.17/outbox.cif.g08.bks.cpg/sg13_43_cif.got.tgz:84889.got - 2010.06.03 16:44:36.
