data_PCOD9227696
_publ_section_title
;
Structure prediction by ZEFSAII (Michael W. Deem and Ramdas Pophale) SiO2 
 PCOD9227696
Probable space group: P 2/C
;
_chemical_formula_sum "Si O2"
_cell_formula_units_Z 22
_cell_length_a 7.969266
_cell_length_b 10.652550
_cell_length_c 12.945835
_cell_angle_alpha 90.000000
_cell_angle_beta 106.172298
_cell_angle_gamma 90.000000
_cell_volume 1055.521282
_symmetry_space_group_name_H-M "P 2/C"
_symmetry_group_IT_number 13
_symmetry_cell_setting 'monoclinic'
loop_
_space_group_symop_operation_xyz
x,y,z
-x,y,1/2-z
-x,-y,-z
x,-y,1/2+z
loop_
_atom_site_type_symbol
_atom_site_label
_atom_site_fract_x
_atom_site_fract_y
_atom_site_fract_z
Si Si1 0.771644 0.646127 0.289803
Si Si2 0.604674 0.619756 0.471555
Si Si3 0.196378 0.080225 0.800776
Si Si4 0.665474 0.787547 0.975061
Si Si5 0.500000 0.915836 0.750000
Si Si6 0.150283 0.444709 0.915848
O O1 0.629260 0.628674 0.353602
O O2 0.800548 0.791966 0.267279
O O3 0.748668 0.585801 0.173764
O O4 0.950063 0.583274 0.360571
O O5 0.500000 0.500000 0.500000
O O6 0.514127 0.742841 0.500025
O O7 0.798420 0.585080 0.545388
O O8 0.000000 0.027519 0.750000
O O9 0.355590 0.996618 0.787129
O O10 0.236517 0.120536 0.926813
O O11 0.610013 0.839235 0.854850
O O12 0.781043 0.660106 0.991579
#
# Coordination Sequence:
#
# PCOD9227696 Si02
#       6
#     4   4   4   4   2   4
#     4  10  18  38  62  88 123 160 220 265 294 385
#     4  10  21  33  59  91 127 166 199 252 325 378
#     4  11  22  44  69  89 118 171 228 259 314 378
#     4  10  22  42  57  94 127 159 213 255 319 386
#     4  12  26  40  64  94 134 164 202 286 322 364
#     4   9  19  37  62  90 120 165 210 253 316 378
#
# _framework density 20.842780999999999
#
# number of rings (size 3 to 8) (size 9 to 14) (size 15 to 20)
#    0.000    1.818    3.636    2.182    0.000    9.455 
#    3.273    0.000    0.000    0.000    0.000    0.000 
#    0.000    0.000    0.000    0.000    0.000    0.000 
#
# Total GULP energy -122646.312826 kJ/mol
# GULP energy per Si atom -5574.832401 kJ/mol
# Density = 2.079534 g / cm^3
# Si number density = 20.842781 Si / 1000 Ang^3
#
#
#
# Elastic Constant Matrix: (Units=GPa)
#
#
# Indices 1 2 3 4 5 6 
#
# 1 72.1964 11.0544 30.5415 0.0000 3.0172 0.0000
# 2 11.0544 14.1111 22.6095 0.0000 16.2101 0.0000
# 3 30.5415 22.6095 92.0793 0.0000 15.3277 0.0000
# 4 0.0000 0.0000 0.0000 17.5939 0.0000 5.0155
# 5 3.0172 16.2101 15.3277 0.0000 51.1468 0.0000
# 6 0.0000 0.0000 0.0000 5.0155 0.0000 13.8352
#
#
#
# Elastic Compliance Matrix: (Units=1/GPa)
#
#
# Indices 1 2 3 4 5 6 
#
# 1 0.016986 -0.012916 -0.003133 0.000000 0.004031 0.000000
# 2 -0.012916 0.195987 -0.035392 0.000000 -0.050746 0.000000
# 3 -0.003133 -0.035392 0.019673 0.000000 0.005506 0.000000
# 4 0.000000 0.000000 0.000000 0.063389 0.000000 -0.022980
# 5 0.004031 -0.050746 0.005506 0.000000 0.033747 0.000000
# 6 0.000000 0.000000 0.000000 -0.022980 0.000000 0.080610
#
#
# Mechanical properties :
#
#
# Convention : Reuss Voigt Hill
#
# Bulk Modulus (GPa) = 7.70636 34.08863 20.89749
# Shear Modulus (GPa) = 8.98426 24.12726 16.55576
#
# Velocity S-wave (km/s) = 2.07842 3.40602 2.82142
# Velocity P-wave (km/s) = 3.07656 5.64434 4.54554
#
# Compressibility (1/GPa) = 0.12976298
#
# Stress axis : x y z
#
# Youngs Moduli (GPa) = 58.87241 5.10239 50.83027
#
# Poissons Ratio (x) = 0.06590 0.15928
# Poissons Ratio (y) = 0.76039 1.79899
# Poissons Ratio (z) = 0.18448 0.18058
#
# Static dielectric constant tensor:
#      x y z
#    x 1.849540 0.000000 0.041030 
#    y 0.000000 1.738720 0.000000 
#    z 0.041030 0.000000 1.778210 
# 
# From -- ./inp_files/29104.got.cif
#   From: 2010.05.17/outbox.cif.g08.bks.cpg/sg13_15_cif.got.tgz:29104.got - 2010.06.03 16:44:36.
