data_PCOD9227225
_publ_section_title
;
Structure prediction by ZEFSAII (Michael W. Deem and Ramdas Pophale) SiO2 
 PCOD9227225
Probable space group: P 2/C
;
_chemical_formula_sum "Si O2"
_cell_formula_units_Z 32
_cell_length_a 29.841598
_cell_length_b 15.476724
_cell_length_c 9.715911
_cell_angle_alpha 90.000000
_cell_angle_beta 26.339205
_cell_angle_gamma 90.000000
_cell_volume 1990.943390
_symmetry_space_group_name_H-M "P 2/C"
_symmetry_group_IT_number 13
_symmetry_cell_setting 'monoclinic'
loop_
_space_group_symop_operation_xyz
x,y,z
-x,y,1/2-z
-x,-y,-z
x,-y,1/2+z
loop_
_atom_site_type_symbol
_atom_site_label
_atom_site_fract_x
_atom_site_fract_y
_atom_site_fract_z
Si Si1 0.715101 0.350903 0.873096
Si Si2 0.706627 0.341077 0.219122
Si Si3 0.447123 0.205437 0.249704
Si Si4 0.879537 0.417611 0.929676
Si Si5 0.110818 0.594451 0.773151
Si Si6 0.593802 0.831503 0.097197
Si Si7 0.571922 0.500798 0.671366
Si Si8 0.424144 0.982146 0.832498
O O1 0.814374 0.338273 0.506607
O O2 0.736089 0.356420 0.978460
O O3 0.628918 0.279582 0.086992
O O4 0.665474 0.438934 0.952087
O O5 0.668300 0.243636 0.345460
O O6 0.615810 0.407996 0.505104
O O7 0.796280 0.362486 0.078172
O O8 0.500000 0.223058 0.250000
O O9 0.384189 0.114757 0.424726
O O10 0.539777 0.193868 0.888563
O O11 0.882303 0.509773 0.843618
O O12 0.992956 0.380388 0.602099
O O13 0.858625 0.425017 0.151669
O O14 0.500000 0.835047 0.250000
O O15 0.638307 0.929176 0.980714
O O16 0.500000 0.536514 0.750000
O O17 0.500000 0.500000 0.000000
O O18 0.500000 0.974312 0.750000
O O19 0.500000 0.000000 0.500000
#
# Coordination Sequence:
#
# PCOD9227225 Si02
#       8
#     4   4   4   4   4   4   4   4
#     4  12  23  35  52  75 102 139 175 214 254 299
#     4  12  23  35  52  76 100 140 178 209 256 303
#     4  10  20  33  49  78 107 138 175 213 252 303
#     4  10  22  39  57  75  97 128 173 219 266 307
#     4  10  22  39  57  75  97 129 170 223 264 305
#     4  10  18  34  52  73 107 142 172 211 250 305
#     4  12  24  35  45  68 106 144 173 201 238 296
#     4   8  16  30  51  71  99 137 173 210 254 292
#
# _framework density 16.072782
#
# number of rings (size 3 to 8) (size 9 to 14) (size 15 to 20)
#    0.000    1.500    3.750    2.250    3.500    1.500 
#    0.000    0.000    0.000    0.000    0.000    0.875 
#    0.000    0.000    0.000    0.000    0.000    0.000 
#
# Total GULP energy -178316.945055 kJ/mol
# GULP energy per Si atom -5572.404533 kJ/mol
# Density = 1.603620 g / cm^3
# Si number density = 16.072782 Si / 1000 Ang^3
#
#
#
# Elastic Constant Matrix: (Units=GPa)
#
#
# Indices 1 2 3 4 5 6 
#
# 1 114.5010 -2.3305 32.3895 0.0000 17.5245 0.0000
# 2 -2.3305 61.7409 5.0920 0.0000 -4.3418 0.0000
# 3 32.3895 5.0920 67.5415 0.0000 10.3739 0.0000
# 4 0.0000 0.0000 0.0000 5.2040 0.0000 9.9349
# 5 17.5245 -4.3418 10.3739 0.0000 32.5504 0.0000
# 6 0.0000 0.0000 0.0000 9.9349 0.0000 9.8914
#
#
#
# Elastic Compliance Matrix: (Units=1/GPa)
#
#
# Indices 1 2 3 4 5 6 
#
# 1 0.010665 0.000475 -0.004498 0.000000 -0.004245 0.000000
# 2 0.000475 0.016548 -0.001866 0.000000 0.002546 0.000000
# 3 -0.004498 -0.001866 0.017633 0.000000 -0.003447 0.000000
# 4 0.000000 0.000000 0.000000 -0.209448 0.000000 0.210367
# 5 -0.004245 0.002546 -0.003447 0.000000 0.034445 0.000000
# 6 0.000000 0.000000 0.000000 0.210367 0.000000 -0.110193
#
#
# Mechanical properties :
#
#
# Convention : Reuss Voigt Hill
#
# Bulk Modulus (GPa) = 30.24209 34.89838 32.57023
# Shear Modulus (GPa) = -22.98341 23.43801 0.22730
#
# Velocity S-wave (km/s) = -3.78558 3.82284 0.37647
# Velocity P-wave (km/s) = 0.50094 6.42225 4.52738
#
# Compressibility (1/GPa) = 0.03306650
#
# Stress axis : x y z
#
# Youngs Moduli (GPa) = 93.76116 60.43158 56.71174
#
# Poissons Ratio (x) = -0.02871 0.25511
# Poissons Ratio (y) = -0.04454 0.10585
# Poissons Ratio (z) = 0.42177 0.11279
#
# Static dielectric constant tensor:
#      x y z
#    x 1.553500 0.000000 0.015080 
#    y 0.000000 1.590070 0.000000 
#    z 0.015080 0.000000 1.588740 
# 
# From -- ./inp_files/24745.got.cif
#   From: 2010.05.17/outbox.cif.g08.bks.cpg/sg13_13_cif.got.tgz:24745.got - 2010.06.03 16:44:36.
