data_PCOD9227917
_publ_section_title
;
Structure prediction by ZEFSAII (Michael W. Deem and Ramdas Pophale) SiO2 
 PCOD9227917
Probable space group: P 2/C
;
_chemical_formula_sum "Si O2"
_cell_formula_units_Z 24
_cell_length_a 20.285934
_cell_length_b 5.687091
_cell_length_c 18.285728
_cell_angle_alpha 90.000000
_cell_angle_beta 27.233408
_cell_angle_gamma 90.000000
_cell_volume 965.381715
_symmetry_space_group_name_H-M "P 2/C"
_symmetry_group_IT_number 13
_symmetry_cell_setting 'monoclinic'
loop_
_space_group_symop_operation_xyz
x,y,z
-x,y,1/2-z
-x,-y,-z
x,-y,1/2+z
loop_
_atom_site_type_symbol
_atom_site_label
_atom_site_fract_x
_atom_site_fract_y
_atom_site_fract_z
Si Si1 0.608554 0.805961 0.237957
Si Si2 0.024632 0.895101 0.812408
Si Si3 0.722193 0.418210 0.771040
Si Si4 0.540668 0.192188 0.399375
Si Si5 0.058396 0.601832 0.322058
Si Si6 0.707311 0.671627 0.983798
O O1 0.691189 0.733080 0.229641
O O2 0.696300 0.750287 0.078894
O O3 0.457080 0.670311 0.379256
O O4 0.562593 0.074992 0.298993
O O5 0.980611 0.151921 0.883364
O O6 0.000000 0.885016 0.750000
O O7 0.974389 0.645605 0.896108
O O8 0.198918 0.869141 0.651814
O O9 0.686904 0.680679 0.779470
O O10 0.867376 0.386334 0.672123
O O11 0.595149 0.361761 0.954763
O O12 0.500000 0.000000 0.500000
O O13 0.189447 0.552734 0.133610
#
# Coordination Sequence:
#
# PCOD9227917 Si02
#       6
#     4   4   4   4   4   4
#     4  10  19  34  52  87 127 153 184 229 296 359
#     4  10  22  40  62  84 109 149 204 253 284 333
#     4  10  19  30  52  85 116 154 190 235 284 351
#     4   9  17  27  47  71 116 151 179 219 268 339
#     4  10  21  36  62  86 110 149 197 242 291 334
#     4   9  21  34  56  87 117 160 191 234 290 355
#
# _framework density 24.860631000000001
#
# number of rings (size 3 to 8) (size 9 to 14) (size 15 to 20)
#    1.000    1.333    0.000    4.500    4.667    1.333 
#    0.000    3.333    0.000    2.000    0.000    0.000 
#    0.000    0.000    0.000    0.000    0.000    0.000 
#
# Total GULP energy -133824.279562 kJ/mol
# GULP energy per Si atom -5576.011648 kJ/mol
# Density = 2.480405 g / cm^3
# Si number density = 24.860631 Si / 1000 Ang^3
#
#
#
# Elastic Constant Matrix: (Units=GPa)
#
#
# Indices 1 2 3 4 5 6 
#
# 1 107.5754 23.0505 1.3288 0.0000 8.1202 0.0000
# 2 23.0505 131.0495 -6.2729 0.0000 5.3688 0.0000
# 3 1.3288 -6.2729 83.1294 0.0000 1.8962 0.0000
# 4 0.0000 0.0000 0.0000 -17.8996 0.0000 -2.1338
# 5 8.1202 5.3688 1.8962 0.0000 30.1768 0.0000
# 6 0.0000 0.0000 0.0000 -2.1338 0.0000 32.3703
#
#
#
# Elastic Compliance Matrix: (Units=1/GPa)
#
#
# Indices 1 2 3 4 5 6 
#
# 1 0.009827 -0.001644 -0.000228 0.000000 -0.002338 0.000000
# 2 -0.001644 0.007993 0.000653 0.000000 -0.001021 0.000000
# 3 -0.000228 0.000653 0.012101 0.000000 -0.000815 0.000000
# 4 0.000000 0.000000 0.000000 -0.055432 0.000000 -0.003654
# 5 -0.002338 -0.001021 -0.000815 0.000000 0.034000 0.000000
# 6 0.000000 0.000000 0.000000 -0.003654 0.000000 0.030652
#
#
# Mechanical properties :
#
#
# Convention : Reuss Voigt Hill
#
# Bulk Modulus (GPa) = 36.38541 39.77411 38.07976
# Shear Modulus (GPa) = 98.54206 29.17270 63.85738
#
# Velocity S-wave (km/s) = 6.30269 3.42928 5.07365
# Velocity P-wave (km/s) = 8.22391 5.63148 7.04791
#
# Compressibility (1/GPa) = 0.02748354
#
# Stress axis : x y z
#
# Youngs Moduli (GPa) = 101.75766 125.11147 82.63829
#
# Poissons Ratio (x) = 0.20564 0.01882
# Poissons Ratio (y) = 0.16726 -0.05394
# Poissons Ratio (z) = 0.02318 -0.08166
#
# Static dielectric constant tensor:
#      x y z
#    x 2.093780 0.000000 0.003090 
#    y 0.000000 2.072120 0.000000 
#    z 0.003090 0.000000 2.007940 
# 
# From -- ./inp_files/81169.got.cif
#   From: 2010.05.17/outbox.cif.g08.bks.cpg/sg13_41_cif.got.tgz:81169.got - 2010.06.03 16:44:36.
