data_PCOD9227624
_publ_section_title
;
Structure prediction by ZEFSAII (Michael W. Deem and Ramdas Pophale) SiO2 
 PCOD9227624
Probable space group: P 2/C
;
_chemical_formula_sum "Si O2"
_cell_formula_units_Z 24
_cell_length_a 7.904759
_cell_length_b 9.386808
_cell_length_c 18.092664
_cell_angle_alpha 90.000000
_cell_angle_beta 115.819048
_cell_angle_gamma 90.000000
_cell_volume 1208.469142
_symmetry_space_group_name_H-M "P 2/C"
_symmetry_group_IT_number 13
_symmetry_cell_setting 'monoclinic'
loop_
_space_group_symop_operation_xyz
x,y,z
-x,y,1/2-z
-x,-y,-z
x,-y,1/2+z
loop_
_atom_site_type_symbol
_atom_site_label
_atom_site_fract_x
_atom_site_fract_y
_atom_site_fract_z
Si Si1 0.326600 0.410634 0.499240
Si Si2 0.202131 0.181201 0.570952
Si Si3 0.997298 0.926686 0.334814
Si Si4 0.327762 0.916834 0.502718
Si Si5 0.010484 0.272418 0.338479
Si Si6 0.187072 0.676628 0.558360
O O1 0.500000 0.500000 0.500000
O O2 0.359728 0.286003 0.566669
O O3 0.200730 0.336512 0.411299
O O4 0.209694 0.527801 0.522463
O O5 0.172163 0.144937 0.651150
O O6 0.005982 0.249602 0.506109
O O7 0.226533 0.031303 0.535524
O O8 0.188727 0.876075 0.410062
O O9 0.000000 0.889665 0.250000
O O10 0.999490 0.099634 0.342085
O O11 0.353083 0.779341 0.559525
O O12 0.500000 0.000000 0.500000
O O13 0.000000 0.309263 0.250000
O O14 0.842444 0.330080 0.359219
#
# Coordination Sequence:
#
# PCOD9227624 Si02
#       6
#     4   4   4   4   4   4
#     4  11  22  36  58  88 116 150 193 236 286 345
#     4  10  18  37  57  81 112 152 196 228 276 350
#     4  10  19  35  60  86 113 149 196 244 283 336
#     4  11  19  33  58  84 113 147 191 237 283 332
#     4  10  19  36  61  84 113 149 198 237 285 342
#     4  10  19  35  57  83 107 156 194 223 280 351
#
# _framework density 19.859835
#
# number of rings (size 3 to 8) (size 9 to 14) (size 15 to 20)
#    0.000    1.667    5.000    4.000    0.000    0.000 
#    0.000    9.167    0.000    4.000    0.000    0.000 
#    0.000    0.000    0.000    0.000    0.000    0.000 
#
# Total GULP energy -133714.312344 kJ/mol
# GULP energy per Si atom -5571.429681 kJ/mol
# Density = 1.981463 g / cm^3
# Si number density = 19.859835 Si / 1000 Ang^3
#
#
#
# Elastic Constant Matrix: (Units=GPa)
#
#
# Indices 1 2 3 4 5 6 
#
# 1 99.0232 32.7258 54.8165 0.0000 -33.7827 0.0000
# 2 32.7258 102.1440 35.2256 0.0000 -20.2642 0.0000
# 3 54.8165 35.2256 129.1586 0.0000 -54.6752 0.0000
# 4 0.0000 0.0000 0.0000 21.6174 0.0000 -13.9062
# 5 -33.7827 -20.2642 -54.6752 0.0000 31.3335 0.0000
# 6 0.0000 0.0000 0.0000 -13.9062 0.0000 52.1981
#
#
#
# Elastic Compliance Matrix: (Units=1/GPa)
#
#
# Indices 1 2 3 4 5 6 
#
# 1 0.016456 -0.002007 0.002007 0.000000 0.019945 0.000000
# 2 -0.002007 0.011476 -0.000200 0.000000 0.004908 0.000000
# 3 0.002007 -0.000200 0.029871 0.000000 0.054158 0.000000
# 4 0.000000 0.000000 0.000000 0.055827 0.000000 0.014873
# 5 0.019945 0.004908 0.054158 0.000000 0.151096 0.000000
# 6 0.000000 0.000000 0.000000 0.014873 0.000000 0.023120
#
#
# Mechanical properties :
#
#
# Convention : Reuss Voigt Hill
#
# Bulk Modulus (GPa) = 17.42113 63.98460 40.70286
# Shear Modulus (GPa) = 16.26647 34.86700 25.56674
#
# Velocity S-wave (km/s) = 2.86503 4.19460 3.59187
# Velocity P-wave (km/s) = 4.44248 7.46643 6.14342
#
# Compressibility (1/GPa) = 0.05740157
#
# Stress axis : x y z
#
# Youngs Moduli (GPa) = 60.76901 87.13824 33.47698
#
# Poissons Ratio (x) = 0.17491 -0.06718
# Poissons Ratio (y) = 0.12198 0.00670
# Poissons Ratio (z) = -0.12194 0.01743
#
# Static dielectric constant tensor:
#      x y z
#    x 1.807390 0.000000 -0.032020 
#    y 0.000000 1.738370 0.000000 
#    z -0.032020 0.000000 1.701090 
# 
# From -- ./inp_files/63460.got.cif
#   From: 2010.05.17/outbox.cif.g08.bks.cpg/sg13_32_cif.got.tgz:63460.got - 2010.06.03 16:44:36.
