data_PCOD9227912
_publ_section_title
;
Structure prediction by ZEFSAII (Michael W. Deem and Ramdas Pophale) SiO2 
 PCOD9227912
Probable space group: P 2/C
;
_chemical_formula_sum "Si O2"
_cell_formula_units_Z 28
_cell_length_a 21.615967
_cell_length_b 11.557296
_cell_length_c 20.158063
_cell_angle_alpha 90.000000
_cell_angle_beta 160.488365
_cell_angle_gamma 90.000000
_cell_volume 1681.991998
_symmetry_space_group_name_H-M "P 2/C"
_symmetry_group_IT_number 13
_symmetry_cell_setting 'monoclinic'
loop_
_space_group_symop_operation_xyz
x,y,z
-x,y,1/2-z
-x,-y,-z
x,-y,1/2+z
loop_
_atom_site_type_symbol
_atom_site_label
_atom_site_fract_x
_atom_site_fract_y
_atom_site_fract_z
Si Si1 0.935654 0.509869 0.511058
Si Si2 0.236590 0.324965 0.342589
Si Si3 0.218516 0.268563 0.166457
Si Si4 0.571369 0.877075 0.044085
Si Si5 0.338918 0.278981 0.737697
Si Si6 0.029080 0.142453 0.356212
Si Si7 0.046905 0.058524 0.618515
O O1 0.832851 0.388795 0.421101
O O2 0.786886 0.611633 0.369986
O O3 0.000000 0.500000 0.500000
O O4 0.122583 0.554987 0.736723
O O5 0.213941 0.290850 0.241650
O O6 0.456331 0.320248 0.576471
O O7 0.129718 0.229395 0.277375
O O8 0.413137 0.203118 0.351844
O O9 0.063779 0.176919 0.991299
O O10 0.644099 0.802970 0.180392
O O11 0.737219 0.910706 0.163270
O O12 0.500000 0.000000 0.000000
O O13 0.224227 0.206153 0.567836
O O14 0.000000 0.118604 0.250000
O O15 0.013160 0.028838 0.385149
O O16 0.000000 0.000000 0.500000
#
# Coordination Sequence:
#
# PCOD9227912 Si02
#       7
#     4   4   4   4   4   4   4
#     4   9  18  30  47  78 110 135 167 216 266 320
#     4   9  18  33  52  76 106 138 173 217 273 331
#     4  10  19  30  51  80 108 134 173 220 268 320
#     4  11  18  28  50  76 102 138 177 215 266 322
#     4  10  19  33  52  74 108 141 173 218 276 328
#     4  11  22  35  52  78 106 138 182 230 274 325
#     4  12  18  33  53  72 105 144 178 220 271 325
#
# _framework density 16.646929
#
# number of rings (size 3 to 8) (size 9 to 14) (size 15 to 20)
#    0.000    1.714    4.286    2.571    0.000    6.857 
#    0.000    0.000    0.000    3.429    0.000    4.000 
#    0.000    0.000    0.000    0.000    0.000    0.000 
#
# Total GULP energy -156036.343608 kJ/mol
# GULP energy per Si atom -5572.726557 kJ/mol
# Density = 1.660904 g / cm^3
# Si number density = 16.646929 Si / 1000 Ang^3
#
#
#
# Elastic Constant Matrix: (Units=GPa)
#
#
# Indices 1 2 3 4 5 6 
#
# 1 44.7579 31.6828 44.7550 0.0000 2.5591 0.0000
# 2 31.6828 140.1017 66.0863 0.0000 6.2359 0.0000
# 3 44.7550 66.0863 116.3496 0.0000 27.2271 0.0000
# 4 0.0000 0.0000 0.0000 25.8595 0.0000 6.7831
# 5 2.5591 6.2359 27.2271 0.0000 26.4574 0.0000
# 6 0.0000 0.0000 0.0000 6.7831 0.0000 15.1630
#
#
#
# Elastic Compliance Matrix: (Units=1/GPa)
#
#
# Indices 1 2 3 4 5 6 
#
# 1 0.041061 -0.001097 -0.018840 0.000000 0.015675 0.000000
# 2 -0.001097 0.010200 -0.006367 0.000000 0.004255 0.000000
# 3 -0.018840 -0.006367 0.024606 0.000000 -0.021999 0.000000
# 4 0.000000 0.000000 0.000000 0.043811 0.000000 -0.019599
# 5 0.015675 0.004255 -0.021999 0.000000 0.057917 0.000000
# 6 0.000000 0.000000 0.000000 -0.019599 0.000000 0.074718
#
#
# Mechanical properties :
#
#
# Convention : Reuss Voigt Hill
#
# Bulk Modulus (GPa) = 42.99222 65.13969 54.06596
# Shear Modulus (GPa) = 15.99115 24.07499 20.03307
#
# Velocity S-wave (km/s) = 3.10273 3.80704 3.47278
# Velocity P-wave (km/s) = 6.22237 7.65113 6.97344
#
# Compressibility (1/GPa) = 0.02326002
#
# Stress axis : x y z
#
# Youngs Moduli (GPa) = 24.35410 98.04203 40.64011
#
# Poissons Ratio (x) = 0.10750 0.76565
# Poissons Ratio (y) = 0.02670 0.25876
# Poissons Ratio (z) = 0.45882 0.62426
#
# Static dielectric constant tensor:
#      x y z
#    x 1.517960 0.000000 0.017730 
#    y 0.000000 1.578530 0.000000 
#    z 0.017730 0.000000 1.579920 
# 
# From -- ./inp_files/70674.got.cif
#   From: 2010.05.17/outbox.cif.g08.bks.cpg/sg13_36_cif.got.tgz:70674.got - 2010.06.03 16:44:36.
