data_PCOD9227360
_publ_section_title
;
Structure prediction by ZEFSAII (Michael W. Deem and Ramdas Pophale) SiO2 
 PCOD9227360
Probable space group: P 2/C
;
_chemical_formula_sum "Si O2"
_cell_formula_units_Z 22
_cell_length_a 12.481969
_cell_length_b 7.127454
_cell_length_c 13.852121
_cell_angle_alpha 90.000000
_cell_angle_beta 77.460283
_cell_angle_gamma 90.000000
_cell_volume 1202.952452
_symmetry_space_group_name_H-M "P 2/C"
_symmetry_group_IT_number 13
_symmetry_cell_setting 'monoclinic'
loop_
_space_group_symop_operation_xyz
x,y,z
-x,y,1/2-z
-x,-y,-z
x,-y,1/2+z
loop_
_atom_site_type_symbol
_atom_site_label
_atom_site_fract_x
_atom_site_fract_y
_atom_site_fract_z
Si Si1 0.996037 0.712348 0.964866
Si Si2 0.000000 0.141565 0.250000
Si Si3 0.240423 0.274219 0.418219
Si Si4 0.237645 0.001588 0.242366
Si Si5 0.238913 0.275858 0.909267
Si Si6 0.630354 0.996844 0.979915
O O1 0.115822 0.785917 0.971997
O O2 0.991282 0.737320 0.850022
O O3 0.000000 0.500000 0.000000
O O4 0.883815 0.785903 0.033001
O O5 0.110496 0.020237 0.236284
O O6 0.259334 0.174265 0.311576
O O7 0.246489 0.499041 0.410517
O O8 0.324156 0.183453 0.476538
O O9 0.315165 0.013622 0.135561
O O10 0.323727 0.175841 0.964916
O O11 0.255535 0.186764 0.800699
O O12 0.500000 0.000000 0.000000
#
# Coordination Sequence:
#
# PCOD9227360 Si02
#       6
#     4   2   4   4   4   4
#     4   9  18  36  58  90 124 151 189 242 301 355
#     4  10  18  34  62  88 120 160 190 238 306 356
#     4   9  22  39  59  89 120 153 193 245 296 350
#     4  10  22  37  61  89 116 155 202 237 298 352
#     4  10  21  40  60  86 124 151 191 254 292 345
#     4  11  24  41  60  84 119 161 200 239 289 354
#
# _framework density 18.288336000000001
#
# number of rings (size 3 to 8) (size 9 to 14) (size 15 to 20)
#    0.000    2.182    1.818    0.000    2.545    7.273 
#    9.818    2.727    0.000    0.000    0.000    0.000 
#    0.000    0.000    0.000    0.000    0.000    0.000 
#
# Total GULP energy -122703.633920 kJ/mol
# GULP energy per Si atom -5577.437905 kJ/mol
# Density = 1.824671 g / cm^3
# Si number density = 18.288336 Si / 1000 Ang^3
#
#
#
# Elastic Constant Matrix: (Units=GPa)
#
#
# Indices 1 2 3 4 5 6 
#
# 1 166.7159 53.5627 69.5527 0.0000 -6.7917 0.0000
# 2 53.5627 141.4294 29.4538 0.0000 2.0140 0.0000
# 3 69.5527 29.4538 100.0498 0.0000 -9.4682 0.0000
# 4 0.0000 0.0000 0.0000 -15.9524 0.0000 24.8597
# 5 -6.7917 2.0140 -9.4682 0.0000 19.3936 0.0000
# 6 0.0000 0.0000 0.0000 24.8597 0.0000 0.8614
#
#
#
# Elastic Compliance Matrix: (Units=1/GPa)
#
#
# Indices 1 2 3 4 5 6 
#
# 1 0.009090 -0.002291 -0.005579 0.000000 0.000698 0.000000
# 2 -0.002291 0.008181 -0.001019 0.000000 -0.002149 0.000000
# 3 -0.005579 -0.001019 0.014677 0.000000 0.005317 0.000000
# 4 0.000000 0.000000 0.000000 -0.001364 0.000000 0.039351
# 5 0.000698 -0.002149 0.005317 0.000000 0.054627 0.000000
# 6 0.000000 0.000000 0.000000 0.039351 0.000000 0.025251
#
#
# Mechanical properties :
#
#
# Convention : Reuss Voigt Hill
#
# Bulk Modulus (GPa) = 70.57218 79.25926 74.91572
# Shear Modulus (GPa) = 37.60423 17.90225 27.75324
#
# Velocity S-wave (km/s) = 4.53944 3.13211 3.89979
# Velocity P-wave (km/s) = 8.13313 7.51751 7.83137
#
# Compressibility (1/GPa) = 0.01416989
#
# Stress axis : x y z
#
# Youngs Moduli (GPa) = 110.01009 122.23262 68.13539
#
# Poissons Ratio (x) = 0.28000 0.38012
# Poissons Ratio (y) = 0.25200 0.06946
# Poissons Ratio (z) = 0.61373 0.12460
#
# Static dielectric constant tensor:
#      x y z
#    x 1.632850 0.000000 -0.003640 
#    y 0.000000 1.625080 0.000000 
#    z -0.003640 0.000000 1.613090 
# 
# From -- ./inp_files/32525.got.cif
#   From: 2010.05.17/outbox.cif.g08.bks.cpg/sg13_17_cif.got.tgz:32525.got - 2010.06.03 16:44:36.
