data_PCOD9227111
_publ_section_title
;
Structure prediction by ZEFSAII (Michael W. Deem and Ramdas Pophale) SiO2 
 PCOD9227111
Probable space group: P 2/C
;
_chemical_formula_sum "Si O2"
_cell_formula_units_Z 32
_cell_length_a 17.465109
_cell_length_b 15.917227
_cell_length_c 5.701041
_cell_angle_alpha 90.000000
_cell_angle_beta 89.945923
_cell_angle_gamma 90.000000
_cell_volume 1584.866484
_symmetry_space_group_name_H-M "P 2/C"
_symmetry_group_IT_number 13
_symmetry_cell_setting 'monoclinic'
loop_
_space_group_symop_operation_xyz
x,y,z
-x,y,1/2-z
-x,-y,-z
x,-y,1/2+z
loop_
_atom_site_type_symbol
_atom_site_label
_atom_site_fract_x
_atom_site_fract_y
_atom_site_fract_z
Si Si1 0.743059 0.117392 0.182562
Si Si2 0.421075 0.047056 0.193630
Si Si3 0.896948 0.538641 0.370489
Si Si4 0.075903 0.292454 0.395886
Si Si5 0.825528 0.814535 0.293516
Si Si6 0.882856 0.982984 0.149851
Si Si7 0.781927 0.703338 0.915583
Si Si8 0.719475 0.476513 0.371951
O O1 0.661169 0.088035 0.267147
O O2 0.807155 0.042892 0.191693
O O3 0.758072 0.206753 0.308862
O O4 0.751703 0.143056 0.910663
O O5 0.500000 0.097006 0.250000
O O6 0.423737 0.982112 0.419440
O O7 0.922008 0.508407 0.111931
O O8 0.925484 0.633072 0.416211
O O9 0.803799 0.523334 0.368644
O O10 0.109710 0.209376 0.517631
O O11 0.139560 0.321761 0.210222
O O12 0.000000 0.277722 0.250000
O O13 0.860688 0.884951 0.126647
O O14 0.799906 0.727898 0.180506
O O15 0.920625 0.989629 0.406409
O O16 0.729188 0.623895 0.883846
O O17 0.683198 0.497384 0.120327
#
# Coordination Sequence:
#
# PCOD9227111 Si02
#       8
#     4   4   4   4   4   4   4   4
#     4  10  21  33  57  86 113 146 192 232 263 330
#     4  10  21  36  57  88 130 167 191 220 270 330
#     4  10  19  36  54  74 102 137 173 220 278 362
#     4  11  24  37  52  77 106 140 185 239 299 354
#     4  10  21  35  54  77 108 141 187 238 281 329
#     4  10  18  33  53  79 100 132 174 223 261 306
#     4  11  21  36  56  80 105 145 190 236 288 336
#     4  10  19  34  54  74 109 140 172 228 285 348
#
# _framework density 20.190975999999999
#
# number of rings (size 3 to 8) (size 9 to 14) (size 15 to 20)
#    0.000    1.750    3.750    3.000    3.500    1.000 
#    0.000    0.000    0.000    6.750    0.000    0.000 
#    0.000    1.000    0.000    0.125    0.000    0.000 
#
# Total GULP energy -178219.758602 kJ/mol
# GULP energy per Si atom -5569.367456 kJ/mol
# Density = 2.014502 g / cm^3
# Si number density = 20.190976 Si / 1000 Ang^3
#
#
#
# Elastic Constant Matrix: (Units=GPa)
#
#
# Indices 1 2 3 4 5 6 
#
# 1 35.2140 -0.1544 1.4365 0.0000 3.4143 0.0000
# 2 -0.1544 77.5751 10.5954 0.0000 5.7057 0.0000
# 3 1.4365 10.5954 115.9922 0.0000 -5.1856 0.0000
# 4 0.0000 0.0000 0.0000 28.9590 0.0000 -3.0990
# 5 3.4143 5.7057 -5.1856 0.0000 9.2133 0.0000
# 6 0.0000 0.0000 0.0000 -3.0990 0.0000 10.9543
#
#
#
# Elastic Compliance Matrix: (Units=1/GPa)
#
#
# Indices 1 2 3 4 5 6 
#
# 1 0.029630 0.001097 -0.001014 0.000000 -0.012231 0.000000
# 2 0.001097 0.013861 -0.001725 0.000000 -0.009962 0.000000
# 3 -0.001014 -0.001725 0.009085 0.000000 0.006557 0.000000
# 4 0.000000 0.000000 0.000000 0.035610 0.000000 0.010074
# 5 -0.012231 -0.009962 0.006557 0.000000 0.122931 0.000000
# 6 0.000000 0.000000 0.000000 0.010074 0.000000 0.094139
#
#
# Mechanical properties :
#
#
# Convention : Reuss Voigt Hill
#
# Bulk Modulus (GPa) = 20.28745 28.05961 24.17353
# Shear Modulus (GPa) = 15.38607 24.28557 19.83582
#
# Velocity S-wave (km/s) = 2.76348 3.47189 3.13774
# Velocity P-wave (km/s) = 4.50022 5.47716 5.01255
#
# Compressibility (1/GPa) = 0.04929155
#
# Stress axis : x y z
#
# Youngs Moduli (GPa) = 33.74976 72.14372 110.07688
#
# Poissons Ratio (x) = -0.07914 0.11161
# Poissons Ratio (y) = -0.03702 0.18989
# Poissons Ratio (z) = 0.03422 0.12446
#
# Static dielectric constant tensor:
#      x y z
#    x 1.707630 0.000000 0.012160 
#    y 0.000000 1.739290 0.000000 
#    z 0.012160 0.000000 1.856680 
# 
# From -- ./inp_files/6267.got.cif
#   From: 2010.05.17/outbox.cif.g08.bks.cpg/sg13_4_cif.got.tgz:6267.got - 2010.06.03 16:44:36.
