data_PCOD9227201
_publ_section_title
;
Structure prediction by ZEFSAII (Michael W. Deem and Ramdas Pophale) SiO2 
 PCOD9227201
Probable space group: P 2/C
;
_chemical_formula_sum "Si O2"
_cell_formula_units_Z 26
_cell_length_a 8.629604
_cell_length_b 21.361028
_cell_length_c 8.581747
_cell_angle_alpha 90.000000
_cell_angle_beta 128.851010
_cell_angle_gamma 90.000000
_cell_volume 1231.979266
_symmetry_space_group_name_H-M "P 2/C"
_symmetry_group_IT_number 13
_symmetry_cell_setting 'monoclinic'
loop_
_space_group_symop_operation_xyz
x,y,z
-x,y,1/2-z
-x,-y,-z
x,-y,1/2+z
loop_
_atom_site_type_symbol
_atom_site_label
_atom_site_fract_x
_atom_site_fract_y
_atom_site_fract_z
Si Si1 0.707376 0.334554 0.485935
Si Si2 0.504140 0.569927 0.067249
Si Si3 0.803991 0.327738 0.221412
Si Si4 0.500000 0.021398 0.250000
Si Si5 0.771109 0.935482 0.638045
Si Si6 0.218369 0.195676 0.931441
Si Si7 0.649670 0.191114 0.125262
O O1 0.500000 0.329017 0.250000
O O2 0.676907 0.390492 0.586935
O O3 0.857161 0.338739 0.436411
O O4 0.762253 0.269213 0.598690
O O5 0.500000 0.568319 0.250000
O O6 0.500000 0.500000 0.000000
O O7 0.312478 0.610595 0.901368
O O8 0.677695 0.264350 0.103589
O O9 0.000000 0.319234 0.250000
O O10 0.337807 0.056812 0.259854
O O11 0.634734 0.977672 0.443032
O O12 0.759356 0.861206 0.594468
O O13 0.000000 0.954633 0.750000
O O14 0.000000 0.171708 0.750000
O O15 0.418740 0.169446 0.980663
O O16 0.259473 0.190592 0.142029
#
# Coordination Sequence:
#
# PCOD9227201 Si02
#       7
#     4   4   4   2   4   4   4
#     4   9  17  38  58  80 121 163 202 259 322 375
#     4  11  22  39  62  85 119 165 207 261 317 378
#     4  10  20  39  62  88 126 166 201 263 331 379
#     4  10  24  44  66  98 134 172 228 270 318 394
#     4  11  23  43  69  96 133 180 220 272 331 387
#     4  10  18  33  61  91 126 174 209 257 332 385
#     4  10  20  39  59  95 136 165 212 274 320 383
#
# _framework density 21.104251999999999
#
# number of rings (size 3 to 8) (size 9 to 14) (size 15 to 20)
#    0.000    1.846    4.615    3.231    0.000    3.692 
#    1.385    7.692    0.000    0.000    0.000    0.000 
#    0.000    0.000    0.000    0.000    0.000    0.000 
#
# Total GULP energy -144795.634215 kJ/mol
# GULP energy per Si atom -5569.062854 kJ/mol
# Density = 2.105622 g / cm^3
# Si number density = 21.104252 Si / 1000 Ang^3
#
#
#
# Elastic Constant Matrix: (Units=GPa)
#
#
# Indices 1 2 3 4 5 6 
#
# 1 133.0943 19.8601 40.3693 0.0000 10.4203 0.0000
# 2 19.8601 111.1109 22.3084 0.0000 -2.0155 0.0000
# 3 40.3693 22.3084 57.6805 0.0000 19.2464 0.0000
# 4 0.0000 0.0000 0.0000 19.9222 0.0000 -13.8312
# 5 10.4203 -2.0155 19.2464 0.0000 41.9308 0.0000
# 6 0.0000 0.0000 0.0000 -13.8312 0.0000 62.2331
#
#
#
# Elastic Compliance Matrix: (Units=1/GPa)
#
#
# Indices 1 2 3 4 5 6 
#
# 1 0.009573 -0.000329 -0.006818 0.000000 0.000735 0.000000
# 2 -0.000329 0.010015 -0.004524 0.000000 0.002640 0.000000
# 3 -0.006818 -0.004524 0.027591 0.000000 -0.011188 0.000000
# 4 0.000000 0.000000 0.000000 0.059353 0.000000 0.013191
# 5 0.000735 0.002640 -0.011188 0.000000 0.028928 0.000000
# 6 0.000000 0.000000 0.000000 0.013191 0.000000 0.019000
#
#
# Mechanical properties :
#
#
# Convention : Reuss Voigt Hill
#
# Bulk Modulus (GPa) = 41.95023 51.88460 46.91741
# Shear Modulus (GPa) = 26.91813 39.44040 33.17927
#
# Velocity S-wave (km/s) = 3.57527 4.32769 3.96935
# Velocity P-wave (km/s) = 6.07981 7.04345 6.57930
#
# Compressibility (1/GPa) = 0.02383777
#
# Stress axis : x y z
#
# Youngs Moduli (GPa) = 104.46081 99.85034 36.24349
#
# Poissons Ratio (x) = 0.03284 0.24710
# Poissons Ratio (y) = 0.03436 0.16396
# Poissons Ratio (z) = 0.71219 0.45172
#
# Static dielectric constant tensor:
#      x y z
#    x 1.903730 0.000000 0.010640 
#    y 0.000000 1.760840 0.000000 
#    z 0.010640 0.000000 1.811930 
# 
# From -- ./inp_files/13687.got.cif
#   From: 2010.05.17/outbox.cif.g08.bks.cpg/sg13_7_cif.got.tgz:13687.got - 2010.06.03 16:44:36.
