data_PCOD9227536
_publ_section_title
;
Structure prediction by ZEFSAII (Michael W. Deem and Ramdas Pophale) SiO2 
 PCOD9227536
Probable space group: P 2/C
;
_chemical_formula_sum "Si O2"
_cell_formula_units_Z 26
_cell_length_a 11.493928
_cell_length_b 6.999472
_cell_length_c 15.965342
_cell_angle_alpha 90.000000
_cell_angle_beta 112.257952
_cell_angle_gamma 90.000000
_cell_volume 1188.728689
_symmetry_space_group_name_H-M "P 2/C"
_symmetry_group_IT_number 13
_symmetry_cell_setting 'monoclinic'
loop_
_space_group_symop_operation_xyz
x,y,z
-x,y,1/2-z
-x,-y,-z
x,-y,1/2+z
loop_
_atom_site_type_symbol
_atom_site_label
_atom_site_fract_x
_atom_site_fract_y
_atom_site_fract_z
Si Si1 0.647696 0.479800 0.539836
Si Si2 0.687985 0.857244 0.362185
Si Si3 0.251341 0.110762 0.393725
Si Si4 0.415609 0.829022 0.350032
Si Si5 0.000000 0.967700 0.250000
Si Si6 0.965426 0.816919 0.429772
Si Si7 0.774498 0.793587 0.964646
O O1 0.500000 0.500000 0.500000
O O2 0.723843 0.671912 0.575403
O O3 0.662604 0.327248 0.618957
O O4 0.681326 0.372080 0.463944
O O5 0.567947 0.818581 0.389871
O O6 0.633906 0.812451 0.256944
O O7 0.823328 0.756745 0.411210
O O8 0.728957 0.082586 0.373916
O O9 0.372509 0.030076 0.377660
O O10 0.232818 0.964951 0.466997
O O11 0.125631 0.086865 0.304507
O O12 0.973381 0.857651 0.331385
O O13 0.088162 0.698976 0.489377
O O14 0.000000 0.000000 0.500000
#
# Coordination Sequence:
#
# PCOD9227536 Si02
#       7
#     4   4   4   4   2   4   4
#     4  11  22  38  59  90 121 154 204 249 297 365
#     4  10  18  36  59  84 119 153 197 248 291 360
#     4  10  20  38  59  86 119 153 199 252 298 361
#     4  10  21  36  60  87 114 162 197 234 311 347
#     4  10  18  36  60  90 120 158 204 250 306 360
#     4   9  18  34  63  89 117 156 203 247 301 360
#     4   9  20  37  62  87 111 161 199 243 308 353
#
# _framework density 21.872108000000001
#
# number of rings (size 3 to 8) (size 9 to 14) (size 15 to 20)
#    0.000    2.154    1.538    1.846    0.000    2.462 
#    2.769    7.692    0.000   11.077    0.000    0.000 
#    0.000    0.000    0.000    0.000    0.000    0.000 
#
# Total GULP energy -144818.669312 kJ/mol
# GULP energy per Si atom -5569.948820 kJ/mol
# Density = 2.182233 g / cm^3
# Si number density = 21.872108 Si / 1000 Ang^3
#
#
#
# Elastic Constant Matrix: (Units=GPa)
#
#
# Indices 1 2 3 4 5 6 
#
# 1 123.9252 12.5231 11.7753 0.0000 21.6504 0.0000
# 2 12.5231 67.7663 0.7119 0.0000 2.4829 0.0000
# 3 11.7753 0.7119 61.8254 0.0000 8.3105 0.0000
# 4 0.0000 0.0000 0.0000 10.6902 0.0000 2.5236
# 5 21.6504 2.4829 8.3105 0.0000 46.1464 0.0000
# 6 0.0000 0.0000 0.0000 2.5236 0.0000 33.7014
#
#
#
# Elastic Compliance Matrix: (Units=1/GPa)
#
#
# Indices 1 2 3 4 5 6 
#
# 1 0.009022 -0.001511 -0.001171 0.000000 -0.003941 0.000000
# 2 -0.001511 0.015039 0.000131 0.000000 -0.000124 0.000000
# 3 -0.001171 0.000131 0.016728 0.000000 -0.002470 0.000000
# 4 0.000000 0.000000 0.000000 0.095227 0.000000 -0.007131
# 5 -0.003941 -0.000124 -0.002470 0.000000 0.023970 0.000000
# 6 0.000000 0.000000 0.000000 -0.007131 0.000000 0.030206
#
#
# Mechanical properties :
#
#
# Convention : Reuss Voigt Hill
#
# Bulk Modulus (GPa) = 28.02082 33.72641 30.87362
# Shear Modulus (GPa) = 24.13245 33.34135 28.73690
#
# Velocity S-wave (km/s) = 3.32527 3.90856 3.62865
# Velocity P-wave (km/s) = 5.25188 5.98519 5.63048
#
# Compressibility (1/GPa) = 0.03568775
#
# Stress axis : x y z
#
# Youngs Moduli (GPa) = 110.84325 66.49414 59.77941
#
# Poissons Ratio (x) = 0.10044 0.07001
# Poissons Ratio (y) = 0.16743 -0.00784
# Poissons Ratio (z) = 0.12982 -0.00872
#
# Static dielectric constant tensor:
#      x y z
#    x 1.940590 0.000000 -0.017130 
#    y 0.000000 1.906590 0.000000 
#    z -0.017130 0.000000 1.843580 
# 
# From -- ./inp_files/77614.got.cif
#   From: 2010.05.17/outbox.cif.g08.bks.cpg/sg13_39_cif.got.tgz:77614.got - 2010.06.03 16:44:36.
