data_PCOD9227554
_publ_section_title
;
Structure prediction by ZEFSAII (Michael W. Deem and Ramdas Pophale) SiO2 
 PCOD9227554
Probable space group: P 2/C
;
_chemical_formula_sum "Si O2"
_cell_formula_units_Z 26
_cell_length_a 24.076579
_cell_length_b 7.869168
_cell_length_c 11.860918
_cell_angle_alpha 90.000000
_cell_angle_beta 31.508019
_cell_angle_gamma 90.000000
_cell_volume 1174.427399
_symmetry_space_group_name_H-M "P 2/C"
_symmetry_group_IT_number 13
_symmetry_cell_setting 'monoclinic'
loop_
_space_group_symop_operation_xyz
x,y,z
-x,y,1/2-z
-x,-y,-z
x,-y,1/2+z
loop_
_atom_site_type_symbol
_atom_site_label
_atom_site_fract_x
_atom_site_fract_y
_atom_site_fract_z
Si Si1 0.500000 0.608418 0.250000
Si Si2 0.022981 0.768076 0.577452
Si Si3 0.801266 0.612604 0.345140
Si Si4 0.314902 0.371014 0.660088
Si Si5 0.872135 0.638680 0.465602
Si Si6 0.151594 0.897694 0.791097
Si Si7 0.669699 0.262268 0.623069
O O1 0.413978 0.492741 0.463825
O O2 0.436968 0.711460 0.263415
O O3 0.085879 0.608599 0.416049
O O4 0.000000 0.757946 0.750000
O O5 0.920153 0.810450 0.682122
O O6 0.099267 0.927566 0.419530
O O7 0.719678 0.704887 0.400744
O O8 0.836269 0.695587 0.402228
O O9 0.742228 0.432547 0.470353
O O10 0.339460 0.257650 0.726149
O O11 0.210244 0.483485 0.872003
O O12 0.847675 0.780032 0.600194
O O13 0.000000 0.610314 0.250000
O O14 0.267151 0.896086 0.536503
#
# Coordination Sequence:
#
# PCOD9227554 Si02
#       7
#     2   4   4   4   4   4   4
#     4  10  18  36  60  92 118 152 194 250 310 340
#     4  11  24  37  57  83 119 163 197 238 294 356
#     4  10  21  36  55  86 113 157 197 238 294 343
#     4  10  21  36  58  92 117 154 196 251 294 347
#     4  11  20  35  57  81 125 155 192 241 295 349
#     4  11  22  39  55  85 121 159 196 237 295 355
#     4  10  21  38  61  88 119 151 200 250 295 352
#
# _framework density 22.138449000000001
#
# number of rings (size 3 to 8) (size 9 to 14) (size 15 to 20)
#    0.000    1.538    4.615    1.846    2.154    4.308 
#    0.000    0.000    0.000    3.692    0.000    8.615 
#    0.000    0.000    0.000    0.000    0.000    0.000 
#
# Total GULP energy -145107.785607 kJ/mol
# GULP energy per Si atom -5581.068677 kJ/mol
# Density = 2.208806 g / cm^3
# Si number density = 22.138449 Si / 1000 Ang^3
#
#
#
# Elastic Constant Matrix: (Units=GPa)
#
#
# Indices 1 2 3 4 5 6 
#
# 1 208.7992 37.4152 55.7231 0.0000 13.7241 0.0000
# 2 37.4152 22.1502 -5.6700 0.0000 -4.1736 0.0000
# 3 55.7231 -5.6700 65.2335 0.0000 -3.3681 0.0000
# 4 0.0000 0.0000 0.0000 35.3661 0.0000 -5.5470
# 5 13.7241 -4.1736 -3.3681 0.0000 49.2123 0.0000
# 6 0.0000 0.0000 0.0000 -5.5470 0.0000 10.9640
#
#
#
# Elastic Compliance Matrix: (Units=1/GPa)
#
#
# Indices 1 2 3 4 5 6 
#
# 1 0.015285 -0.031483 -0.016208 0.000000 -0.008042 0.000000
# 2 -0.031483 0.111904 0.037696 0.000000 0.020850 0.000000
# 3 -0.016208 0.037696 0.032966 0.000000 0.009973 0.000000
# 4 0.000000 0.000000 0.000000 0.030713 0.000000 0.015539
# 5 -0.008042 0.020850 0.009973 0.000000 0.025014 0.000000
# 6 0.000000 0.000000 0.000000 0.015539 0.000000 0.099069
#
#
# Mechanical properties :
#
#
# Convention : Reuss Voigt Hill
#
# Bulk Modulus (GPa) = 7.13444 52.34663 29.74053
# Shear Modulus (GPa) = 13.10058 33.02278 23.06168
#
# Velocity S-wave (km/s) = 2.43524 3.86638 3.23104
# Velocity P-wave (km/s) = 3.33719 6.60517 5.23284
#
# Compressibility (1/GPa) = 0.14016524
#
# Stress axis : x y z
#
# Youngs Moduli (GPa) = 65.42379 8.93622 30.33405
#
# Poissons Ratio (x) = 0.28134 0.49166
# Poissons Ratio (y) = 2.05974 -1.14348
# Poissons Ratio (z) = 1.06041 -0.33686
#
# Static dielectric constant tensor:
#      x y z
#    x 1.884680 0.000000 0.038560 
#    y 0.000000 1.850980 0.000000 
#    z 0.038560 0.000000 1.831470 
# 
# From -- ./inp_files/41580.got.cif
#   From: 2010.05.17/outbox.cif.g08.bks.cpg/sg13_21_cif.got.tgz:41580.got - 2010.06.03 16:44:36.
