data_PCOD9227007
_publ_section_title
;
Structure prediction by ZEFSAII (Michael W. Deem and Ramdas Pophale) SiO2 
 PCOD9227007
Probable space group: P 2/C
;
_chemical_formula_sum "Si O2"
_cell_formula_units_Z 28
_cell_length_a 8.443990
_cell_length_b 5.649547
_cell_length_c 28.069285
_cell_angle_alpha 90.000000
_cell_angle_beta 69.233438
_cell_angle_gamma 90.000000
_cell_volume 1252.043774
_symmetry_space_group_name_H-M "P 2/C"
_symmetry_group_IT_number 13
_symmetry_cell_setting 'monoclinic'
loop_
_space_group_symop_operation_xyz
x,y,z
-x,y,1/2-z
-x,-y,-z
x,-y,1/2+z
loop_
_atom_site_type_symbol
_atom_site_label
_atom_site_fract_x
_atom_site_fract_y
_atom_site_fract_z
Si Si1 0.917333 0.091356 0.460405
Si Si2 0.616005 0.096552 0.945228
Si Si3 0.642894 0.420916 0.276931
Si Si4 0.491386 0.770575 0.884412
Si Si5 0.296291 0.911617 0.261523
Si Si6 0.210974 0.923195 0.375862
Si Si7 0.695704 0.401564 0.547879
O O1 0.804675 0.314569 0.490769
O O2 0.068532 0.111919 0.406809
O O3 0.798067 0.889987 0.449609
O O4 0.000000 0.000000 0.500000
O O5 0.497689 0.305056 0.938319
O O6 0.627159 0.899835 0.902703
O O7 0.500000 0.000000 0.000000
O O8 0.500000 0.426760 0.250000
O O9 0.560187 0.408391 0.338095
O O10 0.738916 0.170669 0.257364
O O11 0.737067 0.671928 0.264145
O O12 0.395049 0.963195 0.863323
O O13 0.346436 0.670437 0.935472
O O14 0.500000 0.915921 0.250000
O O15 0.200075 0.870746 0.321709
O O16 0.216975 0.712918 0.414443
#
# Coordination Sequence:
#
# PCOD9227007 Si02
#       7
#     4   4   4   4   4   4   4
#     4   9  19  37  56  82 119 156 194 249 305 374
#     4   9  20  37  56  82 117 156 199 245 299 369
#     4  10  19  31  55  89 116 150 203 258 305 354
#     4  11  20  33  58  88 112 156 201 253 307 366
#     4  10  18  32  54  86 118 150 200 256 302 354
#     4  10  19  33  55  86 116 153 191 249 307 362
#     4   9  19  34  57  81 117 152 199 241 296 366
#
# _framework density 22.363434000000002
#
# number of rings (size 3 to 8) (size 9 to 14) (size 15 to 20)
#    0.000    2.286    2.857    2.571    2.000    2.857 
#    0.000    2.857    0.000    0.857    0.000    0.000 
#    0.000    0.000    0.000    0.000    0.000    0.000 
#
# Total GULP energy -155913.078164 kJ/mol
# GULP energy per Si atom -5568.324220 kJ/mol
# Density = 2.231253 g / cm^3
# Si number density = 22.363434 Si / 1000 Ang^3
#
#
#
# Elastic Constant Matrix: (Units=GPa)
#
#
# Indices 1 2 3 4 5 6 
#
# 1 66.4583 4.4653 18.4193 0.0000 9.6279 0.0000
# 2 4.4653 89.4993 16.0213 0.0000 3.5089 0.0000
# 3 18.4193 16.0213 119.2288 0.0000 -11.8010 0.0000
# 4 0.0000 0.0000 0.0000 24.8344 0.0000 -2.9091
# 5 9.6279 3.5089 -11.8010 0.0000 17.6000 0.0000
# 6 0.0000 0.0000 0.0000 -2.9091 0.0000 8.6700
#
#
#
# Elastic Compliance Matrix: (Units=1/GPa)
#
#
# Indices 1 2 3 4 5 6 
#
# 1 0.017984 0.000327 -0.004073 0.000000 -0.012634 0.000000
# 2 0.000327 0.011665 -0.001999 0.000000 -0.003845 0.000000
# 3 -0.004073 -0.001999 0.010223 0.000000 0.009481 0.000000
# 4 0.000000 0.000000 0.000000 0.041914 0.000000 0.014064
# 5 -0.012634 -0.003845 0.009481 0.000000 0.070853 0.000000
# 6 0.000000 0.000000 0.000000 0.014064 0.000000 0.120059
#
#
# Mechanical properties :
#
#
# Convention : Reuss Voigt Hill
#
# Bulk Modulus (GPa) = 35.23045 39.22203 37.22624
# Shear Modulus (GPa) = 17.02709 25.97292 21.50001
#
# Velocity S-wave (km/s) = 2.76231 3.41163 3.10399
# Velocity P-wave (km/s) = 5.09525 5.75287 5.43402
#
# Compressibility (1/GPa) = 0.02838453
#
# Stress axis : x y z
#
# Youngs Moduli (GPa) = 55.60448 85.72314 97.81453
#
# Poissons Ratio (x) = -0.02804 0.39838
# Poissons Ratio (y) = -0.01819 0.19550
# Poissons Ratio (z) = 0.22646 0.17133
#
# Static dielectric constant tensor:
#      x y z
#    x 1.875240 0.000000 0.002550 
#    y 0.000000 1.963150 0.000000 
#    z 0.002550 0.000000 1.867100 
# 
# From -- ./inp_files/90797.got.cif
#   From: 2010.05.17/outbox.cif.g08.bks.cpg/sg13_46_cif.got.tgz:90797.got - 2010.06.03 16:44:36.
