data_PCOD9227460
_publ_section_title
;
Structure prediction by ZEFSAII (Michael W. Deem and Ramdas Pophale) SiO2 
 PCOD9227460
Probable space group: P 2/C
;
_chemical_formula_sum "Si O2"
_cell_formula_units_Z 28
_cell_length_a 9.251328
_cell_length_b 14.729062
_cell_length_c 13.116722
_cell_angle_alpha 90.000000
_cell_angle_beta 130.978014
_cell_angle_gamma 90.000000
_cell_volume 1349.364119
_symmetry_space_group_name_H-M "P 2/C"
_symmetry_group_IT_number 13
_symmetry_cell_setting 'monoclinic'
loop_
_space_group_symop_operation_xyz
x,y,z
-x,y,1/2-z
-x,-y,-z
x,-y,1/2+z
loop_
_atom_site_type_symbol
_atom_site_label
_atom_site_fract_x
_atom_site_fract_y
_atom_site_fract_z
Si Si1 0.480777 0.079234 0.408991
Si Si2 0.647069 0.570320 0.162951
Si Si3 0.235985 0.197101 0.624207
Si Si4 0.225578 0.012463 0.109097
Si Si5 0.767981 0.501393 0.515486
Si Si6 0.481649 0.239799 0.921917
Si Si7 0.968104 0.365073 0.971292
O O1 0.308519 0.052095 0.252940
O O2 0.673525 0.073019 0.430289
O O3 0.461065 0.172566 0.461602
O O4 0.500000 0.000000 0.500000
O O5 0.761935 0.512660 0.133737
O O6 0.571614 0.659780 0.068596
O O7 0.789764 0.605645 0.315393
O O8 0.454432 0.522371 0.112396
O O9 0.303013 0.202346 0.772784
O O10 0.362374 0.247896 0.596650
O O11 0.040054 0.255483 0.526961
O O12 0.279520 0.092955 0.617136
O O13 0.000000 0.000000 0.000000
O O14 0.909393 0.582406 0.546812
O O15 0.848295 0.412825 0.493608
#
# Coordination Sequence:
#
# PCOD9227460 Si02
#       7
#     4   4   4   4   4   4   4
#     4  11  20  40  65  90 123 162 201 257 305 357
#     4  10  20  35  60  86 113 158 204 251 302 366
#     4  10  18  35  61  91 116 153 207 257 305 364
#     4  11  24  39  62  93 126 164 201 252 313 370
#     4  10  20  34  56  85 116 153 196 249 308 361
#     4  10  18  35  64  88 116 156 206 254 308 366
#     4  10  20  35  60  85 116 154 203 256 299 360
#
# _framework density 20.750516000000001
#
# number of rings (size 3 to 8) (size 9 to 14) (size 15 to 20)
#    0.000    1.714    4.286    1.714    0.000    1.714 
#    0.000    1.429   31.429    0.000    0.000    0.000 
#    0.000    0.000    0.000    0.000    0.000    0.000 
#
# Total GULP energy -155976.833475 kJ/mol
# GULP energy per Si atom -5570.601196 kJ/mol
# Density = 2.070329 g / cm^3
# Si number density = 20.750516 Si / 1000 Ang^3
#
#
#
# Elastic Constant Matrix: (Units=GPa)
#
#
# Indices 1 2 3 4 5 6 
#
# 1 104.6043 25.0852 48.6438 0.0000 2.9841 0.0000
# 2 25.0852 81.8453 22.8454 0.0000 -4.3900 0.0000
# 3 48.6438 22.8454 78.8632 0.0000 -12.6402 0.0000
# 4 0.0000 0.0000 0.0000 30.5040 0.0000 -2.0626
# 5 2.9841 -4.3900 -12.6402 0.0000 29.5744 0.0000
# 6 0.0000 0.0000 0.0000 -2.0626 0.0000 28.8584
#
#
#
# Elastic Compliance Matrix: (Units=1/GPa)
#
#
# Indices 1 2 3 4 5 6 
#
# 1 0.014558 -0.002183 -0.009270 0.000000 -0.005755 0.000000
# 2 -0.002183 0.013624 -0.002405 0.000000 0.001215 0.000000
# 3 -0.009270 -0.002405 0.020598 0.000000 0.009382 0.000000
# 4 0.000000 0.000000 0.000000 0.032942 0.000000 0.002354
# 5 -0.005755 0.001215 0.009382 0.000000 0.038584 0.000000
# 6 0.000000 0.000000 0.000000 0.002354 0.000000 0.034820
#
#
# Mechanical properties :
#
#
# Convention : Reuss Voigt Hill
#
# Bulk Modulus (GPa) = 47.47418 50.94017 49.20717
# Shear Modulus (GPa) = 26.33464 29.03659 27.68562
#
# Velocity S-wave (km/s) = 3.56632 3.74481 3.65665
# Velocity P-wave (km/s) = 6.31557 6.58029 6.44929
#
# Compressibility (1/GPa) = 0.02106408
#
# Stress axis : x y z
#
# Youngs Moduli (GPa) = 68.68978 73.40066 48.54764
#
# Poissons Ratio (x) = 0.16025 0.45002
# Poissons Ratio (y) = 0.14997 0.11677
# Poissons Ratio (z) = 0.63673 0.17655
#
# Static dielectric constant tensor:
#      x y z
#    x 1.729010 0.000000 0.008100 
#    y 0.000000 1.822920 0.000000 
#    z 0.008100 0.000000 1.781350 
# 
# From -- ./inp_files/30490.got.cif
#   From: 2010.05.17/outbox.cif.g08.bks.cpg/sg13_16_cif.got.tgz:30490.got - 2010.06.03 16:44:36.
