data_PCOD9227544
_publ_section_title
;
Structure prediction by ZEFSAII (Michael W. Deem and Ramdas Pophale) SiO2 
 PCOD9227544
Probable space group: P 2/C
;
_chemical_formula_sum "Si O2"
_cell_formula_units_Z 22
_cell_length_a 8.935174
_cell_length_b 13.844585
_cell_length_c 12.043716
_cell_angle_alpha 90.000000
_cell_angle_beta 36.321546
_cell_angle_gamma 90.000000
_cell_volume 882.464161
_symmetry_space_group_name_H-M "P 2/C"
_symmetry_group_IT_number 13
_symmetry_cell_setting 'monoclinic'
loop_
_space_group_symop_operation_xyz
x,y,z
-x,y,1/2-z
-x,-y,-z
x,-y,1/2+z
loop_
_atom_site_type_symbol
_atom_site_label
_atom_site_fract_x
_atom_site_fract_y
_atom_site_fract_z
Si Si1 0.276746 0.089540 0.762571
Si Si2 0.760845 0.104081 0.314963
Si Si3 0.937376 0.256431 0.476785
Si Si4 0.262188 0.663299 0.975257
Si Si5 0.000000 0.189378 0.750000
Si Si6 0.788607 0.538851 0.035923
O O1 0.519528 0.105237 0.538805
O O2 0.241749 0.164431 0.885328
O O3 0.038956 0.120561 0.830215
O O4 0.267147 0.972969 0.769766
O O5 0.000000 0.078533 0.250000
O O6 0.829480 0.207308 0.224005
O O7 0.846455 0.351492 0.465835
O O8 0.027277 0.303432 0.538608
O O9 0.500000 0.668208 0.750000
O O10 0.229764 0.553422 0.034597
O O11 0.238570 0.740542 0.086546
O O12 0.500000 0.545979 0.250000
O O13 0.000000 0.500000 0.000000
#
# Coordination Sequence:
#
# PCOD9227544 Si02
#       6
#     4   4   4   4   2   4
#     4  10  22  39  58  82 117 150 195 241 289 352
#     4  11  23  38  56  85 118 149 193 243 289 354
#     4  10  21  37  59  84 114 157 190 237 302 345
#     4   9  18  35  58  83 114 150 194 235 283 346
#     4  10  18  36  60  82 108 154 194 236 282 344
#     4   9  19  36  58  86 121 155 199 249 296 362
#
# _framework density 24.930191000000001
#
# number of rings (size 3 to 8) (size 9 to 14) (size 15 to 20)
#    0.000    2.182    0.909    1.636    2.545    0.000 
#    1.636    0.000    0.000   12.000    0.000    0.000 
#    0.000    0.000    0.000    0.000    0.000    0.000 
#
# Total GULP energy -122529.497032 kJ/mol
# GULP energy per Si atom -5569.522592 kJ/mol
# Density = 2.487345 g / cm^3
# Si number density = 24.930191 Si / 1000 Ang^3
#
#
#
# Elastic Constant Matrix: (Units=GPa)
#
#
# Indices 1 2 3 4 5 6 
#
# 1 31.9011 18.2440 3.4499 0.0000 -3.6820 0.0000
# 2 18.2440 196.4762 59.8268 0.0000 -0.7857 0.0000
# 3 3.4499 59.8268 131.0714 0.0000 -10.8102 0.0000
# 4 0.0000 0.0000 0.0000 24.1705 0.0000 -1.7316
# 5 -3.6820 -0.7857 -10.8102 0.0000 27.1582 0.0000
# 6 0.0000 0.0000 0.0000 -1.7316 0.0000 -8.9856
#
#
#
# Elastic Compliance Matrix: (Units=1/GPa)
#
#
# Indices 1 2 3 4 5 6 
#
# 1 0.033768 -0.003448 0.001090 0.000000 0.004912 0.000000
# 2 -0.003448 0.006286 -0.002897 0.000000 -0.001439 0.000000
# 3 0.001090 -0.002897 0.009232 0.000000 0.003739 0.000000
# 4 0.000000 0.000000 0.000000 0.040809 0.000000 -0.007864
# 5 0.004912 -0.001439 0.003739 0.000000 0.038934 0.000000
# 6 0.000000 0.000000 0.000000 -0.007864 0.000000 -0.109773
#
#
# Mechanical properties :
#
#
# Convention : Reuss Voigt Hill
#
# Bulk Modulus (GPa) = 25.78943 58.05447 41.92195
# Shear Modulus (GPa) = 117.12264 26.99716 72.05990
#
# Velocity S-wave (km/s) = 6.86165 3.29433 5.38214
# Velocity P-wave (km/s) = 8.55239 6.14878 7.44819
#
# Compressibility (1/GPa) = 0.03877557
#
# Stress axis : x y z
#
# Youngs Moduli (GPa) = 29.61402 159.07653 108.32470
#
# Poissons Ratio (x) = 0.54847 -0.11808
# Poissons Ratio (y) = 0.10210 0.31384
# Poissons Ratio (z) = -0.03228 0.46088
#
# Static dielectric constant tensor:
#      x y z
#    x 2.036440 0.000000 0.016990 
#    y 0.000000 2.033840 0.000000 
#    z 0.016990 0.000000 1.978760 
# 
# From -- ./inp_files/34039.got.cif
#   From: 2010.05.17/outbox.cif.g08.bks.cpg/sg13_18_cif.got.tgz:34039.got - 2010.06.03 16:44:36.
