data_PCOD9227661
_publ_section_title
;
Structure prediction by ZEFSAII (Michael W. Deem and Ramdas Pophale) SiO2 
 PCOD9227661
Probable space group: P 2/C
;
_chemical_formula_sum "Si O2"
_cell_formula_units_Z 30
_cell_length_a 11.074089
_cell_length_b 12.051232
_cell_length_c 12.918207
_cell_angle_alpha 90.000000
_cell_angle_beta 125.862313
_cell_angle_gamma 90.000000
_cell_volume 1397.190688
_symmetry_space_group_name_H-M "P 2/C"
_symmetry_group_IT_number 13
_symmetry_cell_setting 'monoclinic'
loop_
_space_group_symop_operation_xyz
x,y,z
-x,y,1/2-z
-x,-y,-z
x,-y,1/2+z
loop_
_atom_site_type_symbol
_atom_site_label
_atom_site_fract_x
_atom_site_fract_y
_atom_site_fract_z
Si Si1 0.200401 0.982982 0.213795
Si Si2 0.212219 0.847398 0.897221
Si Si3 0.539242 0.175849 0.654950
Si Si4 0.999532 0.156709 0.490043
Si Si5 0.317715 0.637234 0.407981
Si Si6 0.134258 0.341832 0.187294
Si Si7 0.442277 0.442783 0.324969
Si Si8 0.000000 0.462940 0.750000
O O1 0.366125 0.936741 0.281446
O O2 0.190702 0.042627 0.318674
O O3 0.085172 0.883110 0.134079
O O4 0.141252 0.076734 0.103571
O O5 0.115052 0.857142 0.951978
O O6 0.159304 0.744128 0.797446
O O7 0.383952 0.834954 0.016010
O O8 0.500000 0.219369 0.750000
O O9 0.645710 0.255084 0.641085
O O10 0.949969 0.281898 0.448625
O O11 0.381130 0.534864 0.372000
O O12 0.424713 0.629963 0.560852
O O13 0.146118 0.610462 0.344783
O O14 0.299110 0.368554 0.233015
O O15 0.047958 0.450763 0.183160
O O16 0.500000 0.498148 0.250000
#
# Coordination Sequence:
#
# PCOD9227661 Si02
#       8
#     4   4   4   4   4   4   4   2
#     4  10  22  38  60  91 127 155 213 266 315 369
#     4  11  20  40  66  92 120 170 215 262 318 385
#     4  12  23  41  65  92 127 175 219 258 321 396
#     4  10  20  39  63  94 122 163 213 262 315 388
#     4  10  23  42  64  91 132 162 218 268 318 369
#     4  10  18  37  69  90 125 168 215 252 318 394
#     4  10  21  41  61  90 126 169 207 260 315 383
#     4  10  20  40  66  96 128 170 210 270 320 374
#
# _framework density 21.471655999999999
#
# number of rings (size 3 to 8) (size 9 to 14) (size 15 to 20)
#    0.000    1.600    4.000    2.000    0.000    0.000 
#    7.200    6.667    0.000    0.000    0.000    0.000 
#    0.000    0.000    0.000    0.000    0.000    0.000 
#
# Total GULP energy -167468.291827 kJ/mol
# GULP energy per Si atom -5582.276394 kJ/mol
# Density = 2.142279 g / cm^3
# Si number density = 21.471656 Si / 1000 Ang^3
#
#
#
# Elastic Constant Matrix: (Units=GPa)
#
#
# Indices 1 2 3 4 5 6 
#
# 1 110.9029 40.1251 51.8765 0.0000 27.9262 0.0000
# 2 40.1251 49.6979 30.3702 0.0000 11.0782 0.0000
# 3 51.8765 30.3702 98.3713 0.0000 23.3246 0.0000
# 4 0.0000 0.0000 0.0000 16.6967 0.0000 4.5590
# 5 27.9262 11.0782 23.3246 0.0000 34.5514 0.0000
# 6 0.0000 0.0000 0.0000 4.5590 0.0000 47.7444
#
#
#
# Elastic Compliance Matrix: (Units=1/GPa)
#
#
# Indices 1 2 3 4 5 6 
#
# 1 0.015886 -0.008789 -0.003914 0.000000 -0.007379 0.000000
# 2 -0.008789 0.029986 -0.004795 0.000000 0.000726 0.000000
# 3 -0.003914 -0.004795 0.014996 0.000000 -0.005422 0.000000
# 4 0.000000 0.000000 0.000000 0.061495 0.000000 -0.005872
# 5 -0.007379 0.000726 -0.005422 0.000000 0.038334 0.000000
# 6 0.000000 0.000000 0.000000 -0.005872 0.000000 0.021506
#
#
# Mechanical properties :
#
#
# Convention : Reuss Voigt Hill
#
# Bulk Modulus (GPa) = 38.65313 55.96841 47.31077
# Shear Modulus (GPa) = 22.14123 28.90518 25.52321
#
# Velocity S-wave (km/s) = 3.21469 3.67304 3.45148
# Velocity P-wave (km/s) = 5.64092 6.64162 6.16162
#
# Compressibility (1/GPa) = 0.02587113
#
# Stress axis : x y z
#
# Youngs Moduli (GPa) = 62.94848 33.34902 66.68556
#
# Poissons Ratio (x) = 0.29311 0.26103
# Poissons Ratio (y) = 0.55326 0.31975
# Poissons Ratio (z) = 0.24641 0.15990
#
# Static dielectric constant tensor:
#      x y z
#    x 1.777780 0.000000 -0.004480 
#    y 0.000000 1.805330 0.000000 
#    z -0.004480 0.000000 1.799530 
# 
# From -- ./inp_files/51212.got.cif
#   From: 2010.05.17/outbox.cif.g08.bks.cpg/sg13_26_cif.got.tgz:51212.got - 2010.06.03 16:44:36.
