data_PCOD9227166
_publ_section_title
;
Structure prediction by ZEFSAII (Michael W. Deem and Ramdas Pophale) SiO2 
 PCOD9227166
Probable space group: P 2/C
;
_chemical_formula_sum "Si O2"
_cell_formula_units_Z 32
_cell_length_a 22.724229
_cell_length_b 11.079765
_cell_length_c 20.701328
_cell_angle_alpha 90.000000
_cell_angle_beta 18.326044
_cell_angle_gamma 90.000000
_cell_volume 1638.828791
_symmetry_space_group_name_H-M "P 2/C"
_symmetry_group_IT_number 13
_symmetry_cell_setting 'monoclinic'
loop_
_space_group_symop_operation_xyz
x,y,z
-x,y,1/2-z
-x,-y,-z
x,-y,1/2+z
loop_
_atom_site_type_symbol
_atom_site_label
_atom_site_fract_x
_atom_site_fract_y
_atom_site_fract_z
Si Si1 0.624105 0.237812 0.891477
Si Si2 0.820965 0.479287 0.732719
Si Si3 0.260440 0.232013 0.879265
Si Si4 0.060585 0.105330 0.888229
Si Si5 0.034853 0.980676 0.782343
Si Si6 0.678085 0.208115 0.488535
Si Si7 0.047462 0.572811 0.771468
Si Si8 0.242898 0.740718 0.737531
O O1 0.695399 0.365549 0.844975
O O2 0.688650 0.225050 0.749543
O O3 0.722606 0.133188 0.828770
O O4 0.403286 0.222817 0.119575
O O5 0.713576 0.603872 0.828927
O O6 0.000000 0.500000 0.500000
O O7 0.890157 0.485656 0.735048
O O8 0.454980 0.225694 0.716488
O O9 0.119834 0.124685 0.045213
O O10 0.139474 0.353610 0.013738
O O11 0.951617 0.224791 0.026686
O O12 0.020109 0.068715 0.857943
O O13 0.000000 0.000000 0.000000
O O14 0.000000 0.040432 0.750000
O O15 0.234473 0.911093 0.571219
O O16 0.746775 0.194078 0.342239
O O17 0.788257 0.324366 0.402484
O O18 0.000000 0.522114 0.750000
#
# Coordination Sequence:
#
# PCOD9227166 Si02
#       8
#     4   4   4   4   4   4   4   4
#     4  11  21  36  61  87 113 145 189 237 282 325
#     4  11  19  38  61  83 113 147 185 235 280 329
#     4  10  18  33  57  82 110 146 179 234 290 329
#     4  12  21  38  58  82 115 148 187 227 276 334
#     4  11  23  36  52  80 114 149 190 230 274 334
#     4   9  18  33  55  83 112 142 182 229 286 335
#     4  10  20  33  51  82 114 144 183 227 280 341
#     4  10  21  35  60  90 112 143 186 235 284 331
#
# _framework density 19.526139000000001
#
# number of rings (size 3 to 8) (size 9 to 14) (size 15 to 20)
#    0.000    1.500    5.000    2.625    0.000    3.500 
#    0.000    0.625    0.000    0.000    0.000    0.000 
#    0.000    0.000    0.000    0.000    0.000    0.000 
#
# Total GULP energy -178551.538695 kJ/mol
# GULP energy per Si atom -5579.735584 kJ/mol
# Density = 1.948170 g / cm^3
# Si number density = 19.526139 Si / 1000 Ang^3
#
#
#
# Elastic Constant Matrix: (Units=GPa)
#
#
# Indices 1 2 3 4 5 6 
#
# 1 138.9325 23.3542 16.1000 0.0000 -15.4459 0.0000
# 2 23.3542 32.4836 -10.0692 0.0000 -7.6074 0.0000
# 3 16.1000 -10.0692 66.5213 0.0000 -24.7737 0.0000
# 4 0.0000 0.0000 0.0000 12.7206 0.0000 -1.5960
# 5 -15.4459 -7.6074 -24.7737 0.0000 32.3200 0.0000
# 6 0.0000 0.0000 0.0000 -1.5960 0.0000 26.6709
#
#
#
# Elastic Compliance Matrix: (Units=1/GPa)
#
#
# Indices 1 2 3 4 5 6 
#
# 1 0.008807 -0.007338 -0.003244 0.000000 -0.000005 0.000000
# 2 -0.007338 0.045525 0.015887 0.000000 0.019386 0.000000
# 3 -0.003244 0.015887 0.026644 0.000000 0.022612 0.000000
# 4 0.000000 0.000000 0.000000 0.079208 0.000000 0.004740
# 5 -0.000005 0.019386 0.022612 0.000000 0.052833 0.000000
# 6 0.000000 0.000000 0.000000 0.004740 0.000000 0.037778
#
#
# Mechanical properties :
#
#
# Convention : Reuss Voigt Hill
#
# Bulk Modulus (GPa) = 10.91889 32.96748 21.94318
# Shear Modulus (GPa) = 18.46967 28.24580 23.35774
#
# Velocity S-wave (km/s) = 3.07888 3.80750 3.46241
# Velocity P-wave (km/s) = 4.27123 6.02078 5.21983
#
# Compressibility (1/GPa) = 0.09158439
#
# Stress axis : x y z
#
# Youngs Moduli (GPa) = 113.55009 21.96572 37.53225
#
# Poissons Ratio (x) = 0.16120 0.12176
# Poissons Ratio (y) = 0.83329 -0.59627
# Poissons Ratio (z) = 0.36838 -0.34897
#
# Static dielectric constant tensor:
#      x y z
#    x 1.721300 0.000000 -0.007700 
#    y 0.000000 1.730540 0.000000 
#    z -0.007700 0.000000 1.701540 
# 
# From -- ./inp_files/81808.got.cif
#   From: 2010.05.17/outbox.cif.g08.bks.cpg/sg13_41_cif.got.tgz:81808.got - 2010.06.03 16:44:36.
