data_PCOD9227813
_publ_section_title
;
Structure prediction by ZEFSAII (Michael W. Deem and Ramdas Pophale) SiO2 
 PCOD9227813
Probable space group: P 2/C
;
_chemical_formula_sum "Si O2"
_cell_formula_units_Z 18
_cell_length_a 14.472765
_cell_length_b 5.131672
_cell_length_c 21.183262
_cell_angle_alpha 90.000000
_cell_angle_beta 26.787567
_cell_angle_gamma 90.000000
_cell_volume 709.047330
_symmetry_space_group_name_H-M "P 2/C"
_symmetry_group_IT_number 13
_symmetry_cell_setting 'monoclinic'
loop_
_space_group_symop_operation_xyz
x,y,z
-x,y,1/2-z
-x,-y,-z
x,-y,1/2+z
loop_
_atom_site_type_symbol
_atom_site_label
_atom_site_fract_x
_atom_site_fract_y
_atom_site_fract_z
Si Si1 0.500000 0.508953 0.250000
Si Si2 0.107770 0.285824 0.054110
Si Si3 0.666794 0.305592 0.275631
Si Si4 0.200506 0.057443 0.712142
Si Si5 0.713294 0.450372 0.425650
O O1 0.311336 0.683279 0.389773
O O2 0.590346 0.334621 0.251521
O O3 0.153591 0.423638 0.092461
O O4 0.904228 0.389079 0.141973
O O5 0.030918 0.998156 0.122064
O O6 0.667591 0.015156 0.305576
O O7 0.511509 0.477373 0.411630
O O8 0.261452 0.816498 0.628549
O O9 0.226826 0.309555 0.655097
#
# Coordination Sequence:
#
# PCOD9227813 Si02
#       5
#     2   4   4   4   4
#     4  10  18  42  70  96 152 186 254 282 346 414
#     4   9  22  36  68 106 137 193 229 293 350 424
#     4   9  21  38  68 106 134 195 230 296 346 424
#     4  10  23  39  69 103 139 178 227 289 359 418
#     4  11  21  43  66 103 145 173 226 294 359 419
#
# _framework density 25.386172999999999
#
# number of rings (size 3 to 8) (size 9 to 14) (size 15 to 20)
#    1.333    0.889    0.000    2.667    0.000    3.556 
#    0.000    0.000    0.000   50.667    0.000    0.000 
#    0.000    0.000    0.000    0.000    0.000    0.000 
#
# Total GULP energy -100671.904343 kJ/mol
# GULP energy per Si atom -5592.883575 kJ/mol
# Density = 2.532839 g / cm^3
# Si number density = 25.386173 Si / 1000 Ang^3
#
#
#
# Elastic Constant Matrix: (Units=GPa)
#
#
# Indices 1 2 3 4 5 6 
#
# 1 167.7179 40.5427 91.5278 0.0000 -6.1257 0.0000
# 2 40.5427 118.4921 41.5025 0.0000 8.7720 0.0000
# 3 91.5278 41.5025 163.8280 0.0000 -2.2060 0.0000
# 4 0.0000 0.0000 0.0000 19.5407 0.0000 -0.7840
# 5 -6.1257 8.7720 -2.2060 0.0000 47.2479 0.0000
# 6 0.0000 0.0000 0.0000 -0.7840 0.0000 7.5162
#
#
#
# Elastic Compliance Matrix: (Units=1/GPa)
#
#
# Indices 1 2 3 4 5 6 
#
# 1 0.008856 -0.001529 -0.004544 0.000000 0.001220 0.000000
# 2 -0.001529 0.009686 -0.001627 0.000000 -0.002073 0.000000
# 3 -0.004544 -0.001627 0.009057 0.000000 0.000136 0.000000
# 4 0.000000 0.000000 0.000000 0.051390 0.000000 0.005361
# 5 0.001220 -0.002073 0.000136 0.000000 0.021714 0.000000
# 6 0.000000 0.000000 0.000000 0.005361 0.000000 0.133606
#
#
# Mechanical properties :
#
#
# Convention : Reuss Voigt Hill
#
# Bulk Modulus (GPa) = 81.98026 88.57598 85.27812
# Shear Modulus (GPa) = 19.70238 33.29195 26.49717
#
# Velocity S-wave (km/s) = 2.78889 3.62528 3.23424
# Velocity P-wave (km/s) = 6.53712 7.24505 6.90017
#
# Compressibility (1/GPa) = 0.01219806
#
# Stress axis : x y z
#
# Youngs Moduli (GPa) = 112.91258 103.24210 110.41406
#
# Poissons Ratio (x) = 0.15785 0.50174
# Poissons Ratio (y) = 0.17264 0.17969
# Poissons Ratio (z) = 0.51309 0.16802
#
# Static dielectric constant tensor:
#      x y z
#    x 2.061320 0.000000 -0.087090 
#    y 0.000000 2.026150 0.000000 
#    z -0.087090 0.000000 2.085690 
# 
# From -- ./inp_files/78947.got.cif
#   From: 2010.05.17/outbox.cif.g08.bks.cpg/sg13_40_cif.got.tgz:78947.got - 2010.06.03 16:44:36.
