data_PCOD9227294
_publ_section_title
;
Structure prediction by ZEFSAII (Michael W. Deem and Ramdas Pophale) SiO2 
 PCOD9227294
Probable space group: P 2/C
;
_chemical_formula_sum "Si O2"
_cell_formula_units_Z 22
_cell_length_a 11.537742
_cell_length_b 8.974742
_cell_length_c 10.927780
_cell_angle_alpha 90.000000
_cell_angle_beta 105.385144
_cell_angle_gamma 90.000000
_cell_volume 1091.002518
_symmetry_space_group_name_H-M "P 2/C"
_symmetry_group_IT_number 13
_symmetry_cell_setting 'monoclinic'
loop_
_space_group_symop_operation_xyz
x,y,z
-x,y,1/2-z
-x,-y,-z
x,-y,1/2+z
loop_
_atom_site_type_symbol
_atom_site_label
_atom_site_fract_x
_atom_site_fract_y
_atom_site_fract_z
Si Si1 0.842944 0.697693 0.128023
Si Si2 0.306225 0.578988 0.004854
Si Si3 0.362714 0.883551 0.373057
Si Si4 0.074132 0.635207 0.083023
Si Si5 0.551964 0.792974 0.634627
Si Si6 0.500000 0.351000 0.750000
O O1 0.773912 0.847491 0.138354
O O2 0.876957 0.613718 0.264866
O O3 0.959694 0.738712 0.080821
O O4 0.749649 0.582058 0.040366
O O5 0.191424 0.664852 0.033391
O O6 0.417527 0.563744 0.129854
O O7 0.363540 0.671079 0.908190
O O8 0.444589 0.844643 0.513776
O O9 0.408112 0.761042 0.289987
O O10 0.378973 0.050116 0.330591
O O11 0.000000 0.500000 0.000000
O O12 0.500000 0.745310 0.750000
#
# Coordination Sequence:
#
# PCOD9227294 Si02
#       6
#     4   4   4   4   4   2
#     4  10  20  36  60  88 115 155 198 243 295 355
#     4  10  21  37  59  87 120 153 195 251 289 349
#     4  10  20  37  57  81 117 160 187 237 296 356
#     4   9  19  37  60  83 117 157 195 240 303 347
#     4  10  22  37  56  85 118 157 194 236 296 353
#     4  10  18  34  58  82 120 156 190 230 304 356
#
# _framework density 20.164940999999999
#
# number of rings (size 3 to 8) (size 9 to 14) (size 15 to 20)
#    0.000    2.182    2.727    0.000    0.000    5.818 
#    3.273    0.909    0.000    8.727    0.000    0.000 
#    0.000    0.000    0.000    0.000    0.000    0.000 
#
# Total GULP energy -122537.452372 kJ/mol
# GULP energy per Si atom -5569.884199 kJ/mol
# Density = 2.011904 g / cm^3
# Si number density = 20.164941 Si / 1000 Ang^3
#
#
#
# Elastic Constant Matrix: (Units=GPa)
#
#
# Indices 1 2 3 4 5 6 
#
# 1 175.7952 41.6626 33.1995 0.0000 -22.7209 0.0000
# 2 41.6626 55.7977 26.5286 0.0000 2.0766 0.0000
# 3 33.1995 26.5286 47.4771 0.0000 -8.5401 0.0000
# 4 0.0000 0.0000 0.0000 8.6257 0.0000 -2.8107
# 5 -22.7209 2.0766 -8.5401 0.0000 38.9766 0.0000
# 6 0.0000 0.0000 0.0000 -2.8107 0.0000 2.9972
#
#
#
# Elastic Compliance Matrix: (Units=1/GPa)
#
#
# Indices 1 2 3 4 5 6 
#
# 1 0.007822 -0.005155 -0.001791 0.000000 0.004442 0.000000
# 2 -0.005155 0.028572 -0.013715 0.000000 -0.007532 0.000000
# 3 -0.001791 -0.013715 0.031150 0.000000 0.006512 0.000000
# 4 0.000000 0.000000 0.000000 0.166949 0.000000 0.156560
# 5 0.004442 -0.007532 0.006512 0.000000 0.030074 0.000000
# 6 0.000000 0.000000 0.000000 0.156560 0.000000 0.480459
#
#
# Mechanical properties :
#
#
# Convention : Reuss Voigt Hill
#
# Bulk Modulus (GPa) = 38.13466 53.53905 45.83686
# Shear Modulus (GPa) = 6.28860 21.96518 14.12689
#
# Velocity S-wave (km/s) = 1.76787 3.30400 2.64969
# Velocity P-wave (km/s) = 4.80828 6.41587 5.66935
#
# Compressibility (1/GPa) = 0.02622286
#
# Stress axis : x y z
#
# Youngs Moduli (GPa) = 127.83788 34.99927 32.10271
#
# Poissons Ratio (x) = 0.18041 0.05748
# Poissons Ratio (y) = 0.65897 0.44030
# Poissons Ratio (z) = 0.22891 0.48003
#
# Static dielectric constant tensor:
#      x y z
#    x 1.862900 0.000000 -0.066670 
#    y 0.000000 1.714330 0.000000 
#    z -0.066670 0.000000 1.782590 
# 
# From -- ./inp_files/32177.got.cif
#   From: 2010.05.17/outbox.cif.g08.bks.cpg/sg13_17_cif.got.tgz:32177.got - 2010.06.03 16:44:36.
