data_PCOD9227037
_publ_section_title
;
Structure prediction by ZEFSAII (Michael W. Deem and Ramdas Pophale) SiO2 
 PCOD9227037
Probable space group: P 2/C
;
_chemical_formula_sum "Si O2"
_cell_formula_units_Z 24
_cell_length_a 22.146993
_cell_length_b 9.552429
_cell_length_c 11.896179
_cell_angle_alpha 90.000000
_cell_angle_beta 27.144476
_cell_angle_gamma 90.000000
_cell_volume 1148.220874
_symmetry_space_group_name_H-M "P 2/C"
_symmetry_group_IT_number 13
_symmetry_cell_setting 'monoclinic'
loop_
_space_group_symop_operation_xyz
x,y,z
-x,y,1/2-z
-x,-y,-z
x,-y,1/2+z
loop_
_atom_site_type_symbol
_atom_site_label
_atom_site_fract_x
_atom_site_fract_y
_atom_site_fract_z
Si Si1 0.000000 0.923514 0.750000
Si Si2 0.650450 0.720952 0.835976
Si Si3 0.500000 0.460172 0.750000
Si Si4 0.210546 0.771845 0.657379
Si Si5 0.751084 0.460458 0.960722
Si Si6 0.253433 0.963120 0.956961
Si Si7 0.085814 0.222174 0.891330
O O1 0.069040 0.822438 0.546200
O O2 0.120398 0.011676 0.603284
O O3 0.736152 0.749206 0.805916
O O4 0.714516 0.615264 0.638433
O O5 0.642574 0.870439 0.785614
O O6 0.528572 0.639148 0.094753
O O7 0.373058 0.547848 0.920747
O O8 0.216425 0.623989 0.583535
O O9 0.286848 0.888771 0.458291
O O10 0.057413 0.815751 0.921930
O O11 0.873839 0.379802 0.701996
O O12 0.202413 0.867326 0.143277
#
# Coordination Sequence:
#
# PCOD9227037 Si02
#       7
#     2   4   2   4   4   4   4
#     4  10  18  32  56  86 124 152 180 230 286 352
#     4  10  21  39  60  81 113 153 192 238 285 336
#     4  10  22  40  60  82 110 154 206 246 282 328
#     4  10  20  35  57  88 120 145 183 232 288 352
#     4  10  22  38  58  82 112 151 194 239 286 334
#     4  10  19  33  55  83 115 153 186 227 286 347
#     4  10  20  33  54  87 117 150 187 226 288 354
#
# _framework density 20.901902
#
# number of rings (size 3 to 8) (size 9 to 14) (size 15 to 20)
#    0.000    2.000    0.000    5.000    0.000    7.333 
#    0.000    3.333    0.000   24.000    0.000    0.000 
#    0.000    0.000    0.000    0.000    0.000    0.000 
#
# Total GULP energy -133825.810346 kJ/mol
# GULP energy per Si atom -5576.075431 kJ/mol
# Density = 2.085433 g / cm^3
# Si number density = 20.901902 Si / 1000 Ang^3
#
#
#
# Elastic Constant Matrix: (Units=GPa)
#
#
# Indices 1 2 3 4 5 6 
#
# 1 58.2914 13.4152 12.5751 0.0000 18.3732 0.0000
# 2 13.4152 119.6335 18.9495 0.0000 31.1331 0.0000
# 3 12.5751 18.9495 72.4489 0.0000 27.7340 0.0000
# 4 0.0000 0.0000 0.0000 -4.5469 0.0000 -36.4157
# 5 18.3732 31.1331 27.7340 0.0000 32.1938 0.0000
# 6 0.0000 0.0000 0.0000 -36.4157 0.0000 -30.6615
#
#
#
# Elastic Compliance Matrix: (Units=1/GPa)
#
#
# Indices 1 2 3 4 5 6 
#
# 1 0.021134 0.001169 0.001605 0.000000 -0.014574 0.000000
# 2 0.001169 0.011396 0.001925 0.000000 -0.013346 0.000000
# 3 0.001605 0.001925 0.021014 0.000000 -0.020881 0.000000
# 4 0.000000 0.000000 0.000000 0.025838 0.000000 -0.030687
# 5 -0.014574 -0.013346 -0.020881 0.000000 0.070274 0.000000
# 6 0.000000 0.000000 0.000000 -0.030687 0.000000 0.003832
#
#
# Mechanical properties :
#
#
# Convention : Reuss Voigt Hill
#
# Bulk Modulus (GPa) = 15.88759 37.80594 26.84676
# Shear Modulus (GPa) = 30.29025 13.09267 21.69146
#
# Velocity S-wave (km/s) = 3.81092 2.50549 3.22495
# Velocity P-wave (km/s) = 5.19439 5.14748 5.17099
#
# Compressibility (1/GPa) = 0.06294220
#
# Stress axis : x y z
#
# Youngs Moduli (GPa) = 47.31794 87.74996 47.58726
#
# Poissons Ratio (x) = -0.10254 -0.07639
# Poissons Ratio (y) = -0.05530 -0.09163
# Poissons Ratio (z) = -0.07595 -0.16896
#
# Static dielectric constant tensor:
#      x y z
#    x 1.758630 0.000000 -0.009800 
#    y 0.000000 1.804690 0.000000 
#    z -0.009800 0.000000 1.752230 
# 
# From -- ./inp_files/41569.got.cif
#   From: 2010.05.17/outbox.cif.g08.bks.cpg/sg13_21_cif.got.tgz:41569.got - 2010.06.03 16:44:36.
