data_PCOD9227474
_publ_section_title
;
Structure prediction by ZEFSAII (Michael W. Deem and Ramdas Pophale) SiO2 
 PCOD9227474
Probable space group: P 2/C
;
_chemical_formula_sum "Si O2"
_cell_formula_units_Z 24
_cell_length_a 9.413405
_cell_length_b 9.413034
_cell_length_c 20.908212
_cell_angle_alpha 90.000000
_cell_angle_beta 133.325899
_cell_angle_gamma 90.000000
_cell_volume 1347.733375
_symmetry_space_group_name_H-M "P 2/C"
_symmetry_group_IT_number 13
_symmetry_cell_setting 'monoclinic'
loop_
_space_group_symop_operation_xyz
x,y,z
-x,y,1/2-z
-x,-y,-z
x,-y,1/2+z
loop_
_atom_site_type_symbol
_atom_site_label
_atom_site_fract_x
_atom_site_fract_y
_atom_site_fract_z
Si Si1 0.064139 0.644112 0.466085
Si Si2 0.407187 0.172692 0.037436
Si Si3 0.353664 0.160869 0.518096
Si Si4 0.981530 0.657557 0.902040
Si Si5 0.414158 0.656112 0.789818
Si Si6 0.600370 0.341005 0.843315
O O1 0.193410 0.756124 0.468800
O O2 0.116396 0.665033 0.557380
O O3 0.104207 0.488670 0.448919
O O4 0.829774 0.653636 0.395991
O O5 0.526300 0.250538 0.131031
O O6 0.376472 0.005628 0.039281
O O7 0.522797 0.192476 0.007154
O O8 0.424705 0.249946 0.601042
O O9 0.130497 0.213251 0.438842
O O10 0.817125 0.645972 0.797131
O O11 0.500000 0.718316 0.750000
O O12 0.505540 0.497240 0.823876
O O13 0.500000 0.276228 0.750000
#
# Coordination Sequence:
#
# PCOD9227474 Si02
#       6
#     4   4   4   4   4   4
#     4  10  18  35  64  86 114 149 190 240 292 342
#     4  11  23  41  57  81 125 162 191 239 285 354
#     4  10  25  41  55  82 123 164 195 228 297 348
#     4  10  19  36  62  90 113 149 196 244 288 349
#     4  11  19  37  64  91 116 143 196 248 295 336
#     4  10  20  39  63  90 114 143 194 250 290 346
#
# _framework density 17.807677999999999
#
# number of rings (size 3 to 8) (size 9 to 14) (size 15 to 20)
#    0.000    1.667    5.000    2.000    0.000    6.667 
#    3.000    0.833    0.000    0.000    0.000    0.000 
#    0.000    0.000    0.000    0.000    0.000    0.000 
#
# Total GULP energy -133763.127659 kJ/mol
# GULP energy per Si atom -5573.463652 kJ/mol
# Density = 1.776715 g / cm^3
# Si number density = 17.807678 Si / 1000 Ang^3
#
#
#
# Elastic Constant Matrix: (Units=GPa)
#
#
# Indices 1 2 3 4 5 6 
#
# 1 75.7087 67.9437 50.5106 0.0000 -0.8005 0.0000
# 2 67.9437 97.2383 58.4759 0.0000 -6.9927 0.0000
# 3 50.5106 58.4759 131.9016 0.0000 7.8950 0.0000
# 4 0.0000 0.0000 0.0000 17.7649 0.0000 -5.1065
# 5 -0.8005 -6.9927 7.8950 0.0000 23.1101 0.0000
# 6 0.0000 0.0000 0.0000 -5.1065 0.0000 32.7693
#
#
#
# Elastic Compliance Matrix: (Units=1/GPa)
#
#
# Indices 1 2 3 4 5 6 
#
# 1 0.037205 -0.024511 -0.003077 0.000000 -0.005077 0.000000
# 2 -0.024511 0.031197 -0.005062 0.000000 0.010320 0.000000
# 3 -0.003077 -0.005062 0.011334 0.000000 -0.005510 0.000000
# 4 0.000000 0.000000 0.000000 0.058930 0.000000 0.009183
# 5 -0.005077 0.010320 -0.005510 0.000000 0.048100 0.000000
# 6 0.000000 0.000000 0.000000 0.009183 0.000000 0.031947
#
#
# Mechanical properties :
#
#
# Convention : Reuss Voigt Hill
#
# Bulk Modulus (GPa) = 69.27336 73.18990 71.23163
# Shear Modulus (GPa) = 17.31159 23.25675 20.28417
#
# Velocity S-wave (km/s) = 3.12130 3.61778 3.37867
# Velocity P-wave (km/s) = 7.20939 7.65771 7.43693
#
# Compressibility (1/GPa) = 0.01443556
#
# Stress axis : x y z
#
# Youngs Moduli (GPa) = 26.87846 32.05471 88.23318
#
# Poissons Ratio (x) = 0.78568 0.27149
# Poissons Ratio (y) = 0.65881 0.44663
# Poissons Ratio (z) = 0.08270 0.16226
#
# Static dielectric constant tensor:
#      x y z
#    x 1.603890 0.000000 0.023690 
#    y 0.000000 1.611660 0.000000 
#    z 0.023690 0.000000 1.649920 
# 
# From -- ./inp_files/75750.got.cif
#   From: 2010.05.17/outbox.cif.g08.bks.cpg/sg13_38_cif.got.tgz:75750.got - 2010.06.03 16:44:36.
