data_PCOD9227394
_publ_section_title
;
Structure prediction by ZEFSAII (Michael W. Deem and Ramdas Pophale) SiO2 
 PCOD9227394
Probable space group: P 2/C
;
_chemical_formula_sum "Si O2"
_cell_formula_units_Z 28
_cell_length_a 21.107961
_cell_length_b 9.702198
_cell_length_c 21.333296
_cell_angle_alpha 90.000000
_cell_angle_beta 160.094830
_cell_angle_gamma 90.000000
_cell_volume 1487.462672
_symmetry_space_group_name_H-M "P 2/C"
_symmetry_group_IT_number 13
_symmetry_cell_setting 'monoclinic'
loop_
_space_group_symop_operation_xyz
x,y,z
-x,y,1/2-z
-x,-y,-z
x,-y,1/2+z
loop_
_atom_site_type_symbol
_atom_site_label
_atom_site_fract_x
_atom_site_fract_y
_atom_site_fract_z
Si Si1 0.351389 0.497319 0.767841
Si Si2 0.764843 0.444117 0.700876
Si Si3 0.000000 0.110485 0.250000
Si Si4 0.896751 0.288504 0.533539
Si Si5 0.688180 0.035811 0.392650
Si Si6 0.842935 0.674394 0.690040
Si Si7 0.000000 0.449655 0.750000
Si Si8 0.453547 0.253440 0.779674
O O1 0.272656 0.442437 0.760420
O O2 0.236113 0.625949 0.635707
O O3 0.339044 0.376970 0.704339
O O4 0.564782 0.543903 0.980105
O O5 0.864739 0.589752 0.774384
O O6 0.894883 0.319048 0.798492
O O7 0.983010 0.210267 0.294736
O O8 0.179428 0.018074 0.428133
O O9 0.810162 0.139036 0.464567
O O10 0.899677 0.358245 0.604980
O O11 0.500000 0.094053 0.250000
O O12 0.629716 0.899339 0.299792
O O13 0.642562 0.743214 0.496003
O O14 0.858768 0.550622 0.654227
O O15 0.500000 0.284365 0.750000
#
# Coordination Sequence:
#
# PCOD9227394 Si02
#       8
#     4   4   2   4   4   4   2   4
#     4  10  21  38  66  82 119 153 201 254 299 345
#     4   9  21  39  59  91 112 154 206 248 298 358
#     4  11  19  36  56  78 118 160 182 252 296 354
#     4  11  22  37  57  86 123 153 189 249 304 360
#     4  11  24  36  53  86 123 154 195 231 311 368
#     4   9  17  32  60  80 108 145 198 246 285 346
#     4   9  19  32  56  92 110 146 198 246 308 350
#     4  10  18  35  55  86 111 147 197 240 289 362
#
# _framework density 18.824000000000002
#
# number of rings (size 3 to 8) (size 9 to 14) (size 15 to 20)
#    0.000    2.000    2.857    1.714    4.000    5.143 
#    0.000    0.714    0.000    2.571    0.000    0.000 
#    0.000    0.000    0.000    0.000    0.000    0.000 
#
# Total GULP energy -156052.460184 kJ/mol
# GULP energy per Si atom -5573.302149 kJ/mol
# Density = 1.878116 g / cm^3
# Si number density = 18.824000 Si / 1000 Ang^3
#
#
#
# Elastic Constant Matrix: (Units=GPa)
#
#
# Indices 1 2 3 4 5 6 
#
# 1 93.9947 45.5459 23.4136 0.0000 12.5883 0.0000
# 2 45.5459 85.8663 32.4215 0.0000 9.3361 0.0000
# 3 23.4136 32.4215 68.5150 0.0000 10.2500 0.0000
# 4 0.0000 0.0000 0.0000 22.9659 0.0000 10.7710
# 5 12.5883 9.3361 10.2500 0.0000 26.9758 0.0000
# 6 0.0000 0.0000 0.0000 10.7710 0.0000 19.0598
#
#
#
# Elastic Compliance Matrix: (Units=1/GPa)
#
#
# Indices 1 2 3 4 5 6 
#
# 1 0.014868 -0.007007 -0.001156 0.000000 -0.004074 0.000000
# 2 -0.007007 0.017643 -0.005863 0.000000 -0.000608 0.000000
# 3 -0.001156 -0.005863 0.018428 0.000000 -0.004434 0.000000
# 4 0.000000 0.000000 0.000000 0.059245 0.000000 -0.033480
# 5 -0.004074 -0.000608 -0.004434 0.000000 0.040867 0.000000
# 6 0.000000 0.000000 0.000000 -0.033480 0.000000 0.071387
#
#
# Mechanical properties :
#
#
# Convention : Reuss Voigt Hill
#
# Bulk Modulus (GPa) = 43.69275 50.12645 46.90960
# Shear Modulus (GPa) = 19.37107 23.59996 21.48552
#
# Velocity S-wave (km/s) = 3.21138 3.54463 3.38211
# Velocity P-wave (km/s) = 6.08377 6.59085 6.34238
#
# Compressibility (1/GPa) = 0.02288709
#
# Stress axis : x y z
#
# Youngs Moduli (GPa) = 67.26029 56.68091 54.26548
#
# Poissons Ratio (x) = 0.39716 0.06271
# Poissons Ratio (y) = 0.47129 0.31816
# Poissons Ratio (z) = 0.07772 0.33232
#
# Static dielectric constant tensor:
#      x y z
#    x 1.675990 0.000000 0.046840 
#    y 0.000000 1.656570 0.000000 
#    z 0.046840 0.000000 1.705980 
# 
# From -- ./inp_files/88885.got.cif
#   From: 2010.05.17/outbox.cif.g08.bks.cpg/sg13_45_cif.got.tgz:88885.got - 2010.06.03 16:44:36.
