data_PCOD9227216
_publ_section_title
;
Structure prediction by ZEFSAII (Michael W. Deem and Ramdas Pophale) SiO2 
 PCOD9227216
Probable space group: P 2/C
;
_chemical_formula_sum "Si O2"
_cell_formula_units_Z 28
_cell_length_a 5.820504
_cell_length_b 11.529081
_cell_length_c 21.185319
_cell_angle_alpha 90.000000
_cell_angle_beta 79.086056
_cell_angle_gamma 90.000000
_cell_volume 1395.928427
_symmetry_space_group_name_H-M "P 2/C"
_symmetry_group_IT_number 13
_symmetry_cell_setting 'monoclinic'
loop_
_space_group_symop_operation_xyz
x,y,z
-x,y,1/2-z
-x,-y,-z
x,-y,1/2+z
loop_
_atom_site_type_symbol
_atom_site_label
_atom_site_fract_x
_atom_site_fract_y
_atom_site_fract_z
Si Si1 0.781146 0.328336 0.165267
Si Si2 0.673325 0.514529 0.420725
Si Si3 0.530626 0.136417 0.494514
Si Si4 0.704473 0.294936 0.590106
Si Si5 0.889058 0.419250 0.688746
Si Si6 0.300421 0.261640 0.134138
Si Si7 0.162292 0.666332 0.984966
O O1 0.752206 0.456107 0.198341
O O2 0.526419 0.261526 0.171337
O O3 0.032692 0.271301 0.175051
O O4 0.851088 0.347459 0.088375
O O5 0.477500 0.601155 0.406846
O O6 0.643916 0.381305 0.405952
O O7 0.720742 0.554048 0.489482
O O8 0.899222 0.550311 0.368646
O O9 0.610013 0.180794 0.559926
O O10 0.685067 0.167725 0.423638
O O11 0.303231 0.215992 0.492938
O O12 0.500000 0.000000 0.500000
O O13 0.770133 0.309190 0.660313
O O14 0.919685 0.322202 0.533023
O O15 0.000000 0.391961 0.750000
#
# Coordination Sequence:
#
# PCOD9227216 Si02
#       7
#     4   4   4   4   4   4   4
#     4  10  19  33  50  78 108 142 174 215 270 328
#     4   9  19  31  52  77 108 140 174 212 275 340
#     4  10  21  33  49  77 111 144 183 224 273 329
#     4  10  18  34  50  74 111 142 176 220 276 337
#     4  10  21  33  49  77 112 142 178 220 270 333
#     4  10  19  33  50  78 108 142 177 213 268 330
#     4   9  19  31  52  77 107 141 173 218 275 338
#
# _framework density 20.058337000000002
#
# number of rings (size 3 to 8) (size 9 to 14) (size 15 to 20)
#    0.000    2.286    2.857    0.000    2.000    4.571 
#    0.000    0.000    0.000    0.000    0.000    4.000 
#   51.429    0.000    0.000    0.000    0.000    0.000 
#
# Total GULP energy -155888.672888 kJ/mol
# GULP energy per Si atom -5567.452603 kJ/mol
# Density = 2.001268 g / cm^3
# Si number density = 20.058337 Si / 1000 Ang^3
#
#
#
# Elastic Constant Matrix: (Units=GPa)
#
#
# Indices 1 2 3 4 5 6 
#
# 1 101.5034 25.9049 13.3259 0.0000 12.7912 0.0000
# 2 25.9049 128.1191 31.9484 0.0000 15.8661 0.0000
# 3 13.3259 31.9484 92.9789 0.0000 34.7451 0.0000
# 4 0.0000 0.0000 0.0000 9.6252 0.0000 0.7648
# 5 12.7912 15.8661 34.7451 0.0000 22.8738 0.0000
# 6 0.0000 0.0000 0.0000 0.7648 0.0000 11.9968
#
#
#
# Elastic Compliance Matrix: (Units=1/GPa)
#
#
# Indices 1 2 3 4 5 6 
#
# 1 0.011044 -0.001741 0.002017 0.000000 -0.008031 0.000000
# 2 -0.001741 0.008926 -0.002007 0.000000 -0.002169 0.000000
# 3 0.002017 -0.002007 0.025573 0.000000 -0.038581 0.000000
# 4 0.000000 0.000000 0.000000 0.104423 0.000000 -0.006657
# 5 -0.008031 -0.002169 -0.038581 0.000000 0.108318 0.000000
# 6 0.000000 0.000000 0.000000 -0.006657 0.000000 0.083780
#
#
# Mechanical properties :
#
#
# Convention : Reuss Voigt Hill
#
# Bulk Modulus (GPa) = 23.76438 51.66222 37.71330
# Shear Modulus (GPa) = 13.90614 25.66063 19.78339
#
# Velocity S-wave (km/s) = 2.63589 3.58061 3.14394
# Velocity P-wave (km/s) = 4.59752 6.55029 5.65878
#
# Compressibility (1/GPa) = 0.04207979
#
# Stress axis : x y z
#
# Youngs Moduli (GPa) = 90.55029 112.02684 39.10397
#
# Poissons Ratio (x) = 0.19507 -0.07886
# Poissons Ratio (y) = 0.15767 0.07848
# Poissons Ratio (z) = -0.18261 0.22483
#
# Static dielectric constant tensor:
#      x y z
#    x 1.937390 0.000000 0.054720 
#    y 0.000000 1.670660 0.000000 
#    z 0.054720 0.000000 1.748750 
# 
# From -- ./inp_files/73420.got.cif
#   From: 2010.05.17/outbox.cif.g08.bks.cpg/sg13_37_cif.got.tgz:73420.got - 2010.06.03 16:44:36.
