data_PCOD9227262
_publ_section_title
;
Structure prediction by ZEFSAII (Michael W. Deem and Ramdas Pophale) SiO2 
 PCOD9227262
Probable space group: P 2/C
;
_chemical_formula_sum "Si O2"
_cell_formula_units_Z 20
_cell_length_a 9.127450
_cell_length_b 7.901743
_cell_length_c 22.549019
_cell_angle_alpha 90.000000
_cell_angle_beta 29.893710
_cell_angle_gamma 90.000000
_cell_volume 810.534626
_symmetry_space_group_name_H-M "P 2/C"
_symmetry_group_IT_number 13
_symmetry_cell_setting 'monoclinic'
loop_
_space_group_symop_operation_xyz
x,y,z
-x,y,1/2-z
-x,-y,-z
x,-y,1/2+z
loop_
_atom_site_type_symbol
_atom_site_label
_atom_site_fract_x
_atom_site_fract_y
_atom_site_fract_z
Si Si1 0.500000 0.639623 0.750000
Si Si2 0.547135 0.155646 0.639098
Si Si3 0.588362 0.499838 0.590945
Si Si4 0.913859 0.116765 0.176188
Si Si5 0.021645 0.794439 0.406518
Si Si6 0.000000 0.340145 0.250000
O O1 0.614344 0.537580 0.652714
O O2 0.245737 0.760800 0.814142
O O3 0.627280 0.300917 0.564242
O O4 0.373385 0.978767 0.691795
O O5 0.820950 0.148037 0.587861
O O6 0.284313 0.246899 0.769115
O O7 0.270737 0.551645 0.678206
O O8 0.814101 0.634699 0.484396
O O9 0.098150 0.969825 0.079265
O O10 0.082978 0.219133 0.166316
#
# Coordination Sequence:
#
# PCOD9227262 Si02
#       6
#     2   4   4   4   4   2
#     4  10  18  34  56  86 114 148 186 250 274 332
#     4   9  18  37  59  84 114 142 196 244 278 332
#     4  11  22  35  62  86 118 151 195 239 285 338
#     4   9  18  39  57  78 121 151 185 233 293 340
#     4   9  18  36  64  86 109 149 201 235 290 332
#     4  10  24  38  54  86 122 160 182 234 290 342
#
# _framework density 24.675073000000001
#
# number of rings (size 3 to 8) (size 9 to 14) (size 15 to 20)
#    1.200    1.200    2.000    1.800    0.000    2.400 
#    0.000    1.000    0.000    0.000    0.000    0.000 
#    0.000    0.000    0.000    0.000    0.000    0.000 
#
# Total GULP energy -111691.078159 kJ/mol
# GULP energy per Si atom -5584.553908 kJ/mol
# Density = 2.461891 g / cm^3
# Si number density = 24.675073 Si / 1000 Ang^3
#
#
#
# Elastic Constant Matrix: (Units=GPa)
#
#
# Indices 1 2 3 4 5 6 
#
# 1 107.8563 30.4121 9.4887 0.0000 -4.3648 0.0000
# 2 30.4121 120.8887 10.8300 0.0000 -2.8524 0.0000
# 3 9.4887 10.8300 69.0792 0.0000 -3.1816 0.0000
# 4 0.0000 0.0000 0.0000 37.6610 0.0000 -0.7831
# 5 -4.3648 -2.8524 -3.1816 0.0000 19.8590 0.0000
# 6 0.0000 0.0000 0.0000 -0.7831 0.0000 15.9087
#
#
#
# Elastic Compliance Matrix: (Units=1/GPa)
#
#
# Indices 1 2 3 4 5 6 
#
# 1 0.010105 -0.002418 -0.000929 0.000000 0.001725 0.000000
# 2 -0.002418 0.008988 -0.001050 0.000000 0.000591 0.000000
# 3 -0.000929 -0.001050 0.014862 0.000000 0.002026 0.000000
# 4 0.000000 0.000000 0.000000 0.026580 0.000000 0.001308
# 5 0.001725 0.000591 0.002026 0.000000 0.051144 0.000000
# 6 0.000000 0.000000 0.000000 0.001308 0.000000 0.062923
#
#
# Mechanical properties :
#
#
# Convention : Reuss Voigt Hill
#
# Bulk Modulus (GPa) = 39.74518 44.36510 42.05514
# Shear Modulus (GPa) = 26.07107 31.15862 28.61484
#
# Velocity S-wave (km/s) = 3.25403 3.55738 3.40908
# Velocity P-wave (km/s) = 5.50097 5.90695 5.70757
#
# Compressibility (1/GPa) = 0.02516028
#
# Stress axis : x y z
#
# Youngs Moduli (GPa) = 98.96084 111.25436 67.28706
#
# Poissons Ratio (x) = 0.26903 0.06254
# Poissons Ratio (y) = 0.23930 0.07064
# Poissons Ratio (z) = 0.09198 0.11679
#
# Static dielectric constant tensor:
#      x y z
#    x 1.885820 0.000000 0.105940 
#    y 0.000000 2.028040 0.000000 
#    z 0.105940 0.000000 2.088810 
# 
# From -- ./inp_files/84666.got.cif
#   From: 2010.05.17/outbox.cif.g08.bks.cpg/sg13_43_cif.got.tgz:84666.got - 2010.06.03 16:44:36.
