data_PCOD9227170
_publ_section_title
;
Structure prediction by ZEFSAII (Michael W. Deem and Ramdas Pophale) SiO2 
 PCOD9227170
Probable space group: P 2/C
;
_chemical_formula_sum "Si O2"
_cell_formula_units_Z 30
_cell_length_a 8.538396
_cell_length_b 11.263309
_cell_length_c 17.794224
_cell_angle_alpha 90.000000
_cell_angle_beta 57.554750
_cell_angle_gamma 90.000000
_cell_volume 1444.157769
_symmetry_space_group_name_H-M "P 2/C"
_symmetry_group_IT_number 13
_symmetry_cell_setting 'monoclinic'
loop_
_space_group_symop_operation_xyz
x,y,z
-x,y,1/2-z
-x,-y,-z
x,-y,1/2+z
loop_
_atom_site_type_symbol
_atom_site_label
_atom_site_fract_x
_atom_site_fract_y
_atom_site_fract_z
Si Si1 0.816779 0.154526 0.044667
Si Si2 0.768598 0.774354 0.039826
Si Si3 0.000000 0.737084 0.750000
Si Si4 0.765887 0.408847 0.430476
Si Si5 0.661140 0.330002 0.965526
Si Si6 0.746249 0.971459 0.936810
Si Si7 0.169382 0.058032 0.293527
Si Si8 0.610159 0.865597 0.350432
O O1 0.776173 0.116126 0.140502
O O2 0.720439 0.263472 0.026728
O O3 0.758629 0.044242 0.009878
O O4 0.038008 0.175860 0.981327
O O5 0.583123 0.812376 0.130220
O O6 0.794584 0.638930 0.008530
O O7 0.727704 0.837670 0.969165
O O8 0.911370 0.654960 0.837423
O O9 0.841058 0.827102 0.758992
O O10 0.551577 0.372584 0.469821
O O11 0.777866 0.550542 0.422701
O O12 0.683776 0.241389 0.886876
O O13 0.608094 0.028088 0.912965
O O14 0.954755 0.982816 0.851174
O O15 0.280542 0.940021 0.241073
#
# Coordination Sequence:
#
# PCOD9227170 Si02
#       8
#     4   4   2   4   4   4   4   4
#     4  10  21  37  58  87 123 160 202 253 318 375
#     4  10  18  33  57  85 115 159 200 241 308 378
#     4  12  20  36  60  96 116 152 204 274 304 372
#     4  10  20  40  64  86 120 159 219 251 305 371
#     4   9  22  41  61  88 119 169 210 257 298 387
#     4  10  18  35  53  78 118 159 196 251 309 381
#     4  11  19  35  58  88 123 154 200 266 318 375
#     4  10  19  33  59  85 116 155 205 252 308 369
#
# _framework density 20.773354000000001
#
# number of rings (size 3 to 8) (size 9 to 14) (size 15 to 20)
#    0.000    1.867    4.000    2.000    0.000    2.667 
#    4.800    6.000    0.000    0.000    0.000    0.000 
#    0.000    0.000    0.000    0.000    0.000    0.000 
#
# Total GULP energy -167069.409062 kJ/mol
# GULP energy per Si atom -5568.980302 kJ/mol
# Density = 2.072607 g / cm^3
# Si number density = 20.773354 Si / 1000 Ang^3
#
#
#
# Elastic Constant Matrix: (Units=GPa)
#
#
# Indices 1 2 3 4 5 6 
#
# 1 80.0517 35.5234 22.8599 0.0000 9.9413 0.0000
# 2 35.5234 138.4540 48.8758 0.0000 -3.7248 0.0000
# 3 22.8599 48.8758 79.9041 0.0000 2.9478 0.0000
# 4 0.0000 0.0000 0.0000 30.3495 0.0000 -0.4561
# 5 9.9413 -3.7248 2.9478 0.0000 27.6576 0.0000
# 6 0.0000 0.0000 0.0000 -0.4561 0.0000 19.9407
#
#
#
# Elastic Compliance Matrix: (Units=1/GPa)
#
#
# Indices 1 2 3 4 5 6 
#
# 1 0.015284 -0.003324 -0.002129 0.000000 -0.005715 0.000000
# 2 -0.003324 0.010030 -0.005299 0.000000 0.003110 0.000000
# 3 -0.002129 -0.005299 0.016428 0.000000 -0.001699 0.000000
# 4 0.000000 0.000000 0.000000 0.032961 0.000000 0.000754
# 5 -0.005715 0.003110 -0.001699 0.000000 0.038810 0.000000
# 6 0.000000 0.000000 0.000000 0.000754 0.000000 0.050166
#
#
# Mechanical properties :
#
#
# Convention : Reuss Voigt Hill
#
# Bulk Modulus (GPa) = 49.40911 56.99200 53.20055
# Shear Modulus (GPa) = 26.05138 28.33293 27.19216
#
# Velocity S-wave (km/s) = 3.54514 3.69712 3.62192
# Velocity P-wave (km/s) = 6.37133 6.76163 6.56938
#
# Compressibility (1/GPa) = 0.02023918
#
# Stress axis : x y z
#
# Youngs Moduli (GPa) = 65.42591 99.70492 60.87216
#
# Poissons Ratio (x) = 0.33140 0.12959
# Poissons Ratio (y) = 0.21746 0.32255
# Poissons Ratio (z) = 0.13928 0.52831
#
# Static dielectric constant tensor:
#      x y z
#    x 1.797550 0.000000 -0.045930 
#    y 0.000000 1.789090 0.000000 
#    z -0.045930 0.000000 1.896650 
# 
# From -- ./inp_files/64439.got.cif
#   From: 2010.05.17/outbox.cif.g08.bks.cpg/sg13_33_cif.got.tgz:64439.got - 2010.06.03 16:44:36.
