data_PCOD9227144
_publ_section_title
;
Structure prediction by ZEFSAII (Michael W. Deem and Ramdas Pophale) SiO2 
 PCOD9227144
Probable space group: P 2/C
;
_chemical_formula_sum "Si O2"
_cell_formula_units_Z 28
_cell_length_a 25.324159
_cell_length_b 9.194735
_cell_length_c 8.990157
_cell_angle_alpha 90.000000
_cell_angle_beta 133.585664
_cell_angle_gamma 90.000000
_cell_volume 1516.305202
_symmetry_space_group_name_H-M "P 2/C"
_symmetry_group_IT_number 13
_symmetry_cell_setting 'monoclinic'
loop_
_space_group_symop_operation_xyz
x,y,z
-x,y,1/2-z
-x,-y,-z
x,-y,1/2+z
loop_
_atom_site_type_symbol
_atom_site_label
_atom_site_fract_x
_atom_site_fract_y
_atom_site_fract_z
Si Si1 0.555429 0.942792 0.488731
Si Si2 0.300546 0.140323 0.741555
Si Si3 0.052552 0.552783 0.734097
Si Si4 0.144288 0.367555 0.140664
Si Si5 0.341924 0.312891 0.294804
Si Si6 0.760633 0.110971 0.210797
Si Si7 0.293243 0.445026 0.890062
O O1 0.591096 0.791438 0.606790
O O2 0.500000 0.000000 0.500000
O O3 0.620449 0.060416 0.583544
O O4 0.500000 0.911949 0.250000
O O5 0.278491 0.123322 0.525785
O O6 0.295786 0.306944 0.784354
O O7 0.244302 0.051739 0.737894
O O8 0.116336 0.621389 0.756952
O O9 0.000000 0.637183 0.750000
O O10 0.000000 0.500000 0.500000
O O11 0.088081 0.428296 0.907828
O O12 0.164695 0.199575 0.154795
O O13 0.215922 0.470043 0.255973
O O14 0.283458 0.202061 0.251121
O O15 0.349529 0.436690 0.434150
O O16 0.313832 0.387194 0.091585
#
# Coordination Sequence:
#
# PCOD9227144 Si02
#       7
#     4   4   4   4   4   4   4
#     4  11  22  39  57  74 105 151 191 226 282 362
#     4  11  21  36  56  83 111 144 188 241 290 337
#     4   9  18  31  51  83 117 147 180 219 260 320
#     4  10  18  33  55  84 111 142 181 225 282 330
#     4  10  21  36  54  81 109 140 182 238 289 329
#     4  10  20  34  54  82 112 142 183 234 282 333
#     4  11  20  35  58  83 113 140 178 245 295 329
#
# _framework density 18.465938999999999
#
# number of rings (size 3 to 8) (size 9 to 14) (size 15 to 20)
#    0.000    1.714    0.000    8.571    0.000    0.000 
#    0.000    3.571    0.000    0.000    0.000   63.000 
#    0.000    0.000    0.000    0.000    0.000    0.000 
#
# Total GULP energy -155892.856690 kJ/mol
# GULP energy per Si atom -5567.602025 kJ/mol
# Density = 1.842391 g / cm^3
# Si number density = 18.465939 Si / 1000 Ang^3
#
#
#
# Elastic Constant Matrix: (Units=GPa)
#
#
# Indices 1 2 3 4 5 6 
#
# 1 103.0133 37.0292 14.8465 0.0000 -3.2098 0.0000
# 2 37.0292 82.8330 -1.5934 0.0000 12.5558 0.0000
# 3 14.8465 -1.5934 77.0899 0.0000 -1.5741 0.0000
# 4 0.0000 0.0000 0.0000 14.1207 0.0000 -17.1508
# 5 -3.2098 12.5558 -1.5741 0.0000 29.0280 0.0000
# 6 0.0000 0.0000 0.0000 -17.1508 0.0000 15.6247
#
#
#
# Elastic Compliance Matrix: (Units=1/GPa)
#
#
# Indices 1 2 3 4 5 6 
#
# 1 0.012404 -0.006185 -0.002437 0.000000 0.003915 0.000000
# 2 -0.006185 0.016006 0.001368 0.000000 -0.007533 0.000000
# 3 -0.002437 0.001368 0.013467 0.000000 -0.000131 0.000000
# 4 0.000000 0.000000 0.000000 -0.212534 0.000000 -0.233291
# 5 0.003915 -0.007533 -0.000131 0.000000 0.038134 0.000000
# 6 0.000000 0.000000 0.000000 -0.233291 0.000000 -0.192075
#
#
# Mechanical properties :
#
#
# Convention : Reuss Voigt Hill
#
# Bulk Modulus (GPa) = 36.53801 40.38898 38.46349
# Shear Modulus (GPa) = -16.61304 25.93160 4.65928
#
# Velocity S-wave (km/s) = -3.00268 3.75146 1.59017
# Velocity P-wave (km/s) = 2.79431 6.37842 4.92404
#
# Compressibility (1/GPa) = 0.02736876
#
# Stress axis : x y z
#
# Youngs Moduli (GPa) = 80.61887 62.47781 74.25691
#
# Poissons Ratio (x) = 0.38645 0.18095
# Poissons Ratio (y) = 0.49865 -0.10160
# Poissons Ratio (z) = 0.19645 -0.08548
#
# Static dielectric constant tensor:
#      x y z
#    x 1.690650 0.000000 0.026430 
#    y 0.000000 1.666210 0.000000 
#    z 0.026430 0.000000 1.634470 
# 
# From -- ./inp_files/24550.got.cif
#   From: 2010.05.17/outbox.cif.g08.bks.cpg/sg13_13_cif.got.tgz:24550.got - 2010.06.03 16:44:36.
