data_PCOD9227518
_publ_section_title
;
Structure prediction by ZEFSAII (Michael W. Deem and Ramdas Pophale) SiO2 
 PCOD9227518
Probable space group: P 2/C
;
_chemical_formula_sum "Si O2"
_cell_formula_units_Z 28
_cell_length_a 16.769666
_cell_length_b 8.646696
_cell_length_c 21.182212
_cell_angle_alpha 90.000000
_cell_angle_beta 26.625524
_cell_angle_gamma 90.000000
_cell_volume 1376.500761
_symmetry_space_group_name_H-M "P 2/C"
_symmetry_group_IT_number 13
_symmetry_cell_setting 'monoclinic'
loop_
_space_group_symop_operation_xyz
x,y,z
-x,y,1/2-z
-x,-y,-z
x,-y,1/2+z
loop_
_atom_site_type_symbol
_atom_site_label
_atom_site_fract_x
_atom_site_fract_y
_atom_site_fract_z
Si Si1 0.145059 0.292656 0.524146
Si Si2 0.959157 0.997333 0.704874
Si Si3 0.391679 0.494987 0.273647
Si Si4 0.805406 0.592889 0.194655
Si Si5 0.272439 0.468542 0.552586
Si Si6 0.627902 0.213787 0.916603
Si Si7 0.774941 0.705902 0.804302
O O1 0.318463 0.343599 0.361964
O O2 0.145509 0.404917 0.586124
O O3 0.105341 0.117829 0.574112
O O4 0.986844 0.333513 0.589181
O O5 0.763170 0.073750 0.832636
O O6 0.000000 0.982023 0.750000
O O7 0.934761 0.828975 0.691295
O O8 0.500000 0.588264 0.250000
O O9 0.225808 0.573965 0.357150
O O10 0.534971 0.472295 0.117293
O O11 0.659821 0.711117 0.325591
O O12 0.790964 0.428405 0.240684
O O13 0.292258 0.338509 0.591363
O O14 0.229589 0.622008 0.623193
O O15 0.415860 0.211293 0.074176
#
# Coordination Sequence:
#
# PCOD9227518 Si02
#       7
#     4   4   4   4   4   4   4
#     4  10  22  35  57  83 119 153 187 233 301 355
#     4  11  23  36  53  85 122 152 184 235 304 360
#     4  10  19  35  59  84 110 150 195 240 284 345
#     4  10  19  34  58  87 112 143 197 244 291 334
#     4  10  18  36  60  86 108 145 198 246 287 340
#     4  10  18  36  58  81 117 145 190 243 288 351
#     4  11  21  33  60  87 113 146 194 249 293 340
#
# _framework density 20.341436000000002
#
# number of rings (size 3 to 8) (size 9 to 14) (size 15 to 20)
#    0.000    1.714    4.286    1.714    2.000    0.000 
#    0.000    0.714    0.000    0.000    0.000    0.000 
#    0.000    0.000    0.000    0.000    0.000    0.000 
#
# Total GULP energy -155946.243599 kJ/mol
# GULP energy per Si atom -5569.508700 kJ/mol
# Density = 2.029514 g / cm^3
# Si number density = 20.341436 Si / 1000 Ang^3
#
#
#
# Elastic Constant Matrix: (Units=GPa)
#
#
# Indices 1 2 3 4 5 6 
#
# 1 117.7607 36.7051 13.0149 0.0000 -14.1152 0.0000
# 2 36.7051 46.2751 -5.2963 0.0000 -11.0797 0.0000
# 3 13.0149 -5.2963 36.0197 0.0000 -8.6506 0.0000
# 4 0.0000 0.0000 0.0000 16.7354 0.0000 -7.3003
# 5 -14.1152 -11.0797 -8.6506 0.0000 21.1385 0.0000
# 6 0.0000 0.0000 0.0000 -7.3003 0.0000 11.3644
#
#
#
# Elastic Compliance Matrix: (Units=1/GPa)
#
#
# Indices 1 2 3 4 5 6 
#
# 1 0.012459 -0.010467 -0.005945 0.000000 0.000401 0.000000
# 2 -0.010467 0.035466 0.013067 0.000000 0.016947 0.000000
# 3 -0.005945 0.013067 0.036068 0.000000 0.017640 0.000000
# 4 0.000000 0.000000 0.000000 0.083016 0.000000 0.053328
# 5 0.000401 0.016947 0.017640 0.000000 0.063676 0.000000
# 6 0.000000 0.000000 0.000000 0.053328 0.000000 0.122252
#
#
# Mechanical properties :
#
#
# Convention : Reuss Voigt Hill
#
# Bulk Modulus (GPa) = 12.93604 32.10031 22.51817
# Shear Modulus (GPa) = 12.97369 20.22311 16.59840
#
# Velocity S-wave (km/s) = 2.52820 3.15649 2.85965
# Velocity P-wave (km/s) = 3.85949 5.39440 4.69016
#
# Compressibility (1/GPa) = 0.07730342
#
# Stress axis : x y z
#
# Youngs Moduli (GPa) = 80.26092 28.19637 27.72508
#
# Poissons Ratio (x) = 0.29514 0.16482
# Poissons Ratio (y) = 0.84010 -0.36228
# Poissons Ratio (z) = 0.47713 -0.36844
#
# Static dielectric constant tensor:
#      x y z
#    x 1.762960 0.000000 -0.024800 
#    y 0.000000 1.747450 0.000000 
#    z -0.024800 0.000000 1.826350 
# 
# From -- ./inp_files/87821.got.cif
#   From: 2010.05.17/outbox.cif.g08.bks.cpg/sg13_44_cif.got.tgz:87821.got - 2010.06.03 16:44:36.
