data_PCOD9227979
_publ_section_title
;
Structure prediction by ZEFSAII (Michael W. Deem and Ramdas Pophale) SiO2 
 PCOD9227979
Probable space group: P 2/C
;
_chemical_formula_sum "Si O2"
_cell_formula_units_Z 32
_cell_length_a 10.767340
_cell_length_b 8.395256
_cell_length_c 22.824084
_cell_angle_alpha 90.000000
_cell_angle_beta 61.851838
_cell_angle_gamma 90.000000
_cell_volume 1819.163170
_symmetry_space_group_name_H-M "P 2/C"
_symmetry_group_IT_number 13
_symmetry_cell_setting 'monoclinic'
loop_
_space_group_symop_operation_xyz
x,y,z
-x,y,1/2-z
-x,-y,-z
x,-y,1/2+z
loop_
_atom_site_type_symbol
_atom_site_label
_atom_site_fract_x
_atom_site_fract_y
_atom_site_fract_z
Si Si1 0.565726 0.673963 0.828186
Si Si2 0.277901 0.673963 0.828186
Si Si3 0.965793 0.434539 0.421593
Si Si4 0.556039 0.764300 0.477019
Si Si5 0.010076 0.764300 0.022981
Si Si6 0.691021 0.565461 0.921593
Si Si7 0.515879 0.986269 0.595635
Si Si8 0.207148 0.986269 0.904365
O O1 0.401701 0.637714 0.848299
O O2 0.655246 0.645544 0.750000
O O3 0.628767 0.583050 0.870043
O O4 0.567889 0.860731 0.845859
O O5 0.240393 0.860731 0.845859
O O6 0.131147 0.583050 0.870043
O O7 0.938642 0.308683 0.480106
O O8 0.855987 0.404028 0.394013
O O9 0.941083 0.610685 0.452507
O O10 0.398855 0.691317 0.519894
O O11 0.653903 0.610685 0.452507
O O12 0.575382 0.877127 0.528936
O O13 0.567364 0.872846 0.417115
O O14 0.901594 0.872846 0.082885
O O15 0.133253 0.877127 0.971064
O O16 0.646318 0.050480 0.603682
#
# Coordination Sequence:
#
# PCOD9227979 Si02
#       8
#     4   4   4   4   4   4   4   4
#     4   9  19  35  52  70  94 127 166 205 245 289
#     4   9  19  35  52  70  94 127 166 205 245 289
#     4  10  19  31  50  74 102 132 161 198 242 291
#     4   9  18  29  46  75 103 126 157 196 245 293
#     4   9  18  29  46  75 103 126 157 196 245 293
#     4  10  19  31  50  74 102 132 161 198 242 291
#     4   9  16  29  49  70  96 128 160 197 240 289
#     4   9  16  29  49  70  96 128 160 197 240 289
#
# _framework density 17.590506000000001
#
# number of rings (size 3 to 8) (size 9 to 14) (size 15 to 20)
#    0.000    2.750    0.000    1.500    0.000    7.500 
#    0.000    2.500    0.000    3.000    0.000    0.000 
#    0.000    0.000    0.000    0.000    0.000    0.000 
#
# Total GULP energy -178202.886296 kJ/mol
# GULP energy per Si atom -5568.840197 kJ/mol
# Density = 1.755047 g / cm^3
# Si number density = 17.590506 Si / 1000 Ang^3
#
#
#
# Elastic Constant Matrix: (Units=GPa)
#
#
# Indices 1 2 3 4 5 6 
#
# 1 100.6604 18.0838 27.6356 0.0000 1.3997 0.0000
# 2 18.0838 38.9037 -0.4887 0.0000 0.6869 0.0000
# 3 27.6356 -0.4887 40.8833 0.0000 0.8110 0.0000
# 4 0.0000 0.0000 0.0000 16.0122 0.0000 -0.4667
# 5 1.3997 0.6869 0.8110 0.0000 17.6099 0.0000
# 6 0.0000 0.0000 0.0000 -0.4667 0.0000 3.3921
#
#
#
# Elastic Compliance Matrix: (Units=1/GPa)
#
#
# Indices 1 2 3 4 5 6 
#
# 1 0.013652 -0.006456 -0.009298 0.000000 -0.000405 0.000000
# 2 -0.006456 0.028779 0.004724 0.000000 -0.000827 0.000000
# 3 -0.009298 0.004724 0.030818 0.000000 -0.000864 0.000000
# 4 0.000000 0.000000 0.000000 0.062704 0.000000 0.008627
# 5 -0.000405 -0.000827 -0.000864 0.000000 0.056891 0.000000
# 6 0.000000 0.000000 0.000000 0.008627 0.000000 0.295990
#
#
# Mechanical properties :
#
#
# Convention : Reuss Voigt Hill
#
# Bulk Modulus (GPa) = 19.53439 30.10099 24.81769
# Shear Modulus (GPa) = 9.47047 16.41727 12.94387
#
# Velocity S-wave (km/s) = 2.32283 3.05832 2.71559
# Velocity P-wave (km/s) = 4.28057 5.44245 4.89610
#
# Compressibility (1/GPa) = 0.05119176
#
# Stress axis : x y z
#
# Youngs Moduli (GPa) = 73.24707 34.74717 32.44822
#
# Poissons Ratio (x) = 0.22432 0.30169
# Poissons Ratio (y) = 0.47287 -0.15329
# Poissons Ratio (z) = 0.68103 -0.16416
#
# Static dielectric constant tensor:
#      x y z
#    x 1.616890 0.000000 0.000910 
#    y 0.000000 1.595760 0.000000 
#    z 0.000910 0.000000 1.592340 
# 
# From -- ./inp_files/78029.got.cif
#   From: 2010.05.17/outbox.cif.g08.bks.cpg/sg13_40_cif.got.tgz:78029.got - 2010.06.03 16:44:36.
