data_PCOD9227362
_publ_section_title
;
Structure prediction by ZEFSAII (Michael W. Deem and Ramdas Pophale) SiO2 
 PCOD9227362
Probable space group: P 2/C
;
_chemical_formula_sum "Si O2"
_cell_formula_units_Z 22
_cell_length_a 18.954265
_cell_length_b 8.753914
_cell_length_c 14.956903
_cell_angle_alpha 90.000000
_cell_angle_beta 157.614342
_cell_angle_gamma 90.000000
_cell_volume 945.131515
_symmetry_space_group_name_H-M "P 2/C"
_symmetry_group_IT_number 13
_symmetry_cell_setting 'monoclinic'
loop_
_space_group_symop_operation_xyz
x,y,z
-x,y,1/2-z
-x,-y,-z
x,-y,1/2+z
loop_
_atom_site_type_symbol
_atom_site_label
_atom_site_fract_x
_atom_site_fract_y
_atom_site_fract_z
Si Si1 0.158370 0.919756 0.316327
Si Si2 0.888560 0.862921 0.447059
Si Si3 0.650291 0.636306 0.993732
Si Si4 0.500000 0.123638 0.750000
Si Si5 0.495730 0.181473 0.015347
Si Si6 0.743133 0.683862 0.669961
O O1 0.192861 0.740852 0.369131
O O2 0.323759 0.011708 0.557559
O O3 0.167559 0.933010 0.216569
O O4 0.964000 0.005692 0.101345
O O5 0.704632 0.777989 0.264005
O O6 0.059176 0.749804 0.628291
O O7 0.500000 0.572423 0.750000
O O8 0.535733 0.753513 0.922337
O O9 0.734340 0.496581 0.146568
O O10 0.415390 0.232259 0.575035
O O11 0.676642 0.262749 0.189072
O O12 0.500000 0.000000 0.000000
#
# Coordination Sequence:
#
# PCOD9227362 Si02
#       6
#     4   4   4   2   4   4
#     4   9  17  33  60  86 118 161 207 249 307 372
#     4   9  20  39  63  94 123 165 217 264 315 379
#     4  11  22  39  65  96 132 171 208 265 334 382
#     4  10  18  34  62  88 120 170 204 262 314 364
#     4  11  23  40  68  96 123 169 224 262 309 391
#     4  11  22  40  66  93 130 172 212 263 328 385
#
# _framework density 23.277184999999999
#
# number of rings (size 3 to 8) (size 9 to 14) (size 15 to 20)
#    0.000    1.818    1.818    6.000    0.000    2.909 
#    0.000    5.455    4.000    9.818    0.000    0.000 
#    0.000    0.000    0.000    0.000    0.000    0.000 
#
# Total GULP energy -122592.509099 kJ/mol
# GULP energy per Si atom -5572.386777 kJ/mol
# Density = 2.322420 g / cm^3
# Si number density = 23.277185 Si / 1000 Ang^3
#
#
#
# Elastic Constant Matrix: (Units=GPa)
#
#
# Indices 1 2 3 4 5 6 
#
# 1 44.1654 13.1297 14.6845 0.0000 19.5288 0.0000
# 2 13.1297 121.4956 21.3448 0.0000 6.1162 0.0000
# 3 14.6845 21.3448 108.6426 0.0000 14.3038 0.0000
# 4 0.0000 0.0000 0.0000 40.6619 0.0000 -7.6430
# 5 19.5288 6.1162 14.3038 0.0000 28.0432 0.0000
# 6 0.0000 0.0000 0.0000 -7.6430 0.0000 19.6032
#
#
#
# Elastic Compliance Matrix: (Units=1/GPa)
#
#
# Indices 1 2 3 4 5 6 
#
# 1 0.033562 -0.002303 -0.001150 0.000000 -0.022283 0.000000
# 2 -0.002303 0.008714 -0.001460 0.000000 0.000448 0.000000
# 3 -0.001150 -0.001460 0.010183 0.000000 -0.004075 0.000000
# 4 0.000000 0.000000 0.000000 0.026538 0.000000 0.010347
# 5 -0.022283 0.000448 -0.004075 0.000000 0.053158 0.000000
# 6 0.000000 0.000000 0.000000 0.010347 0.000000 0.055046
#
#
# Mechanical properties :
#
#
# Convention : Reuss Voigt Hill
#
# Bulk Modulus (GPa) = 23.45578 41.40240 32.42909
# Shear Modulus (GPa) = 23.67000 32.67129 28.17064
#
# Velocity S-wave (km/s) = 3.19231 3.75050 3.48260
# Velocity P-wave (km/s) = 4.86687 6.04816 5.48938
#
# Compressibility (1/GPa) = 0.04263341
#
# Stress axis : x y z
#
# Youngs Moduli (GPa) = 29.79520 114.76407 98.20103
#
# Poissons Ratio (x) = 0.26432 0.11294
# Poissons Ratio (y) = 0.06862 0.14333
# Poissons Ratio (z) = 0.03427 0.16751
#
# Static dielectric constant tensor:
#      x y z
#    x 2.015180 0.000000 0.015600 
#    y 0.000000 1.916470 0.000000 
#    z 0.015600 0.000000 1.941580 
# 
# From -- ./inp_files/71192.got.cif
#   From: 2010.05.17/outbox.cif.g08.bks.cpg/sg13_36_cif.got.tgz:71192.got - 2010.06.03 16:44:36.
