data_PCOD9227393
_publ_section_title
;
Structure prediction by ZEFSAII (Michael W. Deem and Ramdas Pophale) SiO2 
 PCOD9227393
Probable space group: P 2/C
;
_chemical_formula_sum "Si O2"
_cell_formula_units_Z 26
_cell_length_a 8.688642
_cell_length_b 14.671489
_cell_length_c 10.295472
_cell_angle_alpha 90.000000
_cell_angle_beta 88.838527
_cell_angle_gamma 90.000000
_cell_volume 1312.148892
_symmetry_space_group_name_H-M "P 2/C"
_symmetry_group_IT_number 13
_symmetry_cell_setting 'monoclinic'
loop_
_space_group_symop_operation_xyz
x,y,z
-x,y,1/2-z
-x,-y,-z
x,-y,1/2+z
loop_
_atom_site_type_symbol
_atom_site_label
_atom_site_fract_x
_atom_site_fract_y
_atom_site_fract_z
Si Si1 0.783212 0.361951 0.652718
Si Si2 0.610478 0.007699 0.622187
Si Si3 0.500000 0.295951 0.250000
Si Si4 0.635479 0.457408 0.080428
Si Si5 0.291162 0.814904 0.902252
Si Si6 0.122510 0.334386 0.559915
Si Si7 0.570481 0.205642 0.605269
O O1 0.704828 0.461152 0.666856
O O2 0.816015 0.320387 0.794478
O O3 0.671225 0.294193 0.578262
O O4 0.945595 0.362916 0.576090
O O5 0.500000 0.999257 0.750000
O O6 0.728106 0.923261 0.615107
O O7 0.500000 0.000000 0.500000
O O8 0.667784 0.111847 0.613551
O O9 0.556654 0.369536 0.144511
O O10 0.645558 0.227173 0.234732
O O11 0.500000 0.500000 0.000000
O O12 0.777716 0.417121 0.998169
O O13 0.157850 0.753863 0.969323
O O14 0.435701 0.804122 0.000987
O O15 0.500000 0.218055 0.750000
#
# Coordination Sequence:
#
# PCOD9227393 Si02
#       7
#     4   4   2   4   4   4   4
#     4  11  21  36  53  76 115 143 184 228 276 334
#     4   9  18  32  55  88 115 139 180 238 283 325
#     4  10  20  30  52  80 100 134 176 222 274 312
#     4  11  22  35  55  78 106 142 189 230 273 324
#     4  10  18  35  55  81 110 137 182 230 273 324
#     4  10  22  35  53  79 108 150 180 226 282 332
#     4  10  19  32  56  82 107 140 182 222 273 323
#
# _framework density 19.814826
#
# number of rings (size 3 to 8) (size 9 to 14) (size 15 to 20)
#    0.000    1.846    2.308    3.231    1.077    0.000 
#    0.000    0.769    0.000    8.308    0.000    0.000 
#    0.000    0.000    0.000    0.000    0.000    0.000 
#
# Total GULP energy -144784.674078 kJ/mol
# GULP energy per Si atom -5568.641311 kJ/mol
# Density = 1.976973 g / cm^3
# Si number density = 19.814826 Si / 1000 Ang^3
#
#
#
# Elastic Constant Matrix: (Units=GPa)
#
#
# Indices 1 2 3 4 5 6 
#
# 1 38.2881 24.7625 14.9582 0.0000 -3.4683 0.0000
# 2 24.7625 126.7610 6.5122 0.0000 -12.1779 0.0000
# 3 14.9582 6.5122 57.2015 0.0000 -17.6779 0.0000
# 4 0.0000 0.0000 0.0000 19.2499 0.0000 -5.8461
# 5 -3.4683 -12.1779 -17.6779 0.0000 18.0204 0.0000
# 6 0.0000 0.0000 0.0000 -5.8461 0.0000 13.2866
#
#
#
# Elastic Compliance Matrix: (Units=1/GPa)
#
#
# Indices 1 2 3 4 5 6 
#
# 1 0.034034 -0.006933 -0.010812 0.000000 -0.008741 0.000000
# 2 -0.006933 0.009902 0.003360 0.000000 0.008653 0.000000
# 3 -0.010812 0.003360 0.028681 0.000000 0.028325 0.000000
# 4 0.000000 0.000000 0.000000 0.059961 0.000000 0.026383
# 5 -0.008741 0.008653 0.028325 0.000000 0.087445 0.000000
# 6 0.000000 0.000000 0.000000 0.026383 0.000000 0.086872
#
#
# Mechanical properties :
#
#
# Convention : Reuss Voigt Hill
#
# Bulk Modulus (GPa) = 22.80684 34.96848 28.88766
# Shear Modulus (GPa) = 14.27431 21.84590 18.06010
#
# Velocity S-wave (km/s) = 2.68691 3.32400 3.02229
# Velocity P-wave (km/s) = 4.60011 5.69367 5.17585
#
# Compressibility (1/GPa) = 0.04384649
#
# Stress axis : x y z
#
# Youngs Moduli (GPa) = 29.38264 100.99102 34.86657
#
# Poissons Ratio (x) = 0.70014 0.37698
# Poissons Ratio (y) = 0.20370 -0.11715
# Poissons Ratio (z) = 0.31769 -0.33932
#
# Static dielectric constant tensor:
#      x y z
#    x 1.668210 0.000000 0.005720 
#    y 0.000000 1.828020 0.000000 
#    z 0.005720 0.000000 1.802110 
# 
# From -- ./inp_files/29887.got.cif
#   From: 2010.05.17/outbox.cif.g08.bks.cpg/sg13_15_cif.got.tgz:29887.got - 2010.06.03 16:44:36.
