data_PCOD9227258
_publ_section_title
;
Structure prediction by ZEFSAII (Michael W. Deem and Ramdas Pophale) SiO2 
 PCOD9227258
Probable space group: P 2/C
;
_chemical_formula_sum "Si O2"
_cell_formula_units_Z 32
_cell_length_a 23.738699
_cell_length_b 12.653443
_cell_length_c 10.047501
_cell_angle_alpha 90.000000
_cell_angle_beta 42.780927
_cell_angle_gamma 90.000000
_cell_volume 2049.837601
_symmetry_space_group_name_H-M "P 2/C"
_symmetry_group_IT_number 13
_symmetry_cell_setting 'monoclinic'
loop_
_space_group_symop_operation_xyz
x,y,z
-x,y,1/2-z
-x,-y,-z
x,-y,1/2+z
loop_
_atom_site_type_symbol
_atom_site_label
_atom_site_fract_x
_atom_site_fract_y
_atom_site_fract_z
Si Si1 0.599763 0.667725 0.582888
Si Si2 0.790243 0.910215 0.578600
Si Si3 0.400544 0.418171 0.915095
Si Si4 0.658582 0.253018 0.265915
Si Si5 0.056034 0.027437 0.276623
Si Si6 0.777895 0.095303 0.412760
Si Si7 0.490724 0.902377 0.417491
Si Si8 0.640238 0.256262 0.728713
O O1 0.500000 0.682577 0.750000
O O2 0.616058 0.542256 0.547193
O O3 0.634873 0.712743 0.658984
O O4 0.638581 0.724961 0.388385
O O5 0.749645 0.797379 0.619855
O O6 0.778737 0.932982 0.755237
O O7 0.886647 0.928687 0.372585
O O8 0.746630 0.997685 0.558806
O O9 0.500000 0.403404 0.750000
O O10 0.371230 0.366617 0.827881
O O11 0.358827 0.349940 0.104450
O O12 0.595735 0.159327 0.417499
O O13 0.127489 0.108353 0.200605
O O14 0.000000 0.062070 0.250000
O O15 0.000000 0.000000 0.500000
O O16 0.721115 0.195475 0.537933
O O17 0.500000 0.939469 0.250000
O O18 0.562378 0.817060 0.323622
O O19 0.500000 0.000000 0.500000
#
# Coordination Sequence:
#
# PCOD9227258 Si02
#       8
#     4   4   4   4   4   4   4   4
#     4  11  24  35  56  77 100 146 196 242 274 313
#     4  10  21  34  55  81 111 146 173 220 258 323
#     4  11  20  39  56  73 102 144 196 238 276 308
#     4  12  21  37  53  77 108 142 187 228 272 314
#     4  10  18  34  56  81 112 143 173 205 260 327
#     4  10  21  34  55  81 111 146 172 221 257 324
#     4  12  24  36  51  71 104 148 185 218 255 324
#     4  12  21  37  53  77 108 142 186 227 275 309
#
# _framework density 15.610993000000001
#
# number of rings (size 3 to 8) (size 9 to 14) (size 15 to 20)
#    0.750    0.250    6.250    1.500    3.500    2.000 
#    0.000    0.000    0.000    0.000    0.000    0.000 
#    0.000   20.000    0.000    0.000    0.000    0.000 
#
# Total GULP energy -178473.632086 kJ/mol
# GULP energy per Si atom -5577.301003 kJ/mol
# Density = 1.557546 g / cm^3
# Si number density = 15.610993 Si / 1000 Ang^3
#
#
#
# Elastic Constant Matrix: (Units=GPa)
#
#
# Indices 1 2 3 4 5 6 
#
# 1 66.4174 17.8145 36.6185 0.0000 16.1345 0.0000
# 2 17.8145 45.8473 33.1602 0.0000 5.6144 0.0000
# 3 36.6185 33.1602 105.8963 0.0000 20.4687 0.0000
# 4 0.0000 0.0000 0.0000 17.7695 0.0000 6.3313
# 5 16.1345 5.6144 20.4687 0.0000 43.2235 0.0000
# 6 0.0000 0.0000 0.0000 6.3313 0.0000 20.6378
#
#
#
# Elastic Compliance Matrix: (Units=1/GPa)
#
#
# Indices 1 2 3 4 5 6 
#
# 1 0.019817 -0.003651 -0.004811 0.000000 -0.004644 0.000000
# 2 -0.003651 0.028884 -0.008058 0.000000 0.001427 0.000000
# 3 -0.004811 -0.008058 0.014399 0.000000 -0.003976 0.000000
# 4 0.000000 0.000000 0.000000 0.063183 0.000000 -0.019383
# 5 -0.004644 0.001427 -0.003976 0.000000 0.026567 0.000000
# 6 0.000000 0.000000 0.000000 -0.019383 0.000000 0.054401
#
#
# Mechanical properties :
#
#
# Convention : Reuss Voigt Hill
#
# Bulk Modulus (GPa) = 33.26912 43.70526 38.48719
# Shear Modulus (GPa) = 19.97527 25.03068 22.50298
#
# Velocity S-wave (km/s) = 3.58098 4.00859 3.80081
# Velocity P-wave (km/s) = 6.20125 7.03437 6.63091
#
# Compressibility (1/GPa) = 0.03005790
#
# Stress axis : x y z
#
# Youngs Moduli (GPa) = 50.46265 34.62184 69.45072
#
# Poissons Ratio (x) = 0.12641 0.33416
# Poissons Ratio (y) = 0.18425 0.55962
# Poissons Ratio (z) = 0.24280 0.27898
#
# Static dielectric constant tensor:
#      x y z
#    x 1.531940 0.000000 0.000750 
#    y 0.000000 1.504880 0.000000 
#    z 0.000750 0.000000 1.527740 
# 
# From -- ./inp_files/24070.got.cif
#   From: 2010.05.17/outbox.cif.g08.bks.cpg/sg13_13_cif.got.tgz:24070.got - 2010.06.03 16:44:36.
