data_PCOD9227237
_publ_section_title
;
Structure prediction by ZEFSAII (Michael W. Deem and Ramdas Pophale) SiO2 
 PCOD9227237
Probable space group: P 2/C
;
_chemical_formula_sum "Si O2"
_cell_formula_units_Z 28
_cell_length_a 25.322401
_cell_length_b 6.921941
_cell_length_c 18.731575
_cell_angle_alpha 90.000000
_cell_angle_beta 18.922398
_cell_angle_gamma 90.000000
_cell_volume 1064.723711
_symmetry_space_group_name_H-M "P 2/C"
_symmetry_group_IT_number 13
_symmetry_cell_setting 'monoclinic'
loop_
_space_group_symop_operation_xyz
x,y,z
-x,y,1/2-z
-x,-y,-z
x,-y,1/2+z
loop_
_atom_site_type_symbol
_atom_site_label
_atom_site_fract_x
_atom_site_fract_y
_atom_site_fract_z
Si Si1 0.527779 0.389651 0.056055
Si Si2 0.500000 0.588294 0.750000
Si Si3 0.405988 0.158145 0.719146
Si Si4 0.000000 0.251189 0.750000
Si Si5 0.239889 0.598770 0.834132
Si Si6 0.927727 0.901940 0.941950
Si Si7 0.763136 0.080806 0.270780
Si Si8 0.246988 0.751859 0.560623
O O1 0.522073 0.313795 0.144165
O O2 0.459348 0.613630 0.149869
O O3 0.397228 0.299866 0.169796
O O4 0.690420 0.419574 0.801163
O O5 0.659994 0.450006 0.548099
O O6 0.574061 0.045583 0.491443
O O7 0.241559 0.119504 0.884876
O O8 0.352901 0.129979 0.868718
O O9 0.125869 0.394136 0.549238
O O10 0.017806 0.091128 0.791613
O O11 0.179281 0.732987 0.847993
O O12 0.063921 0.736723 0.764543
O O13 0.878748 0.924814 0.087497
O O14 0.763375 0.132964 0.352529
#
# Coordination Sequence:
#
# PCOD9227237 Si02
#       8
#     4   2   4   2   4   4   4   4
#     4   9  18  35  61  79 103 146 194 235 267 331
#     4  10  18  34  56  82 108 142 188 240 280 320
#     4  10  18  34  53  82 109 143 192 224 274 326
#     4  10  20  34  50  80 116 150 178 222 284 334
#     4   9  18  35  57  79 103 149 190 224 273 335
#     4  11  21  32  52  82 117 148 178 230 273 335
#     4  10  19  33  56  79 109 149 187 220 275 337
#     4  11  17  33  51  82 108 141 183 228 277 324
#
# _framework density 26.297903999999999
#
# number of rings (size 3 to 8) (size 9 to 14) (size 15 to 20)
#    0.000    2.000    5.714    0.857    0.000    0.000 
#    5.143    0.000    0.000   21.429    0.000    0.000 
#    0.000    0.000    0.000    0.000    0.000    0.000 
#
# Total GULP energy -156117.567491 kJ/mol
# GULP energy per Si atom -5575.627410 kJ/mol
# Density = 2.623805 g / cm^3
# Si number density = 26.297904 Si / 1000 Ang^3
#
#
#
# Elastic Constant Matrix: (Units=GPa)
#
#
# Indices 1 2 3 4 5 6 
#
# 1 156.7060 21.8024 54.1609 0.0000 51.3585 0.0000
# 2 21.8024 56.9426 37.0835 0.0000 6.4354 0.0000
# 3 54.1609 37.0835 155.9892 0.0000 31.7277 0.0000
# 4 0.0000 0.0000 0.0000 -10.1048 0.0000 7.2871
# 5 51.3585 6.4354 31.7277 0.0000 67.3419 0.0000
# 6 0.0000 0.0000 0.0000 7.2871 0.0000 23.4291
#
#
#
# Elastic Compliance Matrix: (Units=1/GPa)
#
#
# Indices 1 2 3 4 5 6 
#
# 1 0.009155 -0.001838 -0.001501 0.000000 -0.006099 0.000000
# 2 -0.001838 0.021156 -0.004717 0.000000 0.001603 0.000000
# 3 -0.001501 -0.004717 0.008548 0.000000 -0.002432 0.000000
# 4 0.000000 0.000000 0.000000 -0.080832 0.000000 0.025141
# 5 -0.006099 0.001603 -0.002432 0.000000 0.020494 0.000000
# 6 0.000000 0.000000 0.000000 0.025141 0.000000 0.034862
#
#
# Mechanical properties :
#
#
# Convention : Reuss Voigt Hill
#
# Bulk Modulus (GPa) = 43.96429 66.19240 55.07834
# Shear Modulus (GPa) = 134.85071 33.23930 84.04501
#
# Velocity S-wave (km/s) = 7.16864 3.55907 5.65935
# Velocity P-wave (km/s) = 9.23436 6.48954 7.98084
#
# Compressibility (1/GPa) = 0.02274573
#
# Stress axis : x y z
#
# Youngs Moduli (GPa) = 109.23173 47.26714 116.98751
#
# Poissons Ratio (x) = 0.08690 0.17561
# Poissons Ratio (y) = 0.20081 0.55186
# Poissons Ratio (z) = 0.16396 0.22297
#
# Static dielectric constant tensor:
#      x y z
#    x 2.093770 0.000000 -0.025750 
#    y 0.000000 2.212720 0.000000 
#    z -0.025750 0.000000 2.113600 
# 
# From -- ./inp_files/71419.got.cif
#   From: 2010.05.17/outbox.cif.g08.bks.cpg/sg13_36_cif.got.tgz:71419.got - 2010.06.03 16:44:36.
