data_PCOD9227065
_publ_section_title
;
Structure prediction by ZEFSAII (Michael W. Deem and Ramdas Pophale) SiO2 
 PCOD9227065
Probable space group: P 2/C
;
_chemical_formula_sum "Si O2"
_cell_formula_units_Z 28
_cell_length_a 7.889570
_cell_length_b 15.271466
_cell_length_c 11.026936
_cell_angle_alpha 90.000000
_cell_angle_beta 114.301573
_cell_angle_gamma 90.000000
_cell_volume 1210.860520
_symmetry_space_group_name_H-M "P 2/C"
_symmetry_group_IT_number 13
_symmetry_cell_setting 'monoclinic'
loop_
_space_group_symop_operation_xyz
x,y,z
-x,y,1/2-z
-x,-y,-z
x,-y,1/2+z
loop_
_atom_site_type_symbol
_atom_site_label
_atom_site_fract_x
_atom_site_fract_y
_atom_site_fract_z
Si Si1 0.842851 0.224014 0.305929
Si Si2 0.603008 0.107651 0.084923
Si Si3 0.214558 0.590044 0.131514
Si Si4 0.529076 0.400415 0.556661
Si Si5 0.804384 0.385294 0.442324
Si Si6 0.645932 0.089703 0.690177
Si Si7 0.076637 0.901706 0.028978
O O1 0.662541 0.179470 0.197494
O O2 0.812150 0.323506 0.330111
O O3 0.000000 0.217448 0.250000
O O4 0.924398 0.168365 0.442380
O O5 0.614503 0.014214 0.156492
O O6 0.412194 0.126448 0.957522
O O7 0.757943 0.102727 0.022907
O O8 0.326886 0.601956 0.288515
O O9 0.334647 0.631931 0.056184
O O10 0.214383 0.486030 0.103710
O O11 0.003036 0.621236 0.068980
O O12 0.500000 0.500000 0.500000
O O13 0.633725 0.356421 0.476225
O O14 0.500000 0.119362 0.750000
O O15 0.839704 0.109789 0.811835
O O16 0.000000 0.000000 0.000000
#
# Coordination Sequence:
#
# PCOD9227065 Si02
#       7
#     4   4   4   4   4   4   4
#     4  10  21  35  57  84 123 156 208 264 322 381
#     4   9  18  33  55  81 112 154 198 259 307 370
#     4   9  19  36  64  90 119 161 209 255 303 379
#     4   9  18  35  63  91 121 154 204 255 303 376
#     4  10  20  35  63  90 121 164 205 250 317 384
#     4   9  17  31  58  78 108 150 210 249 304 369
#     4  10  18  32  58  83 111 155 205 254 307 374
#
# _framework density 23.124051999999999
#
# number of rings (size 3 to 8) (size 9 to 14) (size 15 to 20)
#    0.000    2.571    1.429    0.429    0.000    3.429 
#    0.000    0.000   37.714    0.000    0.000    0.000 
#    0.000    0.000    0.000    0.000    0.000    0.000 
#
# Total GULP energy -156434.008286 kJ/mol
# GULP energy per Si atom -5586.928867 kJ/mol
# Density = 2.307142 g / cm^3
# Si number density = 23.124052 Si / 1000 Ang^3
#
#
#
# Elastic Constant Matrix: (Units=GPa)
#
#
# Indices 1 2 3 4 5 6 
#
# 1 59.3600 19.3092 22.9097 0.0000 -1.0720 0.0000
# 2 19.3092 35.8089 27.0210 0.0000 9.4522 0.0000
# 3 22.9097 27.0210 138.9354 0.0000 20.1663 0.0000
# 4 0.0000 0.0000 0.0000 27.5358 0.0000 -9.1130
# 5 -1.0720 9.4522 20.1663 0.0000 18.6894 0.0000
# 6 0.0000 0.0000 0.0000 -9.1130 0.0000 16.2075
#
#
#
# Elastic Compliance Matrix: (Units=1/GPa)
#
#
# Indices 1 2 3 4 5 6 
#
# 1 0.022242 -0.012745 -0.002738 0.000000 0.010677 0.000000
# 2 -0.012745 0.042252 -0.003448 0.000000 -0.018380 0.000000
# 3 -0.002738 -0.003448 0.009592 0.000000 -0.008763 0.000000
# 4 0.000000 0.000000 0.000000 0.044619 0.000000 0.025088
# 5 0.010677 -0.018380 -0.008763 0.000000 0.072869 0.000000
# 6 0.000000 0.000000 0.000000 0.025088 0.000000 0.075806
#
#
# Mechanical properties :
#
#
# Convention : Reuss Voigt Hill
#
# Bulk Modulus (GPa) = 27.60751 41.39822 34.50286
# Shear Modulus (GPa) = 15.75704 23.47750 19.61727
#
# Velocity S-wave (km/s) = 2.61322 3.18981 2.91580
# Velocity P-wave (km/s) = 4.59021 5.61320 5.12728
#
# Compressibility (1/GPa) = 0.03622203
#
# Stress axis : x y z
#
# Youngs Moduli (GPa) = 44.96003 23.66749 104.25725
#
# Poissons Ratio (x) = 0.30165 0.28551
# Poissons Ratio (y) = 0.57303 0.35948
# Poissons Ratio (z) = 0.12312 0.08161
#
# Static dielectric constant tensor:
#      x y z
#    x 1.897580 0.000000 0.009600 
#    y 0.000000 1.848140 0.000000 
#    z 0.009600 0.000000 1.881300 
# 
# From -- ./inp_files/30514.got.cif
#   From: 2010.05.17/outbox.cif.g08.bks.cpg/sg13_16_cif.got.tgz:30514.got - 2010.06.03 16:44:36.
