data_PCOD9227388
_publ_section_title
;
Structure prediction by ZEFSAII (Michael W. Deem and Ramdas Pophale) SiO2 
 PCOD9227388
Probable space group: P 2/C
;
_chemical_formula_sum "Si O2"
_cell_formula_units_Z 28
_cell_length_a 15.569955
_cell_length_b 15.230550
_cell_length_c 8.317835
_cell_angle_alpha 90.000000
_cell_angle_beta 47.967391
_cell_angle_gamma 90.000000
_cell_volume 1465.089046
_symmetry_space_group_name_H-M "P 2/C"
_symmetry_group_IT_number 13
_symmetry_cell_setting 'monoclinic'
loop_
_space_group_symop_operation_xyz
x,y,z
-x,y,1/2-z
-x,-y,-z
x,-y,1/2+z
loop_
_atom_site_type_symbol
_atom_site_label
_atom_site_fract_x
_atom_site_fract_y
_atom_site_fract_z
Si Si1 0.664950 0.632508 0.365961
Si Si2 0.793370 0.225643 0.190223
Si Si3 0.126995 0.734730 0.271197
Si Si4 0.563595 0.684499 0.003592
Si Si5 0.937213 0.373092 0.158105
Si Si6 0.283628 0.464005 0.035879
Si Si7 0.979063 0.902874 0.465507
O O1 0.756857 0.709134 0.281470
O O2 0.536398 0.667341 0.499066
O O3 0.676740 0.563755 0.496723
O O4 0.700226 0.577207 0.161513
O O5 0.657599 0.241209 0.349456
O O6 0.845487 0.292818 0.256443
O O7 0.844532 0.252694 0.951888
O O8 0.849187 0.132021 0.159081
O O9 0.037163 0.654769 0.409753
O O10 0.064376 0.823382 0.414206
O O11 0.500000 0.706628 0.250000
O O12 0.635236 0.595246 0.950635
O O13 0.850789 0.454422 0.243276
O O14 0.000000 0.378066 0.250000
O O15 0.000000 0.906287 0.250000
O O16 0.000000 0.000000 0.500000
#
# Coordination Sequence:
#
# PCOD9227388 Si02
#       7
#     4   4   4   4   4   4   4
#     4  11  22  37  55  82 113 158 206 243 291 333
#     4   9  20  37  60  84 116 149 189 235 294 349
#     4  10  21  37  57  84 120 152 191 234 300 358
#     4   9  20  39  58  80 113 152 204 250 281 331
#     4  10  18  35  52  76 112 147 190 238 292 342
#     4  10  22  36  52  79 112 150 206 254 281 333
#     4   9  19  38  61  95 116 144 182 232 288 363
#
# _framework density 19.111466
#
# number of rings (size 3 to 8) (size 9 to 14) (size 15 to 20)
#    0.000    2.286    1.429    1.714    4.000    3.429 
#    0.000    0.000    0.000    0.857    0.000    0.000 
#    0.000    0.000    0.000    0.000    0.000    0.000 
#
# Total GULP energy -156229.438771 kJ/mol
# GULP energy per Si atom -5579.622813 kJ/mol
# Density = 1.906797 g / cm^3
# Si number density = 19.111466 Si / 1000 Ang^3
#
#
#
# Elastic Constant Matrix: (Units=GPa)
#
#
# Indices 1 2 3 4 5 6 
#
# 1 130.5164 57.3696 36.9932 0.0000 -28.3969 0.0000
# 2 57.3696 107.1377 36.1083 0.0000 -19.0276 0.0000
# 3 36.9932 36.1083 79.9671 0.0000 -24.1376 0.0000
# 4 0.0000 0.0000 0.0000 19.0519 0.0000 -1.9500
# 5 -28.3969 -19.0276 -24.1376 0.0000 34.8018 0.0000
# 6 0.0000 0.0000 0.0000 -1.9500 0.0000 30.8164
#
#
#
# Elastic Compliance Matrix: (Units=1/GPa)
#
#
# Indices 1 2 3 4 5 6 
#
# 1 0.011325 -0.004556 -0.001447 0.000000 0.005746 0.000000
# 2 -0.004556 0.013141 -0.003515 0.000000 0.001029 0.000000
# 3 -0.001447 -0.003515 0.017486 0.000000 0.009025 0.000000
# 4 0.000000 0.000000 0.000000 0.052830 0.000000 0.003343
# 5 0.005746 0.001029 0.009025 0.000000 0.040245 0.000000
# 6 0.000000 0.000000 0.000000 0.003343 0.000000 0.032662
#
#
# Mechanical properties :
#
#
# Convention : Reuss Voigt Hill
#
# Bulk Modulus (GPa) = 43.64061 64.28483 53.96272
# Shear Modulus (GPa) = 25.72488 29.41070 27.56779
#
# Velocity S-wave (km/s) = 3.67283 3.92714 3.80211
# Velocity P-wave (km/s) = 6.39301 7.36703 6.89723
#
# Compressibility (1/GPa) = 0.02291444
#
# Stress axis : x y z
#
# Youngs Moduli (GPa) = 88.30141 76.09818 57.18786
#
# Poissons Ratio (x) = 0.34670 0.08277
# Poissons Ratio (y) = 0.40229 0.20104
# Poissons Ratio (z) = 0.12781 0.26752
#
# Static dielectric constant tensor:
#      x y z
#    x 1.688870 0.000000 -0.001970 
#    y 0.000000 1.660370 0.000000 
#    z -0.001970 0.000000 1.729230 
# 
# From -- ./inp_files/19596.got.cif
#   From: 2010.05.17/outbox.cif.g08.bks.cpg/sg13_10_cif.got.tgz:19596.got - 2010.06.03 16:44:36.
