data_PCOD9227064
_publ_section_title
;
Structure prediction by ZEFSAII (Michael W. Deem and Ramdas Pophale) SiO2 
 PCOD9227064
Probable space group: P 2/C
;
_chemical_formula_sum "Si O2"
_cell_formula_units_Z 32
_cell_length_a 14.086702
_cell_length_b 18.922027
_cell_length_c 22.508745
_cell_angle_alpha 90.000000
_cell_angle_beta 18.222585
_cell_angle_gamma 90.000000
_cell_volume 1876.156846
_symmetry_space_group_name_H-M "P 2/C"
_symmetry_group_IT_number 13
_symmetry_cell_setting 'monoclinic'
loop_
_space_group_symop_operation_xyz
x,y,z
-x,y,1/2-z
-x,-y,-z
x,-y,1/2+z
loop_
_atom_site_type_symbol
_atom_site_label
_atom_site_fract_x
_atom_site_fract_y
_atom_site_fract_z
Si Si1 0.745772 0.986339 0.269167
Si Si2 0.313979 0.513664 0.700957
Si Si3 0.693988 0.887874 0.896926
Si Si4 0.048334 0.323357 0.784296
Si Si5 0.330326 0.387873 0.078759
Si Si6 0.719027 0.427022 0.065077
Si Si7 0.282208 0.823356 0.050433
Si Si8 0.582588 0.927021 0.633297
O O1 0.532766 0.923613 0.420569
O O2 0.745447 0.049318 0.318151
O O3 0.627624 0.017058 0.276887
O O4 0.082553 0.958644 0.063930
O O5 0.508940 0.450680 0.554657
O O6 0.503375 0.541355 0.643104
O O7 0.280581 0.576386 0.672755
O O8 0.990411 0.482942 0.914094
O O9 0.000000 0.868512 0.750000
O O10 0.536662 0.826798 0.950618
O O11 0.412443 0.326798 0.574834
O O12 0.000000 0.364912 0.750000
O O13 0.871578 0.250000 0.878421
O O14 0.889927 0.360893 0.933568
O O15 0.000000 0.368510 0.250000
O O16 0.500000 0.410475 0.250000
O O17 0.000000 0.864911 0.250000
O O18 0.404057 0.860893 0.919440
O O19 0.500000 0.910472 0.750000
#
# Coordination Sequence:
#
# PCOD9227064 Si02
#       8
#     4   4   4   4   4   4   4   4
#     4  10  19  31  52  87 114 141 182 217 278 347
#     4  10  19  31  52  87 114 141 182 217 278 347
#     4  10  18  32  58  82 112 146 177 231 281 322
#     4  10  21  37  56  77 106 146 195 233 260 326
#     4  10  18  32  58  82 112 146 177 231 281 322
#     4  11  21  34  54  81 117 147 178 229 281 332
#     4  10  21  37  56  77 106 146 195 233 260 326
#     4  11  21  34  54  81 117 147 178 229 281 332
#
# _framework density 17.056142999999999
#
# number of rings (size 3 to 8) (size 9 to 14) (size 15 to 20)
#    0.000    1.750    5.000    0.750    0.000    0.500 
#    0.000    2.500    0.000    0.000    0.000    0.000 
#   15.000    0.000    0.000    0.000    0.000    0.000 
#
# Total GULP energy -178246.347219 kJ/mol
# GULP energy per Si atom -5570.198351 kJ/mol
# Density = 1.701732 g / cm^3
# Si number density = 17.056143 Si / 1000 Ang^3
#
#
#
# Elastic Constant Matrix: (Units=GPa)
#
#
# Indices 1 2 3 4 5 6 
#
# 1 90.5037 26.8522 47.1923 0.0000 -13.0251 0.0000
# 2 26.8522 68.9256 32.7910 0.0000 -10.9159 0.0000
# 3 47.1923 32.7910 110.9492 0.0000 -24.5993 0.0000
# 4 0.0000 0.0000 0.0000 -9.7829 0.0000 21.1614
# 5 -13.0251 -10.9159 -24.5993 0.0000 46.5167 0.0000
# 6 0.0000 0.0000 0.0000 21.1614 0.0000 1.7419
#
#
#
# Elastic Compliance Matrix: (Units=1/GPa)
#
#
# Indices 1 2 3 4 5 6 
#
# 1 0.014805 -0.003186 -0.005214 0.000000 0.000641 0.000000
# 2 -0.003186 0.017660 -0.003561 0.000000 0.001369 0.000000
# 3 -0.005214 -0.003561 0.013338 0.000000 0.004758 0.000000
# 4 0.000000 0.000000 0.000000 -0.003747 0.000000 0.045524
# 5 0.000641 0.001369 0.004758 0.000000 0.024515 0.000000
# 6 0.000000 0.000000 0.000000 0.045524 0.000000 0.021046
#
#
# Mechanical properties :
#
#
# Convention : Reuss Voigt Hill
#
# Bulk Modulus (GPa) = 45.69792 53.78328 49.74060
# Shear Modulus (GPa) = 42.07593 18.59799 30.33696
#
# Velocity S-wave (km/s) = 4.97219 3.30570 4.22198
# Velocity P-wave (km/s) = 7.73397 6.79498 7.27963
#
# Compressibility (1/GPa) = 0.02188284
#
# Stress axis : x y z
#
# Youngs Moduli (GPa) = 67.54257 56.62356 74.97277
#
# Poissons Ratio (x) = 0.18040 0.39089
# Poissons Ratio (y) = 0.21519 0.26696
# Poissons Ratio (z) = 0.35215 0.20163
#
# Static dielectric constant tensor:
#      x y z
#    x 1.588620 0.000000 -0.000320 
#    y 0.000000 1.621760 0.000000 
#    z -0.000320 0.000000 1.588810 
# 
# From -- ./inp_files/78779.got.cif
#   From: 2010.05.17/outbox.cif.g08.bks.cpg/sg13_40_cif.got.tgz:78779.got - 2010.06.03 16:44:36.
