data_PCOD9227015
_publ_section_title
;
Structure prediction by ZEFSAII (Michael W. Deem and Ramdas Pophale) SiO2 
 PCOD9227015
Probable space group: P 2/C
;
_chemical_formula_sum "Si O2"
_cell_formula_units_Z 20
_cell_length_a 8.134600
_cell_length_b 6.820682
_cell_length_c 21.716932
_cell_angle_alpha 90.000000
_cell_angle_beta 134.828678
_cell_angle_gamma 90.000000
_cell_volume 854.559292
_symmetry_space_group_name_H-M "P 2/C"
_symmetry_group_IT_number 13
_symmetry_cell_setting 'monoclinic'
loop_
_space_group_symop_operation_xyz
x,y,z
-x,y,1/2-z
-x,-y,-z
x,-y,1/2+z
loop_
_atom_site_type_symbol
_atom_site_label
_atom_site_fract_x
_atom_site_fract_y
_atom_site_fract_z
Si Si1 0.568603 0.273532 0.525503
Si Si2 0.710700 0.897757 0.378940
Si Si3 0.051577 0.391575 0.629912
Si Si4 0.767692 0.842652 0.209256
Si Si5 0.907088 0.836763 0.567966
O O1 0.500000 0.500000 0.500000
O O2 0.651001 0.243493 0.617244
O O3 0.811838 0.267154 0.552273
O O4 0.330038 0.149104 0.452981
O O5 0.745522 0.680641 0.360983
O O6 0.443605 0.954754 0.314461
O O7 0.813819 0.877363 0.474477
O O8 0.862524 0.031242 0.373100
O O9 0.136669 0.326905 0.720084
O O10 0.992191 0.616239 0.603354
O O11 0.000000 0.957176 0.250000
#
# Coordination Sequence:
#
# PCOD9227015 Si02
#       5
#     4   4   4   4   4
#     4   8  16  32  55  79 105 139 179 219 264 324
#     4  10  19  33  54  79 107 141 182 225 268 319
#     4  10  18  32  55  79 108 142 176 221 274 321
#     4   9  18  33  53  75 106 146 180 221 276 322
#     4   9  19  34  53  79 108 140 180 222 266 324
#
# _framework density 23.403876
#
# number of rings (size 3 to 8) (size 9 to 14) (size 15 to 20)
#    0.000    2.800    0.000    1.200    0.000    0.800 
#    0.000    4.000    0.000   24.000    0.000    0.000 
#    0.000    0.000    0.000    0.000    0.000    0.000 
#
# Total GULP energy -111380.661377 kJ/mol
# GULP energy per Si atom -5569.033069 kJ/mol
# Density = 2.335061 g / cm^3
# Si number density = 23.403876 Si / 1000 Ang^3
#
#
#
# Elastic Constant Matrix: (Units=GPa)
#
#
# Indices 1 2 3 4 5 6 
#
# 1 136.6200 42.4331 18.8964 0.0000 48.5936 0.0000
# 2 42.4331 70.9888 27.8989 0.0000 16.3002 0.0000
# 3 18.8964 27.8989 111.5171 0.0000 12.9450 0.0000
# 4 0.0000 0.0000 0.0000 7.7394 0.0000 -4.6409
# 5 48.5936 16.3002 12.9450 0.0000 41.5912 0.0000
# 6 0.0000 0.0000 0.0000 -4.6409 0.0000 7.4841
#
#
#
# Elastic Compliance Matrix: (Units=1/GPa)
#
#
# Indices 1 2 3 4 5 6 
#
# 1 0.014050 -0.005311 0.000635 0.000000 -0.014532 0.000000
# 2 -0.005311 0.018743 -0.003794 0.000000 0.000040 0.000000
# 3 0.000635 -0.003794 0.010087 0.000000 -0.002394 0.000000
# 4 0.000000 0.000000 0.000000 0.205692 0.000000 0.127549
# 5 -0.014532 0.000040 -0.002394 0.000000 0.041751 0.000000
# 6 0.000000 0.000000 0.000000 0.127549 0.000000 0.212709
#
#
# Mechanical properties :
#
#
# Convention : Reuss Voigt Hill
#
# Bulk Modulus (GPa) = 38.55105 55.28697 46.91901
# Shear Modulus (GPa) = 9.45861 26.68945 18.07403
#
# Velocity S-wave (km/s) = 2.01252 3.38062 2.78198
# Velocity P-wave (km/s) = 4.68062 6.23798 5.51455
#
# Compressibility (1/GPa) = 0.02593963
#
# Stress axis : x y z
#
# Youngs Moduli (GPa) = 71.17429 53.35297 99.14026
#
# Poissons Ratio (x) = 0.28336 -0.06293
# Poissons Ratio (y) = 0.37801 0.37612
# Poissons Ratio (z) = -0.04518 0.20241
#
# Static dielectric constant tensor:
#      x y z
#    x 1.996980 0.000000 0.059330 
#    y 0.000000 1.931640 0.000000 
#    z 0.059330 0.000000 1.892730 
# 
# From -- ./inp_files/84478.got.cif
#   From: 2010.05.17/outbox.cif.g08.bks.cpg/sg13_43_cif.got.tgz:84478.got - 2010.06.03 16:44:36.
