data_PCOD9227935
_publ_section_title
;
Structure prediction by ZEFSAII (Michael W. Deem and Ramdas Pophale) SiO2 
 PCOD9227935
Probable space group: P 2/C
;
_chemical_formula_sum "Si O2"
_cell_formula_units_Z 32
_cell_length_a 7.087417
_cell_length_b 35.656468
_cell_length_c 5.440529
_cell_angle_alpha 90.000000
_cell_angle_beta 78.900267
_cell_angle_gamma 90.000000
_cell_volume 1349.169100
_symmetry_space_group_name_H-M "P 2/C"
_symmetry_group_IT_number 13
_symmetry_cell_setting 'monoclinic'
loop_
_space_group_symop_operation_xyz
x,y,z
-x,y,1/2-z
-x,-y,-z
x,-y,1/2+z
loop_
_atom_site_type_symbol
_atom_site_label
_atom_site_fract_x
_atom_site_fract_y
_atom_site_fract_z
Si Si1 0.728556 0.233000 0.702205
Si Si2 0.734901 0.728357 0.698389
Si Si3 0.732621 0.399193 0.694547
Si Si4 0.265591 0.641385 0.805019
Si Si5 0.765203 0.892671 0.799273
Si Si6 0.226740 0.854970 0.204897
Si Si7 0.234213 0.979635 0.698665
Si Si8 0.781448 0.486142 0.772151
O O1 0.500000 0.239848 0.750000
O O2 0.798788 0.248361 0.422161
O O3 0.754970 0.189037 0.745202
O O4 0.802588 0.254350 0.924305
O O5 0.500000 0.729808 0.750000
O O6 0.789131 0.684863 0.699879
O O7 0.500000 0.397704 0.750000
O O8 0.796978 0.380630 0.423393
O O9 0.786092 0.442620 0.701884
O O10 0.796683 0.377432 0.923733
O O11 0.500000 0.640412 0.750000
O O12 0.700766 0.868932 0.577870
O O13 0.712309 0.936163 0.791796
O O14 0.000000 0.890895 0.750000
O O15 0.695842 0.876164 0.075248
O O16 0.000000 0.863600 0.250000
O O17 0.000000 0.980850 0.750000
O O18 0.296410 0.997905 0.425742
O O19 0.693232 0.507930 0.563382
O O20 0.000000 0.500705 0.750000
#
# Coordination Sequence:
#
# PCOD9227935 Si02
#       8
#     4   4   4   4   4   4   4   4
#     4  10  19  31  49  71  92 119 158 196 226 263
#     4   9  17  30  49  71  95 122 152 190 232 274
#     4  10  19  31  51  76  98 121 153 194 233 273
#     4   9  17  30  49  74  99 122 151 188 235 282
#     4   9  17  28  42  62  89 122 153 180 225 282
#     4  10  19  31  46  64  92 125 151 182 227 277
#     4   9  15  23  37  58  85 114 144 182 224 266
#     4  10  21  36  52  70  96 131 164 192 228 275
#
# _framework density 23.718302000000001
#
# number of rings (size 3 to 8) (size 9 to 14) (size 15 to 20)
#    0.000    2.500    0.000    3.000    0.000    6.500 
#    0.000    0.000    0.000    4.500    0.000    0.000 
#    0.000   10.000    0.000    0.000    0.000    0.000 
#
# Total GULP energy -179084.698790 kJ/mol
# GULP energy per Si atom -5596.396837 kJ/mol
# Density = 2.366432 g / cm^3
# Si number density = 23.718302 Si / 1000 Ang^3
#
#
#
# Elastic Constant Matrix: (Units=GPa)
#
#
# Indices 1 2 3 4 5 6 
#
# 1 92.5041 -6.5817 42.5725 0.0000 12.3358 0.0000
# 2 -6.5817 167.7926 117.5030 0.0000 16.0433 0.0000
# 3 42.5725 117.5030 259.6792 0.0000 23.4992 0.0000
# 4 0.0000 0.0000 0.0000 57.4543 0.0000 13.7211
# 5 12.3358 16.0433 23.4992 0.0000 38.0455 0.0000
# 6 0.0000 0.0000 0.0000 13.7211 0.0000 39.5832
#
#
#
# Elastic Compliance Matrix: (Units=1/GPa)
#
#
# Indices 1 2 3 4 5 6 
#
# 1 0.012977 0.003093 -0.003208 0.000000 -0.003531 0.000000
# 2 0.003093 0.009524 -0.004621 0.000000 -0.002165 0.000000
# 3 -0.003208 -0.004621 0.006564 0.000000 -0.001066 0.000000
# 4 0.000000 0.000000 0.000000 0.018976 0.000000 -0.006578
# 5 -0.003531 -0.002165 -0.001066 0.000000 0.029000 0.000000
# 6 0.000000 0.000000 0.000000 -0.006578 0.000000 0.027543
#
#
# Mechanical properties :
#
#
# Convention : Reuss Voigt Hill
#
# Bulk Modulus (GPa) = 51.03438 91.88484 71.45961
# Shear Modulus (GPa) = 41.46379 51.44874 46.45627
#
# Velocity S-wave (km/s) = 4.18566 4.66247 4.43048
# Velocity P-wave (km/s) = 6.70248 8.23463 7.50774
#
# Compressibility (1/GPa) = 0.01959463
#
# Stress axis : x y z
#
# Youngs Moduli (GPa) = 77.05698 105.00026 152.34631
#
# Poissons Ratio (x) = -0.32475 0.48865
# Poissons Ratio (y) = -0.23832 0.70393
# Poissons Ratio (z) = 0.24716 0.48516
#
# Static dielectric constant tensor:
#      x y z
#    x 1.997070 0.000000 -0.008550 
#    y 0.000000 1.821810 0.000000 
#    z -0.008550 0.000000 1.867110 
# 
# From -- ./inp_files/2724.got.cif
#   From: 2010.05.17/outbox.cif.g08.bks.cpg/sg13_2_cif.got.tgz:2724.got - 2010.06.03 16:44:36.
