data_PCOD9227818
_publ_section_title
;
Structure prediction by ZEFSAII (Michael W. Deem and Ramdas Pophale) SiO2 
 PCOD9227818
Probable space group: P 2/C
;
_chemical_formula_sum "Si O2"
_cell_formula_units_Z 24
_cell_length_a 13.665707
_cell_length_b 4.836885
_cell_length_c 14.049751
_cell_angle_alpha 90.000000
_cell_angle_beta 69.640682
_cell_angle_gamma 90.000000
_cell_volume 870.665470
_symmetry_space_group_name_H-M "P 2/C"
_symmetry_group_IT_number 13
_symmetry_cell_setting 'monoclinic'
loop_
_space_group_symop_operation_xyz
x,y,z
-x,y,1/2-z
-x,-y,-z
x,-y,1/2+z
loop_
_atom_site_type_symbol
_atom_site_label
_atom_site_fract_x
_atom_site_fract_y
_atom_site_fract_z
Si Si1 0.000000 0.049799 0.250000
Si Si2 0.485902 0.705366 0.627338
Si Si3 0.663242 0.961241 0.965074
Si Si4 0.080155 0.354316 0.385008
Si Si5 0.208587 0.710442 0.228168
Si Si6 0.824067 0.845106 0.060888
Si Si7 0.500000 0.831405 0.250000
O O1 0.989351 0.231243 0.349980
O O2 0.098866 0.856463 0.237367
O O3 0.408020 0.737132 0.564804
O O4 0.506280 0.402435 0.663317
O O5 0.591689 0.861564 0.560875
O O6 0.434117 0.922139 0.719353
O O7 0.713242 0.185441 0.876889
O O8 0.755074 0.812519 0.992313
O O9 0.081114 0.642453 0.441075
O O10 0.246529 0.794582 0.321285
O O11 0.129734 0.146952 0.443386
O O12 0.168524 0.403136 0.269323
#
# Coordination Sequence:
#
# PCOD9227818 Si02
#       7
#     2   4   4   4   4   4   2
#     4  10  18  44  70  94 136 188 232 276 358 416
#     4  10  26  46  72 104 142 184 233 277 359 401
#     4  11  24  46  70 110 136 184 235 293 332 430
#     4   9  20  40  64  96 130 183 219 283 336 409
#     4   9  22  42  70  98 136 183 229 286 348 401
#     4   9  22  40  62  98 136 174 226 278 349 397
#     4  10  24  48  72  98 140 190 220 290 336 424
#
# _framework density 27.565124999999998
#
# number of rings (size 3 to 8) (size 9 to 14) (size 15 to 20)
#    1.000    1.333    0.000    0.500    4.667    6.667 
#   18.000    4.167    0.000    0.000    0.000    0.000 
#    0.000    0.000    0.000    0.000    0.000    0.000 
#
# Total GULP energy -133896.213901 kJ/mol
# GULP energy per Si atom -5579.008913 kJ/mol
# Density = 2.750239 g / cm^3
# Si number density = 27.565125 Si / 1000 Ang^3
#
#
#
# Elastic Constant Matrix: (Units=GPa)
#
#
# Indices 1 2 3 4 5 6 
#
# 1 87.3655 6.8701 42.9130 0.0000 13.1114 0.0000
# 2 6.8701 125.5245 15.5336 0.0000 9.7982 0.0000
# 3 42.9130 15.5336 105.1495 0.0000 31.6245 0.0000
# 4 0.0000 0.0000 0.0000 33.3666 0.0000 7.4530
# 5 13.1114 9.7982 31.6245 0.0000 49.8571 0.0000
# 6 0.0000 0.0000 0.0000 7.4530 0.0000 3.3136
#
#
#
# Elastic Compliance Matrix: (Units=1/GPa)
#
#
# Indices 1 2 3 4 5 6 
#
# 1 0.014317 -0.000059 -0.005814 0.000000 -0.000065 0.000000
# 2 -0.000059 0.008158 -0.000869 0.000000 -0.001036 0.000000
# 3 -0.005814 -0.000869 0.014212 0.000000 -0.007314 0.000000
# 4 0.000000 0.000000 0.000000 0.060229 0.000000 -0.135466
# 5 -0.000065 -0.001036 -0.007314 0.000000 0.024918 0.000000
# 6 0.000000 0.000000 0.000000 -0.135466 0.000000 0.606474
#
#
# Mechanical properties :
#
#
# Convention : Reuss Voigt Hill
#
# Bulk Modulus (GPa) = 43.10220 49.85255 46.47737
# Shear Modulus (GPa) = 6.67088 34.15565 20.41327
#
# Velocity S-wave (km/s) = 1.55734 3.52389 2.72425
# Velocity P-wave (km/s) = 4.34789 5.88912 5.17619
#
# Compressibility (1/GPa) = 0.02320067
#
# Stress axis : x y z
#
# Youngs Moduli (GPa) = 69.84893 122.57478 70.36513
#
# Poissons Ratio (x) = 0.00722 0.40914
# Poissons Ratio (y) = 0.00412 0.06118
# Poissons Ratio (z) = 0.40614 0.10658
#
# Static dielectric constant tensor:
#      x y z
#    x 2.247010 0.000000 -0.186810 
#    y 0.000000 2.093810 0.000000 
#    z -0.186810 0.000000 2.441380 
# 
# From -- ./inp_files/51874.got.cif
#   From: 2010.05.17/outbox.cif.g08.bks.cpg/sg13_26_cif.got.tgz:51874.got - 2010.06.03 16:44:36.
