data_PCOD9227450
_publ_section_title
;
Structure prediction by ZEFSAII (Michael W. Deem and Ramdas Pophale) SiO2 
 PCOD9227450
Probable space group: P 2/C
;
_chemical_formula_sum "Si O2"
_cell_formula_units_Z 30
_cell_length_a 13.030404
_cell_length_b 13.140588
_cell_length_c 14.185891
_cell_angle_alpha 90.000000
_cell_angle_beta 36.526488
_cell_angle_gamma 90.000000
_cell_volume 1445.733010
_symmetry_space_group_name_H-M "P 2/C"
_symmetry_group_IT_number 13
_symmetry_cell_setting 'monoclinic'
loop_
_space_group_symop_operation_xyz
x,y,z
-x,y,1/2-z
-x,-y,-z
x,-y,1/2+z
loop_
_atom_site_type_symbol
_atom_site_label
_atom_site_fract_x
_atom_site_fract_y
_atom_site_fract_z
Si Si1 0.215081 0.523952 0.195999
Si Si2 0.457600 0.649007 0.474741
Si Si3 0.825913 0.018644 0.435298
Si Si4 0.500000 0.456533 0.750000
Si Si5 0.876725 0.902254 0.085913
Si Si6 0.906921 0.199438 0.920709
Si Si7 0.170522 0.425098 0.507407
Si Si8 0.506091 0.131728 0.629755
O O1 0.360749 0.604210 0.121777
O O2 0.190114 0.545990 0.103221
O O3 0.023137 0.540761 0.378985
O O4 0.302493 0.411787 0.141506
O O5 0.442523 0.611667 0.378574
O O6 0.461405 0.769802 0.459311
O O7 0.864419 0.108362 0.482439
O O8 0.660503 0.053484 0.501317
O O9 0.000000 0.007108 0.250000
O O10 0.797151 0.905160 0.498169
O O11 0.665266 0.521616 0.661109
O O12 0.956171 0.819375 0.096423
O O13 0.678339 0.915699 0.259912
O O14 0.000000 0.000000 0.000000
O O15 0.000000 0.212511 0.750000
O O16 0.812596 0.303911 0.012048
O O17 0.500000 0.152241 0.750000
#
# Coordination Sequence:
#
# PCOD9227450 Si02
#       8
#     4   4   4   2   4   4   4   4
#     4   9  19  34  58  78 109 142 189 224 274 342
#     4  10  19  36  55  80 107 150 180 229 280 332
#     4   9  20  38  55  84 114 144 191 235 281 343
#     4  10  22  36  52  80 116 134 192 228 276 338
#     4   9  19  36  58  82 113 147 189 229 279 339
#     4  10  18  35  61  79 109 152 185 232 286 333
#     4  10  19  37  55  83 107 145 181 235 279 334
#     4  10  19  35  57  81 111 152 184 231 284 337
#
# _framework density 20.750720000000001
#
# number of rings (size 3 to 8) (size 9 to 14) (size 15 to 20)
#    0.000    2.400    2.000    0.800    0.000    0.533 
#   10.800   10.000    0.000    0.000    0.000    0.000 
#    0.000    0.000    0.000    0.000    0.000    0.000 
#
# Total GULP energy -167024.459867 kJ/mol
# GULP energy per Si atom -5567.481996 kJ/mol
# Density = 2.070349 g / cm^3
# Si number density = 20.750720 Si / 1000 Ang^3
#
#
#
# Elastic Constant Matrix: (Units=GPa)
#
#
# Indices 1 2 3 4 5 6 
#
# 1 47.5489 15.5599 10.3778 0.0000 -19.7559 0.0000
# 2 15.5599 84.8325 56.0463 0.0000 -28.0723 0.0000
# 3 10.3778 56.0463 66.1405 0.0000 -35.6427 0.0000
# 4 0.0000 0.0000 0.0000 5.2055 0.0000 -12.9961
# 5 -19.7559 -28.0723 -35.6427 0.0000 44.1177 0.0000
# 6 0.0000 0.0000 0.0000 -12.9961 0.0000 12.5581
#
#
#
# Elastic Compliance Matrix: (Units=1/GPa)
#
#
# Indices 1 2 3 4 5 6 
#
# 1 0.027659 -0.005938 0.009440 0.000000 0.016234 0.000000
# 2 -0.005938 0.028187 -0.026072 0.000000 -0.005787 0.000000
# 3 0.009440 -0.026072 0.051484 0.000000 0.029231 0.000000
# 4 0.000000 0.000000 0.000000 -0.121303 0.000000 -0.125534
# 5 0.016234 -0.005787 0.029231 0.000000 0.049870 0.000000
# 6 0.000000 0.000000 0.000000 -0.125534 0.000000 -0.050282
#
#
# Mechanical properties :
#
#
# Convention : Reuss Voigt Hill
#
# Bulk Modulus (GPa) = 16.07981 40.27667 28.17824
# Shear Modulus (GPa) = 97.11713 20.14548 58.63130
#
# Velocity S-wave (km/s) = 6.84861 3.11920 5.32132
# Velocity P-wave (km/s) = 8.38473 5.69425 7.16687
#
# Compressibility (1/GPa) = 0.06218980
#
# Stress axis : x y z
#
# Youngs Moduli (GPa) = 36.15493 35.47706 19.42361
#
# Poissons Ratio (x) = 0.21067 -0.18337
# Poissons Ratio (y) = 0.21469 0.50642
# Poissons Ratio (z) = -0.34132 0.92497
#
# Static dielectric constant tensor:
#      x y z
#    x 1.857960 0.000000 0.022750 
#    y 0.000000 1.736350 0.000000 
#    z 0.022750 0.000000 1.789370 
# 
# From -- ./inp_files/68539.got.cif
#   From: 2010.05.17/outbox.cif.g08.bks.cpg/sg13_35_cif.got.tgz:68539.got - 2010.06.03 16:44:36.
