data_PCOD9227308
_publ_section_title
;
Structure prediction by ZEFSAII (Michael W. Deem and Ramdas Pophale) SiO2 
 PCOD9227308
Probable space group: P 2/C
;
_chemical_formula_sum "Si O2"
_cell_formula_units_Z 26
_cell_length_a 14.354204
_cell_length_b 11.675775
_cell_length_c 14.391075
_cell_angle_alpha 90.000000
_cell_angle_beta 151.392993
_cell_angle_gamma 90.000000
_cell_volume 1154.812587
_symmetry_space_group_name_H-M "P 2/C"
_symmetry_group_IT_number 13
_symmetry_cell_setting 'monoclinic'
loop_
_space_group_symop_operation_xyz
x,y,z
-x,y,1/2-z
-x,-y,-z
x,-y,1/2+z
loop_
_atom_site_type_symbol
_atom_site_label
_atom_site_fract_x
_atom_site_fract_y
_atom_site_fract_z
Si Si1 0.911100 0.836139 0.843229
Si Si2 0.505278 0.776878 0.052402
Si Si3 0.059091 0.640464 0.480221
Si Si4 0.324936 0.455211 0.785219
Si Si5 0.431155 0.165568 0.097946
Si Si6 0.000000 0.797276 0.250000
Si Si7 0.253135 0.978954 0.157613
O O1 0.715271 0.809987 0.614436
O O2 0.850888 0.924906 0.871674
O O3 0.950355 0.719020 0.934600
O O4 0.095246 0.904343 0.961237
O O5 0.592283 0.665948 0.178753
O O6 0.647390 0.882708 0.192706
O O7 0.516234 0.765393 0.949560
O O8 0.236255 0.550866 0.639711
O O9 0.857741 0.571397 0.307747
O O10 0.054394 0.720800 0.386693
O O11 0.500000 0.500000 0.000000
O O12 0.500000 0.232597 0.250000
O O13 0.565838 0.052718 0.219983
O O14 0.200963 0.139105 0.900504
#
# Coordination Sequence:
#
# PCOD9227308 Si02
#       7
#     4   4   4   4   4   2   4
#     4  10  18  34  58  89 119 156 204 255 299 360
#     4  11  20  38  61  91 122 162 209 257 311 367
#     4  11  23  37  62  95 124 161 209 266 313 377
#     4  11  22  39  61  91 122 160 218 265 307 364
#     4  11  23  35  57  89 128 160 200 256 322 382
#     4  12  22  38  60  90 136 160 202 260 340 380
#     4  10  21  35  57  88 122 159 205 247 307 374
#
# _framework density 22.514475000000001
#
# number of rings (size 3 to 8) (size 9 to 14) (size 15 to 20)
#    0.000    1.231    4.615    3.692    0.000    3.692 
#    0.000    0.000    0.000    1.846    0.000    1.077 
#    0.000    0.000    0.000    0.000    0.000    0.000 
#
# Total GULP energy -144978.396355 kJ/mol
# GULP energy per Si atom -5576.092167 kJ/mol
# Density = 2.246323 g / cm^3
# Si number density = 22.514475 Si / 1000 Ang^3
#
#
#
# Elastic Constant Matrix: (Units=GPa)
#
#
# Indices 1 2 3 4 5 6 
#
# 1 34.2208 19.8788 29.7466 0.0000 24.4153 0.0000
# 2 19.8788 107.1475 46.7262 0.0000 13.1166 0.0000
# 3 29.7466 46.7262 145.2133 0.0000 40.9579 0.0000
# 4 0.0000 0.0000 0.0000 60.6668 0.0000 19.8662
# 5 24.4153 13.1166 40.9579 0.0000 32.9101 0.0000
# 6 0.0000 0.0000 0.0000 19.8662 0.0000 15.5200
#
#
#
# Elastic Compliance Matrix: (Units=1/GPa)
#
#
# Indices 1 2 3 4 5 6 
#
# 1 0.066937 -0.007524 0.002881 0.000000 -0.050246 0.000000
# 2 -0.007524 0.011702 -0.003826 0.000000 0.005680 0.000000
# 3 0.002881 -0.003826 0.011865 0.000000 -0.015379 0.000000
# 4 0.000000 0.000000 0.000000 0.028379 0.000000 -0.036326
# 5 -0.050246 0.005680 -0.015379 0.000000 0.084539 0.000000
# 6 0.000000 0.000000 0.000000 -0.036326 0.000000 0.110931
#
#
# Mechanical properties :
#
#
# Convention : Reuss Voigt Hill
#
# Bulk Modulus (GPa) = 13.59322 53.25387 33.42354
# Shear Modulus (GPa) = 14.05231 34.50139 24.27685
#
# Velocity S-wave (km/s) = 2.50100 3.91885 3.28728
# Velocity P-wave (km/s) = 3.79350 6.64688 5.41164
#
# Compressibility (1/GPa) = 0.07356611
#
# Stress axis : x y z
#
# Youngs Moduli (GPa) = 14.93940 85.45447 84.28066
#
# Poissons Ratio (x) = 0.64298 -0.24284
# Poissons Ratio (y) = 0.11241 0.32247
# Poissons Ratio (z) = -0.04304 0.32696
#
# Static dielectric constant tensor:
#      x y z
#    x 2.126420 0.000000 -0.072090 
#    y 0.000000 1.896010 0.000000 
#    z -0.072090 0.000000 1.959320 
# 
# From -- ./inp_files/53779.got.cif
#   From: 2010.05.17/outbox.cif.g08.bks.cpg/sg13_27_cif.got.tgz:53779.got - 2010.06.03 16:44:36.
