data_PCOD9227757
_publ_section_title
;
Structure prediction by ZEFSAII (Michael W. Deem and Ramdas Pophale) SiO2 
 PCOD9227757
Probable space group: P 2/C
;
_chemical_formula_sum "Si O2"
_cell_formula_units_Z 20
_cell_length_a 11.584666
_cell_length_b 7.230523
_cell_length_c 12.994067
_cell_angle_alpha 90.000000
_cell_angle_beta 52.265702
_cell_angle_gamma 90.000000
_cell_volume 860.788530
_symmetry_space_group_name_H-M "P 2/C"
_symmetry_group_IT_number 13
_symmetry_cell_setting 'monoclinic'
loop_
_space_group_symop_operation_xyz
x,y,z
-x,y,1/2-z
-x,-y,-z
x,-y,1/2+z
loop_
_atom_site_type_symbol
_atom_site_label
_atom_site_fract_x
_atom_site_fract_y
_atom_site_fract_z
Si Si1 0.675298 0.177284 0.265844
Si Si2 0.834660 0.486518 0.297509
Si Si3 0.659421 0.247884 0.035309
Si Si4 0.898747 0.037803 0.400210
Si Si5 0.851759 0.190930 0.629375
O O1 0.777226 0.291717 0.287109
O O2 0.680535 0.260429 0.147001
O O3 0.509366 0.203920 0.392244
O O4 0.731959 0.967416 0.220030
O O5 0.725399 0.576541 0.440665
O O6 0.824912 0.622747 0.204346
O O7 0.000000 0.491346 0.250000
O O8 0.754500 0.071339 0.947820
O O9 0.864228 0.200345 0.499086
O O10 0.000000 0.080528 0.250000
O O11 0.994624 0.888755 0.412618
#
# Coordination Sequence:
#
# PCOD9227757 Si02
#       5
#     4   4   4   4   4
#     4  10  25  41  66  97 126 174 218 256 334 389
#     4  12  23  43  66  95 134 169 214 274 317 381
#     4  10  20  45  64  92 138 164 209 282 315 380
#     4  10  18  39  66  91 129 169 211 268 320 375
#     4  10  21  40  66  92 129 169 215 268 317 383
#
# _framework density 23.234511999999999
#
# number of rings (size 3 to 8) (size 9 to 14) (size 15 to 20)
#    0.000    1.600    4.000    0.600    0.000    3.200 
#    3.600    8.000    0.000    0.000    0.000    0.000 
#    0.000    0.000    0.000    0.000    0.000    0.000 
#
# Total GULP energy -111985.722788 kJ/mol
# GULP energy per Si atom -5599.286139 kJ/mol
# Density = 2.318163 g / cm^3
# Si number density = 23.234512 Si / 1000 Ang^3
#
#
#
# Elastic Constant Matrix: (Units=GPa)
#
#
# Indices 1 2 3 4 5 6 
#
# 1 125.0951 47.9437 78.6408 0.0000 -19.1700 0.0000
# 2 47.9437 97.6061 56.0039 0.0000 -4.2200 0.0000
# 3 78.6408 56.0039 171.2776 0.0000 -13.0607 0.0000
# 4 0.0000 0.0000 0.0000 17.9327 0.0000 5.8541
# 5 -19.1700 -4.2200 -13.0607 0.0000 46.2591 0.0000
# 6 0.0000 0.0000 0.0000 5.8541 0.0000 36.8329
#
#
#
# Elastic Compliance Matrix: (Units=1/GPa)
#
#
# Indices 1 2 3 4 5 6 
#
# 1 0.012672 -0.003555 -0.004374 0.000000 0.003692 0.000000
# 2 -0.003555 0.013609 -0.002898 0.000000 -0.001050 0.000000
# 3 -0.004374 -0.002898 0.008826 0.000000 0.000415 0.000000
# 4 0.000000 0.000000 0.000000 0.058816 0.000000 -0.009348
# 5 0.003692 -0.001050 0.000415 0.000000 0.023169 0.000000
# 6 0.000000 0.000000 0.000000 -0.009348 0.000000 0.028635
#
#
# Mechanical properties :
#
#
# Convention : Reuss Voigt Hill
#
# Bulk Modulus (GPa) = 74.33304 84.35062 79.34183
# Shear Modulus (GPa) = 29.09272 34.29766 31.69519
#
# Velocity S-wave (km/s) = 3.54239 3.84624 3.69744
# Velocity P-wave (km/s) = 6.98522 7.49050 7.24227
#
# Compressibility (1/GPa) = 0.01345297
#
# Stress axis : x y z
#
# Youngs Moduli (GPa) = 78.91353 73.48314 113.30178
#
# Poissons Ratio (x) = 0.26123 0.49562
# Poissons Ratio (y) = 0.28053 0.32829
# Poissons Ratio (z) = 0.34520 0.21292
#
# Static dielectric constant tensor:
#      x y z
#    x 1.877890 0.000000 0.061190 
#    y 0.000000 1.854370 0.000000 
#    z 0.061190 0.000000 1.909920 
# 
# From -- ./inp_files/49497.got.cif
#   From: 2010.05.17/outbox.cif.g08.bks.cpg/sg13_25_cif.got.tgz:49497.got - 2010.06.03 16:44:36.
