data_PCOD9227632
_publ_section_title
;
Structure prediction by ZEFSAII (Michael W. Deem and Ramdas Pophale) SiO2 
 PCOD9227632
Probable space group: P 2/C
;
_chemical_formula_sum "Si O2"
_cell_formula_units_Z 24
_cell_length_a 15.867447
_cell_length_b 8.318055
_cell_length_c 15.854737
_cell_angle_alpha 90.000000
_cell_angle_beta 28.795924
_cell_angle_gamma 90.000000
_cell_volume 1007.991148
_symmetry_space_group_name_H-M "P 2/C"
_symmetry_group_IT_number 13
_symmetry_cell_setting 'monoclinic'
loop_
_space_group_symop_operation_xyz
x,y,z
-x,y,1/2-z
-x,-y,-z
x,-y,1/2+z
loop_
_atom_site_type_symbol
_atom_site_label
_atom_site_fract_x
_atom_site_fract_y
_atom_site_fract_z
Si Si1 0.874438 0.170603 0.657845
Si Si2 0.858953 0.142861 0.944226
Si Si3 0.649308 0.129616 0.353550
Si Si4 0.267963 0.357556 0.068560
Si Si5 0.117132 0.760507 0.540765
Si Si6 0.393971 0.283411 0.463217
O O1 0.852769 0.246647 0.585175
O O2 0.732810 0.234071 0.848291
O O3 0.058008 0.209460 0.542301
O O4 0.825777 0.978801 0.694781
O O5 0.680635 0.198574 0.055940
O O6 0.000000 0.193854 0.750000
O O7 0.878743 0.950068 0.937585
O O8 0.645854 0.240356 0.438926
O O9 0.583951 0.224831 0.328167
O O10 0.500000 0.000000 0.500000
O O11 0.262720 0.308741 0.975372
O O12 0.362317 0.527657 0.986831
O O13 0.063592 0.333795 0.278292
#
# Coordination Sequence:
#
# PCOD9227632 Si02
#       6
#     4   4   4   4   4   4
#     4  10  21  37  63  91 118 159 215 266 295 369
#     4  10  18  37  59  87 118 158 205 252 308 372
#     4  10  20  41  64  84 114 168 210 250 307 379
#     4  11  22  38  60  92 127 166 200 254 331 376
#     4  11  21  36  62  93 122 157 215 264 302 368
#     4  10  23  39  62  87 129 166 201 252 328 389
#
# _framework density 23.809735
#
# number of rings (size 3 to 8) (size 9 to 14) (size 15 to 20)
#    0.000    1.667    3.333    3.000    7.000    0.667 
#    0.000    7.500    0.000    4.000    0.000    0.000 
#    0.000    0.000    0.000    0.000    0.000    0.000 
#
# Total GULP energy -133962.858059 kJ/mol
# GULP energy per Si atom -5581.785752 kJ/mol
# Density = 2.375554 g / cm^3
# Si number density = 23.809735 Si / 1000 Ang^3
#
#
#
# Elastic Constant Matrix: (Units=GPa)
#
#
# Indices 1 2 3 4 5 6 
#
# 1 272.5430 84.5981 66.6923 0.0000 14.1614 0.0000
# 2 84.5981 85.1638 13.9575 0.0000 -11.0499 0.0000
# 3 66.6923 13.9575 77.6917 0.0000 1.3566 0.0000
# 4 0.0000 0.0000 0.0000 -14.6273 0.0000 -8.7287
# 5 14.1614 -11.0499 1.3566 0.0000 56.0419 0.0000
# 6 0.0000 0.0000 0.0000 -8.7287 0.0000 21.4823
#
#
#
# Elastic Compliance Matrix: (Units=1/GPa)
#
#
# Indices 1 2 3 4 5 6 
#
# 1 0.007050 -0.006598 -0.004814 0.000000 -0.002966 0.000000
# 2 -0.006598 0.018617 0.002227 0.000000 0.005284 0.000000
# 3 -0.004814 0.002227 0.016582 0.000000 0.001254 0.000000
# 4 0.000000 0.000000 0.000000 -0.055024 0.000000 -0.022357
# 5 -0.002966 0.005284 0.001254 0.000000 0.019605 0.000000
# 6 0.000000 0.000000 0.000000 -0.022357 0.000000 0.037466
#
#
# Mechanical properties :
#
#
# Convention : Reuss Voigt Hill
#
# Bulk Modulus (GPa) = 41.87934 85.09936 63.48935
# Shear Modulus (GPa) = 70.79566 30.58941 50.69253
#
# Velocity S-wave (km/s) = 5.45880 3.58822 4.61919
# Velocity P-wave (km/s) = 7.57355 7.27916 7.42781
#
# Compressibility (1/GPa) = 0.02387812
#
# Stress axis : x y z
#
# Youngs Moduli (GPa) = 141.85398 53.71346 60.30642
#
# Poissons Ratio (x) = 0.35443 0.29033
# Poissons Ratio (y) = 0.93602 -0.13433
# Poissons Ratio (z) = 0.68292 -0.11964
#
# Static dielectric constant tensor:
#      x y z
#    x 1.922940 0.000000 -0.066580 
#    y 0.000000 1.918660 0.000000 
#    z -0.066580 0.000000 2.022620 
# 
# From -- ./inp_files/52900.got.cif
#   From: 2010.05.17/outbox.cif.g08.bks.cpg/sg13_27_cif.got.tgz:52900.got - 2010.06.03 16:44:36.
