data_PCOD9227700
_publ_section_title
;
Structure prediction by ZEFSAII (Michael W. Deem and Ramdas Pophale) SiO2 
 PCOD9227700
Probable space group: P 2/C
;
_chemical_formula_sum "Si O2"
_cell_formula_units_Z 24
_cell_length_a 19.673187
_cell_length_b 8.440748
_cell_length_c 26.924757
_cell_angle_alpha 90.000000
_cell_angle_beta 163.996340
_cell_angle_gamma 90.000000
_cell_volume 1232.657037
_symmetry_space_group_name_H-M "P 2/C"
_symmetry_group_IT_number 13
_symmetry_cell_setting 'monoclinic'
loop_
_space_group_symop_operation_xyz
x,y,z
-x,y,1/2-z
-x,-y,-z
x,-y,1/2+z
loop_
_atom_site_type_symbol
_atom_site_label
_atom_site_fract_x
_atom_site_fract_y
_atom_site_fract_z
Si Si1 0.744069 0.636604 0.541049
Si Si2 0.759433 0.813454 0.451138
Si Si3 0.392564 0.716161 0.574035
Si Si4 0.703786 0.172293 0.199398
Si Si5 0.000000 0.062891 0.750000
Si Si6 0.500000 0.874720 0.750000
Si Si7 0.448010 0.143396 0.518792
O O1 0.775000 0.764468 0.519190
O O2 0.673532 0.467619 0.469706
O O3 0.547218 0.707712 0.441398
O O4 0.000000 0.618118 0.750000
O O5 0.500000 0.741556 0.250000
O O6 0.015160 0.770721 0.605175
O O7 0.721196 0.000429 0.414730
O O8 0.560538 0.746494 0.643641
O O9 0.519588 0.774640 0.713765
O O10 0.150559 0.823321 0.393055
O O11 0.667921 0.981918 0.180320
O O12 0.584024 0.196732 0.060603
O O13 0.796206 0.957030 0.635585
#
# Coordination Sequence:
#
# PCOD9227700 Si02
#       7
#     4   4   4   4   2   2   4
#     4  12  22  42  66  95 129 173 204 259 332 385
#     4  10  23  43  69  89 124 176 217 258 315 378
#     4  11  24  38  63  96 133 164 207 262 325 376
#     4  10  20  39  62  99 123 160 223 270 304 370
#     4  10  18  38  62  94 120 172 218 254 308 376
#     4  10  24  44  64  88 126 176 216 250 312 388
#     4  10  19  34  68  91 127 161 219 267 309 364
#
# _framework density 19.470134999999999
#
# number of rings (size 3 to 8) (size 9 to 14) (size 15 to 20)
#    0.500    1.000    3.333    3.000    1.167    1.333 
#    0.000    0.833    0.000    0.000    0.000    0.000 
#    0.000    0.000    0.000    0.000    0.000    0.000 
#
# Total GULP energy -133836.922301 kJ/mol
# GULP energy per Si atom -5576.538429 kJ/mol
# Density = 1.942582 g / cm^3
# Si number density = 19.470135 Si / 1000 Ang^3
#
#
#
# Elastic Constant Matrix: (Units=GPa)
#
#
# Indices 1 2 3 4 5 6 
#
# 1 104.0860 27.2849 35.9899 0.0000 -17.8289 0.0000
# 2 27.2849 74.0371 20.0931 0.0000 -28.2828 0.0000
# 3 35.9899 20.0931 74.8602 0.0000 -4.7090 0.0000
# 4 0.0000 0.0000 0.0000 20.8811 0.0000 -10.3153
# 5 -17.8289 -28.2828 -4.7090 0.0000 27.0699 0.0000
# 6 0.0000 0.0000 0.0000 -10.3153 0.0000 3.3573
#
#
#
# Elastic Compliance Matrix: (Units=1/GPa)
#
#
# Indices 1 2 3 4 5 6 
#
# 1 0.012879 -0.000597 -0.005598 0.000000 0.006885 0.000000
# 2 -0.000597 0.024195 -0.004693 0.000000 0.024070 0.000000
# 3 -0.005598 -0.004693 0.016955 0.000000 -0.005641 0.000000
# 4 0.000000 0.000000 0.000000 -0.092486 0.000000 -0.284162
# 5 0.006885 0.024070 -0.005641 0.000000 0.065643 0.000000
# 6 0.000000 0.000000 0.000000 -0.284162 0.000000 -0.575226
#
#
# Mechanical properties :
#
#
# Convention : Reuss Voigt Hill
#
# Bulk Modulus (GPa) = 31.00586 46.63544 38.82065
# Shear Modulus (GPa) = -9.69908 21.56935 5.93513
#
# Velocity S-wave (km/s) = -2.23435 3.33200 1.74784
# Velocity P-wave (km/s) = 3.05008 6.22955 4.90460
#
# Compressibility (1/GPa) = 0.03225197
#
# Stress axis : x y z
#
# Youngs Moduli (GPa) = 77.64586 41.33035 58.98107
#
# Poissons Ratio (x) = 0.02467 0.33020
# Poissons Ratio (y) = 0.04634 0.27681
# Poissons Ratio (z) = 0.43470 0.19397
#
# Static dielectric constant tensor:
#      x y z
#    x 1.684480 0.000000 0.007580 
#    y 0.000000 1.693940 0.000000 
#    z 0.007580 0.000000 1.701380 
# 
# From -- ./inp_files/88080.got.cif
#   From: 2010.05.17/outbox.cif.g08.bks.cpg/sg13_45_cif.got.tgz:88080.got - 2010.06.03 16:44:36.
