data_PCOD9227253
_publ_section_title
;
Structure prediction by ZEFSAII (Michael W. Deem and Ramdas Pophale) SiO2 
 PCOD9227253
Probable space group: P 2/C
;
_chemical_formula_sum "Si O2"
_cell_formula_units_Z 22
_cell_length_a 21.096837
_cell_length_b 5.829528
_cell_length_c 13.800590
_cell_angle_alpha 90.000000
_cell_angle_beta 31.370505
_cell_angle_gamma 90.000000
_cell_volume 883.542959
_symmetry_space_group_name_H-M "P 2/C"
_symmetry_group_IT_number 13
_symmetry_cell_setting 'monoclinic'
loop_
_space_group_symop_operation_xyz
x,y,z
-x,y,1/2-z
-x,-y,-z
x,-y,1/2+z
loop_
_atom_site_type_symbol
_atom_site_label
_atom_site_fract_x
_atom_site_fract_y
_atom_site_fract_z
Si Si1 0.188851 0.011914 0.669904
Si Si2 0.500000 0.532007 0.750000
Si Si3 0.392739 0.826388 0.529820
Si Si4 0.632268 0.128076 0.221707
Si Si5 0.965020 0.255378 0.909809
Si Si6 0.967803 0.246286 0.406390
O O1 0.300144 0.998446 0.597948
O O2 0.098223 0.793134 0.789753
O O3 0.250469 0.025073 0.483394
O O4 0.094118 0.222410 0.797645
O O5 0.589474 0.381604 0.566876
O O6 0.419975 0.680040 0.781291
O O7 0.349691 0.774811 0.694433
O O8 0.526866 0.936725 0.363392
O O9 0.911344 0.505466 0.001364
O O10 0.000000 0.257557 0.750000
O O11 0.905546 0.003376 0.005576
O O12 0.000000 0.249335 0.250000
#
# Coordination Sequence:
#
# PCOD9227253 Si02
#       6
#     4   2   4   4   4   4
#     4  10  18  34  56  76 110 154 190 240 284 340
#     4  12  20  40  56  80 114 156 180 252 290 334
#     4  11  23  37  54  82 114 150 193 234 289 348
#     4  11  23  37  54  82 114 150 193 234 289 348
#     4   8  16  29  52  82 110 147 191 230 293 346
#     4   8  16  29  52  82 110 147 191 230 293 346
#
# _framework density 24.899753
#
# number of rings (size 3 to 8) (size 9 to 14) (size 15 to 20)
#    1.091    1.091    3.636    0.545    2.545    0.000 
#    0.000    0.000    0.000    4.364    0.000    5.091 
#    0.000    0.000    0.000    0.000    0.000    0.000 
#
# Total GULP energy -122859.246654 kJ/mol
# GULP energy per Si atom -5584.511212 kJ/mol
# Density = 2.484308 g / cm^3
# Si number density = 24.899753 Si / 1000 Ang^3
#
#
#
# Elastic Constant Matrix: (Units=GPa)
#
#
# Indices 1 2 3 4 5 6 
#
# 1 108.9891 21.5504 28.5868 0.0000 26.5944 0.0000
# 2 21.5504 178.6057 36.6811 0.0000 16.0585 0.0000
# 3 28.5868 36.6811 119.0554 0.0000 13.5340 0.0000
# 4 0.0000 0.0000 0.0000 11.8996 0.0000 -6.8996
# 5 26.5944 16.0585 13.5340 0.0000 48.2760 0.0000
# 6 0.0000 0.0000 0.0000 -6.8996 0.0000 14.5887
#
#
#
# Elastic Compliance Matrix: (Units=1/GPa)
#
#
# Indices 1 2 3 4 5 6 
#
# 1 0.011089 -0.000459 -0.001905 0.000000 -0.005422 0.000000
# 2 -0.000459 0.006106 -0.001621 0.000000 -0.001324 0.000000
# 3 -0.001905 -0.001621 0.009478 0.000000 -0.001069 0.000000
# 4 0.000000 0.000000 0.000000 0.115788 0.000000 0.054760
# 5 -0.005422 -0.001324 -0.001069 0.000000 0.024441 0.000000
# 6 0.000000 0.000000 0.000000 0.054760 0.000000 0.094444
#
#
# Mechanical properties :
#
#
# Convention : Reuss Voigt Hill
#
# Bulk Modulus (GPa) = 53.46648 64.47632 58.97140
# Shear Modulus (GPa) = 18.14561 36.27498 27.21030
#
# Velocity S-wave (km/s) = 2.70246 3.82100 3.30933
# Velocity P-wave (km/s) = 5.59080 6.73924 6.19170
#
# Compressibility (1/GPa) = 0.01870331
#
# Stress axis : x y z
#
# Youngs Moduli (GPa) = 90.18285 163.76831 105.51228
#
# Poissons Ratio (x) = 0.07522 0.20097
# Poissons Ratio (y) = 0.04142 0.17099
# Poissons Ratio (z) = 0.17177 0.26539
#
# Static dielectric constant tensor:
#      x y z
#    x 2.002470 0.000000 0.052960 
#    y 0.000000 1.971150 0.000000 
#    z 0.052960 0.000000 1.975940 
# 
# From -- ./inp_files/54343.got.cif
#   From: 2010.05.17/outbox.cif.g08.bks.cpg/sg13_28_cif.got.tgz:54343.got - 2010.06.03 16:44:36.
