data_PCOD9227762
_publ_section_title
;
Structure prediction by ZEFSAII (Michael W. Deem and Ramdas Pophale) SiO2 
 PCOD9227762
Probable space group: P 2/C
;
_chemical_formula_sum "Si O2"
_cell_formula_units_Z 22
_cell_length_a 21.786862
_cell_length_b 9.893692
_cell_length_c 9.544626
_cell_angle_alpha 90.000000
_cell_angle_beta 152.437656
_cell_angle_gamma 90.000000
_cell_volume 951.971963
_symmetry_space_group_name_H-M "P 2/C"
_symmetry_group_IT_number 13
_symmetry_cell_setting 'monoclinic'
loop_
_space_group_symop_operation_xyz
x,y,z
-x,y,1/2-z
-x,-y,-z
x,-y,1/2+z
loop_
_atom_site_type_symbol
_atom_site_label
_atom_site_fract_x
_atom_site_fract_y
_atom_site_fract_z
Si Si1 0.899226 0.342339 0.754530
Si Si2 0.808920 0.235773 0.127763
Si Si3 0.586046 0.435120 0.798068
Si Si4 0.000000 0.967672 0.750000
Si Si5 0.817449 0.414128 0.887276
Si Si6 0.827358 0.926162 0.135590
O O1 0.902867 0.402806 0.918981
O O2 0.856103 0.457927 0.561014
O O3 0.782258 0.228183 0.526213
O O4 0.954771 0.278494 0.483425
O O5 0.694306 0.328239 0.960823
O O6 0.820306 0.280793 0.988164
O O7 0.774529 0.076034 0.065539
O O8 0.500000 0.374541 0.750000
O O9 0.500000 0.500000 0.500000
O O10 0.669601 0.556281 0.036507
O O11 0.930850 0.902495 0.474203
O O12 0.112178 0.050181 0.896117
#
# Coordination Sequence:
#
# PCOD9227762 Si02
#       6
#     4   4   4   2   4   4
#     4  12  25  42  68 116 151 172 233 287 389 445
#     4  12  24  42  72 104 144 189 229 295 366 428
#     4  12  26  48  68  97 135 196 252 292 342 404
#     4  10  18  40  56  96 148 196 200 268 344 460
#     4  12  26  42  71 104 143 181 227 311 352 439
#     4  11  24  40  66  99 152 185 220 274 364 446
#
# _framework density 23.109923999999999
#
# number of rings (size 3 to 8) (size 9 to 14) (size 15 to 20)
#    0.000    0.364    7.273    2.182    5.091    0.000 
#    0.000    0.000    0.000    5.455    0.000    0.000 
#    0.000    0.000    0.000    0.000    0.000    0.000 
#
# Total GULP energy -122744.687839 kJ/mol
# GULP energy per Si atom -5579.303993 kJ/mol
# Density = 2.305732 g / cm^3
# Si number density = 23.109924 Si / 1000 Ang^3
#
#
#
# Elastic Constant Matrix: (Units=GPa)
#
#
# Indices 1 2 3 4 5 6 
#
# 1 130.1606 21.1615 37.8855 0.0000 -20.0488 0.0000
# 2 21.1615 160.9708 46.6963 0.0000 -5.6572 0.0000
# 3 37.8855 46.6963 106.0221 0.0000 -11.5646 0.0000
# 4 0.0000 0.0000 0.0000 27.8482 0.0000 -5.4811
# 5 -20.0488 -5.6572 -11.5646 0.0000 39.1185 0.0000
# 6 0.0000 0.0000 0.0000 -5.4811 0.0000 33.4629
#
#
#
# Elastic Compliance Matrix: (Units=1/GPa)
#
#
# Indices 1 2 3 4 5 6 
#
# 1 0.009107 -0.000275 -0.002716 0.000000 0.003825 0.000000
# 2 -0.000275 0.007131 -0.003044 0.000000 -0.000009 0.000000
# 3 -0.002716 -0.003044 0.011928 0.000000 0.001694 0.000000
# 4 0.000000 0.000000 0.000000 0.037105 0.000000 0.006078
# 5 0.003825 -0.000009 0.001694 0.000000 0.028023 0.000000
# 6 0.000000 0.000000 0.000000 0.006078 0.000000 0.030879
#
#
# Mechanical properties :
#
#
# Convention : Reuss Voigt Hill
#
# Bulk Modulus (GPa) = 62.12337 67.62667 64.87502
# Shear Modulus (GPa) = 35.30862 39.51327 37.41095
#
# Velocity S-wave (km/s) = 3.91302 4.13945 4.02783
# Velocity P-wave (km/s) = 6.88155 7.22311 7.05440
#
# Compressibility (1/GPa) = 0.01609700
#
# Stress axis : x y z
#
# Youngs Moduli (GPa) = 109.80300 140.23209 83.83750
#
# Poissons Ratio (x) = 0.03855 0.22771
# Poissons Ratio (y) = 0.03019 0.25517
# Poissons Ratio (z) = 0.29823 0.42681
#
# Static dielectric constant tensor:
#      x y z
#    x 1.930190 0.000000 0.029040 
#    y 0.000000 1.978690 0.000000 
#    z 0.029040 0.000000 1.903460 
# 
# From -- ./inp_files/23911.got.cif
#   From: 2010.05.17/outbox.cif.g08.bks.cpg/sg13_12_cif.got.tgz:23911.got - 2010.06.03 16:44:36.
