data_PCOD9227051
_publ_section_title
;
Structure prediction by ZEFSAII (Michael W. Deem and Ramdas Pophale) SiO2 
 PCOD9227051
Probable space group: P 2/C
;
_chemical_formula_sum "Si O2"
_cell_formula_units_Z 28
_cell_length_a 15.933494
_cell_length_b 11.201106
_cell_length_c 14.704626
_cell_angle_alpha 90.000000
_cell_angle_beta 30.581536
_cell_angle_gamma 90.000000
_cell_volume 1335.187605
_symmetry_space_group_name_H-M "P 2/C"
_symmetry_group_IT_number 13
_symmetry_cell_setting 'monoclinic'
loop_
_space_group_symop_operation_xyz
x,y,z
-x,y,1/2-z
-x,-y,-z
x,-y,1/2+z
loop_
_atom_site_type_symbol
_atom_site_label
_atom_site_fract_x
_atom_site_fract_y
_atom_site_fract_z
Si Si1 0.870028 0.604760 0.113427
Si Si2 0.670582 0.943901 0.883108
Si Si3 0.390509 0.535027 0.990518
Si Si4 0.195966 0.864762 0.555185
Si Si5 0.542183 0.705415 0.962994
Si Si6 0.211983 0.149867 0.829864
Si Si7 0.187049 0.585977 0.541550
O O1 0.754094 0.581070 0.307483
O O2 0.921389 0.744473 0.060047
O O3 0.796577 0.585703 0.081513
O O4 0.000000 0.500000 0.000000
O O5 0.697055 0.931511 0.967313
O O6 0.678436 0.808004 0.840397
O O7 0.804232 0.035626 0.718903
O O8 0.500000 0.000000 0.000000
O O9 0.437142 0.406246 0.988776
O O10 0.313474 0.507154 0.966078
O O11 0.523208 0.638727 0.883964
O O12 0.231492 0.889616 0.416124
O O13 0.223075 0.721713 0.540302
O O14 0.000000 0.886801 0.750000
O O15 0.378804 0.777592 0.146751
O O16 0.000000 0.560368 0.750000
#
# Coordination Sequence:
#
# PCOD9227051 Si02
#       7
#     4   4   4   4   4   4   4
#     4  10  19  33  57  86 117 151 195 245 312 368
#     4  10  20  38  62  81 118 159 200 249 302 353
#     4  10  18  34  55  82 120 144 199 246 303 362
#     4  10  21  37  60  91 112 147 210 252 293 370
#     4   9  19  34  56  82 113 155 190 252 296 363
#     4   9  21  37  60  86 113 158 201 244 310 366
#     4  10  18  32  57  85 113 155 191 249 304 372
#
# _framework density 20.970837
#
# number of rings (size 3 to 8) (size 9 to 14) (size 15 to 20)
#    0.000    2.286    2.857    0.000    0.000    2.857 
#    2.571    2.143   25.143    0.000    0.000    0.000 
#    0.000    0.000    0.000    0.000    0.000    0.000 
#
# Total GULP energy -155940.104043 kJ/mol
# GULP energy per Si atom -5569.289430 kJ/mol
# Density = 2.092311 g / cm^3
# Si number density = 20.970837 Si / 1000 Ang^3
#
#
#
# Elastic Constant Matrix: (Units=GPa)
#
#
# Indices 1 2 3 4 5 6 
#
# 1 86.4278 54.9276 11.6222 0.0000 14.7485 0.0000
# 2 54.9276 134.9097 24.0055 0.0000 14.9590 0.0000
# 3 11.6222 24.0055 36.3622 0.0000 6.6197 0.0000
# 4 0.0000 0.0000 0.0000 28.1323 0.0000 4.3089
# 5 14.7485 14.9590 6.6197 0.0000 16.3552 0.0000
# 6 0.0000 0.0000 0.0000 4.3089 0.0000 38.2091
#
#
#
# Elastic Compliance Matrix: (Units=1/GPa)
#
#
# Indices 1 2 3 4 5 6 
#
# 1 0.016962 -0.005837 0.000264 0.000000 -0.010064 0.000000
# 2 -0.005837 0.010964 -0.004864 0.000000 -0.002796 0.000000
# 3 0.000264 -0.004864 0.032236 0.000000 -0.008837 0.000000
# 4 0.000000 0.000000 0.000000 0.036171 0.000000 -0.004079
# 5 -0.010064 -0.002796 -0.008837 0.000000 0.076352 0.000000
# 6 0.000000 0.000000 0.000000 -0.004079 0.000000 0.026632
#
#
# Mechanical properties :
#
#
# Convention : Reuss Voigt Hill
#
# Bulk Modulus (GPa) = 25.45222 48.75670 37.10446
# Shear Modulus (GPa) = 21.43285 27.68228 24.55756
#
# Velocity S-wave (km/s) = 3.20039 3.63717 3.42575
# Velocity P-wave (km/s) = 5.08134 6.39835 5.77750
#
# Compressibility (1/GPa) = 0.03928931
#
# Stress axis : x y z
#
# Youngs Moduli (GPa) = 58.95633 91.20465 31.02084
#
# Poissons Ratio (x) = 0.53236 -0.00819
# Poissons Ratio (y) = 0.34413 0.15088
# Poissons Ratio (z) = -0.01557 0.44360
#
# Static dielectric constant tensor:
#      x y z
#    x 1.819000 0.000000 -0.097740 
#    y 0.000000 1.802740 0.000000 
#    z -0.097740 0.000000 1.908520 
# 
# From -- ./inp_files/53515.got.cif
#   From: 2010.05.17/outbox.cif.g08.bks.cpg/sg13_27_cif.got.tgz:53515.got - 2010.06.03 16:44:36.
