data_PCOD9227649
_publ_section_title
;
Structure prediction by ZEFSAII (Michael W. Deem and Ramdas Pophale) SiO2 
 PCOD9227649
Probable space group: P 2/C
;
_chemical_formula_sum "Si O2"
_cell_formula_units_Z 30
_cell_length_a 17.736934
_cell_length_b 7.746074
_cell_length_c 19.151231
_cell_angle_alpha 90.000000
_cell_angle_beta 151.083262
_cell_angle_gamma 90.000000
_cell_volume 1272.294352
_symmetry_space_group_name_H-M "P 2/C"
_symmetry_group_IT_number 13
_symmetry_cell_setting 'monoclinic'
loop_
_space_group_symop_operation_xyz
x,y,z
-x,y,1/2-z
-x,-y,-z
x,-y,1/2+z
loop_
_atom_site_type_symbol
_atom_site_label
_atom_site_fract_x
_atom_site_fract_y
_atom_site_fract_z
Si Si1 0.524717 0.923711 0.193922
Si Si2 0.171229 0.779171 0.704255
Si Si3 0.000000 0.004963 0.750000
Si Si4 0.877752 0.546701 0.713302
Si Si5 0.669645 0.855224 0.180479
Si Si6 0.121931 0.973260 0.986506
Si Si7 0.002801 0.674007 0.439366
Si Si8 0.305479 0.790434 0.456433
O O1 0.500000 0.838296 0.250000
O O2 0.706733 0.961035 0.348449
O O3 0.534798 0.823188 0.128391
O O4 0.418324 0.096158 0.098233
O O5 0.200081 0.701066 0.804718
O O6 0.128286 0.649172 0.604678
O O7 0.286367 0.939630 0.783943
O O8 0.005197 0.874925 0.572544
O O9 0.137627 0.114134 0.825672
O O10 0.906138 0.907102 0.614255
O O11 0.976645 0.468211 0.858831
O O12 0.747512 0.409679 0.580024
O O13 0.000000 0.576869 0.750000
O O14 0.828533 0.741770 0.319325
O O15 0.625950 0.810165 0.065595
O O16 0.080123 0.171955 0.958160
#
# Coordination Sequence:
#
# PCOD9227649 Si02
#       8
#     4   4   2   4   4   4   4   4
#     4  12  23  35  62  96 120 158 206 264 317 368
#     4  11  20  35  63  91 117 158 203 262 305 363
#     4  12  18  36  62  92 116 156 210 260 310 366
#     4  11  23  36  57  92 122 160 206 251 304 368
#     4  10  20  38  60  90 121 159 202 254 317 372
#     4  11  20  36  64  93 121 148 208 259 317 364
#     4  10  18  37  63  84 118 157 206 252 296 375
#     4  11  22  38  61  88 125 162 204 256 303 379
#
# _framework density 23.579450000000001
#
# number of rings (size 3 to 8) (size 9 to 14) (size 15 to 20)
#    0.000    1.067    8.667    1.600    0.933    0.000 
#    0.000    0.667    0.000    0.000    0.000    0.000 
#    0.000    0.000    0.000    0.000    0.000    0.000 
#
# Total GULP energy -167041.993003 kJ/mol
# GULP energy per Si atom -5568.066433 kJ/mol
# Density = 2.352578 g / cm^3
# Si number density = 23.579450 Si / 1000 Ang^3
#
#
#
# Elastic Constant Matrix: (Units=GPa)
#
#
# Indices 1 2 3 4 5 6 
#
# 1 151.7402 27.8734 3.5278 0.0000 -13.1935 0.0000
# 2 27.8734 52.2518 10.7100 0.0000 1.2464 0.0000
# 3 3.5278 10.7100 92.2269 0.0000 1.7950 0.0000
# 4 0.0000 0.0000 0.0000 19.3634 0.0000 -13.6296
# 5 -13.1935 1.2464 1.7950 0.0000 34.9758 0.0000
# 6 0.0000 0.0000 0.0000 -13.6296 0.0000 10.1029
#
#
#
# Elastic Compliance Matrix: (Units=1/GPa)
#
#
# Indices 1 2 3 4 5 6 
#
# 1 0.007613 -0.004161 0.000133 0.000000 0.003013 0.000000
# 2 -0.004161 0.021890 -0.002340 0.000000 -0.002229 0.000000
# 3 0.000133 -0.002340 0.011118 0.000000 -0.000437 0.000000
# 4 0.000000 0.000000 0.000000 1.024579 0.000000 1.382236
# 5 0.003013 -0.002229 -0.000437 0.000000 0.029830 0.000000
# 6 0.000000 0.000000 0.000000 1.382236 0.000000 1.963725
#
#
# Mechanical properties :
#
#
# Convention : Reuss Voigt Hill
#
# Bulk Modulus (GPa) = 35.85768 42.27125 39.06446
# Shear Modulus (GPa) = 1.62296 29.82893 15.72594
#
# Velocity S-wave (km/s) = 0.83054 3.56060 2.58531
# Velocity P-wave (km/s) = 4.01994 5.90507 5.05123
#
# Compressibility (1/GPa) = 0.02788803
#
# Stress axis : x y z
#
# Youngs Moduli (GPa) = 131.34796 45.68250 89.94501
#
# Poissons Ratio (x) = 0.19006 -0.01199
# Poissons Ratio (y) = 0.54647 0.21043
# Poissons Ratio (z) = -0.01751 0.10687
#
# Static dielectric constant tensor:
#      x y z
#    x 2.057210 0.000000 -0.099260 
#    y 0.000000 1.998410 0.000000 
#    z -0.099260 0.000000 1.917790 
# 
# From -- ./inp_files/80954.got.cif
#   From: 2010.05.17/outbox.cif.g08.bks.cpg/sg13_41_cif.got.tgz:80954.got - 2010.06.03 16:44:36.
