data_PCOD9227446
_publ_section_title
;
Structure prediction by ZEFSAII (Michael W. Deem and Ramdas Pophale) SiO2 
 PCOD9227446
Probable space group: P 2/C
;
_chemical_formula_sum "Si O2"
_cell_formula_units_Z 26
_cell_length_a 9.089890
_cell_length_b 9.026598
_cell_length_c 18.185538
_cell_angle_alpha 90.000000
_cell_angle_beta 93.204790
_cell_angle_gamma 90.000000
_cell_volume 1489.804067
_symmetry_space_group_name_H-M "P 2/C"
_symmetry_group_IT_number 13
_symmetry_cell_setting 'monoclinic'
loop_
_space_group_symop_operation_xyz
x,y,z
-x,y,1/2-z
-x,-y,-z
x,-y,1/2+z
loop_
_atom_site_type_symbol
_atom_site_label
_atom_site_fract_x
_atom_site_fract_y
_atom_site_fract_z
Si Si1 0.226471 0.543001 0.010860
Si Si2 0.163944 0.949567 0.483306
Si Si3 0.000000 0.430007 0.750000
Si Si4 0.317573 0.747582 0.606957
Si Si5 0.343680 0.214799 0.414050
Si Si6 0.831980 0.281475 0.240084
Si Si7 0.964053 0.325261 0.590811
O O1 0.284370 0.414505 0.067950
O O2 0.114790 0.655051 0.049114
O O3 0.338961 0.646356 0.970407
O O4 0.132771 0.459599 0.944942
O O5 0.230932 0.866787 0.555517
O O6 0.131329 0.820422 0.423977
O O7 0.271550 0.074824 0.454250
O O8 0.000000 0.000000 0.500000
O O9 0.861855 0.541879 0.741352
O O10 0.004122 0.340379 0.676118
O O11 0.487860 0.792657 0.606565
O O12 0.258195 0.751824 0.688582
O O13 0.245210 0.239314 0.338154
O O14 0.000000 0.218635 0.250000
#
# Coordination Sequence:
#
# PCOD9227446 Si02
#       7
#     4   4   2   4   4   4   4
#     4  10  18  35  60  88 111 149 201 245 291 348
#     4  11  23  39  59  84 118 161 202 243 293 364
#     4  10  18  36  60  88 110 142 194 258 290 340
#     4  11  23  38  60  87 122 156 195 253 305 358
#     4  12  22  38  58  92 122 156 195 247 309 361
#     4  10  20  37  63  86 111 152 203 242 291 356
#     4  10  19  35  61  85 113 148 203 248 285 343
#
# _framework density 17.45196
#
# number of rings (size 3 to 8) (size 9 to 14) (size 15 to 20)
#    0.462    0.923    4.615    2.308    2.154    0.000 
#    4.154    0.000    0.000    0.000    0.000    0.000 
#    0.000    0.000    0.000    0.000    0.000    0.000 
#
# Total GULP energy -144850.457514 kJ/mol
# GULP energy per Si atom -5571.171443 kJ/mol
# Density = 1.741224 g / cm^3
# Si number density = 17.451960 Si / 1000 Ang^3
#
#
#
# Elastic Constant Matrix: (Units=GPa)
#
#
# Indices 1 2 3 4 5 6 
#
# 1 82.6321 21.9520 4.7907 0.0000 -20.5630 0.0000
# 2 21.9520 57.3977 36.8339 0.0000 -8.3266 0.0000
# 3 4.7907 36.8339 89.1186 0.0000 -11.9411 0.0000
# 4 0.0000 0.0000 0.0000 11.4519 0.0000 -7.1921
# 5 -20.5630 -8.3266 -11.9411 0.0000 34.2762 0.0000
# 6 0.0000 0.0000 0.0000 -7.1921 0.0000 20.3587
#
#
#
# Elastic Compliance Matrix: (Units=1/GPa)
#
#
# Indices 1 2 3 4 5 6 
#
# 1 0.015984 -0.006843 0.003180 0.000000 0.009034 0.000000
# 2 -0.006843 0.026840 -0.010911 0.000000 -0.001386 0.000000
# 3 0.003180 -0.010911 0.016217 0.000000 0.004907 0.000000
# 4 0.000000 0.000000 0.000000 0.112219 0.000000 0.039644
# 5 0.009034 -0.001386 0.004907 0.000000 0.035967 0.000000
# 6 0.000000 0.000000 0.000000 0.039644 0.000000 0.063124
#
#
# Mechanical properties :
#
#
# Convention : Reuss Voigt Hill
#
# Bulk Modulus (GPa) = 33.45380 39.58907 36.52144
# Shear Modulus (GPa) = 16.15689 24.25545 20.20617
#
# Velocity S-wave (km/s) = 3.04598 3.73210 3.40636
# Velocity P-wave (km/s) = 5.61973 6.42692 6.03683
#
# Compressibility (1/GPa) = 0.02989197
#
# Stress axis : x y z
#
# Youngs Moduli (GPa) = 62.56441 37.25715 61.66229
#
# Poissons Ratio (x) = 0.25494 -0.19606
# Poissons Ratio (y) = 0.42811 0.67282
# Poissons Ratio (z) = -0.19892 0.40653
#
# Static dielectric constant tensor:
#      x y z
#    x 1.576570 0.000000 -0.019060 
#    y 0.000000 1.676050 0.000000 
#    z -0.019060 0.000000 1.573500 
# 
# From -- ./inp_files/63727.got.cif
#   From: 2010.05.17/outbox.cif.g08.bks.cpg/sg13_32_cif.got.tgz:63727.got - 2010.06.03 16:44:36.
