data_PCOD9227180
_publ_section_title
;
Structure prediction by ZEFSAII (Michael W. Deem and Ramdas Pophale) SiO2 
 PCOD9227180
Probable space group: P 2/C
;
_chemical_formula_sum "Si O2"
_cell_formula_units_Z 32
_cell_length_a 14.541967
_cell_length_b 7.986759
_cell_length_c 17.960161
_cell_angle_alpha 90.000000
_cell_angle_beta 136.656084
_cell_angle_gamma 90.000000
_cell_volume 1431.746180
_symmetry_space_group_name_H-M "P 2/C"
_symmetry_group_IT_number 13
_symmetry_cell_setting 'monoclinic'
loop_
_space_group_symop_operation_xyz
x,y,z
-x,y,1/2-z
-x,-y,-z
x,-y,1/2+z
loop_
_atom_site_type_symbol
_atom_site_label
_atom_site_fract_x
_atom_site_fract_y
_atom_site_fract_z
Si Si1 0.906204 0.760747 0.884717
Si Si2 0.359518 0.508244 0.981175
Si Si3 0.089057 0.617311 0.869314
Si Si4 0.001941 0.856206 0.099223
Si Si5 0.201609 0.977660 0.911475
Si Si6 0.499553 0.023112 0.909730
Si Si7 0.614878 0.327634 0.156399
Si Si8 0.264948 0.214061 0.816425
O O1 0.762230 0.684602 0.777520
O O2 0.011442 0.651074 0.899515
O O3 0.932060 0.959055 0.879077
O O4 0.934346 0.770302 0.988574
O O5 0.233024 0.529920 0.959792
O O6 0.368568 0.656306 0.924474
O O7 0.322949 0.351175 0.906526
O O8 0.501887 0.470185 0.102977
O O9 0.126694 0.803332 0.863061
O O10 0.000000 0.539514 0.750000
O O11 0.125402 0.740008 0.196771
O O12 0.888760 0.896286 0.093569
O O13 0.223341 0.058202 0.844049
O O14 0.351199 0.944914 0.030928
O O15 0.453477 0.842004 0.856251
O O16 0.381028 0.155869 0.828373
O O17 0.500000 0.000000 0.000000
#
# Coordination Sequence:
#
# PCOD9227180 Si02
#       8
#     4   4   4   4   4   4   4   4
#     4  10  21  40  65  87 122 171 203 262 319 383
#     4  11  23  33  59  94 123 160 206 254 311 381
#     4  11  21  36  61  89 123 162 205 258 320 380
#     4  10  21  38  64  91 121 158 217 257 318 382
#     4  10  20  35  60  95 117 157 206 270 316 365
#     4  10  18  33  58  87 121 153 196 264 316 350
#     4  11  20  38  58  90 124 162 201 249 318 372
#     4  11  20  35  60  91 123 153 206 269 307 370
#
# _framework density 22.350331000000001
#
# number of rings (size 3 to 8) (size 9 to 14) (size 15 to 20)
#    0.000    1.500    5.000    3.375    1.750    1.000 
#    0.000    1.250    0.000    0.000    0.000    0.000 
#    0.000    0.000    0.000    0.000    0.000    0.000 
#
# Total GULP energy -178620.503557 kJ/mol
# GULP energy per Si atom -5581.890736 kJ/mol
# Density = 2.229946 g / cm^3
# Si number density = 22.350331 Si / 1000 Ang^3
#
#
#
# Elastic Constant Matrix: (Units=GPa)
#
#
# Indices 1 2 3 4 5 6 
#
# 1 68.0241 9.9961 75.5880 0.0000 41.3500 0.0000
# 2 9.9961 65.5438 30.9876 0.0000 11.8067 0.0000
# 3 75.5880 30.9876 148.6887 0.0000 44.0034 0.0000
# 4 0.0000 0.0000 0.0000 26.8271 0.0000 13.5531
# 5 41.3500 11.8067 44.0034 0.0000 38.6300 0.0000
# 6 0.0000 0.0000 0.0000 13.5531 0.0000 23.3054
#
#
#
# Elastic Compliance Matrix: (Units=1/GPa)
#
#
# Indices 1 2 3 4 5 6 
#
# 1 0.068876 0.009030 -0.021513 0.000000 -0.051980 0.000000
# 2 0.009030 0.018186 -0.005846 0.000000 -0.008565 0.000000
# 3 -0.021513 -0.005846 0.017403 0.000000 0.004990 0.000000
# 4 0.000000 0.000000 0.000000 0.052783 0.000000 -0.030696
# 5 -0.051980 -0.008565 0.004990 0.000000 0.078461 0.000000
# 6 0.000000 0.000000 0.000000 -0.030696 0.000000 0.060759
#
#
# Mechanical properties :
#
#
# Convention : Reuss Voigt Hill
#
# Bulk Modulus (GPa) = 14.74744 57.26667 36.00706
# Shear Modulus (GPa) = 14.05564 28.79816 21.42690
#
# Velocity S-wave (km/s) = 2.51047 3.59345 3.09962
# Velocity P-wave (km/s) = 3.87503 6.54943 5.38103
#
# Compressibility (1/GPa) = 0.06780836
#
# Stress axis : x y z
#
# Youngs Moduli (GPa) = 14.51887 54.98591 57.46055
#
# Poissons Ratio (x) = -0.49652 1.23613
# Poissons Ratio (y) = -0.13110 0.33591
# Poissons Ratio (z) = 0.31234 0.32144
#
# Static dielectric constant tensor:
#      x y z
#    x 1.810070 0.000000 0.050910 
#    y 0.000000 1.936810 0.000000 
#    z 0.050910 0.000000 1.882870 
# 
# From -- ./inp_files/79834.got.cif
#   From: 2010.05.17/outbox.cif.g08.bks.cpg/sg13_40_cif.got.tgz:79834.got - 2010.06.03 16:44:36.
