data_PCOD9227441
_publ_section_title
;
Structure prediction by ZEFSAII (Michael W. Deem and Ramdas Pophale) SiO2 
 PCOD9227441
Probable space group: P 2/C
;
_chemical_formula_sum "Si O2"
_cell_formula_units_Z 24
_cell_length_a 17.009326
_cell_length_b 10.208062
_cell_length_c 15.022828
_cell_angle_alpha 90.000000
_cell_angle_beta 151.746610
_cell_angle_gamma 90.000000
_cell_volume 1234.765448
_symmetry_space_group_name_H-M "P 2/C"
_symmetry_group_IT_number 13
_symmetry_cell_setting 'monoclinic'
loop_
_space_group_symop_operation_xyz
x,y,z
-x,y,1/2-z
-x,-y,-z
x,-y,1/2+z
loop_
_atom_site_type_symbol
_atom_site_label
_atom_site_fract_x
_atom_site_fract_y
_atom_site_fract_z
Si Si1 0.323010 0.346987 0.154630
Si Si2 0.870440 0.774045 0.307681
Si Si3 0.195644 0.293109 0.227670
Si Si4 0.644878 0.018737 0.071697
Si Si5 0.000000 0.676717 0.250000
Si Si6 0.500000 0.895819 0.750000
Si Si7 0.620715 0.462660 0.539293
O O1 0.265250 0.321474 0.197981
O O2 0.364459 0.205391 0.154057
O O3 0.491223 0.430110 0.332200
O O4 0.165971 0.401623 0.943471
O O5 0.953782 0.758370 0.292746
O O6 0.720678 0.669743 0.159093
O O7 0.002543 0.735383 0.515385
O O8 0.792416 0.916776 0.240617
O O9 0.285518 0.165038 0.354647
O O10 0.246629 0.420020 0.335837
O O11 0.500000 0.000000 0.000000
O O12 0.573565 0.979189 0.904106
O O13 0.500000 0.500000 0.500000
#
# Coordination Sequence:
#
# PCOD9227441 Si02
#       7
#     4   4   4   4   2   2   4
#     4  10  18  35  59  88 121 165 209 257 303 378
#     4  11  21  37  64  92 127 168 214 261 309 386
#     4  10  22  36  58  94 128 158 207 263 326 367
#     4  12  22  39  62  93 128 172 218 261 317 382
#     4  10  20  34  60 100 118 158 218 268 298 364
#     4  12  20  38  62  88 124 166 222 256 296 384
#     4  10  19  37  61  89 121 162 212 259 315 377
#
# _framework density 19.436889999999998
#
# number of rings (size 3 to 8) (size 9 to 14) (size 15 to 20)
#    0.000    1.333    5.000    2.000    0.000    0.000 
#    0.000    2.500    0.000    1.000    0.000    0.000 
#    0.000    0.000    0.000    0.000    0.000    0.000 
#
# Total GULP energy -133899.890465 kJ/mol
# GULP energy per Si atom -5579.162103 kJ/mol
# Density = 1.939265 g / cm^3
# Si number density = 19.436890 Si / 1000 Ang^3
#
#
#
# Elastic Constant Matrix: (Units=GPa)
#
#
# Indices 1 2 3 4 5 6 
#
# 1 49.2716 -8.6508 15.9964 0.0000 -9.9088 0.0000
# 2 -8.6508 66.6053 38.2680 0.0000 -17.2015 0.0000
# 3 15.9964 38.2680 182.3458 0.0000 -14.6380 0.0000
# 4 0.0000 0.0000 0.0000 28.2826 0.0000 2.2149
# 5 -9.9088 -17.2015 -14.6380 0.0000 28.2604 0.0000
# 6 0.0000 0.0000 0.0000 2.2149 0.0000 18.9850
#
#
#
# Elastic Compliance Matrix: (Units=1/GPa)
#
#
# Indices 1 2 3 4 5 6 
#
# 1 0.025125 0.008100 -0.002923 0.000000 0.012226 0.000000
# 2 0.008100 0.022141 -0.004223 0.000000 0.014130 0.000000
# 3 -0.002923 -0.004223 0.006613 0.000000 -0.000170 0.000000
# 4 0.000000 0.000000 0.000000 0.035683 0.000000 -0.004163
# 5 0.012226 0.014130 -0.000170 0.000000 0.048184 0.000000
# 6 0.000000 0.000000 0.000000 -0.004163 0.000000 0.053159
#
#
# Mechanical properties :
#
#
# Convention : Reuss Voigt Hill
#
# Bulk Modulus (GPa) = 17.92479 43.27221 30.59850
# Shear Modulus (GPa) = 24.08548 31.94620 28.01584
#
# Velocity S-wave (km/s) = 3.52399 4.05851 3.80066
# Velocity P-wave (km/s) = 5.07938 6.65382 5.91918
#
# Compressibility (1/GPa) = 0.05578866
#
# Stress axis : x y z
#
# Youngs Moduli (GPa) = 39.80032 45.16454 151.21509
#
# Poissons Ratio (x) = -0.36583 0.44194
# Poissons Ratio (y) = -0.32238 0.63858
# Poissons Ratio (z) = 0.11632 0.19073
#
# Static dielectric constant tensor:
#      x y z
#    x 1.715250 0.000000 0.024920 
#    y 0.000000 1.651430 0.000000 
#    z 0.024920 0.000000 1.734000 
# 
# From -- ./inp_files/46164.got.cif
#   From: 2010.05.17/outbox.cif.g08.bks.cpg/sg13_24_cif.got.tgz:46164.got - 2010.06.03 16:44:36.
