data_PCOD9227926
_publ_section_title
;
Structure prediction by ZEFSAII (Michael W. Deem and Ramdas Pophale) SiO2 
 PCOD9227926
Probable space group: P 2/C
;
_chemical_formula_sum "Si O2"
_cell_formula_units_Z 32
_cell_length_a 8.474315
_cell_length_b 13.379683
_cell_length_c 19.349161
_cell_angle_alpha 90.000000
_cell_angle_beta 50.918285
_cell_angle_gamma 90.000000
_cell_volume 1702.992976
_symmetry_space_group_name_H-M "P 2/C"
_symmetry_group_IT_number 13
_symmetry_cell_setting 'monoclinic'
loop_
_space_group_symop_operation_xyz
x,y,z
-x,y,1/2-z
-x,-y,-z
x,-y,1/2+z
loop_
_atom_site_type_symbol
_atom_site_label
_atom_site_fract_x
_atom_site_fract_y
_atom_site_fract_z
Si Si1 0.470129 0.387286 0.567931
Si Si2 0.098568 0.849773 0.292422
Si Si3 0.474784 0.783696 0.333867
Si Si4 0.988181 0.627632 0.365739
Si Si5 0.262803 0.565543 0.790721
Si Si6 0.568550 0.387546 0.391537
Si Si7 0.039990 0.890870 0.460494
Si Si8 0.163167 0.305813 0.448340
O O1 0.500387 0.300740 0.615043
O O2 0.607695 0.369558 0.461615
O O3 0.512684 0.497013 0.586669
O O4 0.236330 0.391178 0.604381
O O5 0.338993 0.861237 0.217815
O O6 0.064056 0.730096 0.310453
O O7 0.002636 0.892944 0.388283
O O8 0.000000 0.886676 0.250000
O O9 0.500000 0.736806 0.250000
O O10 0.266730 0.843823 0.401505
O O11 0.142689 0.537365 0.313654
O O12 0.970726 0.646185 0.452990
O O13 0.500000 0.552537 0.750000
O O14 0.265831 0.616065 0.714167
O O15 0.158480 0.632555 0.878834
O O16 0.389980 0.315358 0.415826
O O17 0.902132 0.808780 0.536859
O O18 0.000000 0.000000 0.500000
#
# Coordination Sequence:
#
# PCOD9227926 Si02
#       8
#     4   4   4   4   4   4   4   4
#     4  10  19  34  51  81 122 151 197 228 285 340
#     4  10  19  36  63  93 119 138 186 243 295 340
#     4  10  21  36  61  91 111 146 186 247 291 340
#     4  10  19  30  56  85 119 160 183 237 285 332
#     4  10  20  33  50  82 123 162 204 223 274 348
#     4   9  20  32  50  80 117 165 190 225 271 354
#     4  10  23  42  63  83 112 146 198 251 309 346
#     4   9  20  36  54  77 112 155 196 244 283 336
#
# _framework density 18.790448000000001
#
# number of rings (size 3 to 8) (size 9 to 14) (size 15 to 20)
#    0.000    2.250    1.250    1.125    0.000   13.000 
#    0.000    6.250    2.750    0.000    0.000    0.000 
#    0.000    0.000    0.000    0.000    0.000    0.000 
#
# Total GULP energy -178511.176340 kJ/mol
# GULP energy per Si atom -5578.474261 kJ/mol
# Density = 1.874768 g / cm^3
# Si number density = 18.790448 Si / 1000 Ang^3
#
#
#
# Elastic Constant Matrix: (Units=GPa)
#
#
# Indices 1 2 3 4 5 6 
#
# 1 67.0114 36.7907 38.3101 0.0000 13.9862 0.0000
# 2 36.7907 104.0874 49.9747 0.0000 -0.1834 0.0000
# 3 38.3101 49.9747 109.7927 0.0000 24.5540 0.0000
# 4 0.0000 0.0000 0.0000 10.9645 0.0000 3.7155
# 5 13.9862 -0.1834 24.5540 0.0000 35.8591 0.0000
# 6 0.0000 0.0000 0.0000 3.7155 0.0000 9.6048
#
#
#
# Elastic Compliance Matrix: (Units=1/GPa)
#
#
# Indices 1 2 3 4 5 6 
#
# 1 0.021391 -0.005933 -0.003414 0.000000 -0.006036 0.000000
# 2 -0.005933 0.014617 -0.006043 0.000000 0.006526 0.000000
# 3 -0.003414 -0.006043 0.015066 0.000000 -0.009016 0.000000
# 4 0.000000 0.000000 0.000000 0.104963 0.000000 -0.040604
# 5 -0.006036 0.006526 -0.009016 0.000000 0.036448 0.000000
# 6 0.000000 0.000000 0.000000 -0.040604 0.000000 0.119822
#
#
# Mechanical properties :
#
#
# Convention : Reuss Voigt Hill
#
# Bulk Modulus (GPa) = 49.27065 59.00473 54.13769
# Shear Modulus (GPa) = 14.29181 21.67342 17.98261
#
# Velocity S-wave (km/s) = 2.76087 3.39990 3.09691
# Velocity P-wave (km/s) = 6.03666 6.84705 6.45458
#
# Compressibility (1/GPa) = 0.02029606
#
# Stress axis : x y z
#
# Youngs Moduli (GPa) = 46.74766 68.41350 66.37446
#
# Poissons Ratio (x) = 0.40587 0.22659
# Poissons Ratio (y) = 0.27733 0.40109
# Poissons Ratio (z) = 0.15959 0.41341
#
# Static dielectric constant tensor:
#      x y z
#    x 1.718630 0.000000 -0.005730 
#    y 0.000000 1.602990 0.000000 
#    z -0.005730 0.000000 1.706190 
# 
# From -- ./inp_files/76439.got.cif
#   From: 2010.05.17/outbox.cif.g08.bks.cpg/sg13_39_cif.got.tgz:76439.got - 2010.06.03 16:44:36.
