data_PCOD9227921
_publ_section_title
;
Structure prediction by ZEFSAII (Michael W. Deem and Ramdas Pophale) SiO2 
 PCOD9227921
Probable space group: P 2/C
;
_chemical_formula_sum "Si O2"
_cell_formula_units_Z 32
_cell_length_a 7.912254
_cell_length_b 21.108404
_cell_length_c 14.291794
_cell_angle_alpha 90.000000
_cell_angle_beta 41.684756
_cell_angle_gamma 90.000000
_cell_volume 1587.393880
_symmetry_space_group_name_H-M "P 2/C"
_symmetry_group_IT_number 13
_symmetry_cell_setting 'monoclinic'
loop_
_space_group_symop_operation_xyz
x,y,z
-x,y,1/2-z
-x,-y,-z
x,-y,1/2+z
loop_
_atom_site_type_symbol
_atom_site_label
_atom_site_fract_x
_atom_site_fract_y
_atom_site_fract_z
Si Si1 0.719312 0.943181 0.315509
Si Si2 0.735987 0.563796 0.869565
Si Si3 0.105629 0.184213 0.813164
Si Si4 0.296941 0.920695 0.650124
Si Si5 0.130002 0.324958 0.799495
Si Si6 0.439433 0.201817 0.382382
Si Si7 0.560133 0.451546 0.829224
Si Si8 0.601172 0.658801 0.601914
O O1 0.488712 0.931199 0.483264
O O2 0.000000 0.946108 0.250000
O O3 0.738605 0.880984 0.242565
O O4 0.676970 0.015126 0.298052
O O5 0.749849 0.499779 0.802618
O O6 0.511566 0.604384 0.916632
O O7 0.000000 0.599552 0.750000
O O8 0.675237 0.549164 0.001941
O O9 0.000000 0.184787 0.750000
O O10 0.230010 0.253329 0.774621
O O11 0.853024 0.182974 0.980092
O O12 0.388690 0.854727 0.653132
O O13 0.000000 0.915547 0.750000
O O14 0.331154 0.380828 0.721120
O O15 0.000000 0.326387 0.750000
O O16 0.905880 0.339625 0.966570
O O17 0.500000 0.209981 0.250000
O O18 0.478451 0.272264 0.406911
O O19 0.500000 0.474055 0.750000
O O20 0.500000 0.651141 0.750000
#
# Coordination Sequence:
#
# PCOD9227921 Si02
#       8
#     4   4   4   4   4   4   4   4
#     4   9  16  31  56  80 109 148 207 231 279 351
#     4  11  25  41  60  88 121 154 189 236 293 351
#     4   9  16  32  62  80 101 155 203 229 267 352
#     4  10  19  30  54  87 112 147 193 249 287 336
#     4  10  19  37  64  86 110 149 205 242 279 345
#     4  10  20  36  57  85 117 151 188 234 295 355
#     4  11  25  41  61  88 119 153 192 241 289 341
#     4  10  22  39  62  88 116 155 195 239 292 349
#
# _framework density 20.158828
#
# number of rings (size 3 to 8) (size 9 to 14) (size 15 to 20)
#    0.000    2.000    3.750    0.750    3.500    1.000 
#    0.000    0.625    0.000    0.000    0.000    0.000 
#    0.000    0.000    0.000    0.000    0.000    0.000 
#
# Total GULP energy -178301.019813 kJ/mol
# GULP energy per Si atom -5571.906869 kJ/mol
# Density = 2.011295 g / cm^3
# Si number density = 20.158828 Si / 1000 Ang^3
#
#
#
# Elastic Constant Matrix: (Units=GPa)
#
#
# Indices 1 2 3 4 5 6 
#
# 1 29.5175 18.6848 25.2297 0.0000 2.3716 0.0000
# 2 18.6848 142.2346 22.6138 0.0000 -8.8638 0.0000
# 3 25.2297 22.6138 113.6687 0.0000 5.0776 0.0000
# 4 0.0000 0.0000 0.0000 21.2392 0.0000 -8.6545
# 5 2.3716 -8.8638 5.0776 0.0000 26.5324 0.0000
# 6 0.0000 0.0000 0.0000 -8.6545 0.0000 5.6252
#
#
#
# Elastic Compliance Matrix: (Units=1/GPa)
#
#
# Indices 1 2 3 4 5 6 
#
# 1 0.044706 -0.004714 -0.008811 0.000000 -0.003885 0.000000
# 2 -0.004714 0.007958 -0.000680 0.000000 0.003210 0.000000
# 3 -0.008811 -0.000680 0.010957 0.000000 -0.001537 0.000000
# 4 0.000000 0.000000 0.000000 0.126197 0.000000 0.194156
# 5 -0.003885 0.003210 -0.001537 0.000000 0.039403 0.000000
# 6 0.000000 0.000000 0.000000 0.194156 0.000000 0.476484
#
#
# Mechanical properties :
#
#
# Convention : Reuss Voigt Hill
#
# Bulk Modulus (GPa) = 28.40132 46.49751 37.44941
# Shear Modulus (GPa) = 6.70373 25.27221 15.98797
#
# Velocity S-wave (km/s) = 1.82556 3.54454 2.81926
# Velocity P-wave (km/s) = 4.30847 6.31406 5.40510
#
# Compressibility (1/GPa) = 0.03520963
#
# Stress axis : x y z
#
# Youngs Moduli (GPa) = 22.36846 125.65796 91.26367
#
# Poissons Ratio (x) = 0.59235 0.80417
# Poissons Ratio (y) = 0.10544 0.06209
# Poissons Ratio (z) = 0.19710 0.08549
#
# Static dielectric constant tensor:
#      x y z
#    x 1.705670 0.000000 -0.014070 
#    y 0.000000 1.789010 0.000000 
#    z -0.014070 0.000000 1.738140 
# 
# From -- ./inp_files/48165.got.cif
#   From: 2010.05.17/outbox.cif.g08.bks.cpg/sg13_25_cif.got.tgz:48165.got - 2010.06.03 16:44:36.
