data_PCOD9227088
_publ_section_title
;
Structure prediction by ZEFSAII (Michael W. Deem and Ramdas Pophale) SiO2 
 PCOD9227088
Probable space group: P 2/C
;
_chemical_formula_sum "Si O2"
_cell_formula_units_Z 24
_cell_length_a 13.225352
_cell_length_b 16.345208
_cell_length_c 8.682684
_cell_angle_alpha 90.000000
_cell_angle_beta 141.077645
_cell_angle_gamma 90.000000
_cell_volume 1179.222339
_symmetry_space_group_name_H-M "P 2/C"
_symmetry_group_IT_number 13
_symmetry_cell_setting 'monoclinic'
loop_
_space_group_symop_operation_xyz
x,y,z
-x,y,1/2-z
-x,-y,-z
x,-y,1/2+z
loop_
_atom_site_type_symbol
_atom_site_label
_atom_site_fract_x
_atom_site_fract_y
_atom_site_fract_z
Si Si1 0.739175 0.731451 0.878111
Si Si2 0.000000 0.018610 0.750000
Si Si3 0.807545 0.095353 0.801339
Si Si4 0.133004 0.564402 0.103670
Si Si5 0.500000 0.856145 0.750000
Si Si6 0.337609 0.554778 0.642294
Si Si7 0.952966 0.739029 0.445033
O O1 0.603621 0.797603 0.758882
O O2 0.660102 0.640760 0.761879
O O3 0.852994 0.733392 0.165204
O O4 0.860987 0.750970 0.883164
O O5 0.859090 0.965582 0.499850
O O6 0.921324 0.071858 0.791379
O O7 0.628608 0.097156 0.513516
O O8 0.866161 0.185202 0.923433
O O9 0.229767 0.578302 0.372050
O O10 0.250645 0.518990 0.125685
O O11 0.064353 0.653379 0.986362
O O12 0.000000 0.500000 0.000000
O O13 0.500000 0.529531 0.750000
#
# Coordination Sequence:
#
# PCOD9227088 Si02
#       7
#     4   2   4   4   2   4   4
#     4   9  16  30  55  82 116 154 201 242 289 354
#     4  10  22  42  64  86 122 160 198 240 320 378
#     4  10  21  39  63  91 118 155 198 252 305 377
#     4  11  21  36  57  81 115 162 207 244 290 356
#     4  10  18  32  62  96 120 152 202 258 304 356
#     4  11  21  35  52  81 118 159 200 254 298 344
#     4   9  18  34  56  83 115 156 201 244 294 364
#
# _framework density 20.352397
#
# number of rings (size 3 to 8) (size 9 to 14) (size 15 to 20)
#    0.000    2.000    2.500    3.000    0.000    0.667 
#    3.000    0.000    0.000    0.000    2.167    0.000 
#    0.000    0.000    0.000    0.000    0.000    0.000 
#
# Total GULP energy -133664.852640 kJ/mol
# GULP energy per Si atom -5569.368860 kJ/mol
# Density = 2.030607 g / cm^3
# Si number density = 20.352397 Si / 1000 Ang^3
#
#
#
# Elastic Constant Matrix: (Units=GPa)
#
#
# Indices 1 2 3 4 5 6 
#
# 1 62.3420 3.7879 27.8626 0.0000 20.9422 0.0000
# 2 3.7879 86.2242 33.3823 0.0000 4.5757 0.0000
# 3 27.8626 33.3823 92.6775 0.0000 17.4348 0.0000
# 4 0.0000 0.0000 0.0000 46.6304 0.0000 19.7723
# 5 20.9422 4.5757 17.4348 0.0000 37.8898 0.0000
# 6 0.0000 0.0000 0.0000 19.7723 0.0000 30.0802
#
#
#
# Elastic Compliance Matrix: (Units=1/GPa)
#
#
# Indices 1 2 3 4 5 6 
#
# 1 0.021534 0.001591 -0.005224 0.000000 -0.009690 0.000000
# 2 0.001591 0.013610 -0.005371 0.000000 -0.000051 0.000000
# 3 -0.005224 -0.005371 0.014922 0.000000 -0.003330 0.000000
# 4 0.000000 0.000000 0.000000 0.029732 0.000000 -0.019544
# 5 -0.009690 -0.000051 -0.003330 0.000000 0.033287 0.000000
# 6 0.000000 0.000000 0.000000 -0.019544 0.000000 0.046091
#
#
# Mechanical properties :
#
#
# Convention : Reuss Voigt Hill
#
# Bulk Modulus (GPa) = 31.19406 41.25656 36.22531
# Shear Modulus (GPa) = 26.61427 34.66748 30.64088
#
# Velocity S-wave (km/s) = 3.62010 4.13166 3.88431
# Velocity P-wave (km/s) = 5.73007 6.56322 6.16075
#
# Compressibility (1/GPa) = 0.03205738
#
# Stress axis : x y z
#
# Youngs Moduli (GPa) = 46.43844 73.47608 67.01654
#
# Poissons Ratio (x) = -0.11688 0.35009
# Poissons Ratio (y) = -0.07387 0.35993
# Poissons Ratio (z) = 0.24259 0.39463
#
# Static dielectric constant tensor:
#      x y z
#    x 1.685520 0.000000 0.004480 
#    y 0.000000 1.464940 0.000000 
#    z 0.004480 0.000000 1.733790 
# 
# From -- ./inp_files/37602.got.cif
#   From: 2010.05.17/outbox.cif.g08.bks.cpg/sg13_19_cif.got.tgz:37602.got - 2010.06.03 16:44:36.
