data_PCOD9227920
_publ_section_title
;
Structure prediction by ZEFSAII (Michael W. Deem and Ramdas Pophale) SiO2 
 PCOD9227920
Probable space group: P 2/C
;
_chemical_formula_sum "Si O2"
_cell_formula_units_Z 32
_cell_length_a 14.163087
_cell_length_b 9.315266
_cell_length_c 14.939162
_cell_angle_alpha 90.000000
_cell_angle_beta 60.505548
_cell_angle_gamma 90.000000
_cell_volume 1715.536593
_symmetry_space_group_name_H-M "P 2/C"
_symmetry_group_IT_number 13
_symmetry_cell_setting 'monoclinic'
loop_
_space_group_symop_operation_xyz
x,y,z
-x,y,1/2-z
-x,-y,-z
x,-y,1/2+z
loop_
_atom_site_type_symbol
_atom_site_label
_atom_site_fract_x
_atom_site_fract_y
_atom_site_fract_z
Si Si1 0.621256 0.288240 0.688367
Si Si2 0.145864 0.247047 0.484714
Si Si3 0.820435 0.927179 0.067478
Si Si4 0.258599 0.612340 0.191404
Si Si5 0.888931 0.660532 0.698847
Si Si6 0.062712 0.168158 0.808481
Si Si7 0.698610 0.492353 0.014660
Si Si8 0.117891 0.279406 0.110099
O O1 0.500000 0.229869 0.750000
O O2 0.708741 0.163504 0.624528
O O3 0.664392 0.344248 0.763436
O O4 0.619965 0.424840 0.620136
O O5 0.123947 0.274192 0.391247
O O6 0.232065 0.366547 0.472375
O O7 0.034552 0.252057 0.593890
O O8 0.192297 0.086039 0.464781
O O9 0.881630 0.921631 0.135503
O O10 0.890118 0.842757 0.960025
O O11 0.191852 0.470429 0.249827
O O12 0.162595 0.731980 0.226520
O O13 0.327366 0.575873 0.070150
O O14 0.875036 0.767554 0.789855
O O15 0.014508 0.617241 0.647689
O O16 0.000000 0.105432 0.750000
O O17 0.779789 0.622787 0.955829
#
# Coordination Sequence:
#
# PCOD9227920 Si02
#       8
#     4   4   4   4   4   4   4   4
#     4  10  22  42  64  79 105 149 193 245 296 333
#     4  12  21  34  54  84 120 153 184 229 270 337
#     4  10  23  38  52  81 117 153 194 226 278 337
#     4  10  20  35  56  90 114 145 185 234 282 338
#     4  10  19  30  54  81 117 148 186 222 275 330
#     4  11  21  32  53  85 123 162 186 209 271 341
#     4  10  20  36  59  85 111 143 186 238 281 332
#     4   9  19  34  50  80 117 155 180 219 272 342
#
# _framework density 18.653055999999999
#
# number of rings (size 3 to 8) (size 9 to 14) (size 15 to 20)
#    0.000    1.750    3.750    1.125    1.750    2.500 
#    0.000    0.625    0.000    0.750    0.000    0.000 
#    0.000    0.000    0.000    0.000    0.000    0.000 
#
# Total GULP energy -178155.548899 kJ/mol
# GULP energy per Si atom -5567.360903 kJ/mol
# Density = 1.861060 g / cm^3
# Si number density = 18.653056 Si / 1000 Ang^3
#
#
#
# Elastic Constant Matrix: (Units=GPa)
#
#
# Indices 1 2 3 4 5 6 
#
# 1 141.7076 173.7879 63.3550 0.0000 -0.1978 0.0000
# 2 173.7879 404.1893 70.2839 0.0000 7.3481 0.0000
# 3 63.3550 70.2839 83.4856 0.0000 22.1252 0.0000
# 4 0.0000 0.0000 0.0000 7.4702 0.0000 -4.0289
# 5 -0.1978 7.3481 22.1252 0.0000 26.3416 0.0000
# 6 0.0000 0.0000 0.0000 -4.0289 0.0000 8.0563
#
#
#
# Elastic Compliance Matrix: (Units=1/GPa)
#
#
# Indices 1 2 3 4 5 6 
#
# 1 0.023197 -0.007606 -0.015190 0.000000 0.015055 0.000000
# 2 -0.007606 0.005446 0.002065 0.000000 -0.003311 0.000000
# 3 -0.015190 0.002065 0.028235 0.000000 -0.024405 0.000000
# 4 0.000000 0.000000 0.000000 0.183306 0.000000 0.091670
# 5 0.015055 -0.003311 -0.024405 0.000000 0.059498 0.000000
# 6 0.000000 0.000000 0.000000 0.091670 0.000000 0.169970
#
#
# Mechanical properties :
#
#
# Convention : Reuss Voigt Hill
#
# Bulk Modulus (GPa) = 64.87085 138.24846 101.55966
# Shear Modulus (GPa) = 9.68517 29.83732 19.76125
#
# Velocity S-wave (km/s) = 2.28113 4.00383 3.25839
# Velocity P-wave (km/s) = 6.46461 9.78012 8.28981
#
# Compressibility (1/GPa) = 0.01541524
#
# Stress axis : x y z
#
# Youngs Moduli (GPa) = 43.10836 183.63220 35.41748
#
# Poissons Ratio (x) = 1.39678 0.53799
# Poissons Ratio (y) = 0.32790 -0.07314
# Poissons Ratio (z) = 0.65482 -0.37924
#
# Static dielectric constant tensor:
#      x y z
#    x 1.635550 0.000000 0.032200 
#    y 0.000000 1.646380 0.000000 
#    z 0.032200 0.000000 1.719800 
# 
# From -- ./inp_files/53045.got.cif
#   From: 2010.05.17/outbox.cif.g08.bks.cpg/sg13_27_cif.got.tgz:53045.got - 2010.06.03 16:44:36.
