data_PCOD9227662
_publ_section_title
;
Structure prediction by ZEFSAII (Michael W. Deem and Ramdas Pophale) SiO2 
 PCOD9227662
Probable space group: P 2/C
;
_chemical_formula_sum "Si O2"
_cell_formula_units_Z 26
_cell_length_a 8.959796
_cell_length_b 15.871504
_cell_length_c 18.634120
_cell_angle_alpha 90.000000
_cell_angle_beta 32.183286
_cell_angle_gamma 90.000000
_cell_volume 1411.400389
_symmetry_space_group_name_H-M "P 2/C"
_symmetry_group_IT_number 13
_symmetry_cell_setting 'monoclinic'
loop_
_space_group_symop_operation_xyz
x,y,z
-x,y,1/2-z
-x,-y,-z
x,-y,1/2+z
loop_
_atom_site_type_symbol
_atom_site_label
_atom_site_fract_x
_atom_site_fract_y
_atom_site_fract_z
Si Si1 0.329445 0.075477 0.604598
Si Si2 0.360872 0.350497 0.383455
Si Si3 0.275244 0.359486 0.904040
Si Si4 0.204515 0.237038 0.564476
Si Si5 0.000000 0.622716 0.250000
Si Si6 0.477034 0.513264 0.094970
Si Si7 0.440462 0.182430 0.694633
O O1 0.326655 0.155923 0.553152
O O2 0.457815 0.111820 0.626450
O O3 0.000000 0.053417 0.750000
O O4 0.500000 0.000000 0.500000
O O5 0.500000 0.342024 0.250000
O O6 0.371247 0.266900 0.427438
O O7 0.495457 0.426808 0.373364
O O8 0.031064 0.365749 0.504802
O O9 0.500000 0.381681 0.750000
O O10 0.301231 0.422893 0.959978
O O11 0.359844 0.264627 0.894281
O O12 0.192290 0.315278 0.624926
O O13 0.878773 0.217236 0.679522
O O14 0.184500 0.562647 0.224651
O O15 0.500000 0.500000 0.000000
O O16 0.500000 0.148629 0.750000
#
# Coordination Sequence:
#
# PCOD9227662 Si02
#       7
#     4   4   4   4   2   4   4
#     4  10  22  42  68  99 129 157 205 261 321 385
#     4  12  26  40  54  92 138 166 204 278 337 358
#     4  11  21  42  64  84 117 173 228 259 305 377
#     4  11  19  42  67  87 121 175 216 253 304 399
#     4  12  20  40  64  90 114 172 240 254 296 380
#     4  12  25  34  59  89 124 166 223 273 315 359
#     4  10  18  37  72  93 110 159 231 248 292 381
#
# _framework density 18.421420999999999
#
# number of rings (size 3 to 8) (size 9 to 14) (size 15 to 20)
#    0.000    0.923    8.462    0.923    2.154    0.000 
#    2.769    3.846    0.000    0.000    0.000    0.000 
#    0.000    0.000    0.000    0.000    0.000    0.000 
#
# Total GULP energy -145193.475721 kJ/mol
# GULP energy per Si atom -5584.364451 kJ/mol
# Density = 1.837949 g / cm^3
# Si number density = 18.421421 Si / 1000 Ang^3
#
#
#
# Elastic Constant Matrix: (Units=GPa)
#
#
# Indices 1 2 3 4 5 6 
#
# 1 121.9567 67.2244 41.5604 0.0000 19.8453 0.0000
# 2 67.2244 126.3253 60.7681 0.0000 14.1001 0.0000
# 3 41.5604 60.7681 92.5199 0.0000 27.3331 0.0000
# 4 0.0000 0.0000 0.0000 27.4744 0.0000 -0.4724
# 5 19.8453 14.1001 27.3331 0.0000 35.7167 0.0000
# 6 0.0000 0.0000 0.0000 -0.4724 0.0000 21.3157
#
#
#
# Elastic Compliance Matrix: (Units=1/GPa)
#
#
# Indices 1 2 3 4 5 6 
#
# 1 0.012246 -0.005844 -0.000431 0.000000 -0.004167 0.000000
# 2 -0.005844 0.014434 -0.007922 0.000000 0.003612 0.000000
# 3 -0.000431 -0.007922 0.019654 0.000000 -0.011674 0.000000
# 4 0.000000 0.000000 0.000000 0.036411 0.000000 0.000807
# 5 -0.004167 0.003612 -0.011674 0.000000 0.037821 0.000000
# 6 0.000000 0.000000 0.000000 0.000807 0.000000 0.046932
#
#
# Mechanical properties :
#
#
# Convention : Reuss Voigt Hill
#
# Bulk Modulus (GPa) = 55.74443 75.54530 65.64487
# Shear Modulus (GPa) = 24.76797 28.31795 26.54296
#
# Velocity S-wave (km/s) = 3.67075 3.92501 3.80000
# Velocity P-wave (km/s) = 6.94926 7.85108 7.41389
#
# Compressibility (1/GPa) = 0.01793901
#
# Stress axis : x y z
#
# Youngs Moduli (GPa) = 81.65859 69.28199 50.87927
#
# Poissons Ratio (x) = 0.40489 0.02195
# Poissons Ratio (y) = 0.47722 0.40307
# Poissons Ratio (z) = 0.03523 0.54885
#
# Static dielectric constant tensor:
#      x y z
#    x 1.681340 0.000000 0.006940 
#    y 0.000000 1.620830 0.000000 
#    z 0.006940 0.000000 1.656430 
# 
# From -- ./inp_files/64752.got.cif
#   From: 2010.05.17/outbox.cif.g08.bks.cpg/sg13_33_cif.got.tgz:64752.got - 2010.06.03 16:44:36.
