data_PCOD9227995
_publ_section_title
;
Structure prediction by ZEFSAII (Michael W. Deem and Ramdas Pophale) SiO2 
 PCOD9227995
Probable space group: P 2/C
;
_chemical_formula_sum "Si O2"
_cell_formula_units_Z 16
_cell_length_a 11.441062
_cell_length_b 8.091321
_cell_length_c 15.549440
_cell_angle_alpha 90.000000
_cell_angle_beta 152.307188
_cell_angle_gamma 90.000000
_cell_volume 668.963056
_symmetry_space_group_name_H-M "P 2/C"
_symmetry_group_IT_number 13
_symmetry_cell_setting 'monoclinic'
loop_
_space_group_symop_operation_xyz
x,y,z
-x,y,1/2-z
-x,-y,-z
x,-y,1/2+z
loop_
_atom_site_type_symbol
_atom_site_label
_atom_site_fract_x
_atom_site_fract_y
_atom_site_fract_z
Si Si1 0.254711 0.622390 0.324728
Si Si2 0.245806 0.875797 0.155954
Si Si3 0.001707 0.299016 0.350522
Si Si4 0.499506 0.875764 0.579689
O O1 0.500000 0.500000 0.500000
O O2 0.257219 0.738973 0.241139
O O3 0.024350 0.496281 0.167677
O O4 0.275103 0.749717 0.417566
O O5 0.469722 0.006200 0.319908
O O6 0.220477 0.770542 0.052428
O O7 0.000000 0.000000 0.000000
O O8 0.751500 0.230728 0.232709
O O9 0.000000 0.242469 0.250000
O O10 0.500000 0.000000 0.500000
#
# Coordination Sequence:
#
# PCOD9227995 Si02
#       4
#     4   4   4   4
#     4   9  17  32  53  73  98 133 167 198 247 312
#     4   9  17  32  55  74  96 135 173 201 244 307
#     4  10  19  31  52  80 104 128 168 220 255 286
#     4   8  16  33  53  71  97 138 171 197 244 311
#
# _framework density 23.917612999999999
#
# number of rings (size 3 to 8) (size 9 to 14) (size 15 to 20)
#    0.000    3.000    0.000    0.750    0.000    0.000 
#    0.000   22.500    0.000   15.000    0.000    0.000 
#    0.000    0.000    0.000    0.000    0.000    0.000 
#
# Total GULP energy -89123.785528 kJ/mol
# GULP energy per Si atom -5570.236596 kJ/mol
# Density = 2.386318 g / cm^3
# Si number density = 23.917613 Si / 1000 Ang^3
#
#
#
# Elastic Constant Matrix: (Units=GPa)
#
#
# Indices 1 2 3 4 5 6 
#
# 1 56.2805 42.9303 48.6672 0.0000 -11.5492 0.0000
# 2 42.9303 192.9480 112.3777 0.0000 -13.2216 0.0000
# 3 48.6672 112.3777 191.2517 0.0000 -37.6895 0.0000
# 4 0.0000 0.0000 0.0000 82.6560 0.0000 3.5017
# 5 -11.5492 -13.2216 -37.6895 0.0000 42.2992 0.0000
# 6 0.0000 0.0000 0.0000 3.5017 0.0000 34.5924
#
#
#
# Elastic Compliance Matrix: (Units=1/GPa)
#
#
# Indices 1 2 3 4 5 6 
#
# 1 0.023798 -0.002833 -0.003985 0.000000 0.002061 0.000000
# 2 -0.002833 0.008361 -0.004645 0.000000 -0.002299 0.000000
# 3 -0.003985 -0.004645 0.010276 0.000000 0.006616 0.000000
# 4 0.000000 0.000000 0.000000 0.012150 0.000000 -0.001230
# 5 0.002061 -0.002299 0.006616 0.000000 0.029381 0.000000
# 6 0.000000 0.000000 0.000000 -0.001230 0.000000 0.029033
#
#
# Mechanical properties :
#
#
# Convention : Reuss Voigt Hill
#
# Bulk Modulus (GPa) = 51.25768 94.27006 72.76387
# Shear Modulus (GPa) = 35.10580 47.67654 41.39117
#
# Velocity S-wave (km/s) = 3.83532 4.46956 4.16453
# Velocity P-wave (km/s) = 6.41018 8.13240 7.32210
#
# Compressibility (1/GPa) = 0.01950927
#
# Stress axis : x y z
#
# Youngs Moduli (GPa) = 42.02050 119.60577 97.31503
#
# Poissons Ratio (x) = 0.33881 0.38781
# Poissons Ratio (y) = 0.11903 0.45202
# Poissons Ratio (z) = 0.16745 0.55556
#
# Static dielectric constant tensor:
#      x y z
#    x 1.881470 0.000000 -0.008230 
#    y 0.000000 1.896160 0.000000 
#    z -0.008230 0.000000 1.941720 
# 
# From -- ./inp_files/27636.got.cif
#   From: 2010.05.17/outbox.cif.g08.bks.cpg/sg13_14_cif.got.tgz:27636.got - 2010.06.03 16:44:36.
