data_PCOD9227692
_publ_section_title
;
Structure prediction by ZEFSAII (Michael W. Deem and Ramdas Pophale) SiO2 
 PCOD9227692
Probable space group: P 2/C
;
_chemical_formula_sum "Si O2"
_cell_formula_units_Z 30
_cell_length_a 14.285784
_cell_length_b 16.381095
_cell_length_c 11.510821
_cell_angle_alpha 90.000000
_cell_angle_beta 30.906266
_cell_angle_gamma 90.000000
_cell_volume 1383.591845
_symmetry_space_group_name_H-M "P 2/C"
_symmetry_group_IT_number 13
_symmetry_cell_setting 'monoclinic'
loop_
_space_group_symop_operation_xyz
x,y,z
-x,y,1/2-z
-x,-y,-z
x,-y,1/2+z
loop_
_atom_site_type_symbol
_atom_site_label
_atom_site_fract_x
_atom_site_fract_y
_atom_site_fract_z
Si Si1 0.477668 0.588277 0.468177
Si Si2 0.339402 0.814747 0.347589
Si Si3 0.651915 0.901174 0.666742
Si Si4 0.455693 0.252714 0.481377
Si Si5 0.908531 0.804434 0.238491
Si Si6 0.216379 0.361665 0.043902
Si Si7 0.000000 0.103339 0.250000
Si Si8 0.865928 0.075317 0.152586
O O1 0.500000 0.500000 0.500000
O O2 0.472275 0.656545 0.575479
O O3 0.302945 0.599553 0.568722
O O4 0.656102 0.606390 0.197671
O O5 0.500000 0.854748 0.250000
O O6 0.440668 0.783930 0.125581
O O7 0.261433 0.735373 0.499485
O O8 0.156452 0.858936 0.502179
O O9 0.500000 0.943164 0.750000
O O10 0.816272 0.882512 0.403009
O O11 0.704763 0.942497 0.731706
O O12 0.576791 0.811128 0.781388
O O13 0.251642 0.247519 0.647703
O O14 0.000000 0.758944 0.250000
O O15 0.049741 0.842175 0.995946
O O16 0.000000 0.373066 0.250000
O O17 0.145691 0.079663 0.196262
O O18 0.000000 0.000000 0.000000
#
# Coordination Sequence:
#
# PCOD9227692 Si02
#       8
#     4   4   4   4   4   4   2   4
#     4  10  22  40  60  88 129 164 201 260 315 376
#     4  11  19  35  62  95 122 151 205 264 307 373
#     4   9  20  39  64  83 115 169 205 251 304 367
#     4  10  18  38  61  88 114 158 214 247 301 365
#     4   9  19  38  60  85 120 158 204 251 299 367
#     4  10  20  37  62  87 122 166 196 255 331 364
#     4  12  24  36  66  98 122 158 212 266 314 376
#     4  11  24  39  62  91 126 161 201 258 325 375
#
# _framework density 21.682694999999999
#
# number of rings (size 3 to 8) (size 9 to 14) (size 15 to 20)
#    0.000    1.867    4.667    0.800    2.800    0.533 
#    9.600    4.000    0.000    0.000    0.000    0.000 
#    0.000    0.000    0.000    0.000    0.000    0.000 
#
# Total GULP energy -167013.845856 kJ/mol
# GULP energy per Si atom -5567.128195 kJ/mol
# Density = 2.163334 g / cm^3
# Si number density = 21.682695 Si / 1000 Ang^3
#
#
#
# Elastic Constant Matrix: (Units=GPa)
#
#
# Indices 1 2 3 4 5 6 
#
# 1 208.6815 31.3886 25.9623 0.0000 -22.6847 0.0000
# 2 31.3886 62.1079 11.0186 0.0000 -10.8026 0.0000
# 3 25.9623 11.0186 64.6373 0.0000 -25.4132 0.0000
# 4 0.0000 0.0000 0.0000 18.3629 0.0000 14.4852
# 5 -22.6847 -10.8026 -25.4132 0.0000 43.2002 0.0000
# 6 0.0000 0.0000 0.0000 14.4852 0.0000 45.9657
#
#
#
# Elastic Compliance Matrix: (Units=1/GPa)
#
#
# Indices 1 2 3 4 5 6 
#
# 1 0.005454 -0.002269 -0.001172 0.000000 0.001607 0.000000
# 2 -0.002269 0.017902 -0.001104 0.000000 0.002636 0.000000
# 3 -0.001172 -0.001104 0.020527 0.000000 0.011184 0.000000
# 4 0.000000 0.000000 0.000000 0.072474 0.000000 -0.022839
# 5 0.001607 0.002636 0.011184 0.000000 0.031230 0.000000
# 6 0.000000 0.000000 0.000000 -0.022839 0.000000 0.028953
#
#
# Mechanical properties :
#
#
# Convention : Reuss Voigt Hill
#
# Bulk Modulus (GPa) = 28.74157 52.46285 40.60221
# Shear Modulus (GPa) = 25.35158 39.30957 32.33058
#
# Velocity S-wave (km/s) = 3.42308 4.26249 3.86564
# Velocity P-wave (km/s) = 5.37658 6.96228 6.22017
#
# Compressibility (1/GPa) = 0.03479280
#
# Stress axis : x y z
#
# Youngs Moduli (GPa) = 183.36004 55.85981 48.71628
#
# Poissons Ratio (x) = 0.12674 0.05709
# Poissons Ratio (y) = 0.41601 0.05379
# Poissons Ratio (z) = 0.21489 0.06168
#
# Static dielectric constant tensor:
#      x y z
#    x 1.329010 0.000000 -0.624410 
#    y 0.000000 1.892890 0.000000 
#    z -0.624410 0.000000 1.269160 
# 
# From -- ./inp_files/37656.got.cif
#   From: 2010.05.17/outbox.cif.g08.bks.cpg/sg13_19_cif.got.tgz:37656.got - 2010.06.03 16:44:36.
