data_PCOD9227489
_publ_section_title
;
Structure prediction by ZEFSAII (Michael W. Deem and Ramdas Pophale) SiO2 
 PCOD9227489
Probable space group: P 2/C
;
_chemical_formula_sum "Si O2"
_cell_formula_units_Z 22
_cell_length_a 9.174020
_cell_length_b 15.156485
_cell_length_c 9.194337
_cell_angle_alpha 90.000000
_cell_angle_beta 87.523621
_cell_angle_gamma 90.000000
_cell_volume 1277.240926
_symmetry_space_group_name_H-M "P 2/C"
_symmetry_group_IT_number 13
_symmetry_cell_setting 'monoclinic'
loop_
_space_group_symop_operation_xyz
x,y,z
-x,y,1/2-z
-x,-y,-z
x,-y,1/2+z
loop_
_atom_site_type_symbol
_atom_site_label
_atom_site_fract_x
_atom_site_fract_y
_atom_site_fract_z
Si Si1 0.847458 0.047746 0.468142
Si Si2 0.906220 0.236951 0.397873
Si Si3 0.000000 0.486406 0.750000
Si Si4 0.335546 0.937327 0.811356
Si Si5 0.124993 0.383013 0.487066
Si Si6 0.338997 0.270949 0.308146
O O1 0.870191 0.151729 0.494417
O O2 0.788040 0.046944 0.305989
O O3 0.717174 0.000947 0.559758
O O4 0.000000 0.000000 0.500000
O O5 0.763957 0.278087 0.329653
O O6 0.000000 0.209354 0.250000
O O7 0.999688 0.308662 0.478129
O O8 0.107223 0.428775 0.643613
O O9 0.088079 0.546963 0.860693
O O10 0.500000 0.955787 0.750000
O O11 0.332876 0.833077 0.851483
O O12 0.272646 0.332720 0.435938
O O13 0.500000 0.293099 0.250000
#
# Coordination Sequence:
#
# PCOD9227489 Si02
#       6
#     4   4   2   4   4   4
#     4  11  19  32  52  78 103 138 180 227 251 298
#     4   9  17  33  53  73 105 136 172 211 258 311
#     4  10  20  32  62  74 104 128 172 212 270 312
#     4  10  21  35  52  74 108 148 179 210 264 315
#     4  10  18  36  54  80 100 134 169 213 262 317
#     4   9  17  33  56  76 103 143 175 205 257 320
#
# _framework density 17.224629
#
# number of rings (size 3 to 8) (size 9 to 14) (size 15 to 20)
#    0.000    2.182    2.727    4.364    0.000    0.000 
#    6.545    0.909    0.000    0.000    0.000    0.000 
#    0.000    0.000    0.000    0.000    0.000    0.000 
#
# Total GULP energy -122553.298369 kJ/mol
# GULP energy per Si atom -5570.604471 kJ/mol
# Density = 1.718542 g / cm^3
# Si number density = 17.224629 Si / 1000 Ang^3
#
#
#
# Elastic Constant Matrix: (Units=GPa)
#
#
# Indices 1 2 3 4 5 6 
#
# 1 96.3897 18.2469 19.8610 0.0000 -19.4416 0.0000
# 2 18.2469 79.5467 49.5219 0.0000 -21.7755 0.0000
# 3 19.8610 49.5219 74.2807 0.0000 -17.1720 0.0000
# 4 0.0000 0.0000 0.0000 32.2166 0.0000 -13.1179
# 5 -19.4416 -21.7755 -17.1720 0.0000 24.1224 0.0000
# 6 0.0000 0.0000 0.0000 -13.1179 0.0000 22.6625
#
#
#
# Elastic Compliance Matrix: (Units=1/GPa)
#
#
# Indices 1 2 3 4 5 6 
#
# 1 0.012504 0.000790 -0.001646 0.000000 0.009619 0.000000
# 2 0.000790 0.024299 -0.013398 0.000000 0.013034 0.000000
# 3 -0.001646 -0.013398 0.023619 0.000000 0.003393 0.000000
# 4 0.000000 0.000000 0.000000 0.040612 0.000000 0.023507
# 5 0.009619 0.013034 0.003393 0.000000 0.063389 0.000000
# 6 0.000000 0.000000 0.000000 0.023507 0.000000 0.057733
#
#
# Mechanical properties :
#
#
# Convention : Reuss Voigt Hill
#
# Bulk Modulus (GPa) = 31.33449 47.27520 39.30485
# Shear Modulus (GPa) = 19.13502 26.63946 22.88724
#
# Velocity S-wave (km/s) = 3.33665 3.93694 3.64916
# Velocity P-wave (km/s) = 5.75113 6.94059 6.37367
#
# Compressibility (1/GPa) = 0.03191371
#
# Stress axis : x y z
#
# Youngs Moduli (GPa) = 79.97195 41.15440 42.33892
#
# Poissons Ratio (x) = -0.03250 0.06969
# Poissons Ratio (y) = -0.06315 0.56724
# Poissons Ratio (z) = 0.13164 0.55137
#
# Static dielectric constant tensor:
#      x y z
#    x 1.602560 0.000000 0.005030 
#    y 0.000000 1.614480 0.000000 
#    z 0.005030 0.000000 1.604030 
# 
# From -- ./inp_files/12322.got.cif
#   From: 2010.05.17/outbox.cif.g08.bks.cpg/sg13_7_cif.got.tgz:12322.got - 2010.06.03 16:44:36.
