data_PCOD9227004
_publ_section_title
;
Structure prediction by ZEFSAII (Michael W. Deem and Ramdas Pophale) SiO2 
 PCOD9227004
Probable space group: P 2/C
;
_chemical_formula_sum "Si O2"
_cell_formula_units_Z 20
_cell_length_a 8.722226
_cell_length_b 22.983446
_cell_length_c 9.887082
_cell_angle_alpha 90.000000
_cell_angle_beta 149.210518
_cell_angle_gamma 90.000000
_cell_volume 1014.572688
_symmetry_space_group_name_H-M "P 2/C"
_symmetry_group_IT_number 13
_symmetry_cell_setting 'monoclinic'
loop_
_space_group_symop_operation_xyz
x,y,z
-x,y,1/2-z
-x,-y,-z
x,-y,1/2+z
loop_
_atom_site_type_symbol
_atom_site_label
_atom_site_fract_x
_atom_site_fract_y
_atom_site_fract_z
Si Si1 0.320603 0.663325 0.257259
Si Si2 0.843617 0.152545 0.987251
Si Si3 0.190477 0.533959 0.257000
Si Si4 0.310840 0.032027 0.741728
Si Si5 0.826733 0.735175 0.763025
O O1 0.500000 0.658313 0.250000
O O2 0.278398 0.599931 0.286597
O O3 0.500567 0.710471 0.483887
O O4 0.994823 0.688729 0.981567
O O5 0.500000 0.177014 0.750000
O O6 0.776212 0.100545 0.831456
O O7 0.000000 0.132012 0.250000
O O8 0.080702 0.200658 0.115739
O O9 0.500000 0.500000 0.500000
O O10 0.000000 0.532861 0.250000
O O11 0.000000 0.500000 0.000000
O O12 0.500000 0.024095 0.750000
O O13 0.000000 0.000000 0.500000
O O14 0.500000 0.000000 0.000000
O O15 0.000000 0.735362 0.750000
#
# Coordination Sequence:
#
# PCOD9227004 Si02
#       5
#     4   4   4   4   4
#     4  10  19  33  55  84 114 146 188 242 298 352
#     4  10  18  32  54  84 117 153 199 250 299 355
#     4  12  25  42  63  89 124 164 205 249 299 358
#     4  11  22  37  58  86 120 158 202 251 304 363
#     4   9  17  30  53  83 112 143 189 244 292 344
#
# _framework density 19.712733
#
# number of rings (size 3 to 8) (size 9 to 14) (size 15 to 20)
#    0.000    1.600    0.000    9.000    0.000    1.600 
#    0.000    0.000    0.000    4.800    0.000    5.600 
#    0.000    0.000    0.000    0.000    0.000    0.000 
#
# Total GULP energy -111455.312316 kJ/mol
# GULP energy per Si atom -5572.765616 kJ/mol
# Density = 1.966787 g / cm^3
# Si number density = 19.712733 Si / 1000 Ang^3
#
#
#
# Elastic Constant Matrix: (Units=GPa)
#
#
# Indices 1 2 3 4 5 6 
#
# 1 56.8707 41.9452 24.9862 0.0000 4.0984 0.0000
# 2 41.9452 151.7291 55.0688 0.0000 -11.6688 0.0000
# 3 24.9862 55.0688 151.4672 0.0000 4.0806 0.0000
# 4 0.0000 0.0000 0.0000 45.9457 0.0000 -3.2141
# 5 4.0984 -11.6688 4.0806 0.0000 25.2481 0.0000
# 6 0.0000 0.0000 0.0000 -3.2141 0.0000 29.8842
#
#
#
# Elastic Compliance Matrix: (Units=1/GPa)
#
#
# Indices 1 2 3 4 5 6 
#
# 1 0.023440 -0.006507 -0.001323 0.000000 -0.006598 0.000000
# 2 -0.006507 0.009818 -0.002658 0.000000 0.006023 0.000000
# 3 -0.001323 -0.002658 0.007848 0.000000 -0.002282 0.000000
# 4 0.000000 0.000000 0.000000 0.021930 0.000000 0.002359
# 5 -0.006598 0.006023 -0.002282 0.000000 0.043831 0.000000
# 6 0.000000 0.000000 0.000000 0.002359 0.000000 0.033716
#
#
# Mechanical properties :
#
#
# Convention : Reuss Voigt Hill
#
# Bulk Modulus (GPa) = 49.67994 67.11861 58.39928
# Shear Modulus (GPa) = 29.71431 36.08672 32.90052
#
# Velocity S-wave (km/s) = 3.88669 4.28323 4.08977
# Velocity P-wave (km/s) = 6.73784 7.65400 7.21048
#
# Compressibility (1/GPa) = 0.02012885
#
# Stress axis : x y z
#
# Youngs Moduli (GPa) = 42.66214 101.85800 127.41645
#
# Poissons Ratio (x) = 0.66281 0.16859
# Poissons Ratio (y) = 0.27761 0.33870
# Poissons Ratio (z) = 0.05645 0.27076
#
# Static dielectric constant tensor:
#      x y z
#    x 1.664150 0.000000 -0.024790 
#    y 0.000000 1.754920 0.000000 
#    z -0.024790 0.000000 1.699140 
# 
# From -- ./inp_files/13858.got.cif
#   From: 2010.05.17/outbox.cif.g08.bks.cpg/sg13_7_cif.got.tgz:13858.got - 2010.06.03 16:44:36.
