data_PCOD9228505
_publ_section_title
;
Structure prediction by ZEFSAII (Michael W. Deem and Ramdas Pophale) SiO2 
 PCOD9228505
Probable space group: P 2/C
;
_chemical_formula_sum "Si O2"
_cell_formula_units_Z 32
_cell_length_a 9.085686
_cell_length_b 9.117210
_cell_length_c 20.085309
_cell_angle_alpha 90.000000
_cell_angle_beta 99.984859
_cell_angle_gamma 90.000000
_cell_volume 1638.588411
_symmetry_space_group_name_H-M "P 2/C"
_symmetry_group_IT_number 13
_symmetry_cell_setting 'monoclinic'
loop_
_space_group_symop_operation_xyz
x,y,z
-x,y,1/2-z
-x,-y,-z
x,-y,1/2+z
loop_
_atom_site_type_symbol
_atom_site_label
_atom_site_fract_x
_atom_site_fract_y
_atom_site_fract_z
Si Si1 0.933449 0.092288 0.171829
Si Si2 0.059862 0.376468 0.116227
Si Si3 0.125828 0.430581 0.814464
Si Si4 0.871560 0.206549 0.499332
Si Si5 0.570957 0.769059 0.324065
Si Si6 0.274082 0.154053 0.871797
Si Si7 0.339511 0.450251 0.227877
Si Si8 0.145963 0.927084 0.092302
O O1 0.000000 0.118659 0.250000
O O2 0.955458 0.241115 0.132011
O O3 0.773131 0.011868 0.151505
O O4 0.042257 0.977284 0.144695
O O5 0.208601 0.377152 0.174212
O O6 0.954413 0.515167 0.124482
O O7 0.116035 0.349081 0.046029
O O8 0.170124 0.262218 0.820508
O O9 0.268350 0.515428 0.795017
O O10 0.000000 0.455524 0.750000
O O11 0.767122 0.194383 0.555549
O O12 0.039747 0.170551 0.537171
O O13 0.819888 0.073617 0.446936
O O14 0.500000 0.832041 0.250000
O O15 0.439541 0.793681 0.366865
O O16 0.620618 0.603972 0.306913
O O17 0.713750 0.847718 0.365542
O O18 0.500000 0.373219 0.250000
#
# Coordination Sequence:
#
# PCOD9228505 Si02
#       8
#     4   4   4   4   4   4   4   4
#     4  10  19  34  58  88 114 147 200 249 292 351
#     4  10  22  39  59  84 122 163 198 240 301 362
#     4  10  20  35  60  89 112 154 201 249 299 340
#     4   9  21  40  56  83 120 162 203 236 287 364
#     4  11  21  37  60  92 117 150 197 252 304 354
#     4  11  21  35  61  86 116 152 199 248 290 354
#     4  10  20  38  60  86 125 151 192 258 309 357
#     4   9  20  38  60  82 123 158 192 250 297 343
#
# _framework density 19.529002999999999
#
# number of rings (size 3 to 8) (size 9 to 14) (size 15 to 20)
#    0.000    2.000    2.500    3.000    7.000    1.000 
#    0.000    9.375    0.000    0.000    0.000    0.000 
#    0.000    0.000    0.000    0.000    0.000    0.000 
#
# Total GULP energy -178298.224191 kJ/mol
# GULP energy per Si atom -5571.819506 kJ/mol
# Density = 1.948455 g / cm^3
# Si number density = 19.529003 Si / 1000 Ang^3
#
#
#
# Elastic Constant Matrix: (Units=GPa)
#
#
# Indices 1 2 3 4 5 6 
#
# 1 63.0891 18.0900 3.9407 0.0000 -0.2912 0.0000
# 2 18.0900 32.6755 -6.9504 0.0000 13.1545 0.0000
# 3 3.9407 -6.9504 65.1450 0.0000 -7.7836 0.0000
# 4 0.0000 0.0000 0.0000 24.6146 0.0000 7.5994
# 5 -0.2912 13.1545 -7.7836 0.0000 31.2506 0.0000
# 6 0.0000 0.0000 0.0000 7.5994 0.0000 2.0960
#
#
#
# Elastic Compliance Matrix: (Units=1/GPa)
#
#
# Indices 1 2 3 4 5 6 
#
# 1 0.019911 -0.013634 -0.002011 0.000000 0.005424 0.000000
# 2 -0.013634 0.046477 0.003536 0.000000 -0.018810 0.000000
# 3 -0.002011 0.003536 0.016150 0.000000 0.002515 0.000000
# 4 0.000000 0.000000 0.000000 -0.340337 0.000000 1.233939
# 5 0.005424 -0.018810 0.002515 0.000000 0.040594 0.000000
# 6 0.000000 0.000000 0.000000 1.233939 0.000000 -3.996731
#
#
# Mechanical properties :
#
#
# Convention : Reuss Voigt Hill
#
# Bulk Modulus (GPa) = 17.14714 21.23002 19.18858
# Shear Modulus (GPa) = -1.19896 21.31420 10.05762
#
# Velocity S-wave (km/s) = -0.78439 3.30724 2.27184
# Velocity P-wave (km/s) = 2.82472 5.04761 4.09008
#
# Compressibility (1/GPa) = 0.05831878
#
# Stress axis : x y z
#
# Youngs Moduli (GPa) = 50.22416 21.51595 61.92025
#
# Poissons Ratio (x) = 0.29336 0.12452
# Poissons Ratio (y) = 0.68478 -0.21895
# Poissons Ratio (z) = 0.10100 -0.07608
#
# Static dielectric constant tensor:
#      x y z
#    x 1.712080 0.000000 -0.030110 
#    y 0.000000 1.734870 0.000000 
#    z -0.030110 0.000000 1.714070 
# 
# From -- ./inp_files/75725.got.cif
#   From: 2010.05.17/outbox.cif.g08.bks.cpg/sg13_38_cif.got.tgz:75725.got - 2010.06.03 16:44:36.
