data_PCOD9228833
_publ_section_title
;
Structure prediction by ZEFSAII (Michael W. Deem and Ramdas Pophale) SiO2 
 PCOD9228833
Probable space group: P 2/C
;
_chemical_formula_sum "Si O2"
_cell_formula_units_Z 30
_cell_length_a 29.305992
_cell_length_b 8.995351
_cell_length_c 9.849335
_cell_angle_alpha 90.000000
_cell_angle_beta 141.002508
_cell_angle_gamma 90.000000
_cell_volume 1633.916194
_symmetry_space_group_name_H-M "P 2/C"
_symmetry_group_IT_number 13
_symmetry_cell_setting 'monoclinic'
loop_
_space_group_symop_operation_xyz
x,y,z
-x,y,1/2-z
-x,-y,-z
x,-y,1/2+z
loop_
_atom_site_type_symbol
_atom_site_label
_atom_site_fract_x
_atom_site_fract_y
_atom_site_fract_z
Si Si1 0.991725 0.639908 0.075383
Si Si2 0.599471 0.602555 0.303131
Si Si3 0.500000 0.818222 0.250000
Si Si4 0.361339 0.013099 0.845915
Si Si5 0.928204 0.071869 0.766721
Si Si6 0.417217 0.329762 0.041670
Si Si7 0.870919 0.880832 0.846775
Si Si8 0.709964 0.856575 0.580479
O O1 0.000000 0.593092 0.250000
O O2 0.056553 0.753683 0.188694
O O3 0.917599 0.738709 0.902404
O O4 0.000000 0.500000 0.000000
O O5 0.537993 0.710092 0.227353
O O6 0.600989 0.446761 0.383591
O O7 0.672951 0.695263 0.493669
O O8 0.587714 0.588676 0.115485
O O9 0.563349 0.920881 0.462267
O O10 0.335321 0.041903 0.632084
O O11 0.302959 0.927141 0.802208
O O12 0.371347 0.179453 0.928308
O O13 0.914738 0.048243 0.575924
O O14 0.866402 0.998893 0.714674
O O15 0.000000 0.000000 0.000000
O O16 0.500000 0.281695 0.250000
O O17 0.792158 0.845056 0.721905
#
# Coordination Sequence:
#
# PCOD9228833 Si02
#       8
#     4   4   2   4   4   4   4   4
#     4   9  19  34  53  83 111 138 179 219 256 307
#     4  10  23  35  54  76 108 136 185 220 286 321
#     4  10  20  36  56  80 100 140 174 248 276 316
#     4  10  22  35  57  78 108 134 192 224 281 321
#     4   9  18  33  57  84 106 138 179 225 257 310
#     4  11  21  35  54  78 101 136 176 238 275 322
#     4  10  19  36  57  78 115 143 179 218 273 318
#     4  10  22  38  53  80 109 148 174 224 271 344
#
# _framework density 18.360795
#
# number of rings (size 3 to 8) (size 9 to 14) (size 15 to 20)
#    0.000    2.133    1.333    2.400    1.867    4.800 
#    0.000    6.667    0.000    0.000    0.000    0.000 
#    0.000    0.000    0.000    0.000    0.000    0.000 
#
# Total GULP energy -167261.267813 kJ/mol
# GULP energy per Si atom -5575.375594 kJ/mol
# Density = 1.831901 g / cm^3
# Si number density = 18.360795 Si / 1000 Ang^3
#
#
#
# Elastic Constant Matrix: (Units=GPa)
#
#
# Indices 1 2 3 4 5 6 
#
# 1 82.4590 27.4062 7.1757 0.0000 15.2360 0.0000
# 2 27.4062 60.2612 14.2237 0.0000 -14.1473 0.0000
# 3 7.1757 14.2237 43.5191 0.0000 -0.5432 0.0000
# 4 0.0000 0.0000 0.0000 20.1542 0.0000 -12.9238
# 5 15.2360 -14.1473 -0.5432 0.0000 31.1707 0.0000
# 6 0.0000 0.0000 0.0000 -12.9238 0.0000 21.3994
#
#
#
# Elastic Compliance Matrix: (Units=1/GPa)
#
#
# Indices 1 2 3 4 5 6 
#
# 1 0.018840 -0.012190 0.000694 0.000000 -0.014729 0.000000
# 2 -0.012190 0.028151 -0.006958 0.000000 0.018614 0.000000
# 3 0.000694 -0.006958 0.025100 0.000000 -0.003060 0.000000
# 4 0.000000 0.000000 0.000000 0.080978 0.000000 0.048905
# 5 -0.014729 0.018614 -0.003060 0.000000 0.047676 0.000000
# 6 0.000000 0.000000 0.000000 0.048905 0.000000 0.076266
#
#
# Mechanical properties :
#
#
# Convention : Reuss Voigt Hill
#
# Bulk Modulus (GPa) = 28.42397 31.53896 29.98146
# Shear Modulus (GPa) = 15.35410 23.70710 19.53060
#
# Velocity S-wave (km/s) = 2.89493 3.59720 3.26500
# Velocity P-wave (km/s) = 5.16609 5.87092 5.52975
#
# Compressibility (1/GPa) = 0.03518158
#
# Stress axis : x y z
#
# Youngs Moduli (GPa) = 53.07902 35.52333 39.84052
#
# Poissons Ratio (x) = 0.43302 -0.02764
# Poissons Ratio (y) = 0.64703 0.27723
# Poissons Ratio (z) = -0.03683 0.24719
#
# Static dielectric constant tensor:
#      x y z
#    x 1.661050 0.000000 0.011390 
#    y 0.000000 1.610260 0.000000 
#    z 0.011390 0.000000 1.663940 
# 
# From -- ./inp_files/24448.got.cif
#   From: 2010.05.17/outbox.cif.g08.bks.cpg/sg13_13_cif.got.tgz:24448.got - 2010.06.03 16:44:36.
