data_PCOD9228486
_publ_section_title
;
Structure prediction by ZEFSAII (Michael W. Deem and Ramdas Pophale) SiO2 
 PCOD9228486
Probable space group: P 2/C
;
_chemical_formula_sum "Si O2"
_cell_formula_units_Z 20
_cell_length_a 7.141581
_cell_length_b 7.655687
_cell_length_c 16.336544
_cell_angle_alpha 90.000000
_cell_angle_beta 71.668959
_cell_angle_gamma 90.000000
_cell_volume 847.855262
_symmetry_space_group_name_H-M "P 2/C"
_symmetry_group_IT_number 13
_symmetry_cell_setting 'monoclinic'
loop_
_space_group_symop_operation_xyz
x,y,z
-x,y,1/2-z
-x,-y,-z
x,-y,1/2+z
loop_
_atom_site_type_symbol
_atom_site_label
_atom_site_fract_x
_atom_site_fract_y
_atom_site_fract_z
Si Si1 0.696340 0.977920 0.853953
Si Si2 0.155256 0.446218 0.910584
Si Si3 0.435648 0.622001 0.613209
Si Si4 0.687548 0.852945 0.015889
Si Si5 0.717666 0.325882 0.765309
O O1 0.767736 0.130349 0.786025
O O2 0.661531 0.784523 0.823228
O O3 0.803784 0.953628 0.927661
O O4 0.479387 0.035061 0.917016
O O5 0.339712 0.578324 0.896549
O O6 0.133258 0.422469 0.816538
O O7 0.198393 0.246506 0.930467
O O8 0.000000 0.500000 0.000000
O O9 0.409475 0.694843 0.525024
O O10 0.319506 0.446989 0.650973
O O11 0.500000 0.320828 0.750000
#
# Coordination Sequence:
#
# PCOD9228486 Si02
#       5
#     4   4   4   4   4
#     4   9  18  33  65  86 105 145 215 243 268 337
#     4  11  22  37  56  90 127 152 185 244 312 354
#     4   9  19  35  63  82 107 157 204 231 284 346
#     4   9  18  35  62  85 108 155 200 235 280 354
#     4  10  19  34  57  88 114 143 202 248 284 337
#
# _framework density 23.588930999999999
#
# number of rings (size 3 to 8) (size 9 to 14) (size 15 to 20)
#    1.200    1.200    4.000    0.600    0.000    2.400 
#    0.000    2.000    0.000    2.400    5.200    0.000 
#    0.000    0.000    0.000    0.000    0.000    0.000 
#
# Total GULP energy -111346.334682 kJ/mol
# GULP energy per Si atom -5567.316734 kJ/mol
# Density = 2.353524 g / cm^3
# Si number density = 23.588931 Si / 1000 Ang^3
#
#
#
# Elastic Constant Matrix: (Units=GPa)
#
#
# Indices 1 2 3 4 5 6 
#
# 1 28.9160 8.3573 11.1584 0.0000 -11.3077 0.0000
# 2 8.3573 94.7156 18.0998 0.0000 -1.3485 0.0000
# 3 11.1584 18.0998 115.5429 0.0000 -5.8120 0.0000
# 4 0.0000 0.0000 0.0000 45.3469 0.0000 16.7435
# 5 -11.3077 -1.3485 -5.8120 0.0000 21.0885 0.0000
# 6 0.0000 0.0000 0.0000 16.7435 0.0000 10.1539
#
#
#
# Elastic Compliance Matrix: (Units=1/GPa)
#
#
# Indices 1 2 3 4 5 6 
#
# 1 0.045784 -0.003181 -0.002737 0.000000 0.023592 0.000000
# 2 -0.003181 0.011106 -0.001503 0.000000 -0.001410 0.000000
# 3 -0.002737 -0.001503 0.009204 0.000000 0.000973 0.000000
# 4 0.000000 0.000000 0.000000 0.056378 0.000000 -0.092966
# 5 0.023592 -0.001410 0.000973 0.000000 0.060247 0.000000
# 6 0.000000 0.000000 0.000000 -0.092966 0.000000 0.251782
#
#
# Mechanical properties :
#
#
# Convention : Reuss Voigt Hill
#
# Bulk Modulus (GPa) = 19.51165 34.93394 27.22279
# Shear Modulus (GPa) = 10.71980 28.75513 19.73746
#
# Velocity S-wave (km/s) = 2.13408 3.49522 2.89576
# Velocity P-wave (km/s) = 3.78971 5.57946 4.76929
#
# Compressibility (1/GPa) = 0.05125144
#
# Stress axis : x y z
#
# Youngs Moduli (GPa) = 21.84172 90.04276 108.65395
#
# Poissons Ratio (x) = 0.28642 0.29733
# Poissons Ratio (y) = 0.06948 0.16336
# Poissons Ratio (z) = 0.05977 0.13537
#
# Static dielectric constant tensor:
#      x y z
#    x 2.010340 0.000000 -0.004510 
#    y 0.000000 1.957250 0.000000 
#    z -0.004510 0.000000 1.965990 
# 
# From -- ./inp_files/62803.got.cif
#   From: 2010.05.17/outbox.cif.g08.bks.cpg/sg13_32_cif.got.tgz:62803.got - 2010.06.03 16:44:36.
