data_PCOD9228678
_publ_section_title
;
Structure prediction by ZEFSAII (Michael W. Deem and Ramdas Pophale) SiO2 
 PCOD9228678
Probable space group: P 2/C
;
_chemical_formula_sum "Si O2"
_cell_formula_units_Z 24
_cell_length_a 14.882144
_cell_length_b 10.151868
_cell_length_c 19.580514
_cell_angle_alpha 90.000000
_cell_angle_beta 159.549955
_cell_angle_gamma 90.000000
_cell_volume 1033.586310
_symmetry_space_group_name_H-M "P 2/C"
_symmetry_group_IT_number 13
_symmetry_cell_setting 'monoclinic'
loop_
_space_group_symop_operation_xyz
x,y,z
-x,y,1/2-z
-x,-y,-z
x,-y,1/2+z
loop_
_atom_site_type_symbol
_atom_site_label
_atom_site_fract_x
_atom_site_fract_y
_atom_site_fract_z
Si Si1 0.270054 0.754579 0.441788
Si Si2 0.309225 0.393907 0.830166
Si Si3 0.249341 0.098072 0.256913
Si Si4 0.223843 0.779388 0.018935
Si Si5 0.778428 0.517917 0.983489
Si Si6 0.471728 0.849618 0.066762
O O1 0.274577 0.705343 0.367864
O O2 0.539978 0.828917 0.640965
O O3 0.245292 0.627125 0.473363
O O4 0.000000 0.833018 0.250000
O O5 0.441131 0.303276 0.867696
O O6 0.023381 0.443753 0.610515
O O7 0.500000 0.500000 0.000000
O O8 0.335823 0.118118 0.397944
O O9 0.283439 0.946811 0.259905
O O10 0.971302 0.162126 0.064304
O O11 0.500000 0.770347 0.250000
O O12 0.146739 0.631028 0.942075
O O13 0.275526 0.868084 0.989215
O O14 0.500000 0.518015 0.750000
#
# Coordination Sequence:
#
# PCOD9228678 Si02
#       6
#     4   4   4   4   4   4
#     4   9  19  35  57  85 115 148 191 240 292 348
#     4  10  19  35  59  85 112 150 195 241 291 343
#     4  10  22  40  62  86 115 154 196 244 292 347
#     4  11  24  39  57  85 119 155 194 239 296 356
#     4  10  21  36  57  87 120 153 193 243 298 353
#     4  10  22  39  61  85 114 152 199 242 289 350
#
# _framework density 23.220122
#
# number of rings (size 3 to 8) (size 9 to 14) (size 15 to 20)
#    0.000    2.000    0.000    3.500    0.000   10.000 
#    0.000    5.833    0.000    0.000    0.000    0.000 
#    0.000    0.000    0.000    0.000    0.000    0.000 
#
# Total GULP energy -133814.613127 kJ/mol
# GULP energy per Si atom -5575.608880 kJ/mol
# Density = 2.316727 g / cm^3
# Si number density = 23.220122 Si / 1000 Ang^3
#
#
#
# Elastic Constant Matrix: (Units=GPa)
#
#
# Indices 1 2 3 4 5 6 
#
# 1 66.1427 27.6511 20.9200 0.0000 20.9328 0.0000
# 2 27.6511 107.3778 43.0077 0.0000 24.6688 0.0000
# 3 20.9200 43.0077 122.5140 0.0000 37.9290 0.0000
# 4 0.0000 0.0000 0.0000 25.7233 0.0000 6.3783
# 5 20.9328 24.6688 37.9290 0.0000 41.2582 0.0000
# 6 0.0000 0.0000 0.0000 6.3783 0.0000 18.5034
#
#
#
# Elastic Compliance Matrix: (Units=1/GPa)
#
#
# Indices 1 2 3 4 5 6 
#
# 1 0.018862 -0.003164 0.000373 0.000000 -0.008021 0.000000
# 2 -0.003164 0.011906 -0.002701 0.000000 -0.003030 0.000000
# 3 0.000373 -0.002701 0.012029 0.000000 -0.009633 0.000000
# 4 0.000000 0.000000 0.000000 0.042509 0.000000 -0.014653
# 5 -0.008021 -0.003030 -0.009633 0.000000 0.038974 0.000000
# 6 0.000000 0.000000 0.000000 -0.014653 0.000000 0.059095
#
#
# Mechanical properties :
#
#
# Convention : Reuss Voigt Hill
#
# Bulk Modulus (GPa) = 31.43367 53.24358 42.33862
# Shear Modulus (GPa) = 24.39465 30.72734 27.56099
#
# Velocity S-wave (km/s) = 3.24478 3.64167 3.44894
# Velocity P-wave (km/s) = 5.25403 6.37668 5.84238
#
# Compressibility (1/GPa) = 0.03181303
#
# Stress axis : x y z
#
# Youngs Moduli (GPa) = 53.01658 83.99376 83.13261
#
# Poissons Ratio (x) = 0.26575 -0.03102
# Poissons Ratio (y) = 0.16774 0.22454
# Poissons Ratio (z) = -0.01978 0.22687
#
# Static dielectric constant tensor:
#      x y z
#    x 1.910660 0.000000 0.084760 
#    y 0.000000 1.967440 0.000000 
#    z 0.084760 0.000000 1.974470 
# 
# From -- ./inp_files/80208.got.cif
#   From: 2010.05.17/outbox.cif.g08.bks.cpg/sg13_41_cif.got.tgz:80208.got - 2010.06.03 16:44:36.
