data_PCOD9228852
_publ_section_title
;
Structure prediction by ZEFSAII (Michael W. Deem and Ramdas Pophale) SiO2 
 PCOD9228852
Probable space group: P 2/C
;
_chemical_formula_sum "Si O2"
_cell_formula_units_Z 26
_cell_length_a 17.319935
_cell_length_b 8.343582
_cell_length_c 16.478586
_cell_angle_alpha 90.000000
_cell_angle_beta 147.042614
_cell_angle_gamma 90.000000
_cell_volume 1295.477006
_symmetry_space_group_name_H-M "P 2/C"
_symmetry_group_IT_number 13
_symmetry_cell_setting 'monoclinic'
loop_
_space_group_symop_operation_xyz
x,y,z
-x,y,1/2-z
-x,-y,-z
x,-y,1/2+z
loop_
_atom_site_type_symbol
_atom_site_label
_atom_site_fract_x
_atom_site_fract_y
_atom_site_fract_z
Si Si1 0.282584 0.598506 0.237629
Si Si2 0.128152 0.882065 0.015722
Si Si3 0.594208 0.141877 0.546222
Si Si4 0.000000 0.762032 0.750000
Si Si5 0.193285 0.087156 0.213650
Si Si6 0.226843 0.598503 0.832994
Si Si7 0.483402 0.398581 0.139704
O O1 0.202078 0.716458 0.106478
O O2 0.396952 0.709983 0.384397
O O3 0.187256 0.525029 0.225761
O O4 0.370766 0.463208 0.270096
O O5 0.208035 0.027621 0.133090
O O6 0.099748 0.872639 0.895009
O O7 0.971440 0.881363 0.916114
O O8 0.547886 0.220736 0.421781
O O9 0.500000 0.000000 0.500000
O O10 0.750983 0.064131 0.685306
O O11 0.101287 0.653140 0.782449
O O12 0.268542 0.242147 0.318385
O O13 0.354808 0.514399 0.995183
O O14 0.500000 0.403293 0.250000
#
# Coordination Sequence:
#
# PCOD9228852 Si02
#       7
#     4   4   4   2   4   4   4
#     4  10  20  36  60  84 112 153 194 237 291 360
#     4   9  19  35  54  80 111 149 194 236 286 344
#     4  10  19  36  58  81 112 154 196 232 286 354
#     4  10  20  34  56  84 116 150 192 248 298 342
#     4   9  18  34  56  77 108 153 195 228 272 350
#     4  10  20  37  60  85 117 155 195 237 294 356
#     4  11  22  37  59  91 121 144 190 255 305 347
#
# _framework density 20.069828000000001
#
# number of rings (size 3 to 8) (size 9 to 14) (size 15 to 20)
#    0.000    2.154    0.000    4.615    0.000    2.462 
#    0.000   13.846    0.000   44.308    0.000    0.000 
#    0.000    0.000    0.000    0.000    0.000    0.000 
#
# Total GULP energy -144821.161970 kJ/mol
# GULP energy per Si atom -5570.044691 kJ/mol
# Density = 2.002415 g / cm^3
# Si number density = 20.069828 Si / 1000 Ang^3
#
#
#
# Elastic Constant Matrix: (Units=GPa)
#
#
# Indices 1 2 3 4 5 6 
#
# 1 91.7385 40.4879 39.2667 0.0000 -18.1710 0.0000
# 2 40.4879 91.4001 37.5985 0.0000 -19.1014 0.0000
# 3 39.2667 37.5985 102.3615 0.0000 -26.7112 0.0000
# 4 0.0000 0.0000 0.0000 6.9040 0.0000 1.7090
# 5 -18.1710 -19.1014 -26.7112 0.0000 40.2056 0.0000
# 6 0.0000 0.0000 0.0000 1.7090 0.0000 24.2232
#
#
#
# Elastic Compliance Matrix: (Units=1/GPa)
#
#
# Indices 1 2 3 4 5 6 
#
# 1 0.014881 -0.004732 -0.003389 0.000000 0.002225 0.000000
# 2 -0.004732 0.014840 -0.002847 0.000000 0.003020 0.000000
# 3 -0.003389 -0.002847 0.013746 0.000000 0.006248 0.000000
# 4 0.000000 0.000000 0.000000 0.147417 0.000000 -0.010400
# 5 0.002225 0.003020 0.006248 0.000000 0.031463 0.000000
# 6 0.000000 0.000000 0.000000 -0.010400 0.000000 0.042016
#
#
# Mechanical properties :
#
#
# Convention : Reuss Voigt Hill
#
# Bulk Modulus (GPa) = 46.45217 57.80071 52.12644
# Shear Modulus (GPa) = 17.03710 25.47637 21.25674
#
# Velocity S-wave (km/s) = 2.91673 3.56671 3.25797
# Velocity P-wave (km/s) = 5.87696 6.76936 6.33888
#
# Compressibility (1/GPa) = 0.02152752
#
# Stress axis : x y z
#
# Youngs Moduli (GPa) = 67.20122 67.38708 72.75018
#
# Poissons Ratio (x) = 0.31891 0.24658
# Poissons Ratio (y) = 0.31803 0.20715
# Poissons Ratio (z) = 0.22777 0.19188
#
# Static dielectric constant tensor:
#      x y z
#    x 1.725860 0.000000 0.014220 
#    y 0.000000 1.746270 0.000000 
#    z 0.014220 0.000000 1.790630 
# 
# From -- ./inp_files/53392.got.cif
#   From: 2010.05.17/outbox.cif.g08.bks.cpg/sg13_27_cif.got.tgz:53392.got - 2010.06.03 16:44:36.
