data_PCOD9228998
_publ_section_title
;
Structure prediction by ZEFSAII (Michael W. Deem and Ramdas Pophale) SiO2 
 PCOD9228998
Probable space group: P 2/C
;
_chemical_formula_sum "Si O2"
_cell_formula_units_Z 20
_cell_length_a 19.603789
_cell_length_b 8.516762
_cell_length_c 13.716752
_cell_angle_alpha 90.000000
_cell_angle_beta 24.610972
_cell_angle_gamma 90.000000
_cell_volume 953.748339
_symmetry_space_group_name_H-M "P 2/C"
_symmetry_group_IT_number 13
_symmetry_cell_setting 'monoclinic'
loop_
_space_group_symop_operation_xyz
x,y,z
-x,y,1/2-z
-x,-y,-z
x,-y,1/2+z
loop_
_atom_site_type_symbol
_atom_site_label
_atom_site_fract_x
_atom_site_fract_y
_atom_site_fract_z
Si Si1 0.755004 0.844413 0.797582
Si Si2 0.353816 0.815231 0.010824
Si Si3 0.937881 0.139146 0.733812
Si Si4 0.838211 0.214249 0.400388
Si Si5 0.542523 0.322625 0.918496
O O1 0.824097 0.753588 0.802784
O O2 0.906855 0.901629 0.534797
O O3 0.659670 0.997076 0.959812
O O4 0.627247 0.751684 0.897849
O O5 0.187454 0.768722 0.171665
O O6 0.385850 0.751471 0.075944
O O7 0.500000 0.770470 0.750000
O O8 0.000000 0.224956 0.750000
O O9 0.851112 0.978129 0.884635
O O10 0.679236 0.285295 0.659149
O O11 0.000000 0.266631 0.250000
O O12 0.500000 0.500000 0.000000
#
# Coordination Sequence:
#
# PCOD9228998 Si02
#       5
#     4   4   4   4   4
#     4  11  21  39  67  97 123 160 212 269 320 374
#     4  11  21  37  62  91 121 160 212 269 316 369
#     4  10  19  36  65  99 123 151 204 270 323 370
#     4  10  20  40  66  92 124 164 208 263 322 376
#     4  12  26  42  60  91 134 179 213 253 316 391
#
# _framework density 20.969892999999999
#
# number of rings (size 3 to 8) (size 9 to 14) (size 15 to 20)
#    0.000    1.200    0.000   10.800    0.000    1.600 
#    0.000    7.000    0.000    0.000    0.000    0.000 
#    0.000    0.000    0.000    0.000    0.000    0.000 
#
# Total GULP energy -111666.452404 kJ/mol
# GULP energy per Si atom -5583.322620 kJ/mol
# Density = 2.092216 g / cm^3
# Si number density = 20.969893 Si / 1000 Ang^3
#
#
#
# Elastic Constant Matrix: (Units=GPa)
#
#
# Indices 1 2 3 4 5 6 
#
# 1 197.7666 36.2231 32.3262 0.0000 -22.1419 0.0000
# 2 36.2231 45.3820 26.2686 0.0000 -9.3606 0.0000
# 3 32.3262 26.2686 103.7510 0.0000 5.0896 0.0000
# 4 0.0000 0.0000 0.0000 7.9163 0.0000 10.9874
# 5 -22.1419 -9.3606 5.0896 0.0000 50.3879 0.0000
# 6 0.0000 0.0000 0.0000 10.9874 0.0000 -14.6948
#
#
#
# Elastic Compliance Matrix: (Units=1/GPa)
#
#
# Indices 1 2 3 4 5 6 
#
# 1 0.006174 -0.003894 -0.001041 0.000000 0.002095 0.000000
# 2 -0.003894 0.029876 -0.006572 0.000000 0.004503 0.000000
# 3 -0.001041 -0.006572 0.011767 0.000000 -0.002867 0.000000
# 4 0.000000 0.000000 0.000000 0.061990 0.000000 0.046350
# 5 0.002095 0.004503 -0.002867 0.000000 0.021893 0.000000
# 6 0.000000 0.000000 0.000000 0.046350 0.000000 -0.033395
#
#
# Mechanical properties :
#
#
# Convention : Reuss Voigt Hill
#
# Bulk Modulus (GPa) = 40.31478 59.61505 49.96491
# Shear Modulus (GPa) = 38.58425 25.52731 32.05578
#
# Velocity S-wave (km/s) = 4.29416 3.49281 3.91405
# Velocity P-wave (km/s) = 6.62217 6.69006 6.65620
#
# Compressibility (1/GPa) = 0.02480480
#
# Stress axis : x y z
#
# Youngs Moduli (GPa) = 161.96163 33.47173 84.98139
#
# Poissons Ratio (x) = 0.13033 0.08844
# Poissons Ratio (y) = 0.63064 0.55849
# Poissons Ratio (z) = 0.16855 0.21997
#
# Static dielectric constant tensor:
#      x y z
#    x 1.846330 0.000000 -0.006450 
#    y 0.000000 1.743960 0.000000 
#    z -0.006450 0.000000 1.752950 
# 
# From -- ./inp_files/38836.got.cif
#   From: 2010.05.17/outbox.cif.g08.bks.cpg/sg13_20_cif.got.tgz:38836.got - 2010.06.03 16:44:36.
