data_PCOD9228325
_publ_section_title
;
Structure prediction by ZEFSAII (Michael W. Deem and Ramdas Pophale) SiO2 
 PCOD9228325
Probable space group: P 2/C
;
_chemical_formula_sum "Si O2"
_cell_formula_units_Z 28
_cell_length_a 23.450504
_cell_length_b 8.613089
_cell_length_c 21.479764
_cell_angle_alpha 90.000000
_cell_angle_beta 17.563516
_cell_angle_gamma 90.000000
_cell_volume 1309.201286
_symmetry_space_group_name_H-M "P 2/C"
_symmetry_group_IT_number 13
_symmetry_cell_setting 'monoclinic'
loop_
_space_group_symop_operation_xyz
x,y,z
-x,y,1/2-z
-x,-y,-z
x,-y,1/2+z
loop_
_atom_site_type_symbol
_atom_site_label
_atom_site_fract_x
_atom_site_fract_y
_atom_site_fract_z
Si Si1 0.392917 0.266935 0.920500
Si Si2 0.284766 0.082856 0.149951
Si Si3 0.965916 0.426357 0.636032
Si Si4 0.443139 0.759329 0.034072
Si Si5 0.618682 0.451337 0.242874
Si Si6 0.033027 0.277647 0.992424
Si Si7 0.793247 0.433776 0.936805
O O1 0.500000 0.197136 0.750000
O O2 0.521243 0.385480 0.827817
O O3 0.327728 0.137149 0.035590
O O4 0.244954 0.385057 0.041166
O O5 0.062030 0.117722 0.388990
O O6 0.363775 0.913890 0.083034
O O7 0.393256 0.192026 0.087963
O O8 0.165033 0.462060 0.460631
O O9 0.921616 0.587310 0.646020
O O10 0.995260 0.303795 0.551270
O O11 0.814183 0.368892 0.844749
O O12 0.258446 0.702670 0.264625
O O13 0.513327 0.640301 0.907982
O O14 0.647224 0.381742 0.142538
O O15 0.000000 0.412298 0.750000
#
# Coordination Sequence:
#
# PCOD9228325 Si02
#       7
#     4   4   4   4   4   4   4
#     4  10  20  37  60  85 113 152 199 248 299 352
#     4  11  23  41  58  84 127 159 202 245 292 365
#     4  10  19  33  57  91 114 148 196 253 302 350
#     4  11  24  38  59  89 120 164 198 244 301 355
#     4  10  20  35  58  87 118 150 198 250 299 356
#     4  11  21  35  60  84 119 153 199 244 298 354
#     4   9  18  33  55  84 116 145 188 250 305 351
#
# _framework density 21.387084999999999
#
# number of rings (size 3 to 8) (size 9 to 14) (size 15 to 20)
#    0.000    1.714    2.857    2.143    2.000    1.143 
#    0.000    3.571    0.000    0.000    0.000    1.000 
#    0.000    0.000    0.000    0.000    0.000    0.000 
#
# Total GULP energy -156028.485164 kJ/mol
# GULP energy per Si atom -5572.445899 kJ/mol
# Density = 2.133841 g / cm^3
# Si number density = 21.387085 Si / 1000 Ang^3
#
#
#
# Elastic Constant Matrix: (Units=GPa)
#
#
# Indices 1 2 3 4 5 6 
#
# 1 77.0587 13.8114 24.5309 0.0000 34.7955 0.0000
# 2 13.8114 39.4607 17.1169 0.0000 23.4706 0.0000
# 3 24.5309 17.1169 98.5117 0.0000 35.9985 0.0000
# 4 0.0000 0.0000 0.0000 23.6226 0.0000 0.4794
# 5 34.7955 23.4706 35.9985 0.0000 42.7007 0.0000
# 6 0.0000 0.0000 0.0000 0.4794 0.0000 22.8864
#
#
#
# Elastic Compliance Matrix: (Units=1/GPa)
#
#
# Indices 1 2 3 4 5 6 
#
# 1 0.021177 0.004404 0.001665 0.000000 -0.021080 0.000000
# 2 0.004404 0.038715 0.001827 0.000000 -0.026409 0.000000
# 3 0.001665 0.001827 0.014859 0.000000 -0.014888 0.000000
# 4 0.000000 0.000000 0.000000 0.042350 0.000000 -0.000887
# 5 -0.021080 -0.026409 -0.014888 0.000000 0.067663 0.000000
# 6 0.000000 0.000000 0.000000 -0.000887 0.000000 0.043713
#
#
# Mechanical properties :
#
#
# Convention : Reuss Voigt Hill
#
# Bulk Modulus (GPa) = 11.04448 36.21661 23.63055
# Shear Modulus (GPa) = 20.58738 28.48007 24.53372
#
# Velocity S-wave (km/s) = 3.10596 3.65313 3.39060
# Velocity P-wave (km/s) = 4.24711 5.89614 5.13821
#
# Compressibility (1/GPa) = 0.09054298
#
# Stress axis : x y z
#
# Youngs Moduli (GPa) = 47.22211 25.82946 67.29717
#
# Poissons Ratio (x) = -0.11376 -0.11203
# Poissons Ratio (y) = -0.20798 -0.12293
# Poissons Ratio (z) = -0.07861 -0.04718
#
# Static dielectric constant tensor:
#      x y z
#    x 1.811210 0.000000 -0.010420 
#    y 0.000000 1.748720 0.000000 
#    z -0.010420 0.000000 1.897700 
# 
# From -- ./inp_files/82118.got.cif
#   From: 2010.05.17/outbox.cif.g08.bks.cpg/sg13_42_cif.got.tgz:82118.got - 2010.06.03 16:44:36.
