data_PCOD9228765
_publ_section_title
;
Structure prediction by ZEFSAII (Michael W. Deem and Ramdas Pophale) SiO2 
 PCOD9228765
Probable space group: P 2/C
;
_chemical_formula_sum "Si O2"
_cell_formula_units_Z 30
_cell_length_a 18.085916
_cell_length_b 8.916611
_cell_length_c 22.157951
_cell_angle_alpha 90.000000
_cell_angle_beta 25.849672
_cell_angle_gamma 90.000000
_cell_volume 1558.001350
_symmetry_space_group_name_H-M "P 2/C"
_symmetry_group_IT_number 13
_symmetry_cell_setting 'monoclinic'
loop_
_space_group_symop_operation_xyz
x,y,z
-x,y,1/2-z
-x,-y,-z
x,-y,1/2+z
loop_
_atom_site_type_symbol
_atom_site_label
_atom_site_fract_x
_atom_site_fract_y
_atom_site_fract_z
Si Si1 0.977896 0.967200 0.639857
Si Si2 0.705030 0.770080 0.772800
Si Si3 0.073006 0.688583 0.632277
Si Si4 0.105145 0.724066 0.993428
Si Si5 0.000000 0.127912 0.750000
Si Si6 0.348953 0.717807 0.017005
Si Si7 0.809756 0.473187 0.760211
Si Si8 0.351399 0.464488 0.402177
O O1 0.812633 0.894181 0.730633
O O2 0.090719 0.820996 0.570812
O O3 0.058001 0.104840 0.545039
O O4 0.956426 0.036021 0.722149
O O5 0.805547 0.736666 0.636902
O O6 0.705659 0.606515 0.805000
O O7 0.509991 0.823568 0.910965
O O8 0.246073 0.600003 0.507649
O O9 0.000000 0.740466 0.750000
O O10 0.938898 0.566583 0.707254
O O11 0.232691 0.644129 0.947690
O O12 0.930593 0.626404 0.127394
O O13 0.172178 0.223468 0.618272
O O14 0.295892 0.633390 0.117428
O O15 0.421988 0.618793 0.908786
O O16 0.500000 0.518136 0.250000
#
# Coordination Sequence:
#
# PCOD9228765 Si02
#       8
#     4   4   4   4   2   4   4   4
#     4  11  23  40  64  92 127 169 214 252 317 377
#     4  11  25  39  62  95 131 163 206 268 319 373
#     4  10  19  35  63  88 120 159 204 261 307 359
#     4  11  21  41  65  88 128 174 210 252 314 385
#     4  12  22  40  68  92 120 172 218 260 302 384
#     4  12  21  40  67  94 122 164 218 264 315 371
#     4  10  21  38  63  92 121 159 213 256 313 370
#     4  11  21  37  63  94 121 161 217 265 308 367
#
# _framework density 19.255438999999999
#
# number of rings (size 3 to 8) (size 9 to 14) (size 15 to 20)
#    0.000    1.067    6.000    2.000    0.000    0.533 
#    0.000    2.000    0.000    0.000    0.000    0.000 
#    0.000    0.000    0.000    0.000    0.000    0.000 
#
# Total GULP energy -167100.900685 kJ/mol
# GULP energy per Si atom -5570.030023 kJ/mol
# Density = 1.921161 g / cm^3
# Si number density = 19.255439 Si / 1000 Ang^3
#
#
#
# Elastic Constant Matrix: (Units=GPa)
#
#
# Indices 1 2 3 4 5 6 
#
# 1 64.1796 12.1916 35.5835 0.0000 -0.4403 0.0000
# 2 12.1916 64.0404 23.8716 0.0000 -5.1741 0.0000
# 3 35.5835 23.8716 96.5176 0.0000 8.4140 0.0000
# 4 0.0000 0.0000 0.0000 7.3136 0.0000 14.0234
# 5 -0.4403 -5.1741 8.4140 0.0000 27.1220 0.0000
# 6 0.0000 0.0000 0.0000 14.0234 0.0000 18.5710
#
#
#
# Elastic Compliance Matrix: (Units=1/GPa)
#
#
# Indices 1 2 3 4 5 6 
#
# 1 0.019809 -0.000853 -0.007304 0.000000 0.002425 0.000000
# 2 -0.000853 0.017849 -0.004518 0.000000 0.004793 0.000000
# 3 -0.007304 -0.004518 0.014653 0.000000 -0.005526 0.000000
# 4 0.000000 0.000000 0.000000 -0.305262 0.000000 0.230511
# 5 0.002425 0.004793 -0.005526 0.000000 0.039538 0.000000
# 6 0.000000 0.000000 0.000000 0.230511 0.000000 -0.120218
#
#
# Mechanical properties :
#
#
# Convention : Reuss Voigt Hill
#
# Bulk Modulus (GPa) = 37.08920 40.89234 38.99077
# Shear Modulus (GPa) = -16.70598 20.80737 2.05069
#
# Velocity S-wave (km/s) = -2.94870 3.29081 1.03311
# Velocity P-wave (km/s) = 2.77676 5.97680 4.66007
#
# Compressibility (1/GPa) = 0.02696203
#
# Stress axis : x y z
#
# Youngs Moduli (GPa) = 50.48130 56.02612 68.24714
#
# Poissons Ratio (x) = 0.04778 0.49845
# Poissons Ratio (y) = 0.04305 0.30834
# Poissons Ratio (z) = 0.36870 0.25312
#
# Static dielectric constant tensor:
#      x y z
#    x 1.694370 0.000000 -0.005880 
#    y 0.000000 1.709120 0.000000 
#    z -0.005880 0.000000 1.739460 
# 
# From -- ./inp_files/80925.got.cif
#   From: 2010.05.17/outbox.cif.g08.bks.cpg/sg13_41_cif.got.tgz:80925.got - 2010.06.03 16:44:36.
