data_PCOD9228599
_publ_section_title
;
Structure prediction by ZEFSAII (Michael W. Deem and Ramdas Pophale) SiO2 
 PCOD9228599
Probable space group: P 2/C
;
_chemical_formula_sum "Si O2"
_cell_formula_units_Z 16
_cell_length_a 7.584034
_cell_length_b 15.409050
_cell_length_c 8.295652
_cell_angle_alpha 90.000000
_cell_angle_beta 53.826090
_cell_angle_gamma 90.000000
_cell_volume 782.570559
_symmetry_space_group_name_H-M "P 2/C"
_symmetry_group_IT_number 13
_symmetry_cell_setting 'monoclinic'
loop_
_space_group_symop_operation_xyz
x,y,z
-x,y,1/2-z
-x,-y,-z
x,-y,1/2+z
loop_
_atom_site_type_symbol
_atom_site_label
_atom_site_fract_x
_atom_site_fract_y
_atom_site_fract_z
Si Si1 0.000000 0.451515 0.250000
Si Si2 0.684689 0.695056 0.526141
Si Si3 0.500000 0.036160 0.750000
Si Si4 0.844667 0.387541 0.642234
Si Si5 0.255544 0.106906 0.577593
O O1 0.138873 0.516385 0.288489
O O2 0.840021 0.398160 0.452940
O O3 0.500000 0.664369 0.750000
O O4 0.673230 0.663377 0.345865
O O5 0.691100 0.798963 0.522172
O O6 0.919464 0.658313 0.456332
O O7 0.391198 0.092009 0.668222
O O8 0.676866 0.971296 0.576219
O O9 0.000000 0.103869 0.750000
#
# Coordination Sequence:
#
# PCOD9228599 Si02
#       5
#     2   4   2   4   4
#     4   8  16  36  58  80 110 144 196 240 284 356
#     4  10  19  35  55  79 116 153 187 240 293 340
#     4  10  24  36  62  88 114 152 202 246 290 354
#     4   9  18  36  57  79 112 152 188 241 296 341
#     4  11  20  41  59  84 119 154 196 248 294 349
#
# _framework density 20.445440000000001
#
# number of rings (size 3 to 8) (size 9 to 14) (size 15 to 20)
#    0.000    2.500    3.750    0.750    0.000    0.000 
#    4.500   20.000    0.000    0.000    0.000    0.000 
#    0.000    0.000    0.000    0.000    0.000    0.000 
#
# Total GULP energy -89234.582025 kJ/mol
# GULP energy per Si atom -5577.161377 kJ/mol
# Density = 2.039891 g / cm^3
# Si number density = 20.445440 Si / 1000 Ang^3
#
#
#
# Elastic Constant Matrix: (Units=GPa)
#
#
# Indices 1 2 3 4 5 6 
#
# 1 28.0226 29.5863 34.8731 0.0000 -3.5726 0.0000
# 2 29.5863 76.6389 36.1331 0.0000 -1.8183 0.0000
# 3 34.8731 36.1331 184.5453 0.0000 -11.1082 0.0000
# 4 0.0000 0.0000 0.0000 31.2629 0.0000 11.7179
# 5 -3.5726 -1.8183 -11.1082 0.0000 30.3495 0.0000
# 6 0.0000 0.0000 0.0000 11.7179 0.0000 -3.8103
#
#
#
# Elastic Compliance Matrix: (Units=1/GPa)
#
#
# Indices 1 2 3 4 5 6 
#
# 1 0.071932 -0.023553 -0.008749 0.000000 0.003854 0.000000
# 2 -0.023553 0.022088 0.000040 0.000000 -0.001435 0.000000
# 3 -0.008749 0.000040 0.007160 0.000000 0.001593 0.000000
# 4 0.000000 0.000000 0.000000 0.014859 0.000000 0.045696
# 5 0.003854 -0.001435 0.001593 0.000000 0.033900 0.000000
# 6 0.000000 0.000000 0.000000 0.045696 0.000000 -0.121916
#
#
# Mechanical properties :
#
#
# Convention : Reuss Voigt Hill
#
# Bulk Modulus (GPa) = 27.28115 54.48798 40.88457
# Shear Modulus (GPa) = 47.72484 24.13471 35.92978
#
# Velocity S-wave (km/s) = 4.83665 3.43949 4.19662
# Velocity P-wave (km/s) = 6.67558 6.51780 6.59716
#
# Compressibility (1/GPa) = 0.03665535
#
# Stress axis : x y z
#
# Youngs Moduli (GPa) = 13.90200 45.27347 139.66074
#
# Poissons Ratio (x) = 1.06631 1.22194
# Poissons Ratio (y) = 0.32743 -0.00553
# Poissons Ratio (z) = 0.12163 -0.00179
#
# Static dielectric constant tensor:
#      x y z
#    x 1.760930 0.000000 0.039890 
#    y 0.000000 1.704480 0.000000 
#    z 0.039890 0.000000 1.782830 
# 
# From -- ./inp_files/12114.got.cif
#   From: 2010.05.17/outbox.cif.g08.bks.cpg/sg13_7_cif.got.tgz:12114.got - 2010.06.03 16:44:36.
