data_PCOD9228126
_publ_section_title
;
Structure prediction by ZEFSAII (Michael W. Deem and Ramdas Pophale) SiO2 
 PCOD9228126
Probable space group: P 2/C
;
_chemical_formula_sum "Si O2"
_cell_formula_units_Z 32
_cell_length_a 18.812471
_cell_length_b 13.679384
_cell_length_c 21.533869
_cell_angle_alpha 90.000000
_cell_angle_beta 160.698111
_cell_angle_gamma 90.000000
_cell_volume 1831.747941
_symmetry_space_group_name_H-M "P 2/C"
_symmetry_group_IT_number 13
_symmetry_cell_setting 'monoclinic'
loop_
_space_group_symop_operation_xyz
x,y,z
-x,y,1/2-z
-x,-y,-z
x,-y,1/2+z
loop_
_atom_site_type_symbol
_atom_site_label
_atom_site_fract_x
_atom_site_fract_y
_atom_site_fract_z
Si Si1 0.169265 0.377297 0.507103
Si Si2 0.617213 0.135834 0.110616
Si Si3 0.147525 0.494524 0.682149
Si Si4 0.515663 0.356253 0.001660
Si Si5 0.400117 0.965358 0.319091
Si Si6 0.747146 0.123918 0.024866
Si Si7 0.897834 0.150134 0.017320
Si Si8 0.614007 0.343289 0.938618
O O1 0.101261 0.268712 0.475307
O O2 0.395980 0.387488 0.729932
O O3 0.207066 0.375128 0.464210
O O4 0.005900 0.461600 0.391256
O O5 0.554141 0.249007 0.060144
O O6 0.852255 0.124119 0.273730
O O7 0.632611 0.077508 0.187946
O O8 0.449596 0.087496 0.925098
O O9 0.348193 0.569143 0.844207
O O10 0.000000 0.500000 0.500000
O O11 0.268151 0.391913 0.793134
O O12 0.611415 0.361910 0.009967
O O13 0.610422 0.955332 0.448996
O O14 0.209321 0.904323 0.129343
O O15 0.000000 0.131240 0.250000
O O16 0.757597 0.113509 0.959750
O O17 0.627465 0.225644 0.942835
#
# Coordination Sequence:
#
# PCOD9228126 Si02
#       8
#     4   4   4   4   4   4   4   4
#     4  10  19  33  56  83 117 140 181 235 289 345
#     4  11  22  36  54  83 118 151 189 232 274 342
#     4  11  23  36  54  83 111 149 187 231 285 345
#     4  11  21  37  57  81 114 151 187 228 286 340
#     4  11  22  34  52  85 117 153 190 225 279 344
#     4  11  19  32  54  84 118 145 183 233 284 342
#     4  11  19  35  56  81 117 153 181 235 295 337
#     4  10  19  32  54  87 112 144 174 228 297 342
#
# _framework density 17.469653000000001
#
# number of rings (size 3 to 8) (size 9 to 14) (size 15 to 20)
#    0.000    1.250    6.250    0.750    1.750    0.000 
#    0.000    0.000    0.000    0.000    6.500    0.000 
#    0.000    0.000    0.000    0.000    0.000    0.000 
#
# Total GULP energy -178320.281305 kJ/mol
# GULP energy per Si atom -5572.508791 kJ/mol
# Density = 1.742989 g / cm^3
# Si number density = 17.469653 Si / 1000 Ang^3
#
#
#
# Elastic Constant Matrix: (Units=GPa)
#
#
# Indices 1 2 3 4 5 6 
#
# 1 80.2190 40.8271 19.1787 0.0000 4.7792 0.0000
# 2 40.8271 75.9563 30.7130 0.0000 6.6560 0.0000
# 3 19.1787 30.7130 91.2708 0.0000 -7.8440 0.0000
# 4 0.0000 0.0000 0.0000 19.1619 0.0000 0.7533
# 5 4.7792 6.6560 -7.8440 0.0000 23.9643 0.0000
# 6 0.0000 0.0000 0.0000 0.7533 0.0000 27.7873
#
#
#
# Elastic Compliance Matrix: (Units=1/GPa)
#
#
# Indices 1 2 3 4 5 6 
#
# 1 0.017220 -0.008847 -0.000746 0.000000 -0.001221 0.000000
# 2 -0.008847 0.020697 -0.005606 0.000000 -0.005819 0.000000
# 3 -0.000746 -0.005606 0.013527 0.000000 0.006133 0.000000
# 4 0.000000 0.000000 0.000000 0.052242 0.000000 -0.001416
# 5 -0.001221 -0.005819 0.006133 0.000000 0.045596 0.000000
# 6 0.000000 0.000000 0.000000 -0.001416 0.000000 0.036026
#
#
# Mechanical properties :
#
#
# Convention : Reuss Voigt Hill
#
# Bulk Modulus (GPa) = 47.51580 47.65377 47.58478
# Shear Modulus (GPa) = 22.44951 24.63118 23.54035
#
# Velocity S-wave (km/s) = 3.58866 3.75899 3.67481
# Velocity P-wave (km/s) = 6.66554 6.79539 6.73078
#
# Compressibility (1/GPa) = 0.02104563
#
# Stress axis : x y z
#
# Youngs Moduli (GPa) = 58.07322 48.31516 73.92757
#
# Poissons Ratio (x) = 0.42744 0.05517
# Poissons Ratio (y) = 0.51377 0.41443
# Poissons Ratio (z) = 0.04334 0.27085
#
# Static dielectric constant tensor:
#      x y z
#    x 1.638050 0.000000 -0.014950 
#    y 0.000000 1.613480 0.000000 
#    z -0.014950 0.000000 1.653110 
# 
# From -- ./inp_files/81147.got.cif
#   From: 2010.05.17/outbox.cif.g08.bks.cpg/sg13_41_cif.got.tgz:81147.got - 2010.06.03 16:44:36.
