data_PCOD9228241
_publ_section_title
;
Structure prediction by ZEFSAII (Michael W. Deem and Ramdas Pophale) SiO2 
 PCOD9228241
Probable space group: P 2/C
;
_chemical_formula_sum "Si O2"
_cell_formula_units_Z 28
_cell_length_a 9.326881
_cell_length_b 11.753654
_cell_length_c 14.692630
_cell_angle_alpha 90.000000
_cell_angle_beta 65.115889
_cell_angle_gamma 90.000000
_cell_volume 1461.144359
_symmetry_space_group_name_H-M "P 2/C"
_symmetry_group_IT_number 13
_symmetry_cell_setting 'monoclinic'
loop_
_space_group_symop_operation_xyz
x,y,z
-x,y,1/2-z
-x,-y,-z
x,-y,1/2+z
loop_
_atom_site_type_symbol
_atom_site_label
_atom_site_fract_x
_atom_site_fract_y
_atom_site_fract_z
Si Si1 0.812834 0.218329 0.269774
Si Si2 0.357158 0.423137 0.504680
Si Si3 0.328600 0.577849 0.345553
Si Si4 0.616039 0.827992 0.133142
Si Si5 0.329750 0.066632 0.347105
Si Si6 0.178484 0.519185 0.719183
Si Si7 0.497926 0.826894 0.534673
O O1 0.779596 0.150837 0.183576
O O2 0.758471 0.352074 0.279458
O O3 0.680431 0.169158 0.375612
O O4 0.000000 0.207802 0.250000
O O5 0.500000 0.500000 0.500000
O O6 0.306666 0.476818 0.422915
O O7 0.234943 0.448793 0.616817
O O8 0.426352 0.298348 0.481002
O O9 0.500000 0.567184 0.250000
O O10 0.313304 0.701280 0.396547
O O11 0.207015 0.559609 0.297691
O O12 0.500000 0.815495 0.250000
O O13 0.725574 0.935489 0.129108
O O14 0.520526 0.856617 0.066602
O O15 0.500000 0.065788 0.250000
O O16 0.379907 0.104824 0.434790
O O17 0.000000 0.543885 0.750000
#
# Coordination Sequence:
#
# PCOD9228241 Si02
#       7
#     4   4   4   4   4   4   4
#     4  10  20  37  57  81 111 142 179 229 278 325
#     4  12  19  34  58  87 106 140 188 217 268 334
#     4  11  19  33  57  80 111 148 183 226 270 321
#     4  10  19  33  54  82 109 142 186 230 267 314
#     4   9  20  35  56  83 106 140 188 227 271 320
#     4  11  23  37  54  83 116 144 176 225 279 325
#     4  11  19  35  59  82 110 143 182 230 269 323
#
# _framework density 19.163063999999999
#
# number of rings (size 3 to 8) (size 9 to 14) (size 15 to 20)
#    0.000    1.429    4.286    2.143    0.000    1.714 
#    0.000    2.857    0.000    0.000    0.000    0.000 
#    0.000    0.000    0.000    0.000    0.000    0.000 
#
# Total GULP energy -155869.333652 kJ/mol
# GULP energy per Si atom -5566.761916 kJ/mol
# Density = 1.911945 g / cm^3
# Si number density = 19.163064 Si / 1000 Ang^3
#
#
#
# Elastic Constant Matrix: (Units=GPa)
#
#
# Indices 1 2 3 4 5 6 
#
# 1 61.1914 26.6311 27.6151 0.0000 17.7378 0.0000
# 2 26.6311 104.9989 18.5751 0.0000 13.2622 0.0000
# 3 27.6151 18.5751 92.3092 0.0000 32.8145 0.0000
# 4 0.0000 0.0000 0.0000 283.2692 0.0000 0.9878
# 5 17.7378 13.2622 32.8145 0.0000 25.2147 0.0000
# 6 0.0000 0.0000 0.0000 0.9878 0.0000 17.1586
#
#
#
# Elastic Compliance Matrix: (Units=1/GPa)
#
#
# Indices 1 2 3 4 5 6 
#
# 1 0.022081 -0.003872 -0.001914 0.000000 -0.011006 0.000000
# 2 -0.003872 0.010884 0.000065 0.000000 -0.003086 0.000000
# 3 -0.001914 0.000065 0.020333 0.000000 -0.025149 0.000000
# 4 0.000000 0.000000 0.000000 0.003531 0.000000 -0.000203
# 5 -0.011006 -0.003086 -0.025149 0.000000 0.081753 0.000000
# 6 0.000000 0.000000 0.000000 -0.000203 0.000000 0.058292
#
#
# Mechanical properties :
#
#
# Convention : Reuss Voigt Hill
#
# Bulk Modulus (GPa) = 23.89134 44.90470 34.39802
# Shear Modulus (GPa) = 22.49532 77.50703 50.00117
#
# Velocity S-wave (km/s) = 3.42992 6.36662 5.11362
# Velocity P-wave (km/s) = 5.30851 8.80505 7.27012
#
# Compressibility (1/GPa) = 0.04185617
#
# Stress axis : x y z
#
# Youngs Moduli (GPa) = 45.28685 91.87660 49.18184
#
# Poissons Ratio (x) = 0.35573 0.09415
# Poissons Ratio (y) = 0.17534 -0.00320
# Poissons Ratio (z) = 0.08669 -0.00597
#
# Static dielectric constant tensor:
#      x y z
#    x 1.635010 0.000000 -0.006220 
#    y 0.000000 2.561340 0.000000 
#    z -0.006220 0.000000 1.603920 
# 
# From -- ./inp_files/46875.got.cif
#   From: 2010.05.17/outbox.cif.g08.bks.cpg/sg13_24_cif.got.tgz:46875.got - 2010.06.03 16:44:36.
