data_PCOD9228291
_publ_section_title
;
Structure prediction by ZEFSAII (Michael W. Deem and Ramdas Pophale) SiO2 
 PCOD9228291
Probable space group: P 2/C
;
_chemical_formula_sum "Si O2"
_cell_formula_units_Z 32
_cell_length_a 10.244822
_cell_length_b 9.978332
_cell_length_c 27.027914
_cell_angle_alpha 90.000000
_cell_angle_beta 29.491970
_cell_angle_gamma 90.000000
_cell_volume 1360.210492
_symmetry_space_group_name_H-M "P 2/C"
_symmetry_group_IT_number 13
_symmetry_cell_setting 'monoclinic'
loop_
_space_group_symop_operation_xyz
x,y,z
-x,y,1/2-z
-x,-y,-z
x,-y,1/2+z
loop_
_atom_site_type_symbol
_atom_site_label
_atom_site_fract_x
_atom_site_fract_y
_atom_site_fract_z
Si Si1 0.976397 0.802951 0.980320
Si Si2 0.293058 0.148453 0.130172
Si Si3 0.510782 0.314215 0.305917
Si Si4 0.367361 0.380081 0.512516
Si Si5 0.721930 0.471303 0.545499
Si Si6 0.268516 0.295305 0.647228
Si Si7 0.040678 0.883911 0.846440
Si Si8 0.550285 0.054140 0.844781
O O1 0.285176 0.798367 0.893200
O O2 0.980201 0.860422 0.923392
O O3 0.913221 0.642981 0.003391
O O4 0.725785 0.883968 0.084958
O O5 0.408225 0.296815 0.089815
O O6 0.000000 0.140186 0.250000
O O7 0.227826 0.102189 0.095958
O O8 0.479904 0.059269 0.102805
O O9 0.500000 0.335176 0.250000
O O10 0.434156 0.444799 0.361939
O O11 0.798088 0.251889 0.222149
O O12 0.500000 0.500000 0.500000
O O13 0.172010 0.433253 0.533921
O O14 0.260859 0.281951 0.590544
O O15 0.514620 0.381367 0.583783
O O16 0.295669 0.165522 0.672832
O O17 0.000000 0.369377 0.750000
O O18 0.248811 0.999877 0.763403
#
# Coordination Sequence:
#
# PCOD9228291 Si02
#       8
#     4   4   4   4   4   4   4   4
#     4  10  22  39  59  83 118 156 201 255 295 350
#     4  10  19  33  56  82 111 147 191 238 293 363
#     4  10  22  39  61  86 114 157 209 254 302 361
#     4  10  21  34  53  86 120 151 188 234 301 372
#     4  10  20  37  60  86 117 156 199 244 305 364
#     4  10  21  34  52  85 124 154 186 241 303 362
#     4  10  20  36  58  83 113 155 197 242 301 357
#     4  10  21  36  57  84 116 156 198 241 299 364
#
# _framework density 23.525770000000001
#
# number of rings (size 3 to 8) (size 9 to 14) (size 15 to 20)
#    0.000    2.000    0.000    5.250    0.000    9.500 
#    0.000    0.000    0.000   10.500    0.000    0.000 
#    0.000    0.000    0.000    0.000    0.000    0.000 
#
# Total GULP energy -178501.113989 kJ/mol
# GULP energy per Si atom -5578.159812 kJ/mol
# Density = 2.347222 g / cm^3
# Si number density = 23.525770 Si / 1000 Ang^3
#
#
#
# Elastic Constant Matrix: (Units=GPa)
#
#
# Indices 1 2 3 4 5 6 
#
# 1 56.0433 5.4468 2.4601 0.0000 4.3236 0.0000
# 2 5.4468 78.6878 22.4832 0.0000 11.3410 0.0000
# 3 2.4601 22.4832 59.2406 0.0000 4.8168 0.0000
# 4 0.0000 0.0000 0.0000 37.0097 0.0000 10.0876
# 5 4.3236 11.3410 4.8168 0.0000 33.7501 0.0000
# 6 0.0000 0.0000 0.0000 10.0876 0.0000 -5.4737
#
#
#
# Elastic Compliance Matrix: (Units=1/GPa)
#
#
# Indices 1 2 3 4 5 6 
#
# 1 0.018094 -0.000895 -0.000250 0.000000 -0.001981 0.000000
# 2 -0.000895 0.014872 -0.005271 0.000000 -0.004130 0.000000
# 3 -0.000250 -0.005271 0.018965 0.000000 -0.000903 0.000000
# 4 0.000000 0.000000 0.000000 0.017986 0.000000 0.033146
# 5 -0.001981 -0.004130 -0.000903 0.000000 0.031400 0.000000
# 6 0.000000 0.000000 0.000000 0.033146 0.000000 -0.121607
#
#
# Mechanical properties :
#
#
# Convention : Reuss Voigt Hill
#
# Bulk Modulus (GPa) = 25.57759 28.30575 26.94167
# Shear Modulus (GPa) = 896.73428 23.96267 460.34847
#
# Velocity S-wave (km/s) = 19.54478 3.19497 14.00368
# Velocity P-wave (km/s) = 22.80849 5.06639 16.52113
#
# Compressibility (1/GPa) = 0.03909672
#
# Stress axis : x y z
#
# Youngs Moduli (GPa) = 55.26624 67.24114 52.72949
#
# Poissons Ratio (x) = 0.06020 0.01321
# Poissons Ratio (y) = 0.04948 0.27795
# Poissons Ratio (z) = 0.01384 0.35444
#
# Static dielectric constant tensor:
#      x y z
#    x 2.032960 0.000000 0.046570 
#    y 0.000000 1.991710 0.000000 
#    z 0.046570 0.000000 1.894100 
# 
# From -- ./inp_files/96674.got.cif
#   From: 2010.05.17/outbox.cif.g08.bks.cpg/sg13_49_cif.got.tgz:96674.got - 2010.06.03 16:44:36.
