data_PCOD9228640
_publ_section_title
;
Structure prediction by ZEFSAII (Michael W. Deem and Ramdas Pophale) SiO2 
 PCOD9228640
Probable space group: P 2/C
;
_chemical_formula_sum "Si O2"
_cell_formula_units_Z 24
_cell_length_a 9.435330
_cell_length_b 13.468852
_cell_length_c 22.759645
_cell_angle_alpha 90.000000
_cell_angle_beta 152.797206
_cell_angle_gamma 90.000000
_cell_volume 1322.219678
_symmetry_space_group_name_H-M "P 2/C"
_symmetry_group_IT_number 13
_symmetry_cell_setting 'monoclinic'
loop_
_space_group_symop_operation_xyz
x,y,z
-x,y,1/2-z
-x,-y,-z
x,-y,1/2+z
loop_
_atom_site_type_symbol
_atom_site_label
_atom_site_fract_x
_atom_site_fract_y
_atom_site_fract_z
Si Si1 0.904613 0.579705 0.282033
Si Si2 0.287783 0.534786 0.533353
Si Si3 0.917255 0.857959 0.519376
Si Si4 0.831035 0.357177 0.399316
Si Si5 0.866652 0.932974 0.372263
Si Si6 0.197802 0.194120 0.762248
O O1 0.630658 0.498369 0.179725
O O2 0.783964 0.690671 0.251052
O O3 0.000000 0.583789 0.250000
O O4 0.192436 0.557670 0.431272
O O5 0.190574 0.627266 0.538419
O O6 0.077677 0.439286 0.470708
O O7 0.995627 0.887452 0.480511
O O8 0.551642 0.844170 0.397393
O O9 0.074058 0.751760 0.586570
O O10 0.036218 0.952724 0.599108
O O11 0.500000 0.382618 0.250000
O O12 0.500000 0.929626 0.250000
O O13 0.945673 0.869528 0.343974
O O14 0.000000 0.186642 0.750000
#
# Coordination Sequence:
#
# PCOD9228640 Si02
#       6
#     4   4   4   4   4   4
#     4  11  22  39  59  82 118 157 195 236 287 349
#     4  11  22  37  56  86 112 152 194 235 291 338
#     4  10  19  35  58  79 111 146 188 235 291 340
#     4  11  21  34  57  83 114 143 187 247 284 341
#     4   9  19  35  56  83 107 145 186 236 289 344
#     4  10  21  36  56  82 112 149 190 236 288 347
#
# _framework density 18.151295999999999
#
# number of rings (size 3 to 8) (size 9 to 14) (size 15 to 20)
#    0.000    1.667    3.333    2.000    0.000    0.667 
#    0.000    0.000    0.000    1.000    0.000    0.000 
#    0.000    0.000    0.000    0.000    0.000    0.000 
#
# Total GULP energy -133706.231890 kJ/mol
# GULP energy per Si atom -5571.092995 kJ/mol
# Density = 1.810998 g / cm^3
# Si number density = 18.151296 Si / 1000 Ang^3
#
#
#
# Elastic Constant Matrix: (Units=GPa)
#
#
# Indices 1 2 3 4 5 6 
#
# 1 74.2891 27.6597 14.2294 0.0000 -16.3951 0.0000
# 2 27.6597 71.4934 -2.4520 0.0000 -5.5934 0.0000
# 3 14.2294 -2.4520 35.5219 0.0000 -15.1748 0.0000
# 4 0.0000 0.0000 0.0000 27.5095 0.0000 -2.3731
# 5 -16.3951 -5.5934 -15.1748 0.0000 26.8105 0.0000
# 6 0.0000 0.0000 0.0000 -2.3731 0.0000 22.0952
#
#
#
# Elastic Compliance Matrix: (Units=1/GPa)
#
#
# Indices 1 2 3 4 5 6 
#
# 1 0.018478 -0.006753 -0.004804 0.000000 0.007172 0.000000
# 2 -0.006753 0.016928 0.004772 0.000000 0.002103 0.000000
# 3 -0.004804 0.004772 0.039008 0.000000 0.020136 0.000000
# 4 0.000000 0.000000 0.000000 0.036691 0.000000 0.003941
# 5 0.007172 0.002103 0.020136 0.000000 0.053520 0.000000
# 6 0.000000 0.000000 0.000000 0.003941 0.000000 0.045682
#
#
# Mechanical properties :
#
#
# Convention : Reuss Voigt Hill
#
# Bulk Modulus (GPa) = 16.43557 28.90872 22.67214
# Shear Modulus (GPa) = 20.47855 24.74087 22.60971
#
# Velocity S-wave (km/s) = 3.36253 3.69594 3.53317
# Velocity P-wave (km/s) = 4.91426 5.84589 5.40020
#
# Compressibility (1/GPa) = 0.06084365
#
# Stress axis : x y z
#
# Youngs Moduli (GPa) = 54.11832 59.07369 25.63606
#
# Poissons Ratio (x) = 0.39890 0.12317
# Poissons Ratio (y) = 0.36544 -0.12233
# Poissons Ratio (z) = 0.26000 -0.28190
#
# Static dielectric constant tensor:
#      x y z
#    x 1.637100 0.000000 -0.005000 
#    y 0.000000 1.626930 0.000000 
#    z -0.005000 0.000000 1.652990 
# 
# From -- ./inp_files/29449.got.cif
#   From: 2010.05.17/outbox.cif.g08.bks.cpg/sg13_15_cif.got.tgz:29449.got - 2010.06.03 16:44:36.
