data_PCOD9228381
_publ_section_title
;
Structure prediction by ZEFSAII (Michael W. Deem and Ramdas Pophale) SiO2 
 PCOD9228381
Probable space group: P 2/C
;
_chemical_formula_sum "Si O2"
_cell_formula_units_Z 22
_cell_length_a 8.084011
_cell_length_b 5.435946
_cell_length_c 20.110761
_cell_angle_alpha 90.000000
_cell_angle_beta 86.054791
_cell_angle_gamma 90.000000
_cell_volume 881.658027
_symmetry_space_group_name_H-M "P 2/C"
_symmetry_group_IT_number 13
_symmetry_cell_setting 'monoclinic'
loop_
_space_group_symop_operation_xyz
x,y,z
-x,y,1/2-z
-x,-y,-z
x,-y,1/2+z
loop_
_atom_site_type_symbol
_atom_site_label
_atom_site_fract_x
_atom_site_fract_y
_atom_site_fract_z
Si Si1 0.500000 0.021798 0.750000
Si Si2 0.461648 0.743649 0.912816
Si Si3 0.780137 0.249818 0.208985
Si Si4 0.195860 0.759806 0.327002
Si Si5 0.346877 0.753184 0.067423
Si Si6 0.008357 0.749548 0.457410
O O1 0.613222 0.196888 0.701342
O O2 0.352669 0.834096 0.731707
O O3 0.333621 0.741100 0.855350
O O4 0.570162 0.496268 0.909047
O O5 0.569054 0.994331 0.911253
O O6 0.367107 0.745968 0.986417
O O7 0.858910 0.513529 0.207758
O O8 0.891606 0.012535 0.192881
O O9 0.169831 0.741967 0.406383
O O10 0.151383 0.750530 0.086048
O O11 0.000000 0.500000 0.500000
O O12 0.000000 0.000000 0.500000
#
# Coordination Sequence:
#
# PCOD9228381 Si02
#       6
#     2   4   4   4   4   4
#     4   8  22  34  60  86 102 142 194 244 276 314
#     4  10  19  34  53  75 114 144 185 218 260 340
#     4  10  19  35  58  85 104 142 189 236 278 309
#     4  10  20  35  56  86 110 140 184 238 277 329
#     4  10  21  33  50  81 110 150 177 215 272 332
#     4  12  23  36  56  85 121 148 177 227 290 340
#
# _framework density 24.952984000000001
#
# number of rings (size 3 to 8) (size 9 to 14) (size 15 to 20)
#    1.091    0.727    0.000    6.000    0.000    2.909 
#    0.000    0.000    0.000    1.091    0.000    0.000 
#    0.000    0.000    0.000    0.000    0.000    0.000 
#
# Total GULP energy -122814.993385 kJ/mol
# GULP energy per Si atom -5582.499699 kJ/mol
# Density = 2.489619 g / cm^3
# Si number density = 24.952984 Si / 1000 Ang^3
#
#
#
# Elastic Constant Matrix: (Units=GPa)
#
#
# Indices 1 2 3 4 5 6 
#
# 1 86.1047 44.3609 44.9496 0.0000 15.3941 0.0000
# 2 44.3609 257.9125 52.7085 0.0000 -13.0524 0.0000
# 3 44.9496 52.7085 125.9212 0.0000 -21.2827 0.0000
# 4 0.0000 0.0000 0.0000 32.2355 0.0000 -13.2802
# 5 15.3941 -13.0524 -21.2827 0.0000 45.4795 0.0000
# 6 0.0000 0.0000 0.0000 -13.2802 0.0000 5.6730
#
#
#
# Elastic Compliance Matrix: (Units=1/GPa)
#
#
# Indices 1 2 3 4 5 6 
#
# 1 0.018467 -0.002182 -0.007429 0.000000 -0.010353 0.000000
# 2 -0.002182 0.004505 -0.000829 0.000000 0.001644 0.000000
# 3 -0.007429 -0.000829 0.012298 0.000000 0.008031 0.000000
# 4 0.000000 0.000000 0.000000 0.871794 0.000000 2.040840
# 5 -0.010353 0.001644 0.008031 0.000000 0.029722 0.000000
# 6 0.000000 0.000000 0.000000 2.040840 0.000000 4.953812
#
#
# Mechanical properties :
#
#
# Convention : Reuss Voigt Hill
#
# Bulk Modulus (GPa) = 69.49100 83.77519 76.63309
# Shear Modulus (GPa) = 0.84513 38.53889 19.69201
#
# Velocity S-wave (km/s) = 0.58260 3.93423 2.81225
# Velocity P-wave (km/s) = 5.32558 7.36774 6.42827
#
# Compressibility (1/GPa) = 0.01439035
#
# Stress axis : x y z
#
# Youngs Moduli (GPa) = 54.15081 221.96462 81.31613
#
# Poissons Ratio (x) = 0.48435 0.60406
# Poissons Ratio (y) = 0.11816 0.06742
# Poissons Ratio (z) = 0.40226 0.18402
#
# Static dielectric constant tensor:
#      x y z
#    x 2.000260 0.000000 0.005540 
#    y 0.000000 2.040310 0.000000 
#    z 0.005540 0.000000 2.074970 
# 
# From -- ./inp_files/90654.got.cif
#   From: 2010.05.17/outbox.cif.g08.bks.cpg/sg13_46_cif.got.tgz:90654.got - 2010.06.03 16:44:36.
