data_PCOD9228941
_publ_section_title
;
Structure prediction by ZEFSAII (Michael W. Deem and Ramdas Pophale) SiO2 
 PCOD9228941
Probable space group: P 2/C
;
_chemical_formula_sum "Si O2"
_cell_formula_units_Z 28
_cell_length_a 6.881196
_cell_length_b 8.593387
_cell_length_c 27.268964
_cell_angle_alpha 90.000000
_cell_angle_beta 123.887780
_cell_angle_gamma 90.000000
_cell_volume 1338.578008
_symmetry_space_group_name_H-M "P 2/C"
_symmetry_group_IT_number 13
_symmetry_cell_setting 'monoclinic'
loop_
_space_group_symop_operation_xyz
x,y,z
-x,y,1/2-z
-x,-y,-z
x,-y,1/2+z
loop_
_atom_site_type_symbol
_atom_site_label
_atom_site_fract_x
_atom_site_fract_y
_atom_site_fract_z
Si Si1 0.183800 0.579698 0.733640
Si Si2 0.344343 0.436313 0.663268
Si Si3 0.749564 0.109366 0.886844
Si Si4 0.044248 0.597140 0.944998
Si Si5 0.975457 0.853794 0.855578
Si Si6 0.164783 0.286455 0.989101
Si Si7 0.521650 0.958338 0.561611
O O1 0.176240 0.459232 0.686956
O O2 0.434516 0.542527 0.792764
O O3 0.135194 0.750636 0.703719
O O4 0.000000 0.549708 0.750000
O O5 0.382275 0.256017 0.656535
O O6 0.206198 0.514884 0.599779
O O7 0.015121 0.170436 0.934158
O O8 0.785078 0.962695 0.855740
O O9 0.628529 0.061276 0.921056
O O10 0.068935 0.726168 0.907689
O O11 0.215317 0.450091 0.970041
O O12 0.018165 0.677890 0.993196
O O13 0.214759 0.948965 0.880224
O O14 0.390868 0.207642 0.043494
O O15 0.500000 0.000000 0.500000
#
# Coordination Sequence:
#
# PCOD9228941 Si02
#       7
#     4   4   4   4   4   4   4
#     4  10  23  44  66  90 119 153 220 275 320 374
#     4   9  22  43  67  86 119 173 203 266 325 365
#     4  11  22  42  63  91 133 166 210 253 314 391
#     4   9  19  37  61  89 126 170 212 243 306 369
#     4  11  23  39  63  93 126 168 207 266 317 379
#     4  10  19  36  61  90 133 172 204 249 297 380
#     4  12  23  35  62  99 138 171 206 252 319 375
#
# _framework density 20.917719000000002
#
# number of rings (size 3 to 8) (size 9 to 14) (size 15 to 20)
#    0.000    1.714    2.857    1.286    2.000    2.857 
#    2.571    9.286    0.000    0.000    0.000    0.000 
#    0.000    0.000    0.000    0.000    0.000    0.000 
#
# Total GULP energy -156011.248852 kJ/mol
# GULP energy per Si atom -5571.830316 kJ/mol
# Density = 2.087011 g / cm^3
# Si number density = 20.917719 Si / 1000 Ang^3
#
#
#
# Elastic Constant Matrix: (Units=GPa)
#
#
# Indices 1 2 3 4 5 6 
#
# 1 97.6941 48.1082 31.8006 0.0000 -6.3934 0.0000
# 2 48.1082 103.7489 32.5153 0.0000 -3.5895 0.0000
# 3 31.8006 32.5153 82.6986 0.0000 1.8141 0.0000
# 4 0.0000 0.0000 0.0000 44.8105 0.0000 -2.1537
# 5 -6.3934 -3.5895 1.8141 0.0000 21.9728 0.0000
# 6 0.0000 0.0000 0.0000 -2.1537 0.0000 5.8827
#
#
#
# Elastic Compliance Matrix: (Units=1/GPa)
#
#
# Indices 1 2 3 4 5 6 
#
# 1 0.014248 -0.005409 -0.003430 0.000000 0.003545 0.000000
# 2 -0.005409 0.013150 -0.003108 0.000000 0.000831 0.000000
# 3 -0.003430 -0.003108 0.014693 0.000000 -0.002719 0.000000
# 4 0.000000 0.000000 0.000000 0.022716 0.000000 0.008316
# 5 0.003545 0.000831 -0.002719 0.000000 0.046903 0.000000
# 6 0.000000 0.000000 0.000000 0.008316 0.000000 0.173036
#
#
# Mechanical properties :
#
#
# Convention : Reuss Voigt Hill
#
# Bulk Modulus (GPa) = 54.95797 56.55444 55.75620
# Shear Modulus (GPa) = 15.88785 25.98102 20.93444
#
# Velocity S-wave (km/s) = 2.75897 3.52811 3.16697
# Velocity P-wave (km/s) = 6.03984 6.61000 6.33134
#
# Compressibility (1/GPa) = 0.01819572
#
# Stress axis : x y z
#
# Youngs Moduli (GPa) = 70.18402 76.04639 68.06038
#
# Poissons Ratio (x) = 0.41136 0.23344
# Poissons Ratio (y) = 0.37965 0.21156
# Poissons Ratio (z) = 0.24073 0.23638
#
# Static dielectric constant tensor:
#      x y z
#    x 1.794850 0.000000 0.004150 
#    y 0.000000 1.806190 0.000000 
#    z 0.004150 0.000000 1.811700 
# 
# From -- ./inp_files/95132.got.cif
#   From: 2010.05.17/outbox.cif.g08.bks.cpg/sg13_48_cif.got.tgz:95132.got - 2010.06.03 16:44:36.
