data_PCOD9228863
_publ_section_title
;
Structure prediction by ZEFSAII (Michael W. Deem and Ramdas Pophale) SiO2 
 PCOD9228863
Probable space group: P 2/C
;
_chemical_formula_sum "Si O2"
_cell_formula_units_Z 20
_cell_length_a 5.223138
_cell_length_b 8.736384
_cell_length_c 24.211634
_cell_angle_alpha 90.000000
_cell_angle_beta 125.062911
_cell_angle_gamma 90.000000
_cell_volume 904.310442
_symmetry_space_group_name_H-M "P 2/C"
_symmetry_group_IT_number 13
_symmetry_cell_setting 'monoclinic'
loop_
_space_group_symop_operation_xyz
x,y,z
-x,y,1/2-z
-x,-y,-z
x,-y,1/2+z
loop_
_atom_site_type_symbol
_atom_site_label
_atom_site_fract_x
_atom_site_fract_y
_atom_site_fract_z
Si Si1 0.266973 0.871546 0.445577
Si Si2 0.231936 0.726935 0.555482
Si Si3 0.930346 0.847254 0.628020
Si Si4 0.146096 0.565367 0.708509
Si Si5 0.564242 0.557104 0.070143
O O1 0.124858 0.785734 0.481698
O O2 0.438111 0.739318 0.432423
O O3 0.500000 0.000000 0.500000
O O4 0.045575 0.971502 0.378452
O O5 0.013733 0.780166 0.577695
O O6 0.308148 0.546196 0.570026
O O7 0.577198 0.804202 0.602808
O O8 0.142246 0.747556 0.694772
O O9 0.500000 0.508626 0.750000
O O10 0.000000 0.538656 0.750000
O O11 0.902764 0.491244 0.635224
O O12 0.500000 0.500000 0.000000
#
# Coordination Sequence:
#
# PCOD9228863 Si02
#       5
#     4   4   4   4   4
#     4   9  18  35  59  93 128 158 203 268 328 384
#     4   9  18  34  57  88 119 155 199 251 307 371
#     4  10  19  36  58  84 118 159 201 249 312 374
#     4  11  23  42  63  88 123 167 212 260 318 390
#     4   9  19  39  65  93 122 163 215 264 316 383
#
# _framework density 22.116301
#
# number of rings (size 3 to 8) (size 9 to 14) (size 15 to 20)
#    0.000    2.400    0.000    4.200    0.000    0.000 
#    0.000   67.000    0.000    0.000    0.000    0.000 
#    0.000    0.000    0.000    0.000    0.000    0.000 
#
# Total GULP energy -111539.876814 kJ/mol
# GULP energy per Si atom -5576.993841 kJ/mol
# Density = 2.206596 g / cm^3
# Si number density = 22.116301 Si / 1000 Ang^3
#
#
#
# Elastic Constant Matrix: (Units=GPa)
#
#
# Indices 1 2 3 4 5 6 
#
# 1 117.5894 32.2309 47.6822 0.0000 5.0529 0.0000
# 2 32.2309 157.9299 18.7261 0.0000 4.4297 0.0000
# 3 47.6822 18.7261 105.5283 0.0000 20.3922 0.0000
# 4 0.0000 0.0000 0.0000 31.5773 0.0000 4.3038
# 5 5.0529 4.4297 20.3922 0.0000 31.5369 0.0000
# 6 0.0000 0.0000 0.0000 4.3038 0.0000 21.6396
#
#
#
# Elastic Compliance Matrix: (Units=1/GPa)
#
#
# Indices 1 2 3 4 5 6 
#
# 1 0.010902 -0.001685 -0.004954 0.000000 0.001693 0.000000
# 2 -0.001685 0.006729 -0.000345 0.000000 -0.000452 0.000000
# 3 -0.004954 -0.000345 0.013272 0.000000 -0.007739 0.000000
# 4 0.000000 0.000000 0.000000 0.032551 0.000000 -0.006474
# 5 0.001693 -0.000452 -0.007739 0.000000 0.036505 0.000000
# 6 0.000000 0.000000 0.000000 -0.006474 0.000000 0.047499
#
#
# Mechanical properties :
#
#
# Convention : Reuss Voigt Hill
#
# Bulk Modulus (GPa) = 59.05419 64.25842 61.65630
# Shear Modulus (GPa) = 29.92714 35.77799 32.85256
#
# Velocity S-wave (km/s) = 3.68254 4.02645 3.85833
# Velocity P-wave (km/s) = 6.69635 7.12280 6.91286
#
# Compressibility (1/GPa) = 0.01693360
#
# Stress axis : x y z
#
# Youngs Moduli (GPa) = 91.72450 148.60067 75.34922
#
# Poissons Ratio (x) = 0.25039 0.37330
# Poissons Ratio (y) = 0.15456 0.02603
# Poissons Ratio (z) = 0.45443 0.05134
#
# Static dielectric constant tensor:
#      x y z
#    x 1.820500 0.000000 0.017440 
#    y 0.000000 1.904140 0.000000 
#    z 0.017440 0.000000 1.887550 
# 
# From -- ./inp_files/90338.got.cif
#   From: 2010.05.17/outbox.cif.g08.bks.cpg/sg13_46_cif.got.tgz:90338.got - 2010.06.03 16:44:36.
