data_PCOD9228163
_publ_section_title
;
Structure prediction by ZEFSAII (Michael W. Deem and Ramdas Pophale) SiO2 
 PCOD9228163
Probable space group: P 2/C
;
_chemical_formula_sum "Si O2"
_cell_formula_units_Z 26
_cell_length_a 11.406561
_cell_length_b 8.053824
_cell_length_c 13.275393
_cell_angle_alpha 90.000000
_cell_angle_beta 68.269236
_cell_angle_gamma 90.000000
_cell_volume 1132.893447
_symmetry_space_group_name_H-M "P 2/C"
_symmetry_group_IT_number 13
_symmetry_cell_setting 'monoclinic'
loop_
_space_group_symop_operation_xyz
x,y,z
-x,y,1/2-z
-x,-y,-z
x,-y,1/2+z
loop_
_atom_site_type_symbol
_atom_site_label
_atom_site_fract_x
_atom_site_fract_y
_atom_site_fract_z
Si Si1 0.152189 0.671504 0.696344
Si Si2 0.851562 0.809183 0.011927
Si Si3 0.129770 0.119796 0.379678
Si Si4 0.448311 0.340292 0.669394
Si Si5 0.691373 0.499978 0.613067
Si Si6 0.000000 0.106531 0.750000
Si Si7 0.233393 0.312772 0.593509
O O1 0.181000 0.796265 0.595561
O O2 0.194000 0.739023 0.791546
O O3 0.203951 0.497193 0.643381
O O4 0.000000 0.653959 0.750000
O O5 0.003705 0.808860 0.972585
O O6 0.798045 0.643510 0.080340
O O7 0.803489 0.982458 0.072725
O O8 0.069798 0.003613 0.310559
O O9 0.500000 0.234023 0.750000
O O10 0.573833 0.422976 0.584142
O O11 0.373115 0.482883 0.756828
O O12 0.355469 0.257437 0.619440
O O13 0.737984 0.658239 0.534217
O O14 0.109498 0.210476 0.660481
#
# Coordination Sequence:
#
# PCOD9228163 Si02
#       7
#     4   4   4   4   4   2   4
#     4   9  17  34  48  73 108 143 173 203 272 323
#     4   9  16  32  53  71 101 143 182 209 264 319
#     4  10  19  33  49  76 113 144 174 213 260 329
#     4   8  19  35  53  82 101 139 187 228 266 311
#     4   8  18  34  56  77 101 143 182 222 267 317
#     4  12  22  30  52  86 118 138 172 224 268 330
#     4  11  19  34  54  83 112 140 174 228 268 321
#
# _framework density 22.950085000000001
#
# number of rings (size 3 to 8) (size 9 to 14) (size 15 to 20)
#    0.923    1.538    3.077    1.385    0.000    0.000 
#    8.308    2.308    0.000    0.923   20.000    0.000 
#    0.000    0.000    0.000    0.000    0.000    0.000 
#
# Total GULP energy -144862.827620 kJ/mol
# GULP energy per Si atom -5571.647216 kJ/mol
# Density = 2.289785 g / cm^3
# Si number density = 22.950085 Si / 1000 Ang^3
#
#
#
# Elastic Constant Matrix: (Units=GPa)
#
#
# Indices 1 2 3 4 5 6 
#
# 1 60.4515 -1.5147 19.9199 0.0000 8.7458 0.0000
# 2 -1.5147 40.9937 -1.2513 0.0000 -8.4114 0.0000
# 3 19.9199 -1.2513 69.6206 0.0000 -1.8969 0.0000
# 4 0.0000 0.0000 0.0000 13.2094 0.0000 4.8057
# 5 8.7458 -8.4114 -1.8969 0.0000 34.2049 0.0000
# 6 0.0000 0.0000 0.0000 4.8057 0.0000 7.4436
#
#
#
# Elastic Compliance Matrix: (Units=1/GPa)
#
#
# Indices 1 2 3 4 5 6 
#
# 1 0.019160 -0.000562 -0.005638 0.000000 -0.005350 0.000000
# 2 -0.000562 0.025735 0.000801 0.000000 0.006517 0.000000
# 3 -0.005638 0.000801 0.016060 0.000000 0.002529 0.000000
# 4 0.000000 0.000000 0.000000 0.098943 0.000000 -0.063878
# 5 -0.005350 0.006517 0.002529 0.000000 0.032346 0.000000
# 6 0.000000 0.000000 0.000000 -0.063878 0.000000 0.175583
#
#
# Mechanical properties :
#
#
# Convention : Reuss Voigt Hill
#
# Bulk Modulus (GPa) = 19.93745 22.81929 21.37837
# Shear Modulus (GPa) = 12.64721 21.23238 16.93980
#
# Velocity S-wave (km/s) = 2.35005 3.04494 2.71977
# Velocity P-wave (km/s) = 4.00871 4.72512 4.38158
#
# Compressibility (1/GPa) = 0.05015688
#
# Stress axis : x y z
#
# Youngs Moduli (GPa) = 52.19238 38.85786 62.26656
#
# Poissons Ratio (x) = 0.02183 0.35105
# Poissons Ratio (y) = 0.02932 -0.04987
# Poissons Ratio (z) = 0.29426 -0.03112
#
# Static dielectric constant tensor:
#      x y z
#    x 1.968540 0.000000 0.061020 
#    y 0.000000 1.893230 0.000000 
#    z 0.061020 0.000000 1.927380 
# 
# From -- ./inp_files/49924.got.cif
#   From: 2010.05.17/outbox.cif.g08.bks.cpg/sg13_25_cif.got.tgz:49924.got - 2010.06.03 16:44:36.
