data_PCOD9228395
_publ_section_title
;
Structure prediction by ZEFSAII (Michael W. Deem and Ramdas Pophale) SiO2 
 PCOD9228395
Probable space group: P 2/C
;
_chemical_formula_sum "Si O2"
_cell_formula_units_Z 30
_cell_length_a 11.165805
_cell_length_b 11.271733
_cell_length_c 11.599735
_cell_angle_alpha 90.000000
_cell_angle_beta 73.116193
_cell_angle_gamma 90.000000
_cell_volume 1396.990345
_symmetry_space_group_name_H-M "P 2/C"
_symmetry_group_IT_number 13
_symmetry_cell_setting 'monoclinic'
loop_
_space_group_symop_operation_xyz
x,y,z
-x,y,1/2-z
-x,-y,-z
x,-y,1/2+z
loop_
_atom_site_type_symbol
_atom_site_label
_atom_site_fract_x
_atom_site_fract_y
_atom_site_fract_z
Si Si1 0.511059 0.176232 0.381637
Si Si2 0.671585 0.607399 0.804995
Si Si3 0.872242 0.332132 0.062279
Si Si4 0.500000 0.828300 0.250000
Si Si5 0.345760 0.038987 0.597366
Si Si6 0.866524 0.190899 0.846056
Si Si7 0.868582 0.415533 0.454350
Si Si8 0.709781 0.347488 0.715554
O O1 0.500000 0.150775 0.250000
O O2 0.551368 0.314238 0.374067
O O3 0.390128 0.120308 0.477430
O O4 0.620737 0.098912 0.411985
O O5 0.747810 0.663167 0.674900
O O6 0.769003 0.607732 0.883033
O O7 0.649121 0.471003 0.774799
O O8 0.996590 0.355954 0.102762
O O9 0.878428 0.220021 0.977436
O O10 0.878394 0.443238 0.971212
O O11 0.565340 0.908288 0.327335
O O12 0.390012 0.738726 0.317097
O O13 0.201340 0.065615 0.655679
O O14 0.771909 0.281465 0.807073
O O15 0.000000 0.199593 0.750000
O O16 0.816453 0.372917 0.592430
#
# Coordination Sequence:
#
# PCOD9228395 Si02
#       8
#     4   4   4   2   4   4   4   4
#     4  11  23  43  64  86 120 159 205 256 305 357
#     4  11  22  35  57  90 122 156 198 253 302 358
#     4  10  20  33  57  85 121 161 196 236 299 365
#     4  10  20  40  58  84 116 152 206 242 294 364
#     4  10  23  42  67  87 112 166 210 248 302 363
#     4  11  20  39  62  89 119 152 205 251 295 358
#     4  10  19  34  53  82 122 160 196 227 295 375
#     4  10  21  34  57  86 119 156 192 245 302 360
#
# _framework density 21.474737000000001
#
# number of rings (size 3 to 8) (size 9 to 14) (size 15 to 20)
#    0.000    1.600    3.333    2.000    0.933    0.000 
#    0.000    3.333    0.000    2.400    0.000    0.000 
#    0.000    0.000    0.000    0.000    0.000    0.000 
#
# Total GULP energy -167427.668570 kJ/mol
# GULP energy per Si atom -5580.922286 kJ/mol
# Density = 2.142586 g / cm^3
# Si number density = 21.474737 Si / 1000 Ang^3
#
#
#
# Elastic Constant Matrix: (Units=GPa)
#
#
# Indices 1 2 3 4 5 6 
#
# 1 55.7359 7.0410 -1.2367 0.0000 7.5275 0.0000
# 2 7.0410 56.2095 -3.9917 0.0000 -9.6661 0.0000
# 3 -1.2367 -3.9917 48.9336 0.0000 16.7238 0.0000
# 4 0.0000 0.0000 0.0000 17.1480 0.0000 -6.5849
# 5 7.5275 -9.6661 16.7238 0.0000 26.0000 0.0000
# 6 0.0000 0.0000 0.0000 -6.5849 0.0000 20.6896
#
#
#
# Elastic Compliance Matrix: (Units=1/GPa)
#
#
# Indices 1 2 3 4 5 6 
#
# 1 0.019759 -0.003838 0.003370 0.000000 -0.009315 0.000000
# 2 -0.003838 0.019798 -0.001765 0.000000 0.009607 0.000000
# 3 0.003370 -0.001765 0.026834 0.000000 -0.018892 0.000000
# 4 0.000000 0.000000 0.000000 0.066436 0.000000 0.021145
# 5 -0.009315 0.009607 -0.018892 0.000000 0.056882 0.000000
# 6 0.000000 0.000000 0.000000 0.021145 0.000000 0.055063
#
#
# Mechanical properties :
#
#
# Convention : Reuss Voigt Hill
#
# Bulk Modulus (GPa) = 16.14860 18.27824 17.21342
# Shear Modulus (GPa) = 18.52680 23.37194 20.94937
#
# Velocity S-wave (km/s) = 2.94040 3.30259 3.12674
# Velocity P-wave (km/s) = 4.36625 4.80341 4.59004
#
# Compressibility (1/GPa) = 0.06192487
#
# Stress axis : x y z
#
# Youngs Moduli (GPa) = 50.60882 50.51017 37.26665
#
# Poissons Ratio (x) = 0.19384 -0.12558
# Poissons Ratio (y) = 0.19422 0.06579
# Poissons Ratio (z) = -0.17055 0.08916
#
# Static dielectric constant tensor:
#      x y z
#    x 1.778970 0.000000 -0.014090 
#    y 0.000000 1.806030 0.000000 
#    z -0.014090 0.000000 1.780610 
# 
# From -- ./inp_files/33789.got.cif
#   From: 2010.05.17/outbox.cif.g08.bks.cpg/sg13_17_cif.got.tgz:33789.got - 2010.06.03 16:44:36.
