data_PCOD9228088
_publ_section_title
;
Structure prediction by ZEFSAII (Michael W. Deem and Ramdas Pophale) SiO2 
 PCOD9228088
Probable space group: P 2/C
;
_chemical_formula_sum "Si O2"
_cell_formula_units_Z 20
_cell_length_a 10.522372
_cell_length_b 15.458889
_cell_length_c 7.935025
_cell_angle_alpha 90.000000
_cell_angle_beta 50.643216
_cell_angle_gamma 90.000000
_cell_volume 998.019151
_symmetry_space_group_name_H-M "P 2/C"
_symmetry_group_IT_number 13
_symmetry_cell_setting 'monoclinic'
loop_
_space_group_symop_operation_xyz
x,y,z
-x,y,1/2-z
-x,-y,-z
x,-y,1/2+z
loop_
_atom_site_type_symbol
_atom_site_label
_atom_site_fract_x
_atom_site_fract_y
_atom_site_fract_z
Si Si1 0.700245 0.407440 0.895773
Si Si2 0.379812 0.945756 0.721676
Si Si3 0.699344 0.716515 0.092326
Si Si4 0.299363 0.400034 0.221879
Si Si5 0.191186 0.901013 0.570729
O O1 0.752075 0.342626 0.704779
O O2 0.748932 0.505005 0.805011
O O3 0.499791 0.402833 0.060503
O O4 0.755879 0.386563 0.039034
O O5 0.500000 0.897120 0.750000
O O6 0.270151 0.890508 0.689723
O O7 0.500000 0.000000 0.500000
O O8 0.272001 0.016444 0.911565
O O9 0.500000 0.721541 0.250000
O O10 0.751758 0.670880 0.873055
O O11 0.767844 0.812470 0.057400
O O12 0.000000 0.915667 0.750000
#
# Coordination Sequence:
#
# PCOD9228088 Si02
#       5
#     4   4   4   4   4
#     4   9  15  26  47  76 111 146 191 251 297 338
#     4   9  19  39  65  87 110 145 194 241 289 350
#     4  10  19  32  52  81 115 150 197 248 289 347
#     4   9  15  26  46  77 109 145 193 246 301 335
#     4  11  22  39  60  87 122 155 188 237 304 365
#
# _framework density 20.039695999999999
#
# number of rings (size 3 to 8) (size 9 to 14) (size 15 to 20)
#    0.000    2.400    2.000    2.400    0.000    0.000 
#   14.400    0.000    0.000    1.200    0.000    0.000 
#    0.000    0.000    0.000    0.000    0.000    0.000 
#
# Total GULP energy -111583.163551 kJ/mol
# GULP energy per Si atom -5579.158178 kJ/mol
# Density = 1.999408 g / cm^3
# Si number density = 20.039696 Si / 1000 Ang^3
#
#
#
# Elastic Constant Matrix: (Units=GPa)
#
#
# Indices 1 2 3 4 5 6 
#
# 1 51.9348 -4.9778 39.6454 0.0000 11.9360 0.0000
# 2 -4.9778 61.5553 20.2289 0.0000 2.5490 0.0000
# 3 39.6454 20.2289 75.3495 0.0000 22.5747 0.0000
# 4 0.0000 0.0000 0.0000 27.8718 0.0000 7.3682
# 5 11.9360 2.5490 22.5747 0.0000 31.6544 0.0000
# 6 0.0000 0.0000 0.0000 7.3682 0.0000 16.2824
#
#
#
# Elastic Compliance Matrix: (Units=1/GPa)
#
#
# Indices 1 2 3 4 5 6 
#
# 1 0.037463 0.010515 -0.022952 0.000000 0.001396 0.000000
# 2 0.010515 0.020927 -0.012028 0.000000 0.002928 0.000000
# 3 -0.022952 -0.012028 0.032675 0.000000 -0.013680 0.000000
# 4 0.000000 0.000000 0.000000 0.040754 0.000000 -0.018442
# 5 0.001396 0.002928 -0.013680 0.000000 0.040585 0.000000
# 6 0.000000 0.000000 0.000000 -0.018442 0.000000 0.069761
#
#
# Mechanical properties :
#
#
# Convention : Reuss Voigt Hill
#
# Bulk Modulus (GPa) = 23.73342 33.18143 28.45743
# Shear Modulus (GPa) = 16.38583 24.09126 20.23854
#
# Velocity S-wave (km/s) = 2.86259 3.47100 3.18138
# Velocity P-wave (km/s) = 4.77439 5.71468 5.26557
#
# Compressibility (1/GPa) = 0.04213467
#
# Stress axis : x y z
#
# Youngs Moduli (GPa) = 26.69303 47.78458 30.60408
#
# Poissons Ratio (x) = -0.50243 0.70243
# Poissons Ratio (y) = -0.28066 0.36810
# Poissons Ratio (z) = 0.61267 0.57474
#
# Static dielectric constant tensor:
#      x y z
#    x 1.742280 0.000000 0.021320 
#    y 0.000000 1.702770 0.000000 
#    z 0.021320 0.000000 1.726510 
# 
# From -- ./inp_files/12704.got.cif
#   From: 2010.05.17/outbox.cif.g08.bks.cpg/sg13_7_cif.got.tgz:12704.got - 2010.06.03 16:44:36.
