data_PCOD9228960
_publ_section_title
;
Structure prediction by ZEFSAII (Michael W. Deem and Ramdas Pophale) SiO2 
 PCOD9228960
Probable space group: P 2/C
;
_chemical_formula_sum "Si O2"
_cell_formula_units_Z 24
_cell_length_a 12.078584
_cell_length_b 7.700038
_cell_length_c 21.083051
_cell_angle_alpha 90.000000
_cell_angle_beta 153.727135
_cell_angle_gamma 90.000000
_cell_volume 867.959487
_symmetry_space_group_name_H-M "P 2/C"
_symmetry_group_IT_number 13
_symmetry_cell_setting 'monoclinic'
loop_
_space_group_symop_operation_xyz
x,y,z
-x,y,1/2-z
-x,-y,-z
x,-y,1/2+z
loop_
_atom_site_type_symbol
_atom_site_label
_atom_site_fract_x
_atom_site_fract_y
_atom_site_fract_z
Si Si1 0.721890 0.836064 0.719323
Si Si2 0.596145 0.152768 0.595508
Si Si3 0.112147 0.778259 0.032942
Si Si4 0.299640 0.158429 0.097911
Si Si5 0.352543 0.592613 0.057614
Si Si6 0.166442 0.506295 0.260501
O O1 0.439245 0.838407 0.602457
O O2 0.769573 0.694083 0.688042
O O3 0.905797 0.788231 0.870885
O O4 0.784954 0.033278 0.733141
O O5 0.288001 0.369724 0.596512
O O6 0.384300 0.227607 0.533986
O O7 0.500000 0.000000 0.500000
O O8 0.968367 0.755244 0.024966
O O9 0.249879 0.962654 0.097907
O O10 0.500000 0.236077 0.250000
O O11 0.260795 0.330576 0.850738
O O12 0.121640 0.492178 0.906811
O O13 0.628448 0.517580 0.190637
#
# Coordination Sequence:
#
# PCOD9228960 Si02
#       6
#     4   4   4   4   4   4
#     4  10  19  36  62  90 132 178 225 283 348 403
#     4  10  22  41  68  95 130 180 238 278 351 423
#     4   9  17  32  58  91 132 173 231 277 330 421
#     4   9  16  29  56  93 128 177 224 281 339 403
#     4   9  19  41  64  97 137 172 223 278 345 405
#     4   9  21  39  66  93 134 172 217 288 338 403
#
# _framework density 27.651060000000001
#
# number of rings (size 3 to 8) (size 9 to 14) (size 15 to 20)
#    1.000    1.667    1.667    0.000    0.000    2.000 
#    0.000    4.167    0.000   40.000    0.000    0.000 
#    0.000    0.000    0.000    0.000    0.000    0.000 
#
# Total GULP energy -133871.644623 kJ/mol
# GULP energy per Si atom -5577.985193 kJ/mol
# Density = 2.758812 g / cm^3
# Si number density = 27.651060 Si / 1000 Ang^3
#
#
#
# Elastic Constant Matrix: (Units=GPa)
#
#
# Indices 1 2 3 4 5 6 
#
# 1 85.0294 51.9962 34.9390 0.0000 18.7591 0.0000
# 2 51.9962 176.1527 57.9668 0.0000 -0.9642 0.0000
# 3 34.9390 57.9668 140.7546 0.0000 16.9701 0.0000
# 4 0.0000 0.0000 0.0000 42.7445 0.0000 -1.3940
# 5 18.7591 -0.9642 16.9701 0.0000 36.6219 0.0000
# 6 0.0000 0.0000 0.0000 -1.3940 0.0000 38.2674
#
#
#
# Elastic Compliance Matrix: (Units=1/GPa)
#
#
# Indices 1 2 3 4 5 6 
#
# 1 0.016924 -0.004607 -0.001318 0.000000 -0.008180 0.000000
# 2 -0.004607 0.007901 -0.002563 0.000000 0.003755 0.000000
# 3 -0.001318 -0.002563 0.008912 0.000000 -0.003522 0.000000
# 4 0.000000 0.000000 0.000000 0.023423 0.000000 0.000853
# 5 -0.008180 0.003755 -0.003522 0.000000 0.033227 0.000000
# 6 0.000000 0.000000 0.000000 0.000853 0.000000 0.026163
#
#
# Mechanical properties :
#
#
# Convention : Reuss Voigt Hill
#
# Bulk Modulus (GPa) = 59.65999 76.86006 68.26003
# Shear Modulus (GPa) = 35.94269 40.66240 38.30255
#
# Velocity S-wave (km/s) = 3.60928 3.83894 3.72588
# Velocity P-wave (km/s) = 6.24436 6.89251 6.57643
#
# Compressibility (1/GPa) = 0.01676165
#
# Stress axis : x y z
#
# Youngs Moduli (GPa) = 59.08897 126.57207 112.21105
#
# Poissons Ratio (x) = 0.58308 0.14784
# Poissons Ratio (y) = 0.27220 0.28760
# Poissons Ratio (z) = 0.07785 0.32440
#
# Static dielectric constant tensor:
#      x y z
#    x 2.233950 0.000000 -0.032260 
#    y 0.000000 2.278580 0.000000 
#    z -0.032260 0.000000 2.208440 
# 
# From -- ./inp_files/86430.got.cif
#   From: 2010.05.17/outbox.cif.g08.bks.cpg/sg13_44_cif.got.tgz:86430.got - 2010.06.03 16:44:36.
