data_PCOD9228106
_publ_section_title
;
Structure prediction by ZEFSAII (Michael W. Deem and Ramdas Pophale) SiO2 
 PCOD9228106
Probable space group: P 2/C
;
_chemical_formula_sum "Si O2"
_cell_formula_units_Z 22
_cell_length_a 5.761259
_cell_length_b 8.578868
_cell_length_c 24.034778
_cell_angle_alpha 90.000000
_cell_angle_beta 66.741807
_cell_angle_gamma 90.000000
_cell_volume 1091.384158
_symmetry_space_group_name_H-M "P 2/C"
_symmetry_group_IT_number 13
_symmetry_cell_setting 'monoclinic'
loop_
_space_group_symop_operation_xyz
x,y,z
-x,y,1/2-z
-x,-y,-z
x,-y,1/2+z
loop_
_atom_site_type_symbol
_atom_site_label
_atom_site_fract_x
_atom_site_fract_y
_atom_site_fract_z
Si Si1 0.792114 0.305763 0.412423
Si Si2 0.000000 0.422211 0.750000
Si Si3 0.710761 0.653877 0.692750
Si Si4 0.566783 0.575089 0.366268
Si Si5 0.642223 0.901461 0.533446
Si Si6 0.853712 0.779773 0.036155
O O1 0.708403 0.479129 0.401915
O O2 0.813118 0.280059 0.476537
O O3 0.057604 0.261530 0.359234
O O4 0.567678 0.192832 0.413913
O O5 0.848312 0.532836 0.721623
O O6 0.784254 0.341791 0.808252
O O7 0.500000 0.740408 0.750000
O O8 0.564211 0.553960 0.660473
O O9 0.338884 0.680993 0.409197
O O10 0.785134 0.037909 0.552530
O O11 0.500000 0.000000 0.500000
O O12 0.842799 0.782232 0.487071
#
# Coordination Sequence:
#
# PCOD9228106 Si02
#       6
#     4   2   4   4   4   4
#     4  10  19  32  53  80 106 132 168 212 259 310
#     4   8  18  34  50  74 104 136 168 210 258 306
#     4   9  18  32  50  76 105 133 167 211 258 302
#     4  10  19  32  55  80 104 132 170 214 259 309
#     4   9  20  35  49  70 105 143 172 205 255 308
#     4  10  20  34  52  76 106 137 169 210 259 311
#
# _framework density 20.157889000000001
#
# number of rings (size 3 to 8) (size 9 to 14) (size 15 to 20)
#    0.000    2.545    0.000    1.636    0.000    8.727 
#    0.000    0.000    0.000   13.091    0.000   11.455 
#    0.000    0.000    0.000    0.000    0.000    0.000 
#
# Total GULP energy -122475.071123 kJ/mol
# GULP energy per Si atom -5567.048687 kJ/mol
# Density = 2.011201 g / cm^3
# Si number density = 20.157889 Si / 1000 Ang^3
#
#
#
# Elastic Constant Matrix: (Units=GPa)
#
#
# Indices 1 2 3 4 5 6 
#
# 1 100.1522 21.0949 53.2255 0.0000 -37.2184 0.0000
# 2 21.0949 45.1009 45.4300 0.0000 -23.9218 0.0000
# 3 53.2255 45.4300 137.6420 0.0000 -52.4884 0.0000
# 4 0.0000 0.0000 0.0000 -0.3770 0.0000 -9.4151
# 5 -37.2184 -23.9218 -52.4884 0.0000 62.2785 0.0000
# 6 0.0000 0.0000 0.0000 -9.4151 0.0000 26.9210
#
#
#
# Elastic Compliance Matrix: (Units=1/GPa)
#
#
# Indices 1 2 3 4 5 6 
#
# 1 0.013742 -0.000419 -0.003103 0.000000 0.005437 0.000000
# 2 -0.000419 0.034405 -0.009210 0.000000 0.005203 0.000000
# 3 -0.003103 -0.009210 0.013924 0.000000 0.006343 0.000000
# 4 0.000000 0.000000 0.000000 -0.272499 0.000000 -0.095301
# 5 0.005437 0.005203 0.006343 0.000000 0.026651 0.000000
# 6 0.000000 0.000000 0.000000 -0.095301 0.000000 0.003816
#
#
# Mechanical properties :
#
#
# Convention : Reuss Voigt Hill
#
# Bulk Modulus (GPa) = 27.31551 58.04398 42.67974
# Shear Modulus (GPa) = -35.13782 28.64080 -3.24851
#
# Velocity S-wave (km/s) = -4.17961 3.77347 -1.27084
# Velocity P-wave (km/s) = 3.11641 6.91684 4.36638
#
# Compressibility (1/GPa) = 0.03660924
#
# Stress axis : x y z
#
# Youngs Moduli (GPa) = 72.76800 29.06563 71.82058
#
# Poissons Ratio (x) = 0.01217 0.22283
# Poissons Ratio (y) = 0.03046 0.66143
# Poissons Ratio (z) = 0.22577 0.26768
#
# Static dielectric constant tensor:
#      x y z
#    x 1.819670 0.000000 -0.029500 
#    y 0.000000 1.720060 0.000000 
#    z -0.029500 0.000000 1.757930 
# 
# From -- ./inp_files/83293.got.cif
#   From: 2010.05.17/outbox.cif.g08.bks.cpg/sg13_42_cif.got.tgz:83293.got - 2010.06.03 16:44:36.
