data_PCOD9228259
_publ_section_title
;
Structure prediction by ZEFSAII (Michael W. Deem and Ramdas Pophale) SiO2 
 PCOD9228259
Probable space group: P 2/C
;
_chemical_formula_sum "Si O2"
_cell_formula_units_Z 24
_cell_length_a 8.943133
_cell_length_b 16.496310
_cell_length_c 9.106265
_cell_angle_alpha 90.000000
_cell_angle_beta 122.928741
_cell_angle_gamma 90.000000
_cell_volume 1127.608849
_symmetry_space_group_name_H-M "P 2/C"
_symmetry_group_IT_number 13
_symmetry_cell_setting 'monoclinic'
loop_
_space_group_symop_operation_xyz
x,y,z
-x,y,1/2-z
-x,-y,-z
x,-y,1/2+z
loop_
_atom_site_type_symbol
_atom_site_label
_atom_site_fract_x
_atom_site_fract_y
_atom_site_fract_z
Si Si1 0.366541 0.824672 0.001737
Si Si2 0.175445 0.778353 0.614408
Si Si3 0.427512 0.578179 0.044786
Si Si4 0.927510 0.921822 0.544786
Si Si5 0.133462 0.324671 0.498262
Si Si6 0.324551 0.721647 0.385590
O O1 0.316570 0.819008 0.801106
O O2 0.281503 0.902842 0.036242
O O3 0.250004 0.750000 0.000003
O O4 0.571209 0.799319 0.127238
O O5 0.249998 0.749999 0.499999
O O6 0.021829 0.846096 0.514488
O O7 0.071205 0.700683 0.627241
O O8 0.500000 0.577712 0.250000
O O9 0.218499 0.597159 0.963757
O O10 0.521832 0.653904 0.014491
O O11 0.500000 0.500000 0.000000
O O12 0.000000 0.922288 0.750000
O O13 0.000000 0.000000 0.500000
O O14 0.183428 0.319008 0.698891
#
# Coordination Sequence:
#
# PCOD9228259 Si02
#       6
#     4   4   4   4   4   4
#     4   9  18  33  52  77 104 133 172 214 255 309
#     4  10  19  33  55  79 102 133 174 218 260 309
#     4   9  19  34  51  74 105 138 171 210 259 312
#     4   9  19  34  51  74 105 138 171 210 259 312
#     4   9  18  33  52  77 104 133 172 214 255 309
#     4  10  19  33  55  79 102 133 174 218 260 309
#
# _framework density 21.283977
#
# number of rings (size 3 to 8) (size 9 to 14) (size 15 to 20)
#    0.000    2.667    0.000    4.000    0.000    5.333 
#    0.000    1.667    0.000   12.000    0.000    7.000 
#    0.000    0.000    0.000    0.000    0.000    0.000 
#
# Total GULP energy -133617.280137 kJ/mol
# GULP energy per Si atom -5567.386672 kJ/mol
# Density = 2.123553 g / cm^3
# Si number density = 21.283977 Si / 1000 Ang^3
#
#
#
# Elastic Constant Matrix: (Units=GPa)
#
#
# Indices 1 2 3 4 5 6 
#
# 1 119.1617 60.7500 46.3677 0.0000 -29.6519 0.0000
# 2 60.7500 96.1836 15.6981 0.0000 -20.5843 0.0000
# 3 46.3677 15.6981 63.8839 0.0000 -12.7960 0.0000
# 4 0.0000 0.0000 0.0000 23.8351 0.0000 -18.4064
# 5 -29.6519 -20.5843 -12.7960 0.0000 44.7818 0.0000
# 6 0.0000 0.0000 0.0000 -18.4064 0.0000 50.5687
#
#
#
# Elastic Compliance Matrix: (Units=1/GPa)
#
#
# Indices 1 2 3 4 5 6 
#
# 1 0.017860 -0.008591 -0.009837 0.000000 0.005066 0.000000
# 2 -0.008591 0.015880 0.002817 0.000000 0.002416 0.000000
# 3 -0.009837 0.002817 0.022334 0.000000 0.001163 0.000000
# 4 0.000000 0.000000 0.000000 0.058359 0.000000 0.021242
# 5 0.005066 0.002416 0.001163 0.000000 0.027128 0.000000
# 6 0.000000 0.000000 0.000000 0.021242 0.000000 0.027507
#
#
# Mechanical properties :
#
#
# Convention : Reuss Voigt Hill
#
# Bulk Modulus (GPa) = 40.23789 58.31785 49.27787
# Shear Modulus (GPa) = 23.97230 34.26469 29.11849
#
# Velocity S-wave (km/s) = 3.35969 4.01669 3.70279
# Velocity P-wave (km/s) = 5.83064 6.99793 6.44078
#
# Compressibility (1/GPa) = 0.02485220
#
# Stress axis : x y z
#
# Youngs Moduli (GPa) = 55.99050 62.97213 44.77443
#
# Poissons Ratio (x) = 0.54098 0.44046
# Poissons Ratio (y) = 0.48100 -0.12613
# Poissons Ratio (z) = 0.55080 -0.17740
#
# Static dielectric constant tensor:
#      x y z
#    x 1.827380 0.000000 0.055180 
#    y 0.000000 1.837910 0.000000 
#    z 0.055180 0.000000 1.906850 
# 
# From -- ./inp_files/12857.got.cif
#   From: 2010.05.17/outbox.cif.g08.bks.cpg/sg13_7_cif.got.tgz:12857.got - 2010.06.03 16:44:36.
