data_PCOD9228364
_publ_section_title
;
Structure prediction by ZEFSAII (Michael W. Deem and Ramdas Pophale) SiO2 
 PCOD9228364
Probable space group: P 2/C
;
_chemical_formula_sum "Si O2"
_cell_formula_units_Z 30
_cell_length_a 5.964266
_cell_length_b 15.491050
_cell_length_c 18.300616
_cell_angle_alpha 90.000000
_cell_angle_beta 99.765332
_cell_angle_gamma 90.000000
_cell_volume 1666.344972
_symmetry_space_group_name_H-M "P 2/C"
_symmetry_group_IT_number 13
_symmetry_cell_setting 'monoclinic'
loop_
_space_group_symop_operation_xyz
x,y,z
-x,y,1/2-z
-x,-y,-z
x,-y,1/2+z
loop_
_atom_site_type_symbol
_atom_site_label
_atom_site_fract_x
_atom_site_fract_y
_atom_site_fract_z
Si Si1 0.958513 0.593237 0.833120
Si Si2 0.197287 0.031400 0.612226
Si Si3 0.594438 0.373938 0.044710
Si Si4 0.091501 0.872945 0.969081
Si Si5 0.777432 0.480083 0.939134
Si Si6 0.717676 0.249816 0.393018
Si Si7 0.412916 0.906370 0.854268
Si Si8 0.000000 0.019436 0.250000
O O1 0.855509 0.504891 0.861964
O O2 0.790431 0.672715 0.843585
O O3 0.000000 0.587112 0.750000
O O4 0.192377 0.615058 0.888970
O O5 0.163221 0.111513 0.556456
O O6 0.080910 0.035683 0.684898
O O7 0.453035 0.996972 0.635567
O O8 0.076552 0.950744 0.564436
O O9 0.415980 0.449957 0.053135
O O10 0.453302 0.288873 0.055972
O O11 0.682682 0.390453 0.966887
O O12 0.303944 0.885175 0.926919
O O13 0.946034 0.788115 0.942755
O O14 0.000000 0.500000 0.000000
O O15 0.584900 0.171483 0.346800
O O16 0.206196 0.919811 0.787510
#
# Coordination Sequence:
#
# PCOD9228364 Si02
#       8
#     4   4   4   4   4   4   4   2
#     4  10  20  34  47  76 113 144 173 205 251 318
#     4   9  18  33  51  67  95 129 175 221 261 309
#     4   9  17  33  50  73 103 137 173 213 246 300
#     4   9  18  33  49  69  95 133 177 218 255 311
#     4   8  16  31  54  70  98 136 175 208 246 293
#     4  10  20  33  46  72 107 139 178 209 266 313
#     4  10  19  34  47  69 101 142 175 215 268 317
#     4  10  20  34  48  74 100 132 178 218 270 314
#
# _framework density 18.003475999999999
#
# number of rings (size 3 to 8) (size 9 to 14) (size 15 to 20)
#    0.000    2.667    0.000    1.600    0.000    3.200 
#   28.800    0.000    0.000    0.000    0.000    0.000 
#  142.000    0.000    0.000    0.000    0.000    0.000 
#
# Total GULP energy -167068.876214 kJ/mol
# GULP energy per Si atom -5568.962540 kJ/mol
# Density = 1.796250 g / cm^3
# Si number density = 18.003476 Si / 1000 Ang^3
#
#
#
# Elastic Constant Matrix: (Units=GPa)
#
#
# Indices 1 2 3 4 5 6 
#
# 1 90.4589 18.3650 48.9210 0.0000 -5.0812 0.0000
# 2 18.3650 29.0224 42.2221 0.0000 -14.4410 0.0000
# 3 48.9210 42.2221 122.4087 0.0000 -23.6516 0.0000
# 4 0.0000 0.0000 0.0000 14.9497 0.0000 -1.2588
# 5 -5.0812 -14.4410 -23.6516 0.0000 33.2640 0.0000
# 6 0.0000 0.0000 0.0000 -1.2588 0.0000 10.3307
#
#
#
# Elastic Compliance Matrix: (Units=1/GPa)
#
#
# Indices 1 2 3 4 5 6 
#
# 1 0.014330 -0.002681 -0.005337 0.000000 -0.002770 0.000000
# 2 -0.002681 0.076936 -0.022132 0.000000 0.017254 0.000000
# 3 -0.005337 -0.022132 0.018458 0.000000 0.002701 0.000000
# 4 0.000000 0.000000 0.000000 0.067584 0.000000 0.008235
# 5 -0.002770 0.017254 0.002701 0.000000 0.039050 0.000000
# 6 0.000000 0.000000 0.000000 0.008235 0.000000 0.097803
#
#
# Mechanical properties :
#
#
# Convention : Reuss Voigt Hill
#
# Bulk Modulus (GPa) = 20.23348 51.21180 35.72264
# Shear Modulus (GPa) = 12.78980 20.53434 16.66207
#
# Velocity S-wave (km/s) = 2.66824 3.38091 3.04549
# Velocity P-wave (km/s) = 4.55584 6.61422 5.67907
#
# Compressibility (1/GPa) = 0.04942303
#
# Stress axis : x y z
#
# Youngs Moduli (GPa) = 69.78358 12.99788 54.17653
#
# Poissons Ratio (x) = 0.03485 0.28916
# Poissons Ratio (y) = 0.18710 1.19902
# Poissons Ratio (z) = 0.37247 0.28767
#
# Static dielectric constant tensor:
#      x y z
#    x 1.667240 0.000000 -0.008600 
#    y 0.000000 1.631930 0.000000 
#    z -0.008600 0.000000 1.625050 
# 
# From -- ./inp_files/61786.got.cif
#   From: 2010.05.17/outbox.cif.g08.bks.cpg/sg13_31_cif.got.tgz:61786.got - 2010.06.03 16:44:36.
