data_PCOD9228470
_publ_section_title
;
Structure prediction by ZEFSAII (Michael W. Deem and Ramdas Pophale) SiO2 
 PCOD9228470
Probable space group: P 2/C
;
_chemical_formula_sum "Si O2"
_cell_formula_units_Z 30
_cell_length_a 11.650129
_cell_length_b 8.519635
_cell_length_c 19.176838
_cell_angle_alpha 90.000000
_cell_angle_beta 130.030296
_cell_angle_gamma 90.000000
_cell_volume 1457.437351
_symmetry_space_group_name_H-M "P 2/C"
_symmetry_group_IT_number 13
_symmetry_cell_setting 'monoclinic'
loop_
_space_group_symop_operation_xyz
x,y,z
-x,y,1/2-z
-x,-y,-z
x,-y,1/2+z
loop_
_atom_site_type_symbol
_atom_site_label
_atom_site_fract_x
_atom_site_fract_y
_atom_site_fract_z
Si Si1 0.449760 0.781229 0.517175
Si Si2 0.249394 0.993860 0.526410
Si Si3 0.464627 0.795413 0.356851
Si Si4 0.220842 0.737679 0.630566
Si Si5 0.717445 0.074779 0.209576
Si Si6 0.000000 0.218472 0.250000
Si Si7 0.618046 0.505920 0.905817
Si Si8 0.906743 0.310588 0.069312
O O1 0.307177 0.886313 0.484935
O O2 0.467944 0.770139 0.441919
O O3 0.592277 0.870794 0.605386
O O4 0.435541 0.616460 0.551636
O O5 0.193507 0.876852 0.564100
O O6 0.397089 0.090128 0.609292
O O7 0.133914 0.127572 0.459660
O O8 0.495243 0.624600 0.338383
O O9 0.316989 0.895567 0.283339
O O10 0.292665 0.815792 0.726738
O O11 0.331989 0.617562 0.637080
O O12 0.063662 0.659550 0.591805
O O13 0.875602 0.110201 0.236955
O O14 0.929724 0.323573 0.161207
O O15 0.767902 0.413179 0.988878
#
# Coordination Sequence:
#
# PCOD9228470 Si02
#       8
#     4   4   4   4   4   2   4   4
#     4  10  19  34  58  85 112 145 185 231 280 327
#     4   9  18  32  54  80 108 147 190 228 264 319
#     4  10  19  34  57  82 109 142 186 231 272 324
#     4  10  21  35  55  82 116 155 185 227 279 328
#     4  10  20  36  57  83 110 142 188 233 277 330
#     4  10  20  34  60  84 106 140 182 240 290 328
#     4  10  21  35  56  83 114 152 184 223 279 337
#     4  10  19  36  58  82 112 147 191 229 275 337
#
# _framework density 20.584076
#
# number of rings (size 3 to 8) (size 9 to 14) (size 15 to 20)
#    0.000    2.133    0.000    5.200    0.000    4.800 
#    0.000    5.333    0.000   25.600    0.000    0.000 
#    0.000    0.000    0.000    0.000    0.000    0.000 
#
# Total GULP energy -167627.847248 kJ/mol
# GULP energy per Si atom -5587.594908 kJ/mol
# Density = 2.053723 g / cm^3
# Si number density = 20.584076 Si / 1000 Ang^3
#
#
#
# Elastic Constant Matrix: (Units=GPa)
#
#
# Indices 1 2 3 4 5 6 
#
# 1 77.2296 35.3249 27.7620 0.0000 -12.6075 0.0000
# 2 35.3249 109.1699 14.1335 0.0000 -10.2431 0.0000
# 3 27.7620 14.1335 56.4553 0.0000 -15.7428 0.0000
# 4 0.0000 0.0000 0.0000 20.9451 0.0000 5.7690
# 5 -12.6075 -10.2431 -15.7428 0.0000 22.0133 0.0000
# 6 0.0000 0.0000 0.0000 5.7690 0.0000 23.7402
#
#
#
# Elastic Compliance Matrix: (Units=1/GPa)
#
#
# Indices 1 2 3 4 5 6 
#
# 1 0.018060 -0.004653 -0.006790 0.000000 0.003323 0.000000
# 2 -0.004653 0.010872 0.000292 0.000000 0.002603 0.000000
# 3 -0.006790 0.000292 0.024897 0.000000 0.014053 0.000000
# 4 0.000000 0.000000 0.000000 0.051169 0.000000 -0.012434
# 5 0.003323 0.002603 0.014053 0.000000 0.058591 0.000000
# 6 0.000000 0.000000 0.000000 -0.012434 0.000000 0.045144
#
#
# Mechanical properties :
#
#
# Convention : Reuss Voigt Hill
#
# Bulk Modulus (GPa) = 31.71731 44.14394 37.93062
# Shear Modulus (GPa) = 20.70024 24.38202 22.54113
#
# Velocity S-wave (km/s) = 3.17463 3.44540 3.31278
# Velocity P-wave (km/s) = 5.37399 6.10901 5.75325
#
# Compressibility (1/GPa) = 0.03152853
#
# Stress axis : x y z
#
# Youngs Moduli (GPa) = 55.37175 91.97897 40.16482
#
# Poissons Ratio (x) = 0.42798 0.27270
# Poissons Ratio (y) = 0.25764 -0.01174
# Poissons Ratio (z) = 0.37595 -0.02687
#
# Static dielectric constant tensor:
#      x y z
#    x 1.737470 0.000000 0.000480 
#    y 0.000000 1.744580 0.000000 
#    z 0.000480 0.000000 1.737640 
# 
# From -- ./inp_files/66322.got.cif
#   From: 2010.05.17/outbox.cif.g08.bks.cpg/sg13_34_cif.got.tgz:66322.got - 2010.06.03 16:44:36.
