data_PCOD9228570
_publ_section_title
;
Structure prediction by ZEFSAII (Michael W. Deem and Ramdas Pophale) SiO2 
 PCOD9228570
Probable space group: P 2/C
;
_chemical_formula_sum "Si O2"
_cell_formula_units_Z 26
_cell_length_a 14.877411
_cell_length_b 16.730529
_cell_length_c 5.675646
_cell_angle_alpha 90.000000
_cell_angle_beta 60.861814
_cell_angle_gamma 90.000000
_cell_volume 1233.926636
_symmetry_space_group_name_H-M "P 2/C"
_symmetry_group_IT_number 13
_symmetry_cell_setting 'monoclinic'
loop_
_space_group_symop_operation_xyz
x,y,z
-x,y,1/2-z
-x,-y,-z
x,-y,1/2+z
loop_
_atom_site_type_symbol
_atom_site_label
_atom_site_fract_x
_atom_site_fract_y
_atom_site_fract_z
Si Si1 0.894655 0.830216 0.818970
Si Si2 0.618125 0.320250 0.672217
Si Si3 0.905790 0.327698 0.023284
Si Si4 0.500000 0.046523 0.750000
Si Si5 0.779223 0.453957 0.413861
Si Si6 0.309907 0.152573 0.133547
Si Si7 0.255857 0.247920 0.605364
O O1 0.932191 0.757253 0.605437
O O2 0.803621 0.875334 0.797890
O O3 0.000000 0.874255 0.750000
O O4 0.830672 0.788678 0.111131
O O5 0.500000 0.322045 0.750000
O O6 0.674353 0.402426 0.539325
O O7 0.668852 0.243262 0.481364
O O8 0.652326 0.298532 0.894565
O O9 0.809618 0.307317 0.976379
O O10 0.000000 0.358877 0.750000
O O11 0.869594 0.388596 0.268901
O O12 0.601738 0.100283 0.592102
O O13 0.500000 0.000000 0.500000
O O14 0.785697 0.495230 0.662216
O O15 0.305816 0.170184 0.416087
#
# Coordination Sequence:
#
# PCOD9228570 Si02
#       7
#     4   4   4   2   4   4   4
#     4  10  19  34  68 103 132 171 234 298 335 397
#     4  11  23  41  67  92 122 177 236 291 338 415
#     4  11  21  37  61  91 126 179 228 289 361 414
#     4  12  30  50  76 114 158 184 218 276 342 422
#     4  12  27  44  59  88 134 180 235 297 362 416
#     4  10  23  42  70 106 134 185 228 273 344 410
#     4  10  19  38  66  97 134 162 235 290 333 406
#
# _framework density 21.070944000000001
#
# number of rings (size 3 to 8) (size 9 to 14) (size 15 to 20)
#    0.000    1.231    6.923    0.923    4.308    1.846 
#    0.000    0.000    0.000    0.923    0.000    0.000 
#    0.000    0.000    0.000    0.000    0.000    0.000 
#
# Total GULP energy -144922.594497 kJ/mol
# GULP energy per Si atom -5573.945942 kJ/mol
# Density = 2.102299 g / cm^3
# Si number density = 21.070944 Si / 1000 Ang^3
#
#
#
# Elastic Constant Matrix: (Units=GPa)
#
#
# Indices 1 2 3 4 5 6 
#
# 1 123.3044 20.2447 50.0477 0.0000 -22.5262 0.0000
# 2 20.2447 30.1879 34.6508 0.0000 -0.7373 0.0000
# 3 50.0477 34.6508 104.9076 0.0000 -2.3685 0.0000
# 4 0.0000 0.0000 0.0000 -34.1456 0.0000 84.1976
# 5 -22.5262 -0.7373 -2.3685 0.0000 38.9377 0.0000
# 6 0.0000 0.0000 0.0000 84.1976 0.0000 -94.7576
#
#
#
# Elastic Compliance Matrix: (Units=1/GPa)
#
#
# Indices 1 2 3 4 5 6 
#
# 1 0.011506 -0.002295 -0.004588 0.000000 0.006334 0.000000
# 2 -0.002295 0.053812 -0.016709 0.000000 -0.001325 0.000000
# 3 -0.004588 -0.016709 0.017196 0.000000 -0.001925 0.000000
# 4 0.000000 0.000000 0.000000 0.024589 0.000000 0.021849
# 5 0.006334 -0.001325 -0.001925 0.000000 0.029204 0.000000
# 6 0.000000 0.000000 0.000000 0.021849 0.000000 0.008860
#
#
# Mechanical properties :
#
#
# Convention : Reuss Voigt Hill
#
# Bulk Modulus (GPa) = 28.30451 52.03181 40.16816
# Shear Modulus (GPa) = 24.49427 -7.76265 8.36581
#
# Velocity S-wave (km/s) = 3.41320 -1.92147 1.99472
# Velocity P-wave (km/s) = 5.38473 4.45247 4.94064
#
# Compressibility (1/GPa) = 0.03533006
#
# Stress axis : x y z
#
# Youngs Moduli (GPa) = 86.90909 18.58328 58.15140
#
# Poissons Ratio (x) = 0.04265 0.26681
# Poissons Ratio (y) = 0.19948 0.97165
# Poissons Ratio (z) = 0.39875 0.31051
#
# Static dielectric constant tensor:
#      x y z
#    x 1.848730 0.000000 0.110690 
#    y 0.000000 1.760310 0.000000 
#    z 0.110690 0.000000 1.821240 
# 
# From -- ./inp_files/5190.got.cif
#   From: 2010.05.17/outbox.cif.g08.bks.cpg/sg13_3_cif.got.tgz:5190.got - 2010.06.03 16:44:36.
