data_PCOD9228375
_publ_section_title
;
Structure prediction by ZEFSAII (Michael W. Deem and Ramdas Pophale) SiO2 
 PCOD9228375
Probable space group: P 2/C
;
_chemical_formula_sum "Si O2"
_cell_formula_units_Z 32
_cell_length_a 10.942064
_cell_length_b 9.453258
_cell_length_c 21.276031
_cell_angle_alpha 90.000000
_cell_angle_beta 56.069826
_cell_angle_gamma 90.000000
_cell_volume 1826.005658
_symmetry_space_group_name_H-M "P 2/C"
_symmetry_group_IT_number 13
_symmetry_cell_setting 'monoclinic'
loop_
_space_group_symop_operation_xyz
x,y,z
-x,y,1/2-z
-x,-y,-z
x,-y,1/2+z
loop_
_atom_site_type_symbol
_atom_site_label
_atom_site_fract_x
_atom_site_fract_y
_atom_site_fract_z
Si Si1 0.091852 0.129467 0.160155
Si Si2 0.477915 0.476343 0.580364
Si Si3 0.818678 0.244128 0.175176
Si Si4 0.501558 0.156482 0.577198
Si Si5 0.344319 0.729734 0.905622
Si Si6 0.423658 0.033828 0.209722
Si Si7 0.824244 0.404286 0.297872
Si Si8 0.713310 0.925184 0.470328
O O1 0.194108 0.259291 0.155375
O O2 0.166783 0.992049 0.110138
O O3 0.000000 0.096890 0.250000
O O4 0.986594 0.196918 0.137169
O O5 0.500000 0.500000 0.500000
O O6 0.529451 0.319129 0.582673
O O7 0.570428 0.593654 0.592164
O O8 0.302559 0.490645 0.643921
O O9 0.760581 0.291276 0.124314
O O10 0.724358 0.108714 0.225098
O O11 0.792860 0.363651 0.234908
O O12 0.646117 0.061557 0.525445
O O13 0.410929 0.079854 0.658529
O O14 0.412326 0.141897 0.537824
O O15 0.470527 0.840524 0.846556
O O16 0.253622 0.807784 0.987068
O O17 0.500000 0.971711 0.250000
O O18 0.000000 0.441144 0.250000
#
# Coordination Sequence:
#
# PCOD9228375 Si02
#       8
#     4   4   4   4   4   4   4   4
#     4   9  18  31  56  80 104 139 186 220 273 335
#     4  12  21  34  54  85 106 145 186 235 268 337
#     4   9  17  34  56  80 103 144 179 222 266 343
#     4  10  20  32  54  76 110 136 181 230 273 313
#     4  10  20  32  56  79 110 137 179 223 277 317
#     4   9  17  33  52  77 105 133 171 224 270 315
#     4   9  19  35  55  79 108 142 182 223 276 329
#     4  10  19  34  52  81 105 144 173 230 276 320
#
# _framework density 17.52459
#
# number of rings (size 3 to 8) (size 9 to 14) (size 15 to 20)
#    0.000    2.500    2.500    2.250    1.750    0.500 
#    2.250    1.875    0.000    6.750    0.000    0.000 
#    0.000    0.000    0.000    0.000    0.000    0.000 
#
# Total GULP energy -178240.970915 kJ/mol
# GULP energy per Si atom -5570.030341 kJ/mol
# Density = 1.748470 g / cm^3
# Si number density = 17.524590 Si / 1000 Ang^3
#
#
#
# Elastic Constant Matrix: (Units=GPa)
#
#
# Indices 1 2 3 4 5 6 
#
# 1 76.2715 26.4907 28.0190 0.0000 27.7671 0.0000
# 2 26.4907 82.6675 32.4034 0.0000 10.9020 0.0000
# 3 28.0190 32.4034 57.5739 0.0000 16.7301 0.0000
# 4 0.0000 0.0000 0.0000 20.6728 0.0000 0.9862
# 5 27.7671 10.9020 16.7301 0.0000 30.6404 0.0000
# 6 0.0000 0.0000 0.0000 0.9862 0.0000 16.5266
#
#
#
# Elastic Compliance Matrix: (Units=1/GPa)
#
#
# Indices 1 2 3 4 5 6 
#
# 1 0.021614 -0.003221 -0.003978 0.000000 -0.016269 0.000000
# 2 -0.003221 0.016021 -0.007894 0.000000 0.001529 0.000000
# 3 -0.003978 -0.007894 0.026011 0.000000 -0.007789 0.000000
# 4 0.000000 0.000000 0.000000 0.048511 0.000000 -0.002895
# 5 -0.016269 0.001529 -0.007789 0.000000 0.051089 0.000000
# 6 0.000000 0.000000 0.000000 -0.002895 0.000000 0.060681
#
#
# Mechanical properties :
#
#
# Convention : Reuss Voigt Hill
#
# Bulk Modulus (GPa) = 29.88643 43.37100 36.62871
# Shear Modulus (GPa) = 18.84893 22.20794 20.52843
#
# Velocity S-wave (km/s) = 3.28315 3.56370 3.42630
# Velocity P-wave (km/s) = 5.60920 6.46031 6.04974
#
# Compressibility (1/GPa) = 0.03346000
#
# Stress axis : x y z
#
# Youngs Moduli (GPa) = 46.26602 62.41654 38.44541
#
# Poissons Ratio (x) = 0.20107 0.15295
# Poissons Ratio (y) = 0.14904 0.30347
# Poissons Ratio (z) = 0.18406 0.49269
#
# Static dielectric constant tensor:
#      x y z
#    x 1.619940 0.000000 -0.013690 
#    y 0.000000 1.591590 0.000000 
#    z -0.013690 0.000000 1.623490 
# 
# From -- ./inp_files/78055.got.cif
#   From: 2010.05.17/outbox.cif.g08.bks.cpg/sg13_40_cif.got.tgz:78055.got - 2010.06.03 16:44:36.
