data_PCOD9228586
_publ_section_title
;
Structure prediction by ZEFSAII (Michael W. Deem and Ramdas Pophale) SiO2 
 PCOD9228586
Probable space group: P 2/C
;
_chemical_formula_sum "Si O2"
_cell_formula_units_Z 24
_cell_length_a 8.709896
_cell_length_b 7.821895
_cell_length_c 20.681505
_cell_angle_alpha 90.000000
_cell_angle_beta 129.118938
_cell_angle_gamma 90.000000
_cell_volume 1093.145788
_symmetry_space_group_name_H-M "P 2/C"
_symmetry_group_IT_number 13
_symmetry_cell_setting 'monoclinic'
loop_
_space_group_symop_operation_xyz
x,y,z
-x,y,1/2-z
-x,-y,-z
x,-y,1/2+z
loop_
_atom_site_type_symbol
_atom_site_label
_atom_site_fract_x
_atom_site_fract_y
_atom_site_fract_z
Si Si1 0.719214 0.290456 0.574525
Si Si2 0.305156 0.423769 0.514491
Si Si3 0.878858 0.253523 0.160093
Si Si4 0.411776 0.995393 0.384161
Si Si5 0.890450 0.894069 0.304521
Si Si6 0.187735 0.882900 0.068274
O O1 0.541962 0.387166 0.567562
O O2 0.723203 0.374598 0.504600
O O3 0.634376 0.100966 0.560963
O O4 0.945530 0.256621 0.656439
O O5 0.182889 0.356542 0.419034
O O6 0.212160 0.311709 0.547237
O O7 0.000000 0.341829 0.250000
O O8 0.675089 0.183340 0.135486
O O9 0.001666 0.080601 0.174328
O O10 0.273696 0.895713 0.294645
O O11 0.629819 0.975719 0.417463
O O12 0.799079 0.882030 0.351142
O O13 0.000000 0.000000 0.000000
#
# Coordination Sequence:
#
# PCOD9228586 Si02
#       6
#     4   4   4   4   4   4
#     4   9  20  34  56  76 107 140 181 227 265 319
#     4  10  20  35  51  83 109 138 180 222 275 323
#     4   9  18  32  53  76 103 134 183 228 267 312
#     4   9  20  35  55  80 105 143 185 225 263 321
#     4  10  19  35  54  80 105 144 182 220 269 330
#     4  11  21  32  55  82 112 143 176 224 279 320
#
# _framework density 21.954985000000001
#
# number of rings (size 3 to 8) (size 9 to 14) (size 15 to 20)
#    0.000    2.333    1.667    2.000    2.333    4.000 
#    0.000    0.000    0.000    0.000    4.333    0.000 
#    0.000    0.000    0.000    0.000    0.000    0.000 
#
# Total GULP energy -133671.991298 kJ/mol
# GULP energy per Si atom -5569.666304 kJ/mol
# Density = 2.190501 g / cm^3
# Si number density = 21.954985 Si / 1000 Ang^3
#
#
#
# Elastic Constant Matrix: (Units=GPa)
#
#
# Indices 1 2 3 4 5 6 
#
# 1 112.1308 26.3743 29.6629 0.0000 -1.7340 0.0000
# 2 26.3743 58.1084 48.3415 0.0000 3.5956 0.0000
# 3 29.6629 48.3415 71.5352 0.0000 -3.7379 0.0000
# 4 0.0000 0.0000 0.0000 35.9175 0.0000 -5.3869
# 5 -1.7340 3.5956 -3.7379 0.0000 50.6700 0.0000
# 6 0.0000 0.0000 0.0000 -5.3869 0.0000 26.8586
#
#
#
# Elastic Compliance Matrix: (Units=1/GPa)
#
#
# Indices 1 2 3 4 5 6 
#
# 1 0.010184 -0.002619 -0.002435 0.000000 0.000355 0.000000
# 2 -0.002619 0.041162 -0.026992 0.000000 -0.005002 0.000000
# 3 -0.002435 -0.026992 0.033454 0.000000 0.004300 0.000000
# 4 0.000000 0.000000 0.000000 0.028705 0.000000 0.005757
# 5 0.000355 -0.005002 0.004300 0.000000 0.020420 0.000000
# 6 0.000000 0.000000 0.000000 0.005757 0.000000 0.038387
#
#
# Mechanical properties :
#
#
# Convention : Reuss Voigt Hill
#
# Bulk Modulus (GPa) = 48.28733 50.05910 49.17321
# Shear Modulus (GPa) = 20.55034 31.84891 26.19963
#
# Velocity S-wave (km/s) = 3.06277 3.81287 3.45821
# Velocity P-wave (km/s) = 5.87783 6.49879 6.19609
#
# Compressibility (1/GPa) = 0.02070937
#
# Stress axis : x y z
#
# Youngs Moduli (GPa) = 98.19679 24.29400 29.89205
#
# Poissons Ratio (x) = 0.06362 0.07277
# Poissons Ratio (y) = 0.25716 0.80684
# Poissons Ratio (z) = 0.23906 0.65574
#
# Static dielectric constant tensor:
#      x y z
#    x 1.789830 0.000000 0.030580 
#    y 0.000000 1.922550 0.000000 
#    z 0.030580 0.000000 1.895850 
# 
# From -- ./inp_files/63283.got.cif
#   From: 2010.05.17/outbox.cif.g08.bks.cpg/sg13_32_cif.got.tgz:63283.got - 2010.06.03 16:44:36.
