data_PCOD9228268
_publ_section_title
;
Structure prediction by ZEFSAII (Michael W. Deem and Ramdas Pophale) SiO2 
 PCOD9228268
Probable space group: P 2/C
;
_chemical_formula_sum "Si O2"
_cell_formula_units_Z 24
_cell_length_a 19.486656
_cell_length_b 8.947866
_cell_length_c 8.211695
_cell_angle_alpha 90.000000
_cell_angle_beta 52.174185
_cell_angle_gamma 90.000000
_cell_volume 1130.967302
_symmetry_space_group_name_H-M "P 2/C"
_symmetry_group_IT_number 13
_symmetry_cell_setting 'monoclinic'
loop_
_space_group_symop_operation_xyz
x,y,z
-x,y,1/2-z
-x,-y,-z
x,-y,1/2+z
loop_
_atom_site_type_symbol
_atom_site_label
_atom_site_fract_x
_atom_site_fract_y
_atom_site_fract_z
Si Si1 0.160826 0.529681 0.252908
Si Si2 0.907416 0.285464 0.955860
Si Si3 0.229925 0.076886 0.178600
Si Si4 0.742246 0.224349 0.712246
Si Si5 0.593131 0.565056 0.312915
Si Si6 0.326798 0.338124 0.112829
O O1 0.086126 0.413618 0.414391
O O2 0.142498 0.625153 0.117511
O O3 0.185591 0.651395 0.353983
O O4 0.244095 0.417590 0.145299
O O5 0.000000 0.240349 0.750000
O O6 0.854963 0.144804 0.106995
O O7 0.307832 0.165416 0.155133
O O8 0.246662 0.902429 0.167793
O O9 0.236361 0.136349 0.985135
O O10 0.648218 0.308544 0.834563
O O11 0.500000 0.500000 0.500000
O O12 0.653379 0.418732 0.248781
O O13 0.597693 0.626045 0.124570
#
# Coordination Sequence:
#
# PCOD9228268 Si02
#       6
#     4   4   4   4   4   4
#     4  10  19  35  56  80 109 151 197 233 285 344
#     4  11  21  35  56  85 116 149 194 251 291 328
#     4  10  20  37  55  79 111 150 193 228 285 355
#     4  10  21  37  59  81 109 151 193 236 283 351
#     4  10  19  33  55  84 108 136 182 232 280 328
#     4   9  18  33  55  77 107 145 181 226 275 342
#
# _framework density 21.220773000000001
#
# number of rings (size 3 to 8) (size 9 to 14) (size 15 to 20)
#    0.000    2.000    0.000    7.000    0.000    1.333 
#    0.000    5.000    0.000    6.000    0.000    0.000 
#    0.000    0.000    0.000    0.000    0.000    0.000 
#
# Total GULP energy -133643.973978 kJ/mol
# GULP energy per Si atom -5568.498916 kJ/mol
# Density = 2.117247 g / cm^3
# Si number density = 21.220773 Si / 1000 Ang^3
#
#
#
# Elastic Constant Matrix: (Units=GPa)
#
#
# Indices 1 2 3 4 5 6 
#
# 1 38.4867 2.8761 9.6487 0.0000 -6.9896 0.0000
# 2 2.8761 95.7854 11.0973 0.0000 -4.0282 0.0000
# 3 9.6487 11.0973 87.9217 0.0000 -22.9798 0.0000
# 4 0.0000 0.0000 0.0000 30.4386 0.0000 6.0511
# 5 -6.9896 -4.0282 -22.9798 0.0000 34.7232 0.0000
# 6 0.0000 0.0000 0.0000 6.0511 0.0000 26.1464
#
#
#
# Elastic Compliance Matrix: (Units=1/GPa)
#
#
# Indices 1 2 3 4 5 6 
#
# 1 0.027241 -0.000428 -0.001832 0.000000 0.004221 0.000000
# 2 -0.000428 0.010607 -0.001200 0.000000 0.000350 0.000000
# 3 -0.001832 -0.001200 0.014018 0.000000 0.008769 0.000000
# 4 0.000000 0.000000 0.000000 0.034437 0.000000 -0.007970
# 5 0.004221 0.000350 0.008769 0.000000 0.035493 0.000000
# 6 0.000000 0.000000 0.000000 -0.007970 0.000000 0.040091
#
#
# Mechanical properties :
#
#
# Convention : Reuss Voigt Hill
#
# Bulk Modulus (GPa) = 22.24957 29.93754 26.09356
# Shear Modulus (GPa) = 27.20500 31.49975 29.35237
#
# Velocity S-wave (km/s) = 3.58439 3.85695 3.72316
# Velocity P-wave (km/s) = 5.25718 5.82864 5.55027
#
# Compressibility (1/GPa) = 0.04494469
#
# Stress axis : x y z
#
# Youngs Moduli (GPa) = 36.70942 94.28059 71.33530
#
# Poissons Ratio (x) = 0.04037 0.13070
# Poissons Ratio (y) = 0.01572 0.08562
# Poissons Ratio (z) = 0.06726 0.11317
#
# Static dielectric constant tensor:
#      x y z
#    x 1.836670 0.000000 0.006120 
#    y 0.000000 1.764930 0.000000 
#    z 0.006120 0.000000 1.908060 
# 
# From -- ./inp_files/18114.got.cif
#   From: 2010.05.17/outbox.cif.g08.bks.cpg/sg13_10_cif.got.tgz:18114.got - 2010.06.03 16:44:36.
