data_PCOD9228333
_publ_section_title
;
Structure prediction by ZEFSAII (Michael W. Deem and Ramdas Pophale) SiO2 
 PCOD9228333
Probable space group: P 2/C
;
_chemical_formula_sum "Si O2"
_cell_formula_units_Z 24
_cell_length_a 9.123942
_cell_length_b 9.089284
_cell_length_c 24.155504
_cell_angle_alpha 90.000000
_cell_angle_beta 150.084014
_cell_angle_gamma 90.000000
_cell_volume 999.064276
_symmetry_space_group_name_H-M "P 2/C"
_symmetry_group_IT_number 13
_symmetry_cell_setting 'monoclinic'
loop_
_space_group_symop_operation_xyz
x,y,z
-x,y,1/2-z
-x,-y,-z
x,-y,1/2+z
loop_
_atom_site_type_symbol
_atom_site_label
_atom_site_fract_x
_atom_site_fract_y
_atom_site_fract_z
Si Si1 0.178222 0.170685 0.387276
Si Si2 0.281161 0.322526 0.127724
Si Si3 0.844252 0.513032 0.142917
Si Si4 0.560760 0.011773 0.212257
Si Si5 0.336310 0.088989 0.866309
Si Si6 0.775468 0.483956 0.506244
O O1 0.097484 0.337888 0.347383
O O2 0.448606 0.158057 0.518432
O O3 0.889786 0.082780 0.314678
O O4 0.296837 0.081791 0.372787
O O5 0.500000 0.368185 0.250000
O O6 0.338150 0.149799 0.139626
O O7 0.313463 0.390768 0.076756
O O8 0.970591 0.382732 0.047537
O O9 0.513135 0.532369 0.056064
O O10 0.000000 0.557314 0.250000
O O11 0.928641 0.588425 0.111590
O O12 0.500000 0.932788 0.250000
O O13 0.519545 0.909644 0.146339
O O14 0.000000 0.141133 0.750000
#
# Coordination Sequence:
#
# PCOD9228333 Si02
#       6
#     4   4   4   4   4   4
#     4  10  19  34  58  81 107 148 190 230 279 335
#     4  10  19  35  54  78 111 146 185 225 271 334
#     4  11  20  35  56  81 109 142 189 234 275 336
#     4  10  19  33  58  84 108 146 191 231 275 333
#     4   9  19  35  54  82 114 143 184 236 283 330
#     4  10  21  32  53  83 108 138 184 232 277 322
#
# _framework density 24.022478
#
# number of rings (size 3 to 8) (size 9 to 14) (size 15 to 20)
#    0.000    2.000    0.000    6.500    0.000    0.667 
#    0.000    5.000    0.000    3.000    0.000    0.000 
#    0.000    0.000    0.000    0.000    0.000    0.000 
#
# Total GULP energy -133957.133835 kJ/mol
# GULP energy per Si atom -5581.547243 kJ/mol
# Density = 2.396780 g / cm^3
# Si number density = 24.022478 Si / 1000 Ang^3
#
#
#
# Elastic Constant Matrix: (Units=GPa)
#
#
# Indices 1 2 3 4 5 6 
#
# 1 181.5302 18.2062 35.8337 0.0000 -46.6355 0.0000
# 2 18.2062 45.5096 12.6844 0.0000 -21.7119 0.0000
# 3 35.8337 12.6844 97.0365 0.0000 -39.7304 0.0000
# 4 0.0000 0.0000 0.0000 6.7844 0.0000 12.7329
# 5 -46.6355 -21.7119 -39.7304 0.0000 56.2710 0.0000
# 6 0.0000 0.0000 0.0000 12.7329 0.0000 -8.1629
#
#
#
# Elastic Compliance Matrix: (Units=1/GPa)
#
#
# Indices 1 2 3 4 5 6 
#
# 1 0.007005 -0.000061 -0.000297 0.000000 0.005572 0.000000
# 2 -0.000061 0.027005 0.001038 0.000000 0.011102 0.000000
# 3 -0.000297 0.001038 0.014548 0.000000 0.010426 0.000000
# 4 0.000000 0.000000 0.000000 0.037529 0.000000 0.058540
# 5 0.005572 0.011102 0.010426 0.000000 0.034034 0.000000
# 6 0.000000 0.000000 0.000000 0.058540 0.000000 -0.031192
#
#
# Mechanical properties :
#
#
# Convention : Reuss Voigt Hill
#
# Bulk Modulus (GPa) = 20.03311 50.83610 35.43460
# Shear Modulus (GPa) = 47.98005 28.13532 38.05769
#
# Velocity S-wave (km/s) = 4.47396 3.42600 3.98459
# Velocity P-wave (km/s) = 5.91996 6.07107 5.99599
#
# Compressibility (1/GPa) = 0.04991736
#
# Stress axis : x y z
#
# Youngs Moduli (GPa) = 142.75497 37.03002 68.73656
#
# Poissons Ratio (x) = 0.00227 0.02045
# Poissons Ratio (y) = 0.00874 -0.07136
# Poissons Ratio (z) = 0.04247 -0.03844
#
# Static dielectric constant tensor:
#      x y z
#    x 1.948280 0.000000 -0.121850 
#    y 0.000000 1.930740 0.000000 
#    z -0.121850 0.000000 2.217860 
# 
# From -- ./inp_files/85179.got.cif
#   From: 2010.05.17/outbox.cif.g08.bks.cpg/sg13_43_cif.got.tgz:85179.got - 2010.06.03 16:44:36.
