data_PCOD9228017
_publ_section_title
;
Structure prediction by ZEFSAII (Michael W. Deem and Ramdas Pophale) SiO2 
 PCOD9228017
Probable space group: P 2/C
;
_chemical_formula_sum "Si O2"
_cell_formula_units_Z 32
_cell_length_a 18.405561
_cell_length_b 9.253674
_cell_length_c 18.755135
_cell_angle_alpha 90.000000
_cell_angle_beta 146.732769
_cell_angle_gamma 90.000000
_cell_volume 1752.247619
_symmetry_space_group_name_H-M "P 2/C"
_symmetry_group_IT_number 13
_symmetry_cell_setting 'monoclinic'
loop_
_space_group_symop_operation_xyz
x,y,z
-x,y,1/2-z
-x,-y,-z
x,-y,1/2+z
loop_
_atom_site_type_symbol
_atom_site_label
_atom_site_fract_x
_atom_site_fract_y
_atom_site_fract_z
Si Si1 0.117471 0.413370 0.057750
Si Si2 0.101715 0.983403 0.268512
Si Si3 0.886448 0.099033 0.374489
Si Si4 0.612259 0.900201 0.998302
Si Si5 0.629531 0.913778 0.185103
Si Si6 0.645295 0.574428 0.040490
Si Si7 0.944895 0.650397 0.283439
Si Si8 0.382859 0.414846 0.811122
O O1 0.120547 0.258351 0.099169
O O2 0.261266 0.489289 0.181253
O O3 0.000000 0.500000 0.000000
O O4 0.058724 0.399940 0.930294
O O5 0.253357 0.974009 0.418397
O O6 0.082254 0.820082 0.221179
O O7 0.000000 0.008068 0.250000
O O8 0.096565 0.092369 0.197546
O O9 0.755644 0.015122 0.291165
O O10 0.000000 0.000000 0.500000
O O11 0.489520 0.998421 0.877298
O O12 0.609372 0.897248 0.082820
O O13 0.610539 0.731314 0.978470
O O14 0.641658 0.753358 0.226008
O O15 0.805482 0.563722 0.167441
O O16 0.626156 0.573555 0.110249
O O17 0.533695 0.465833 0.917989
O O18 0.000000 0.648513 0.250000
#
# Coordination Sequence:
#
# PCOD9228017 Si02
#       8
#     4   4   4   4   4   4   4   4
#     4  12  22  36  57  89 117 149 192 238 290 342
#     4   9  18  34  58  85 112 146 189 239 289 341
#     4  11  20  33  56  83 113 143 188 239 285 335
#     4   8  15  29  51  76 109 141 188 227 276 335
#     4   9  17  31  51  80 109 142 185 239 280 322
#     4   9  17  32  52  84 110 148 187 235 286 334
#     4  10  20  38  59  83 117 153 194 238 285 347
#     4  10  19  31  56  83 117 144 192 239 281 338
#
# _framework density 18.262260000000001
#
# number of rings (size 3 to 8) (size 9 to 14) (size 15 to 20)
#    0.000    2.250    2.500    2.250    0.000    3.000 
#    0.000    1.250    0.000    0.750    3.250    0.000 
#    0.000    0.000    0.000    0.000    0.000    0.000 
#
# Total GULP energy -178149.121414 kJ/mol
# GULP energy per Si atom -5567.160044 kJ/mol
# Density = 1.822069 g / cm^3
# Si number density = 18.262260 Si / 1000 Ang^3
#
#
#
# Elastic Constant Matrix: (Units=GPa)
#
#
# Indices 1 2 3 4 5 6 
#
# 1 60.0925 24.0887 36.2581 0.0000 14.1511 0.0000
# 2 24.0887 106.7992 64.0214 0.0000 5.9170 0.0000
# 3 36.2581 64.0214 108.1307 0.0000 18.4864 0.0000
# 4 0.0000 0.0000 0.0000 29.4635 0.0000 6.5164
# 5 14.1511 5.9170 18.4864 0.0000 26.2376 0.0000
# 6 0.0000 0.0000 0.0000 6.5164 0.0000 11.7092
#
#
#
# Elastic Compliance Matrix: (Units=1/GPa)
#
#
# Indices 1 2 3 4 5 6 
#
# 1 0.022264 -0.001430 -0.005254 0.000000 -0.007984 0.000000
# 2 -0.001430 0.014841 -0.008945 0.000000 0.003727 0.000000
# 3 -0.005254 -0.008945 0.017596 0.000000 -0.007547 0.000000
# 4 0.000000 0.000000 0.000000 0.038704 0.000000 -0.021539
# 5 -0.007984 0.003727 -0.007547 0.000000 0.046896 0.000000
# 6 0.000000 0.000000 0.000000 -0.021539 0.000000 0.097390
#
#
# Mechanical properties :
#
#
# Convention : Reuss Voigt Hill
#
# Bulk Modulus (GPa) = 42.65429 58.19543 50.42486
# Shear Modulus (GPa) = 18.06586 23.52568 20.79577
#
# Velocity S-wave (km/s) = 3.14864 3.59306 3.37817
# Velocity P-wave (km/s) = 6.05193 7.01064 6.54885
#
# Compressibility (1/GPa) = 0.02344430
#
# Stress axis : x y z
#
# Youngs Moduli (GPa) = 44.91464 67.37867 56.83052
#
# Poissons Ratio (x) = 0.09634 0.29860
# Poissons Ratio (y) = 0.06422 0.50835
# Poissons Ratio (z) = 0.23599 0.60270
#
# Static dielectric constant tensor:
#      x y z
#    x 1.606100 0.000000 -0.011230 
#    y 0.000000 1.673370 0.000000 
#    z -0.011230 0.000000 1.672280 
# 
# From -- ./inp_files/81702.got.cif
#   From: 2010.05.17/outbox.cif.g08.bks.cpg/sg13_41_cif.got.tgz:81702.got - 2010.06.03 16:44:36.
