data_PCOD9228567
_publ_section_title
;
Structure prediction by ZEFSAII (Michael W. Deem and Ramdas Pophale) SiO2 
 PCOD9228567
Probable space group: P 2/C
;
_chemical_formula_sum "Si O2"
_cell_formula_units_Z 30
_cell_length_a 17.452527
_cell_length_b 13.503398
_cell_length_c 13.735550
_cell_angle_alpha 90.000000
_cell_angle_beta 149.013846
_cell_angle_gamma 90.000000
_cell_volume 1666.525877
_symmetry_space_group_name_H-M "P 2/C"
_symmetry_group_IT_number 13
_symmetry_cell_setting 'monoclinic'
loop_
_space_group_symop_operation_xyz
x,y,z
-x,y,1/2-z
-x,-y,-z
x,-y,1/2+z
loop_
_atom_site_type_symbol
_atom_site_label
_atom_site_fract_x
_atom_site_fract_y
_atom_site_fract_z
Si Si1 0.000000 0.940110 0.750000
Si Si2 0.281897 0.804940 0.716695
Si Si3 0.450582 0.336131 0.950925
Si Si4 0.771700 0.216359 0.669158
Si Si5 0.834584 0.354050 0.556617
Si Si6 0.030504 0.112309 0.065522
Si Si7 0.575010 0.500637 0.228910
Si Si8 0.331653 0.948446 0.592952
O O1 0.997810 0.882020 0.850009
O O2 0.834299 0.996933 0.574127
O O3 0.177868 0.733517 0.536877
O O4 0.193860 0.858640 0.706634
O O5 0.346018 0.884291 0.708544
O O6 0.402284 0.730525 0.892224
O O7 0.327791 0.261222 0.854651
O O8 0.412161 0.396426 0.813055
O O9 0.477537 0.422698 0.060066
O O10 0.788777 0.301864 0.607273
O O11 0.699073 0.126050 0.530287
O O12 0.920890 0.178990 0.881934
O O13 0.728178 0.442732 0.411073
O O14 0.000000 0.390362 0.750000
O O15 0.000000 0.000000 0.000000
O O16 0.500000 0.516223 0.250000
O O17 0.500000 0.992854 0.750000
#
# Coordination Sequence:
#
# PCOD9228567 Si02
#       8
#     2   4   4   4   4   4   4   4
#     4  12  26  44  58  88 136 168 216 272 324 358
#     4  10  20  36  60  90 122 160 207 260 311 377
#     4  10  21  38  61  90 119 157 204 255 320 367
#     4  11  20  37  62  91 124 158 212 260 309 377
#     4  10  19  34  64  94 113 151 208 256 310 375
#     4  12  23  41  63  89 130 173 210 265 324 365
#     4  10  20  38  62  89 122 153 192 262 317 375
#     4  11  20  36  66  95 117 162 219 272 306 369
#
# _framework density 18.001519999999999
#
# number of rings (size 3 to 8) (size 9 to 14) (size 15 to 20)
#    0.000    1.333    6.667    0.000    1.867    0.000 
#    4.800    4.000    0.000    0.000    0.000    0.000 
#    0.000    0.000    0.000    0.000    0.000    0.000 
#
# Total GULP energy -167047.935547 kJ/mol
# GULP energy per Si atom -5568.264518 kJ/mol
# Density = 1.796055 g / cm^3
# Si number density = 18.001520 Si / 1000 Ang^3
#
#
#
# Elastic Constant Matrix: (Units=GPa)
#
#
# Indices 1 2 3 4 5 6 
#
# 1 123.5763 42.3721 34.6993 0.0000 10.1893 0.0000
# 2 42.3721 52.3814 20.7680 0.0000 6.4640 0.0000
# 3 34.6993 20.7680 64.8703 0.0000 10.3759 0.0000
# 4 0.0000 0.0000 0.0000-9246.7010 0.0000 8943.8004
# 5 10.1893 6.4640 10.3759 0.0000 22.2410 0.0000
# 6 0.0000 0.0000 0.0000 8943.8004 0.0000-8621.6866
#
#
#
# Elastic Compliance Matrix: (Units=1/GPa)
#
#
# Indices 1 2 3 4 5 6 
#
# 1 0.011999 -0.008102 -0.003590 0.000000 -0.001468 0.000000
# 2 -0.008102 0.027569 -0.004111 0.000000 -0.002383 0.000000
# 3 -0.003590 -0.004111 0.019665 0.000000 -0.006335 0.000000
# 4 0.000000 0.000000 0.000000 0.032003 0.000000 0.033198
# 5 -0.001468 -0.002383 -0.006335 0.000000 0.049282 0.000000
# 6 0.000000 0.000000 0.000000 0.033198 0.000000 0.034323
#
#
# Mechanical properties :
#
#
# Convention : Reuss Voigt Hill
#
# Bulk Modulus (GPa) = 36.19656 48.50076 42.34866
# Shear Modulus (GPa) = 23.18522 -3559.69675 -1768.25577
#
# Velocity S-wave (km/s) = 3.59271 -44.51668 -31.37537
# Velocity P-wave (km/s) = 6.11238 51.14013 35.90231
#
# Compressibility (1/GPa) = 0.02762693
#
# Stress axis : x y z
#
# Youngs Moduli (GPa) = 83.33888 36.27324 50.85190
#
# Poissons Ratio (x) = 0.29388 0.18255
# Poissons Ratio (y) = 0.67521 0.20906
# Poissons Ratio (z) = 0.29917 0.14912
#
# Static dielectric constant tensor:
#      x y z
#    x 1.654140 0.000000 0.041760 
#    y 0.000000 1.610810 0.000000 
#    z 0.041760 0.000000 1.640970 
# 
# From -- ./inp_files/55705.got.cif
#   From: 2010.05.17/outbox.cif.g08.bks.cpg/sg13_28_cif.got.tgz:55705.got - 2010.06.03 16:44:36.
