data_PCOD9228660
_publ_section_title
;
Structure prediction by ZEFSAII (Michael W. Deem and Ramdas Pophale) SiO2 
 PCOD9228660
Probable space group: P 2/C
;
_chemical_formula_sum "Si O2"
_cell_formula_units_Z 22
_cell_length_a 5.344418
_cell_length_b 7.016537
_cell_length_c 24.669336
_cell_angle_alpha 90.000000
_cell_angle_beta 80.765033
_cell_angle_gamma 90.000000
_cell_volume 913.092539
_symmetry_space_group_name_H-M "P 2/C"
_symmetry_group_IT_number 13
_symmetry_cell_setting 'monoclinic'
loop_
_space_group_symop_operation_xyz
x,y,z
-x,y,1/2-z
-x,-y,-z
x,-y,1/2+z
loop_
_atom_site_type_symbol
_atom_site_label
_atom_site_fract_x
_atom_site_fract_y
_atom_site_fract_z
Si Si1 0.563134 0.824486 0.923901
Si Si2 0.000000 0.730781 0.750000
Si Si3 0.543713 0.277965 0.953257
Si Si4 0.767001 0.374191 0.731940
Si Si5 0.107987 0.125458 0.362996
Si Si6 0.091206 0.675583 0.391648
O O1 0.361965 0.796433 0.882569
O O2 0.853710 0.787863 0.898247
O O3 0.550740 0.050966 0.938660
O O4 0.485585 0.715205 0.981175
O O5 0.774384 0.573193 0.765405
O O6 0.924620 0.844388 0.699693
O O7 0.300880 0.357395 0.930056
O O8 0.807990 0.360195 0.922177
O O9 0.500000 0.277337 0.750000
O O10 0.830853 0.419585 0.667780
O O11 0.000000 0.261330 0.750000
O O12 0.103697 0.900518 0.376110
#
# Coordination Sequence:
#
# PCOD9228660 Si02
#       6
#     4   2   4   4   4   4
#     4   9  18  33  54  86 116 139 174 226 285 333
#     4  10  26  38  58  76 116 156 186 228 282 326
#     4   9  17  32  57  85 114 140 172 228 286 328
#     4  10  23  39  56  78 108 157 186 228 274 329
#     4  10  21  34  57  85 111 143 185 229 273 327
#     4  10  19  35  58  87 108 140 187 231 271 327
#
# _framework density 24.093941999999998
#
# number of rings (size 3 to 8) (size 9 to 14) (size 15 to 20)
#    0.545    1.818    0.000    2.182    3.818    4.364 
#    0.000    0.000    0.000    6.545    0.000    0.000 
#    0.000    0.000    0.000    0.000    0.000    0.000 
#
# Total GULP energy -123007.106570 kJ/mol
# GULP energy per Si atom -5591.232117 kJ/mol
# Density = 2.403910 g / cm^3
# Si number density = 24.093942 Si / 1000 Ang^3
#
#
#
# Elastic Constant Matrix: (Units=GPa)
#
#
# Indices 1 2 3 4 5 6 
#
# 1 201.6381 15.6651 72.7039 0.0000 14.6338 0.0000
# 2 15.6651 85.4278 21.0407 0.0000 13.2020 0.0000
# 3 72.7039 21.0407 139.3074 0.0000 26.0930 0.0000
# 4 0.0000 0.0000 0.0000 34.5335 0.0000 2.1537
# 5 14.6338 13.2020 26.0930 0.0000 44.4602 0.0000
# 6 0.0000 0.0000 0.0000 2.1537 0.0000 -9.3416
#
#
#
# Elastic Compliance Matrix: (Units=1/GPa)
#
#
# Indices 1 2 3 4 5 6 
#
# 1 0.006119 -0.000340 -0.003128 0.000000 -0.000078 0.000000
# 2 -0.000340 0.012506 -0.001165 0.000000 -0.002918 0.000000
# 3 -0.003128 -0.001165 0.009807 0.000000 -0.004380 0.000000
# 4 0.000000 0.000000 0.000000 0.028547 0.000000 0.006581
# 5 -0.000078 -0.002918 -0.004380 0.000000 0.025955 0.000000
# 6 0.000000 0.000000 0.000000 0.006581 0.000000 -0.105531
#
#
# Mechanical properties :
#
#
# Convention : Reuss Voigt Hill
#
# Bulk Modulus (GPa) = 52.17220 71.68807 61.93013
# Shear Modulus (GPa) = -720.14551 35.06134 -342.54208
#
# Velocity S-wave (km/s) = -17.30721 3.81884 -11.93642
# Velocity P-wave (km/s) = 19.43413 7.01875 12.81449
#
# Compressibility (1/GPa) = 0.01916730
#
# Stress axis : x y z
#
# Youngs Moduli (GPa) = 163.42134 79.96183 101.96695
#
# Poissons Ratio (x) = 0.02717 0.31892
# Poissons Ratio (y) = 0.05552 0.11879
# Poissons Ratio (z) = 0.51113 0.09316
#
# Static dielectric constant tensor:
#      x y z
#    x 1.909190 0.000000 -0.005610 
#    y 0.000000 2.013490 0.000000 
#    z -0.005610 0.000000 1.871950 
# 
# From -- ./inp_files/73048.got.cif
#   From: 2010.05.17/outbox.cif.g08.bks.cpg/sg13_37_cif.got.tgz:73048.got - 2010.06.03 16:44:36.
