data_PCOD9228482
_publ_section_title
;
Structure prediction by ZEFSAII (Michael W. Deem and Ramdas Pophale) SiO2 
 PCOD9228482
Probable space group: P 2/C
;
_chemical_formula_sum "Si O2"
_cell_formula_units_Z 20
_cell_length_a 18.367151
_cell_length_b 8.442780
_cell_length_c 10.434282
_cell_angle_alpha 90.000000
_cell_angle_beta 152.876105
_cell_angle_gamma 90.000000
_cell_volume 737.691525
_symmetry_space_group_name_H-M "P 2/C"
_symmetry_group_IT_number 13
_symmetry_cell_setting 'monoclinic'
loop_
_space_group_symop_operation_xyz
x,y,z
-x,y,1/2-z
-x,-y,-z
x,-y,1/2+z
loop_
_atom_site_type_symbol
_atom_site_label
_atom_site_fract_x
_atom_site_fract_y
_atom_site_fract_z
Si Si1 0.951026 0.183183 0.464493
Si Si2 0.500000 0.630167 0.250000
Si Si3 0.268200 0.656323 0.397866
Si Si4 0.330318 0.133638 0.311391
Si Si5 0.500000 0.106652 0.250000
Si Si6 0.186046 0.831736 0.005951
O O1 0.845283 0.193215 0.425674
O O2 0.101803 0.299361 0.701062
O O3 0.838604 0.239935 0.171733
O O4 0.000000 0.000000 0.500000
O O5 0.649987 0.511710 0.470479
O O6 0.542361 0.732407 0.445285
O O7 0.247626 0.719311 0.217903
O O8 0.398095 0.769115 0.674751
O O9 0.372390 0.006388 0.489424
O O10 0.295702 0.988454 0.158033
O O11 0.000000 0.871690 0.750000
#
# Coordination Sequence:
#
# PCOD9228482 Si02
#       6
#     4   2   4   4   2   4
#     4  11  18  33  64  88 103 137 203 244 266 317
#     4  10  22  38  56  74 126 164 170 212 302 344
#     4   9  18  34  56  77 113 154 178 221 281 336
#     4  10  19  34  57  86 110 147 187 234 276 331
#     4   8  14  30  52  74 106 142 178 218 276 310
#     4   9  17  33  58  87 107 136 191 241 279 306
#
# _framework density 27.111605999999998
#
# number of rings (size 3 to 8) (size 9 to 14) (size 15 to 20)
#    0.000    2.400    6.000    0.000    0.000    0.800 
#    0.000   13.000    4.400    0.000    0.000    0.000 
#    0.000    0.000    0.000    0.000    0.000    0.000 
#
# Total GULP energy -111420.859755 kJ/mol
# GULP energy per Si atom -5571.042988 kJ/mol
# Density = 2.704990 g / cm^3
# Si number density = 27.111606 Si / 1000 Ang^3
#
#
#
# Elastic Constant Matrix: (Units=GPa)
#
#
# Indices 1 2 3 4 5 6 
#
# 1 33.2358 26.1678 28.2100 0.0000 -1.5197 0.0000
# 2 26.1678 158.8931 74.6594 0.0000 16.1781 0.0000
# 3 28.2100 74.6594 174.0675 0.0000 4.7684 0.0000
# 4 0.0000 0.0000 0.0000 54.3573 0.0000 15.3261
# 5 -1.5197 16.1781 4.7684 0.0000 32.8534 0.0000
# 6 0.0000 0.0000 0.0000 15.3261 0.0000 32.8510
#
#
#
# Elastic Compliance Matrix: (Units=1/GPa)
#
#
# Indices 1 2 3 4 5 6 
#
# 1 0.037558 -0.004683 -0.004206 0.000000 0.004654 0.000000
# 2 -0.004683 0.008864 -0.002929 0.000000 -0.004157 0.000000
# 3 -0.004206 -0.002929 0.007679 0.000000 0.000133 0.000000
# 4 0.000000 0.000000 0.000000 0.021183 0.000000 -0.009883
# 5 0.004654 -0.004157 0.000133 0.000000 0.032681 0.000000
# 6 0.000000 0.000000 0.000000 -0.009883 0.000000 0.035051
#
#
# Mechanical properties :
#
#
# Convention : Reuss Voigt Hill
#
# Bulk Modulus (GPa) = 32.82408 69.36344 51.09376
# Shear Modulus (GPa) = 28.27938 39.82295 34.05117
#
# Velocity S-wave (km/s) = 3.23317 3.83672 3.54780
# Velocity P-wave (km/s) = 5.10599 6.72809 5.97237
#
# Compressibility (1/GPa) = 0.03046544
#
# Stress axis : x y z
#
# Youngs Moduli (GPa) = 26.62578 112.81161 130.22220
#
# Poissons Ratio (x) = 0.52830 0.54766
# Poissons Ratio (y) = 0.12469 0.38145
# Poissons Ratio (z) = 0.11198 0.33045
#
# Static dielectric constant tensor:
#      x y z
#    x 2.593370 0.000000 -0.040260 
#    y 0.000000 2.082670 0.000000 
#    z -0.040260 0.000000 2.322670 
# 
# From -- ./inp_files/59470.got.cif
#   From: 2010.05.17/outbox.cif.g08.bks.cpg/sg13_30_cif.got.tgz:59470.got - 2010.06.03 16:44:36.
