data_PCOD9228700
_publ_section_title
;
Structure prediction by ZEFSAII (Michael W. Deem and Ramdas Pophale) SiO2 
 PCOD9228700
Probable space group: P 2/C
;
_chemical_formula_sum "Si O2"
_cell_formula_units_Z 28
_cell_length_a 13.947876
_cell_length_b 9.145681
_cell_length_c 16.197917
_cell_angle_alpha 90.000000
_cell_angle_beta 144.552676
_cell_angle_gamma 90.000000
_cell_volume 1198.331628
_symmetry_space_group_name_H-M "P 2/C"
_symmetry_group_IT_number 13
_symmetry_cell_setting 'monoclinic'
loop_
_space_group_symop_operation_xyz
x,y,z
-x,y,1/2-z
-x,-y,-z
x,-y,1/2+z
loop_
_atom_site_type_symbol
_atom_site_label
_atom_site_fract_x
_atom_site_fract_y
_atom_site_fract_z
Si Si1 0.304243 0.472023 0.875717
Si Si2 0.854544 0.382918 0.904301
Si Si3 0.643828 0.092846 0.289477
Si Si4 0.896929 0.097488 0.035058
Si Si5 0.363769 0.494361 0.597589
Si Si6 0.752111 0.795979 0.697978
Si Si7 0.577199 0.174678 0.919023
O O1 0.235747 0.382471 0.748993
O O2 0.212526 0.629273 0.803531
O O3 0.500000 0.500000 0.000000
O O4 0.294337 0.427987 0.966143
O O5 0.765099 0.444685 0.923970
O O6 0.898326 0.218917 0.963230
O O7 0.000000 0.500000 0.000000
O O8 0.500000 0.139996 0.250000
O O9 0.822815 0.055741 0.452721
O O10 0.432557 0.933933 0.290982
O O11 0.678968 0.196671 0.237899
O O12 0.755288 0.139927 0.002065
O O13 0.084603 0.105857 0.197345
O O14 0.500000 0.570481 0.750000
O O15 0.447971 0.342980 0.623315
O O16 0.606990 0.845103 0.535915
#
# Coordination Sequence:
#
# PCOD9228700 Si02
#       7
#     4   4   4   4   4   4   4
#     4  11  23  38  59  88 120 158 203 242 299 368
#     4  11  21  38  59  89 123 153 200 251 297 354
#     4  10  21  38  58  84 116 152 199 246 300 358
#     4  10  20  36  61  84 117 155 194 248 300 353
#     4  10  19  35  60  83 113 153 196 242 293 346
#     4  11  21  36  57  87 116 154 198 247 298 353
#     4   9  19  34  59  85 110 145 202 249 287 345
#
# _framework density 23.365818000000001
#
# number of rings (size 3 to 8) (size 9 to 14) (size 15 to 20)
#    0.000    1.714    2.857    3.429    2.000    0.571 
#    2.571    0.000    0.000    0.000    3.714    0.000 
#    0.000    0.000    0.000    0.000    0.000    0.000 
#
# Total GULP energy -156211.384947 kJ/mol
# GULP energy per Si atom -5578.978034 kJ/mol
# Density = 2.331264 g / cm^3
# Si number density = 23.365818 Si / 1000 Ang^3
#
#
#
# Elastic Constant Matrix: (Units=GPa)
#
#
# Indices 1 2 3 4 5 6 
#
# 1 102.7278 3.9954 31.4304 0.0000 -12.9044 0.0000
# 2 3.9954 41.2394 14.2153 0.0000 -3.3985 0.0000
# 3 31.4304 14.2153 126.1897 0.0000 -23.6605 0.0000
# 4 0.0000 0.0000 0.0000 3.6162 0.0000 -21.9387
# 5 -12.9044 -3.3985 -23.6605 0.0000 47.3134 0.0000
# 6 0.0000 0.0000 0.0000 -21.9387 0.0000 -8.5604
#
#
#
# Elastic Compliance Matrix: (Units=1/GPa)
#
#
# Indices 1 2 3 4 5 6 
#
# 1 0.010667 -0.000090 -0.002320 0.000000 0.001743 0.000000
# 2 -0.000090 0.025237 -0.002742 0.000000 0.000417 0.000000
# 3 -0.002320 -0.002742 0.009551 0.000000 0.003947 0.000000
# 4 0.000000 0.000000 0.000000 0.016711 0.000000 -0.042827
# 5 0.001743 0.000417 0.003947 0.000000 0.023615 0.000000
# 6 0.000000 0.000000 0.000000 -0.042827 0.000000 -0.007059
#
#
# Mechanical properties :
#
#
# Convention : Reuss Voigt Hill
#
# Bulk Modulus (GPa) = 28.44930 41.04881 34.74905
# Shear Modulus (GPa) = 49.63138 23.17490 36.40314
#
# Velocity S-wave (km/s) = 4.61380 3.15275 3.95139
# Velocity P-wave (km/s) = 6.37063 5.55510 5.97679
#
# Compressibility (1/GPa) = 0.03515025
#
# Stress axis : x y z
#
# Youngs Moduli (GPa) = 93.75007 39.62431 104.69750
#
# Poissons Ratio (x) = 0.00357 0.24288
# Poissons Ratio (y) = 0.00845 0.28712
# Poissons Ratio (z) = 0.21749 0.10866
#
# Static dielectric constant tensor:
#      x y z
#    x 1.894870 0.000000 -0.038380 
#    y 0.000000 1.915580 0.000000 
#    z -0.038380 0.000000 1.951520 
# 
# From -- ./inp_files/53534.got.cif
#   From: 2010.05.17/outbox.cif.g08.bks.cpg/sg13_27_cif.got.tgz:53534.got - 2010.06.03 16:44:36.
