data_PCOD9228184
_publ_section_title
;
Structure prediction by ZEFSAII (Michael W. Deem and Ramdas Pophale) SiO2 
 PCOD9228184
Probable space group: P 2/C
;
_chemical_formula_sum "Si O2"
_cell_formula_units_Z 24
_cell_length_a 19.396255
_cell_length_b 12.069005
_cell_length_c 13.408798
_cell_angle_alpha 90.000000
_cell_angle_beta 23.171799
_cell_angle_gamma 90.000000
_cell_volume 1235.128969
_symmetry_space_group_name_H-M "P 2/C"
_symmetry_group_IT_number 13
_symmetry_cell_setting 'monoclinic'
loop_
_space_group_symop_operation_xyz
x,y,z
-x,y,1/2-z
-x,-y,-z
x,-y,1/2+z
loop_
_atom_site_type_symbol
_atom_site_label
_atom_site_fract_x
_atom_site_fract_y
_atom_site_fract_z
Si Si1 0.291564 0.208619 0.709765
Si Si2 0.202534 0.172900 0.619438
Si Si3 0.940853 0.988389 0.943062
Si Si4 0.064891 0.407312 0.051602
Si Si5 0.660136 0.169105 0.290274
Si Si6 0.893498 0.344566 0.076785
O O1 0.331600 0.194981 0.539407
O O2 0.451008 0.164615 0.563872
O O3 0.238520 0.333855 0.803745
O O4 0.116054 0.135916 0.958858
O O5 0.277037 0.177633 0.409003
O O6 0.103111 0.055741 0.774462
O O7 0.054052 0.267838 0.825213
O O8 0.000000 0.990536 0.750000
O O9 0.766868 0.063460 0.188911
O O10 0.000000 0.390734 0.250000
O O11 0.927576 0.366735 0.148834
O O12 0.100433 0.536272 0.983494
O O13 0.725083 0.274298 0.267654
#
# Coordination Sequence:
#
# PCOD9228184 Si02
#       6
#     4   4   4   4   4   4
#     4  11  20  30  49  79 108 131 164 213 265 302
#     4   9  18  33  54  73  97 138 179 210 241 299
#     4   9  18  33  51  70  99 140 177 208 248 303
#     4  10  20  35  55  76 102 135 170 205 247 310
#     4  10  19  33  52  75 103 132 170 217 256 293
#     4   9  19  36  56  75  97 135 175 206 247 298
#
# _framework density 19.431169000000001
#
# number of rings (size 3 to 8) (size 9 to 14) (size 15 to 20)
#    0.000    2.333    0.000    4.500    0.000    0.667 
#    0.000    0.833    0.000    0.000    0.000    0.000 
#    0.000    0.000    0.000    0.000    0.000    0.000 
#
# Total GULP energy -133771.883431 kJ/mol
# GULP energy per Si atom -5573.828476 kJ/mol
# Density = 1.938694 g / cm^3
# Si number density = 19.431169 Si / 1000 Ang^3
#
#
#
# Elastic Constant Matrix: (Units=GPa)
#
#
# Indices 1 2 3 4 5 6 
#
# 1 63.1843 3.2782 15.7424 0.0000 -3.2044 0.0000
# 2 3.2782 95.9237 15.8458 0.0000 -4.0271 0.0000
# 3 15.7424 15.8458 36.1826 0.0000 -1.5439 0.0000
# 4 0.0000 0.0000 0.0000 9.5810 0.0000 0.6956
# 5 -3.2044 -4.0271 -1.5439 0.0000 21.1923 0.0000
# 6 0.0000 0.0000 0.0000 0.6956 0.0000 26.3692
#
#
#
# Elastic Compliance Matrix: (Units=1/GPa)
#
#
# Indices 1 2 3 4 5 6 
#
# 1 0.017905 0.000813 -0.008049 0.000000 0.002275 0.000000
# 2 0.000813 0.011342 -0.005240 0.000000 0.001897 0.000000
# 3 -0.008049 -0.005240 0.033444 0.000000 0.000224 0.000000
# 4 0.000000 0.000000 0.000000 0.104573 0.000000 -0.002758
# 5 0.002275 0.001897 0.000224 0.000000 0.047908 0.000000
# 6 0.000000 0.000000 0.000000 -0.002758 0.000000 0.037996
#
#
# Mechanical properties :
#
#
# Convention : Reuss Voigt Hill
#
# Bulk Modulus (GPa) = 26.49750 29.44704 27.97227
# Shear Modulus (GPa) = 17.19981 22.12347 19.66164
#
# Velocity S-wave (km/s) = 2.97840 3.37791 3.18443
# Velocity P-wave (km/s) = 5.04916 5.51372 5.28655
#
# Compressibility (1/GPa) = 0.03773941
#
# Stress axis : x y z
#
# Youngs Moduli (GPa) = 55.84902 88.16454 29.90053
#
# Poissons Ratio (x) = -0.07171 0.24068
# Poissons Ratio (y) = -0.04542 0.15669
# Poissons Ratio (z) = 0.44955 0.46200
#
# Static dielectric constant tensor:
#      x y z
#    x 1.744440 0.000000 -0.016480 
#    y 0.000000 1.680110 0.000000 
#    z -0.016480 0.000000 1.676920 
# 
# From -- ./inp_files/50795.got.cif
#   From: 2010.05.17/outbox.cif.g08.bks.cpg/sg13_26_cif.got.tgz:50795.got - 2010.06.03 16:44:36.
