data_PCOD9228485
_publ_section_title
;
Structure prediction by ZEFSAII (Michael W. Deem and Ramdas Pophale) SiO2 
 PCOD9228485
Probable space group: P 2/C
;
_chemical_formula_sum "Si O2"
_cell_formula_units_Z 24
_cell_length_a 18.120260
_cell_length_b 14.982855
_cell_length_c 15.596134
_cell_angle_alpha 90.000000
_cell_angle_beta 165.144097
_cell_angle_gamma 90.000000
_cell_volume 1085.613601
_symmetry_space_group_name_H-M "P 2/C"
_symmetry_group_IT_number 13
_symmetry_cell_setting 'monoclinic'
loop_
_space_group_symop_operation_xyz
x,y,z
-x,y,1/2-z
-x,-y,-z
x,-y,1/2+z
loop_
_atom_site_type_symbol
_atom_site_label
_atom_site_fract_x
_atom_site_fract_y
_atom_site_fract_z
Si Si1 0.205172 0.715304 0.791493
Si Si2 0.164050 0.883987 0.852892
Si Si3 0.000000 0.051460 0.750000
Si Si4 0.460810 0.418322 0.339321
Si Si5 0.274733 0.391479 0.671513
Si Si6 0.942522 0.685541 0.308768
Si Si7 0.500000 0.832671 0.750000
O O1 0.146186 0.815391 0.755625
O O2 0.042837 0.644956 0.670434
O O3 0.075754 0.702705 0.551884
O O4 0.534926 0.686082 0.157126
O O5 0.000000 0.841488 0.750000
O O6 0.025022 0.983011 0.697247
O O7 0.500000 0.896003 0.250000
O O8 0.704452 0.107333 0.418300
O O9 0.593600 0.408434 0.584683
O O10 0.321513 0.515303 0.176431
O O11 0.725722 0.398113 0.574617
O O12 0.214677 0.342271 0.056629
O O13 0.742344 0.769466 0.063761
#
# Coordination Sequence:
#
# PCOD9228485 Si02
#       7
#     4   4   2   4   4   4   2
#     4  10  19  34  57  88 107 146 184 224 272 325
#     4  10  20  38  61  78 110 139 177 229 287 345
#     4  10  22  40  60  78 100 152 182 220 300 352
#     4   9  17  33  51  82 110 150 182 218 263 308
#     4   9  17  29  56  81 114 144 184 215 258 332
#     4  10  21  34  57  81 113 145 189 227 268 320
#     4  12  22  40  60  78 108 148 188 226 282 338
#
# _framework density 22.107313000000001
#
# number of rings (size 3 to 8) (size 9 to 14) (size 15 to 20)
#    0.500    1.667    0.833    3.000    0.000    4.000 
#    0.000    1.667   18.333    0.000    0.000    0.000 
#    0.000    0.000    0.000    0.000    0.000    0.000 
#
# Total GULP energy -133948.772176 kJ/mol
# GULP energy per Si atom -5581.198841 kJ/mol
# Density = 2.205700 g / cm^3
# Si number density = 22.107313 Si / 1000 Ang^3
#
#
#
# Elastic Constant Matrix: (Units=GPa)
#
#
# Indices 1 2 3 4 5 6 
#
# 1 38.4353 13.0490 25.3202 0.0000 23.3537 0.0000
# 2 13.0490 86.8949 13.4614 0.0000 5.3618 0.0000
# 3 25.3202 13.4614 79.3905 0.0000 24.2940 0.0000
# 4 0.0000 0.0000 0.0000 17.3876 0.0000 15.8396
# 5 23.3537 5.3618 24.2940 0.0000 33.8065 0.0000
# 6 0.0000 0.0000 0.0000 15.8396 0.0000 18.8612
#
#
#
# Elastic Compliance Matrix: (Units=1/GPa)
#
#
# Indices 1 2 3 4 5 6 
#
# 1 0.049105 -0.004658 -0.006047 0.000000 -0.028838 0.000000
# 2 -0.004658 0.012269 -0.001261 0.000000 0.002178 0.000000
# 3 -0.006047 -0.001261 0.017176 0.000000 -0.007966 0.000000
# 4 0.000000 0.000000 0.000000 0.244770 0.000000 -0.205558
# 5 -0.028838 0.002178 -0.007966 0.000000 0.054880 0.000000
# 6 0.000000 0.000000 0.000000 -0.205558 0.000000 0.225647
#
#
# Mechanical properties :
#
#
# Convention : Reuss Voigt Hill
#
# Bulk Modulus (GPa) = 18.30919 34.26468 26.28693
# Shear Modulus (GPa) = 7.74013 24.20373 15.97193
#
# Velocity S-wave (km/s) = 1.87317 3.31241 2.69080
# Velocity P-wave (km/s) = 3.60254 5.49202 4.64438
#
# Compressibility (1/GPa) = 0.05461738
#
# Stress axis : x y z
#
# Youngs Moduli (GPa) = 20.36466 81.50878 58.22108
#
# Poissons Ratio (x) = 0.37966 0.35205
# Poissons Ratio (y) = 0.09486 0.07343
# Poissons Ratio (z) = 0.12314 0.10280
#
# Static dielectric constant tensor:
#      x y z
#    x 1.851820 0.000000 -0.010520 
#    y 0.000000 1.837520 0.000000 
#    z -0.010520 0.000000 1.786250 
# 
# From -- ./inp_files/82291.got.cif
#   From: 2010.05.17/outbox.cif.g08.bks.cpg/sg13_42_cif.got.tgz:82291.got - 2010.06.03 16:44:36.
