data_PCOD9228393
_publ_section_title
;
Structure prediction by ZEFSAII (Michael W. Deem and Ramdas Pophale) SiO2 
 PCOD9228393
Probable space group: P 2/C
;
_chemical_formula_sum "Si O2"
_cell_formula_units_Z 28
_cell_length_a 5.060545
_cell_length_b 10.835367
_cell_length_c 26.703555
_cell_angle_alpha 90.000000
_cell_angle_beta 101.610597
_cell_angle_gamma 90.000000
_cell_volume 1434.271295
_symmetry_space_group_name_H-M "P 2/C"
_symmetry_group_IT_number 13
_symmetry_cell_setting 'monoclinic'
loop_
_space_group_symop_operation_xyz
x,y,z
-x,y,1/2-z
-x,-y,-z
x,-y,1/2+z
loop_
_atom_site_type_symbol
_atom_site_label
_atom_site_fract_x
_atom_site_fract_y
_atom_site_fract_z
Si Si1 0.587682 0.731318 0.422164
Si Si2 0.897500 0.379248 0.024348
Si Si3 0.035866 0.093989 0.693309
Si Si4 0.531085 0.017594 0.866164
Si Si5 0.787935 0.608607 0.631881
Si Si6 0.262659 0.745039 0.613725
Si Si7 0.980053 0.347029 0.639134
O O1 0.709475 0.697379 0.480152
O O2 0.276196 0.695906 0.403894
O O3 0.759291 0.655527 0.386891
O O4 0.617155 0.874807 0.408124
O O5 0.751299 0.416352 0.070563
O O6 0.146307 0.299272 0.055599
O O7 0.000000 0.500000 0.000000
O O8 0.014122 0.240630 0.681605
O O9 0.000000 0.067777 0.750000
O O10 0.788029 0.030522 0.654281
O O11 0.315055 0.050453 0.679643
O O12 0.628300 0.882615 0.884886
O O13 0.504808 0.656305 0.640223
O O14 0.909811 0.481981 0.657044
O O15 0.009893 0.717765 0.640518
#
# Coordination Sequence:
#
# PCOD9228393 Si02
#       7
#     4   4   4   4   4   4   4
#     4  10  20  31  52  77 110 150 180 225 265 304
#     4  10  20  32  52  80 110 152 200 217 253 311
#     4  10  21  38  65  84  99 133 178 230 282 340
#     4  10  21  39  55  81 116 140 178 225 280 325
#     4  10  20  33  52  78 111 151 183 225 259 313
#     4  10  22  34  52  78 110 153 185 219 259 317
#     4  10  19  34  53  82 108 134 178 229 278 315
#
# _framework density 19.522110000000001
#
# number of rings (size 3 to 8) (size 9 to 14) (size 15 to 20)
#    0.857    1.143    1.429    3.000    2.000    1.714 
#    0.000    0.714    0.000    5.143    0.000    0.000 
#    0.000    0.000    0.000    0.000    0.000    0.000 
#
# Total GULP energy -156153.820430 kJ/mol
# GULP energy per Si atom -5576.922158 kJ/mol
# Density = 1.947768 g / cm^3
# Si number density = 19.522110 Si / 1000 Ang^3
#
#
#
# Elastic Constant Matrix: (Units=GPa)
#
#
# Indices 1 2 3 4 5 6 
#
# 1 48.3256 -21.0034 -7.2833 0.0000 4.5839 0.0000
# 2 -21.0034 91.2847 5.8262 0.0000 5.3152 0.0000
# 3 -7.2833 5.8262 19.9106 0.0000 -1.0722 0.0000
# 4 0.0000 0.0000 0.0000 9.4297 0.0000 3.1366
# 5 4.5839 5.3152 -1.0722 0.0000 16.0349 0.0000
# 6 0.0000 0.0000 0.0000 3.1366 0.0000 24.6495
#
#
#
# Elastic Compliance Matrix: (Units=1/GPa)
#
#
# Indices 1 2 3 4 5 6 
#
# 1 0.025104 0.005832 0.007011 0.000000 -0.008641 0.000000
# 2 0.005832 0.012771 -0.001928 0.000000 -0.006029 0.000000
# 3 0.007011 -0.001928 0.053473 0.000000 0.002210 0.000000
# 4 0.000000 0.000000 0.000000 0.110735 0.000000 -0.014091
# 5 -0.008641 -0.006029 0.002210 0.000000 0.066980 0.000000
# 6 0.000000 0.000000 0.000000 -0.014091 0.000000 0.042362
#
#
# Mechanical properties :
#
#
# Convention : Reuss Voigt Hill
#
# Bulk Modulus (GPa) = 8.83577 12.73332 10.78454
# Shear Modulus (GPa) = 15.27553 22.15491 18.71522
#
# Velocity S-wave (km/s) = 2.80031 3.37243 3.09960
# Velocity P-wave (km/s) = 3.87188 4.65844 4.28325
#
# Compressibility (1/GPa) = 0.11317634
#
# Stress axis : x y z
#
# Youngs Moduli (GPa) = 39.83447 78.30435 18.70116
#
# Poissons Ratio (x) = -0.45665 -0.13112
# Poissons Ratio (y) = -0.23230 0.03606
# Poissons Ratio (z) = -0.27929 0.15100
#
# Static dielectric constant tensor:
#      x y z
#    x 1.694870 0.000000 -0.001370 
#    y 0.000000 1.698030 0.000000 
#    z -0.001370 0.000000 1.655100 
# 
# From -- ./inp_files/94899.got.cif
#   From: 2010.05.17/outbox.cif.g08.bks.cpg/sg13_48_cif.got.tgz:94899.got - 2010.06.03 16:44:36.
