data_PCOD9228132
_publ_section_title
;
Structure prediction by ZEFSAII (Michael W. Deem and Ramdas Pophale) SiO2 
 PCOD9228132
Probable space group: P 2/C
;
_chemical_formula_sum "Si O2"
_cell_formula_units_Z 20
_cell_length_a 7.122769
_cell_length_b 11.419387
_cell_length_c 17.146776
_cell_angle_alpha 90.000000
_cell_angle_beta 146.066069
_cell_angle_gamma 90.000000
_cell_volume 778.560550
_symmetry_space_group_name_H-M "P 2/C"
_symmetry_group_IT_number 13
_symmetry_cell_setting 'monoclinic'
loop_
_space_group_symop_operation_xyz
x,y,z
-x,y,1/2-z
-x,-y,-z
x,-y,1/2+z
loop_
_atom_site_type_symbol
_atom_site_label
_atom_site_fract_x
_atom_site_fract_y
_atom_site_fract_z
Si Si1 0.382967 0.101830 0.626671
Si Si2 0.272260 0.501831 0.500488
Si Si3 0.048465 0.288347 0.680034
Si Si4 0.204035 0.349381 0.238880
Si Si5 0.646999 0.861714 0.932179
O O1 0.500000 0.048070 0.750000
O O2 0.608844 0.216632 0.698770
O O3 0.992841 0.131821 0.501610
O O4 0.456114 0.996593 0.592853
O O5 0.500000 0.500000 0.500000
O O6 0.515449 0.548345 0.651856
O O7 0.002596 0.606338 0.396860
O O8 0.053160 0.384268 0.418252
O O9 0.000000 0.334997 0.750000
O O10 0.758765 0.198325 0.552028
O O11 0.384824 0.224265 0.300389
O O12 0.000000 0.348513 0.250000
#
# Coordination Sequence:
#
# PCOD9228132 Si02
#       5
#     4   4   4   4   4
#     4   9  19  37  55  73 106 145 178 219 276 323
#     4   9  17  32  52  79 113 144 172 216 276 321
#     4  10  19  32  55  82 106 139 181 224 268 318
#     4   9  17  31  54  80 109 141 179 220 264 321
#     4   9  19  36  54  75 106 146 180 218 271 323
#
# _framework density 25.68843
#
# number of rings (size 3 to 8) (size 9 to 14) (size 15 to 20)
#    0.000    2.800    0.000    1.800    0.000    1.600 
#    0.000   23.000    0.000    8.400    0.000    0.000 
#    0.000    0.000    0.000    0.000    0.000    0.000 
#
# Total GULP energy -111758.080203 kJ/mol
# GULP energy per Si atom -5587.904010 kJ/mol
# Density = 2.562996 g / cm^3
# Si number density = 25.688430 Si / 1000 Ang^3
#
#
#
# Elastic Constant Matrix: (Units=GPa)
#
#
# Indices 1 2 3 4 5 6 
#
# 1 43.1622 8.9690 12.7484 0.0000 -1.1933 0.0000
# 2 8.9690 108.1581 71.1254 0.0000 21.3624 0.0000
# 3 12.7484 71.1254 120.8067 0.0000 13.4223 0.0000
# 4 0.0000 0.0000 0.0000 -71.9894 0.0000 111.9152
# 5 -1.1933 21.3624 13.4223 0.0000 26.9903 0.0000
# 6 0.0000 0.0000 0.0000 111.9152 0.0000 -53.9605
#
#
#
# Elastic Compliance Matrix: (Units=1/GPa)
#
#
# Indices 1 2 3 4 5 6 
#
# 1 0.024147 -0.001159 -0.002208 0.000000 0.003083 0.000000
# 2 -0.001159 0.016954 -0.008852 0.000000 -0.009068 0.000000
# 3 -0.002208 -0.008852 0.013712 0.000000 0.000089 0.000000
# 4 0.000000 0.000000 0.000000 0.006245 0.000000 0.012953
# 5 0.003083 -0.009068 0.000089 0.000000 0.044319 0.000000
# 6 0.000000 0.000000 0.000000 0.012953 0.000000 0.008332
#
#
# Mechanical properties :
#
#
# Convention : Reuss Voigt Hill
#
# Bulk Modulus (GPa) = 32.92237 50.86808 41.89522
# Shear Modulus (GPa) = 33.72168 -7.83965 12.94102
#
# Velocity S-wave (km/s) = 3.62708 -1.74884 2.24691
# Velocity P-wave (km/s) = 5.51224 3.97077 4.80374
#
# Compressibility (1/GPa) = 0.03037448
#
# Stress axis : x y z
#
# Youngs Moduli (GPa) = 41.41343 58.98345 72.92696
#
# Poissons Ratio (x) = 0.06837 0.16104
# Poissons Ratio (y) = 0.04801 0.64554
# Poissons Ratio (z) = 0.09145 0.52211
#
# Static dielectric constant tensor:
#      x y z
#    x 2.087900 0.000000 0.025880 
#    y 0.000000 2.034510 0.000000 
#    z 0.025880 0.000000 2.017420 
# 
# From -- ./inp_files/85087.got.cif
#   From: 2010.05.17/outbox.cif.g08.bks.cpg/sg13_43_cif.got.tgz:85087.got - 2010.06.03 16:44:36.
