data_PCOD9228726
_publ_section_title
;
Structure prediction by ZEFSAII (Michael W. Deem and Ramdas Pophale) SiO2 
 PCOD9228726
Probable space group: P 2/C
;
_chemical_formula_sum "Si O2"
_cell_formula_units_Z 30
_cell_length_a 16.756038
_cell_length_b 6.648263
_cell_length_c 28.527541
_cell_angle_alpha 90.000000
_cell_angle_beta 27.425727
_cell_angle_gamma 90.000000
_cell_volume 1463.747877
_symmetry_space_group_name_H-M "P 2/C"
_symmetry_group_IT_number 13
_symmetry_cell_setting 'monoclinic'
loop_
_space_group_symop_operation_xyz
x,y,z
-x,y,1/2-z
-x,-y,-z
x,-y,1/2+z
loop_
_atom_site_type_symbol
_atom_site_label
_atom_site_fract_x
_atom_site_fract_y
_atom_site_fract_z
Si Si1 0.785214 0.380635 0.581545
Si Si2 0.142021 0.451503 0.635108
Si Si3 0.007627 0.725690 0.436882
Si Si4 0.811547 0.879330 0.924534
Si Si5 0.500000 0.704565 0.750000
Si Si6 0.669711 0.992813 0.592186
Si Si7 0.678038 0.115951 0.909256
Si Si8 0.899274 0.852208 0.204978
O O1 0.918983 0.505540 0.479465
O O2 0.663764 0.554546 0.666885
O O3 0.674959 0.214739 0.611766
O O4 0.896267 0.272728 0.563863
O O5 0.206914 0.644555 0.573844
O O6 0.299435 0.331540 0.577513
O O7 0.000000 0.500183 0.750000
O O8 0.041204 0.303542 0.652219
O O9 0.139289 0.777932 0.326706
O O10 0.850528 0.883340 0.512580
O O11 0.797380 0.978089 0.880578
O O12 0.678145 0.976155 0.031639
O O13 0.000369 0.935422 0.846313
O O14 0.526626 0.850735 0.691130
O O15 0.746510 0.139219 0.821252
O O16 0.500000 0.000000 0.000000
#
# Coordination Sequence:
#
# PCOD9228726 Si02
#       8
#     4   4   4   4   2   4   4   4
#     4  10  19  36  59  84 119 146 189 241 288 351
#     4   9  17  32  59  82 106 144 192 233 278 332
#     4   9  19  34  60  87 111 144 192 246 286 337
#     4  10  19  35  61  80 105 150 195 236 281 337
#     4  10  22  38  54  82 120 156 186 226 294 360
#     4  10  20  36  59  84 112 149 193 235 293 345
#     4  10  21  36  52  80 122 151 183 236 284 338
#     4   9  18  35  57  83 111 144 192 237 276 338
#
# _framework density 20.495332999999999
#
# number of rings (size 3 to 8) (size 9 to 14) (size 15 to 20)
#    0.000    2.400    0.000    3.600    0.000    1.600 
#    4.800    0.000    5.867    0.000    0.000    0.000 
#    0.000    0.000    0.000    0.000    0.000    0.000 
#
# Total GULP energy -167255.942559 kJ/mol
# GULP energy per Si atom -5575.198085 kJ/mol
# Density = 2.044868 g / cm^3
# Si number density = 20.495333 Si / 1000 Ang^3
#
#
#
# Elastic Constant Matrix: (Units=GPa)
#
#
# Indices 1 2 3 4 5 6 
#
# 1 44.0123 26.3821 27.0959 0.0000 15.2570 0.0000
# 2 26.3821 96.5523 39.4724 0.0000 17.2990 0.0000
# 3 27.0959 39.4724 63.7689 0.0000 28.9723 0.0000
# 4 0.0000 0.0000 0.0000 24.3643 0.0000 4.1380
# 5 15.2570 17.2990 28.9723 0.0000 24.1701 0.0000
# 6 0.0000 0.0000 0.0000 4.1380 0.0000 17.2115
#
#
#
# Elastic Compliance Matrix: (Units=1/GPa)
#
#
# Indices 1 2 3 4 5 6 
#
# 1 0.032913 -0.004465 -0.007101 0.000000 -0.009068 0.000000
# 2 -0.004465 0.014479 -0.007987 0.000000 0.002030 0.000000
# 3 -0.007101 -0.007987 0.041742 0.000000 -0.039836 0.000000
# 4 0.000000 0.000000 0.000000 0.042791 0.000000 -0.010288
# 5 -0.009068 0.002030 -0.039836 0.000000 0.093395 0.000000
# 6 0.000000 0.000000 0.000000 -0.010288 0.000000 0.060574
#
#
# Mechanical properties :
#
#
# Convention : Reuss Voigt Hill
#
# Bulk Modulus (GPa) = 19.98970 43.35937 31.67453
# Shear Modulus (GPa) = 14.63376 20.57472 17.60424
#
# Velocity S-wave (km/s) = 2.67499 3.17183 2.93395
# Velocity P-wave (km/s) = 4.39491 5.88351 5.19283
#
# Compressibility (1/GPa) = 0.05002577
#
# Stress axis : x y z
#
# Youngs Moduli (GPa) = 30.38341 69.06643 23.95692
#
# Poissons Ratio (x) = 0.30841 0.17012
# Poissons Ratio (y) = 0.13568 0.19135
# Poissons Ratio (z) = 0.21575 0.55165
#
# Static dielectric constant tensor:
#      x y z
#    x 1.763770 0.000000 0.013180 
#    y 0.000000 1.750860 0.000000 
#    z 0.013180 0.000000 1.776310 
# 
# From -- ./inp_files/97174.got.cif
#   From: 2010.05.17/outbox.cif.g08.bks.cpg/sg13_49_cif.got.tgz:97174.got - 2010.06.03 16:44:36.
