data_PCOD9228978
_publ_section_title
;
Structure prediction by ZEFSAII (Michael W. Deem and Ramdas Pophale) SiO2 
 PCOD9228978
Probable space group: P 2/C
;
_chemical_formula_sum "Si O2"
_cell_formula_units_Z 28
_cell_length_a 19.431507
_cell_length_b 8.020247
_cell_length_c 23.591802
_cell_angle_alpha 90.000000
_cell_angle_beta 160.879230
_cell_angle_gamma 90.000000
_cell_volume 1204.333505
_symmetry_space_group_name_H-M "P 2/C"
_symmetry_group_IT_number 13
_symmetry_cell_setting 'monoclinic'
loop_
_space_group_symop_operation_xyz
x,y,z
-x,y,1/2-z
-x,-y,-z
x,-y,1/2+z
loop_
_atom_site_type_symbol
_atom_site_label
_atom_site_fract_x
_atom_site_fract_y
_atom_site_fract_z
Si Si1 0.261688 0.655620 0.763730
Si Si2 0.303624 0.738778 0.441840
Si Si3 0.850813 0.230001 0.080285
Si Si4 0.171468 0.023213 0.257110
Si Si5 0.891147 0.815637 0.963307
Si Si6 0.530865 0.035219 0.340625
Si Si7 0.968106 0.555534 0.112698
O O1 0.103069 0.715972 0.590749
O O2 0.153050 0.509971 0.714259
O O3 0.284243 0.810393 0.824467
O O4 0.488710 0.631616 0.911772
O O5 0.295836 0.902946 0.395663
O O6 0.327298 0.817344 0.522335
O O7 0.095875 0.640185 0.263236
O O8 0.000000 0.260452 0.250000
O O9 0.838109 0.398743 0.034385
O O10 0.967190 0.091284 0.131964
O O11 0.637618 0.143253 0.934191
O O12 0.091456 0.916388 0.141273
O O13 0.694431 0.940002 0.805898
O O14 0.844060 0.686463 0.977826
O O15 0.500000 0.050680 0.250000
#
# Coordination Sequence:
#
# PCOD9228978 Si02
#       7
#     4   4   4   4   4   4   4
#     4  10  20  36  63  92 128 155 203 253 306 361
#     4  10  21  38  63  91 122 164 207 249 306 365
#     4  11  22  41  63  86 123 158 209 258 300 353
#     4  10  19  36  63  90 120 166 206 247 298 360
#     4  10  21  38  63  92 125 164 201 248 312 364
#     4  11  22  39  65  86 122 162 206 257 293 362
#     4  10  23  40  63  92 126 164 198 252 318 366
#
# _framework density 23.249374
#
# number of rings (size 3 to 8) (size 9 to 14) (size 15 to 20)
#    0.000    1.714    2.857    1.714    0.000    1.143 
#    0.000    3.571    6.286    0.000    0.000    0.000 
#    0.000    0.000    0.000    0.000    0.000    0.000 
#
# Total GULP energy -156572.567685 kJ/mol
# GULP energy per Si atom -5591.877417 kJ/mol
# Density = 2.319646 g / cm^3
# Si number density = 23.249374 Si / 1000 Ang^3
#
#
#
# Elastic Constant Matrix: (Units=GPa)
#
#
# Indices 1 2 3 4 5 6 
#
# 1 59.5420 18.2205 16.8117 0.0000 -14.8585 0.0000
# 2 18.2205 66.4251 20.9713 0.0000 5.7433 0.0000
# 3 16.8117 20.9713 54.6639 0.0000 -13.0400 0.0000
# 4 0.0000 0.0000 0.0000 5.8155 0.0000 -4.7815
# 5 -14.8585 5.7433 -13.0400 0.0000 31.7231 0.0000
# 6 0.0000 0.0000 0.0000 -4.7815 0.0000 31.0422
#
#
#
# Elastic Compliance Matrix: (Units=1/GPa)
#
#
# Indices 1 2 3 4 5 6 
#
# 1 0.021911 -0.006389 -0.001734 0.000000 0.010707 0.000000
# 2 -0.006389 0.020264 -0.008203 0.000000 -0.010033 0.000000
# 3 -0.001734 -0.008203 0.024541 0.000000 0.010761 0.000000
# 4 0.000000 0.000000 0.000000 0.196889 0.000000 0.030327
# 5 0.010707 -0.010033 0.010761 0.000000 0.042777 0.000000
# 6 0.000000 0.000000 0.000000 0.030327 0.000000 0.036886
#
#
# Mechanical properties :
#
#
# Convention : Reuss Voigt Hill
#
# Bulk Modulus (GPa) = 29.35481 32.51532 30.93506
# Shear Modulus (GPa) = 12.91078 22.02467 17.46772
#
# Velocity S-wave (km/s) = 2.35907 3.08120 2.74400
# Velocity P-wave (km/s) = 4.48038 5.16471 4.83467
#
# Compressibility (1/GPa) = 0.03406597
#
# Stress axis : x y z
#
# Youngs Moduli (GPa) = 45.63877 49.34833 40.74879
#
# Poissons Ratio (x) = 0.31527 0.07064
# Poissons Ratio (y) = 0.29157 0.33425
# Poissons Ratio (z) = 0.07912 0.40479
#
# Static dielectric constant tensor:
#      x y z
#    x 1.900120 0.000000 0.030750 
#    y 0.000000 1.853280 0.000000 
#    z 0.030750 0.000000 1.900520 
# 
# From -- ./inp_files/88537.got.cif
#   From: 2010.05.17/outbox.cif.g08.bks.cpg/sg13_45_cif.got.tgz:88537.got - 2010.06.03 16:44:36.
