data_PCOD9228841
_publ_section_title
;
Structure prediction by ZEFSAII (Michael W. Deem and Ramdas Pophale) SiO2 
 PCOD9228841
Probable space group: P 2/C
;
_chemical_formula_sum "Si O2"
_cell_formula_units_Z 32
_cell_length_a 14.682075
_cell_length_b 14.253213
_cell_length_c 11.722326
_cell_angle_alpha 90.000000
_cell_angle_beta 35.314131
_cell_angle_gamma 90.000000
_cell_volume 1418.032208
_symmetry_space_group_name_H-M "P 2/C"
_symmetry_group_IT_number 13
_symmetry_cell_setting 'monoclinic'
loop_
_space_group_symop_operation_xyz
x,y,z
-x,y,1/2-z
-x,-y,-z
x,-y,1/2+z
loop_
_atom_site_type_symbol
_atom_site_label
_atom_site_fract_x
_atom_site_fract_y
_atom_site_fract_z
Si Si1 0.313464 0.315393 0.918841
Si Si2 0.615721 0.626786 0.391214
Si Si3 0.831883 0.787353 0.237951
Si Si4 0.143104 0.875854 0.520380
Si Si5 0.584848 0.973166 0.791286
Si Si6 0.081397 0.631919 0.058347
Si Si7 0.328010 0.213566 0.380246
Si Si8 0.273391 0.438689 0.170127
O O1 0.500000 0.295777 0.750000
O O2 0.313057 0.382110 0.808668
O O3 0.222975 0.218959 0.989028
O O4 0.241451 0.372727 0.096367
O O5 0.673793 0.730343 0.362725
O O6 0.685316 0.546023 0.400290
O O7 0.432058 0.605482 0.564899
O O8 0.775601 0.834638 0.412364
O O9 0.898177 0.849317 0.068308
O O10 0.957830 0.707757 0.137275
O O11 0.272655 0.955787 0.374025
O O12 0.000000 0.901215 0.750000
O O13 0.500000 0.973875 0.750000
O O14 0.644175 0.865842 0.742312
O O15 0.500000 0.000000 0.000000
O O16 0.228701 0.696175 0.946929
O O17 0.137562 0.566030 0.901130
O O18 0.000000 0.584690 0.250000
O O19 0.500000 0.241902 0.250000
#
# Coordination Sequence:
#
# PCOD9228841 Si02
#       8
#     4   4   4   4   4   4   4   4
#     4   9  19  35  56  82 114 153 196 242 295 353
#     4   9  20  35  58  84 112 154 202 247 292 347
#     4  10  21  39  56  83 123 161 199 243 303 365
#     4  11  22  37  60  89 121 158 198 247 306 363
#     4  11  25  44  67  95 124 159 206 255 307 371
#     4  10  22  36  56  85 117 155 196 238 296 360
#     4  10  21  40  63  85 114 156 201 248 295 356
#     4  10  19  36  57  83 115 151 199 250 292 340
#
# _framework density 22.566483999999999
#
# number of rings (size 3 to 8) (size 9 to 14) (size 15 to 20)
#    0.000    2.000    0.000    3.375    0.000    8.000 
#    0.000    8.125    0.000    0.000    0.000    0.000 
#    0.000    0.000    0.000    0.000    0.000    0.000 
#
# Total GULP energy -178640.878474 kJ/mol
# GULP energy per Si atom -5582.527452 kJ/mol
# Density = 2.251512 g / cm^3
# Si number density = 22.566484 Si / 1000 Ang^3
#
#
#
# Elastic Constant Matrix: (Units=GPa)
#
#
# Indices 1 2 3 4 5 6 
#
# 1 41.5123 6.9435 20.2035 0.0000 2.8758 0.0000
# 2 6.9435 45.1260 36.3619 0.0000 -4.6952 0.0000
# 3 20.2035 36.3619 166.5801 0.0000 22.8865 0.0000
# 4 0.0000 0.0000 0.0000 25.5350 0.0000 -3.2700
# 5 2.8758 -4.6952 22.8865 0.0000 28.4020 0.0000
# 6 0.0000 0.0000 0.0000 -3.2700 0.0000 21.1045
#
#
#
# Elastic Compliance Matrix: (Units=1/GPa)
#
#
# Indices 1 2 3 4 5 6 
#
# 1 0.025731 -0.001977 -0.002571 0.000000 -0.000860 0.000000
# 2 -0.001977 0.030029 -0.007899 0.000000 0.011530 0.000000
# 3 -0.002571 -0.007899 0.009202 0.000000 -0.008460 0.000000
# 4 0.000000 0.000000 0.000000 0.039955 0.000000 0.006191
# 5 -0.000860 0.011530 -0.008460 0.000000 0.044019 0.000000
# 6 0.000000 0.000000 0.000000 0.006191 0.000000 0.048343
#
#
# Mechanical properties :
#
#
# Convention : Reuss Voigt Hill
#
# Bulk Modulus (GPa) = 24.95815 42.24846 33.60331
# Shear Modulus (GPa) = 21.22892 27.65559 24.44226
#
# Velocity S-wave (km/s) = 3.07046 3.50454 3.29465
# Velocity P-wave (km/s) = 4.86355 5.92774 5.42182
#
# Compressibility (1/GPa) = 0.04006707
#
# Stress axis : x y z
#
# Youngs Moduli (GPa) = 38.86395 33.30112 108.67748
#
# Poissons Ratio (x) = 0.06584 0.27940
# Poissons Ratio (y) = 0.07684 0.85846
# Poissons Ratio (z) = 0.09992 0.26305
#
# Static dielectric constant tensor:
#      x y z
#    x 1.918470 0.000000 0.022050 
#    y 0.000000 1.796650 0.000000 
#    z 0.022050 0.000000 1.857650 
# 
# From -- ./inp_files/39450.got.cif
#   From: 2010.05.17/outbox.cif.g08.bks.cpg/sg13_20_cif.got.tgz:39450.got - 2010.06.03 16:44:36.
