data_PCOD9228185
_publ_section_title
;
Structure prediction by ZEFSAII (Michael W. Deem and Ramdas Pophale) SiO2 
 PCOD9228185
Probable space group: P 2/C
;
_chemical_formula_sum "Si O2"
_cell_formula_units_Z 32
_cell_length_a 19.953933
_cell_length_b 8.300825
_cell_length_c 15.292055
_cell_angle_alpha 90.000000
_cell_angle_beta 149.958863
_cell_angle_gamma 90.000000
_cell_volume 1268.017514
_symmetry_space_group_name_H-M "P 2/C"
_symmetry_group_IT_number 13
_symmetry_cell_setting 'monoclinic'
loop_
_space_group_symop_operation_xyz
x,y,z
-x,y,1/2-z
-x,-y,-z
x,-y,1/2+z
loop_
_atom_site_type_symbol
_atom_site_label
_atom_site_fract_x
_atom_site_fract_y
_atom_site_fract_z
Si Si1 0.715267 0.278015 0.204177
Si Si2 0.635956 0.223688 0.306882
Si Si3 0.147741 0.191655 0.684093
Si Si4 0.268090 0.339081 0.520812
Si Si5 0.081187 0.161537 0.186125
Si Si6 0.875160 0.666241 0.167510
Si Si7 0.418896 0.033296 0.995792
Si Si8 0.487763 0.562281 0.120557
O O1 0.716473 0.225180 0.305701
O O2 0.857557 0.282654 0.319264
O O3 0.654178 0.134218 0.075449
O O4 0.607301 0.418331 0.071355
O O5 0.745780 0.222122 0.504960
O O6 0.547105 0.385641 0.203960
O O7 0.530273 0.081828 0.190016
O O8 0.109216 0.328869 0.710608
O O9 0.306611 0.168693 0.855345
O O10 0.076230 0.196365 0.508450
O O11 0.099897 0.024490 0.678218
O O12 0.164612 0.204555 0.367895
O O13 0.172328 0.494122 0.423815
O O14 0.378335 0.324365 0.722942
O O15 0.375141 0.394286 0.566541
O O16 0.000000 0.719995 0.250000
O O17 0.500000 0.000000 0.000000
#
# Coordination Sequence:
#
# PCOD9228185 Si02
#       8
#     4   4   4   4   4   4   4   4
#     4   9  17  32  54  79 107 138 176 222 272 325
#     4  10  19  33  52  76 108 141 178 223 272 324
#     4  10  20  36  57  81 109 144 184 227 279 334
#     4   9  19  35  52  77 108 140 180 228 274 326
#     4   9  19  36  57  78 106 141 180 225 277 333
#     4  11  23  37  53  77 111 147 184 225 274 335
#     4   9  19  34  54  81 107 135 176 229 277 324
#     4   9  17  31  54  78 105 140 180 224 273 326
#
# _framework density 25.236243999999999
#
# number of rings (size 3 to 8) (size 9 to 14) (size 15 to 20)
#    0.000    2.500    0.000    1.875    0.000    4.000 
#    0.000    9.375    0.000    0.000    0.000    0.000 
#    0.000    0.000    0.000    0.000    0.000    0.000 
#
# Total GULP energy -178392.233910 kJ/mol
# GULP energy per Si atom -5574.757310 kJ/mol
# Density = 2.517881 g / cm^3
# Si number density = 25.236244 Si / 1000 Ang^3
#
#
#
# Elastic Constant Matrix: (Units=GPa)
#
#
# Indices 1 2 3 4 5 6 
#
# 1 51.2553 -8.0944 1.7492 0.0000 0.4172 0.0000
# 2 -8.0944 48.8846 12.8171 0.0000 -1.2892 0.0000
# 3 1.7492 12.8171 129.1218 0.0000 -0.0072 0.0000
# 4 0.0000 0.0000 0.0000 24.9246 0.0000 -5.0870
# 5 0.4172 -1.2892 -0.0072 0.0000 33.7285 0.0000
# 6 0.0000 0.0000 0.0000 -5.0870 0.0000 18.7913
#
#
#
# Elastic Compliance Matrix: (Units=1/GPa)
#
#
# Indices 1 2 3 4 5 6 
#
# 1 0.020082 0.003484 -0.000618 0.000000 -0.000115 0.000000
# 2 0.003484 0.021629 -0.002194 0.000000 0.000783 0.000000
# 3 -0.000618 -0.002194 0.007971 0.000000 -0.000075 0.000000
# 4 0.000000 0.000000 0.000000 0.042467 0.000000 0.011496
# 5 -0.000115 0.000783 -0.000075 0.000000 0.029680 0.000000
# 6 0.000000 0.000000 0.000000 0.011496 0.000000 0.056328
#
#
# Mechanical properties :
#
#
# Convention : Reuss Voigt Hill
#
# Bulk Modulus (GPa) = 19.59752 26.91172 23.25462
# Shear Modulus (GPa) = 25.79680 30.34154 28.06917
#
# Velocity S-wave (km/s) = 3.20067 3.47118 3.33867
# Velocity P-wave (km/s) = 4.63050 5.17229 4.90887
#
# Compressibility (1/GPa) = 0.05102686
#
# Stress axis : x y z
#
# Youngs Moduli (GPa) = 49.79468 46.23373 125.45805
#
# Poissons Ratio (x) = -0.16109 0.07752
# Poissons Ratio (y) = -0.17350 0.27527
# Poissons Ratio (z) = 0.03077 0.10144
#
# Static dielectric constant tensor:
#      x y z
#    x 2.125170 0.000000 0.034610 
#    y 0.000000 2.103820 0.000000 
#    z 0.034610 0.000000 2.143930 
# 
# From -- ./inp_files/82557.got.cif
#   From: 2010.05.17/outbox.cif.g08.bks.cpg/sg13_42_cif.got.tgz:82557.got - 2010.06.03 16:44:36.
