data_PCOD9228295
_publ_section_title
;
Structure prediction by ZEFSAII (Michael W. Deem and Ramdas Pophale) SiO2 
 PCOD9228295
Probable space group: P 2/C
;
_chemical_formula_sum "Si O2"
_cell_formula_units_Z 32
_cell_length_a 20.441470
_cell_length_b 8.817831
_cell_length_c 11.770354
_cell_angle_alpha 90.000000
_cell_angle_beta 41.670398
_cell_angle_gamma 90.000000
_cell_volume 1410.533837
_symmetry_space_group_name_H-M "P 2/C"
_symmetry_group_IT_number 13
_symmetry_cell_setting 'monoclinic'
loop_
_space_group_symop_operation_xyz
x,y,z
-x,y,1/2-z
-x,-y,-z
x,-y,1/2+z
loop_
_atom_site_type_symbol
_atom_site_label
_atom_site_fract_x
_atom_site_fract_y
_atom_site_fract_z
Si Si1 0.090685 0.384953 0.689708
Si Si2 0.188344 0.662710 0.661291
Si Si3 0.109466 0.833581 0.556777
Si Si4 0.635111 0.888588 0.562658
Si Si5 0.998700 0.180645 0.512814
Si Si6 0.630814 0.792034 0.957069
Si Si7 0.493442 0.170251 0.457215
Si Si8 0.781361 0.144753 0.062505
O O1 0.148607 0.494040 0.698236
O O2 0.036143 0.247214 0.823560
O O3 0.166539 0.307437 0.506073
O O4 0.000000 0.474670 0.750000
O O5 0.180015 0.737808 0.546812
O O6 0.296901 0.678009 0.571616
O O7 0.105449 0.755165 0.839518
O O8 0.086318 0.765839 0.464304
O O9 0.000000 0.842451 0.750000
O O10 0.150517 0.003113 0.498210
O O11 0.610677 0.809277 0.473159
O O12 0.565909 0.825942 0.753943
O O13 0.740193 0.877601 0.487174
O O14 0.613002 0.065904 0.564502
O O15 0.000000 0.000000 0.500000
O O16 0.534238 0.736010 0.012699
O O17 0.697819 0.855394 0.766565
O O18 0.500000 0.000000 0.500000
#
# Coordination Sequence:
#
# PCOD9228295 Si02
#       8
#     4   4   4   4   4   4   4   4
#     4  12  24  38  53  76 113 158 199 237 286 341
#     4  11  22  37  53  76 112 150 193 236 285 339
#     4  10  20  34  51  75 103 143 186 238 284 328
#     4   9  17  32  55  87 116 143 176 231 287 344
#     4  11  22  36  57  77 105 147 200 247 292 332
#     4  10  19  33  56  83 114 145 183 232 288 340
#     4   8  16  31  55  86 119 143 172 224 290 341
#     4  11  21  33  55  81 112 142 191 239 283 338
#
# _framework density 22.686444000000002
#
# number of rings (size 3 to 8) (size 9 to 14) (size 15 to 20)
#    0.000    1.750    1.250    5.625    1.750    1.000 
#    0.000    0.000    0.000    0.750    0.000   12.250 
#    0.000    0.000    0.000    0.000    0.000    0.000 
#
# Total GULP energy -178496.488728 kJ/mol
# GULP energy per Si atom -5578.015273 kJ/mol
# Density = 2.263481 g / cm^3
# Si number density = 22.686444 Si / 1000 Ang^3
#
#
#
# Elastic Constant Matrix: (Units=GPa)
#
#
# Indices 1 2 3 4 5 6 
#
# 1 192.5799 -1.1195 -6.2946 0.0000 13.5607 0.0000
# 2 -1.1195 54.7817 6.0457 0.0000 -1.2874 0.0000
# 3 -6.2946 6.0457 24.6603 0.0000 6.6954 0.0000
# 4 0.0000 0.0000 0.0000 10.9817 0.0000 0.0662
# 5 13.5607 -1.2874 6.6954 0.0000 25.2189 0.0000
# 6 0.0000 0.0000 0.0000 0.0662 0.0000 25.8859
#
#
#
# Elastic Compliance Matrix: (Units=1/GPa)
#
#
# Indices 1 2 3 4 5 6 
#
# 1 0.005528 -0.000244 0.002458 0.000000 -0.003637 0.000000
# 2 -0.000244 0.018903 -0.005382 0.000000 0.002525 0.000000
# 3 0.002458 -0.005382 0.046266 0.000000 -0.013880 0.000000
# 4 0.000000 0.000000 0.000000 0.091062 0.000000 -0.000233
# 5 -0.003637 0.002525 -0.013880 0.000000 0.045423 0.000000
# 6 0.000000 0.000000 0.000000 -0.000233 0.000000 0.038632
#
#
# Mechanical properties :
#
#
# Convention : Reuss Voigt Hill
#
# Bulk Modulus (GPa) = 15.53713 29.92055 22.72884
# Shear Modulus (GPa) = 18.27471 30.64332 24.45901
#
# Velocity S-wave (km/s) = 2.84127 3.67922 3.28706
# Velocity P-wave (km/s) = 4.19849 5.59162 4.94437
#
# Compressibility (1/GPa) = 0.06436196
#
# Stress axis : x y z
#
# Youngs Moduli (GPa) = 180.90627 52.90283 21.61392
#
# Poissons Ratio (x) = 0.01290 -0.05313
# Poissons Ratio (y) = 0.04411 0.11632
# Poissons Ratio (z) = -0.44473 0.28472
#
# Static dielectric constant tensor:
#      x y z
#    x 2.052470 0.000000 0.005860 
#    y 0.000000 1.816320 0.000000 
#    z 0.005860 0.000000 1.865690 
# 
# From -- ./inp_files/40515.got.cif
#   From: 2010.05.17/outbox.cif.g08.bks.cpg/sg13_21_cif.got.tgz:40515.got - 2010.06.03 16:44:36.
