data_PCOD9228513
_publ_section_title
;
Structure prediction by ZEFSAII (Michael W. Deem and Ramdas Pophale) SiO2 
 PCOD9228513
Probable space group: P 2/C
;
_chemical_formula_sum "Si O2"
_cell_formula_units_Z 20
_cell_length_a 5.076053
_cell_length_b 14.217348
_cell_length_c 11.354183
_cell_angle_alpha 90.000000
_cell_angle_beta 97.078452
_cell_angle_gamma 90.000000
_cell_volume 813.163569
_symmetry_space_group_name_H-M "P 2/C"
_symmetry_group_IT_number 13
_symmetry_cell_setting 'monoclinic'
loop_
_space_group_symop_operation_xyz
x,y,z
-x,y,1/2-z
-x,-y,-z
x,-y,1/2+z
loop_
_atom_site_type_symbol
_atom_site_label
_atom_site_fract_x
_atom_site_fract_y
_atom_site_fract_z
Si Si1 0.277314 0.345461 0.835039
Si Si2 0.952037 0.951523 0.122605
Si Si3 0.568958 0.158309 0.929862
Si Si4 0.727926 0.248689 0.165742
Si Si5 0.727385 0.454530 0.162687
O O1 0.500000 0.362870 0.750000
O O2 0.390551 0.252350 0.901677
O O3 0.274487 0.445350 0.905651
O O4 0.000000 0.332573 0.750000
O O5 0.172301 0.865762 0.134492
O O6 0.000000 0.002472 0.250000
O O7 0.646893 0.921307 0.101790
O O8 0.000000 0.000000 0.000000
O O9 0.679947 0.169977 0.066731
O O10 0.500000 0.245793 0.250000
O O11 0.728026 0.352191 0.102563
O O12 0.000000 0.239211 0.250000
O O13 0.500000 0.449265 0.250000
O O14 0.000000 0.458373 0.250000
#
# Coordination Sequence:
#
# PCOD9228513 Si02
#       5
#     4   4   4   4   4
#     4  10  19  34  58  89 128 169 213 266 322 380
#     4  12  28  50  74 102 134 168 214 274 343 416
#     4  12  24  41  70 100 128 169 218 274 334 397
#     4  10  21  38  59  91 136 180 226 272 318 381
#     4   8  16  31  52  82 126 176 218 262 313 371
#
# _framework density 24.595296000000001
#
# number of rings (size 3 to 8) (size 9 to 14) (size 15 to 20)
#    0.000    1.600    0.000    5.400    0.000    3.200 
#    0.000    0.000    0.000   16.800    0.000    0.000 
#    0.000    0.000    0.000    0.000    0.000    0.000 
#
# Total GULP energy -111686.703900 kJ/mol
# GULP energy per Si atom -5584.335195 kJ/mol
# Density = 2.453932 g / cm^3
# Si number density = 24.595296 Si / 1000 Ang^3
#
#
#
# Elastic Constant Matrix: (Units=GPa)
#
#
# Indices 1 2 3 4 5 6 
#
# 1 184.7037 10.4984 23.3679 0.0000 25.8279 0.0000
# 2 10.4984 66.3679 39.7613 0.0000 13.9563 0.0000
# 3 23.3679 39.7613 114.4586 0.0000 22.0024 0.0000
# 4 0.0000 0.0000 0.0000 36.2491 0.0000 -1.1102
# 5 25.8279 13.9563 22.0024 0.0000 32.2673 0.0000
# 6 0.0000 0.0000 0.0000 -1.1102 0.0000 22.4037
#
#
#
# Elastic Compliance Matrix: (Units=1/GPa)
#
#
# Indices 1 2 3 4 5 6 
#
# 1 0.006113 0.000290 -0.000442 0.000000 -0.004717 0.000000
# 2 0.000290 0.019570 -0.005968 0.000000 -0.004627 0.000000
# 3 -0.000442 -0.005968 0.011895 0.000000 -0.005176 0.000000
# 4 0.000000 0.000000 0.000000 0.027629 0.000000 0.001369
# 5 -0.004717 -0.004627 -0.005176 0.000000 0.040298 0.000000
# 6 0.000000 0.000000 0.000000 0.001369 0.000000 0.044703
#
#
# Mechanical properties :
#
#
# Convention : Reuss Voigt Hill
#
# Bulk Modulus (GPa) = 39.46662 56.97616 48.22139
# Shear Modulus (GPa) = 29.25775 37.64420 33.45097
#
# Velocity S-wave (km/s) = 3.45275 3.91646 3.69189
# Velocity P-wave (km/s) = 5.65478 6.60813 6.14996
#
# Compressibility (1/GPa) = 0.02533787
#
# Stress axis : x y z
#
# Youngs Moduli (GPa) = 163.58211 51.09815 84.06726
#
# Poissons Ratio (x) = -0.01480 0.03715
# Poissons Ratio (y) = -0.04739 0.50172
# Poissons Ratio (z) = 0.07229 0.30496
#
# Static dielectric constant tensor:
#      x y z
#    x 1.862070 0.000000 0.020550 
#    y 0.000000 2.221060 0.000000 
#    z 0.020550 0.000000 1.912600 
# 
# From -- ./inp_files/26305.got.cif
#   From: 2010.05.17/outbox.cif.g08.bks.cpg/sg13_14_cif.got.tgz:26305.got - 2010.06.03 16:44:36.
