data_PCOD9228608
_publ_section_title
;
Structure prediction by ZEFSAII (Michael W. Deem and Ramdas Pophale) SiO2 
 PCOD9228608
Probable space group: P 2/C
;
_chemical_formula_sum "Si O2"
_cell_formula_units_Z 30
_cell_length_a 7.135813
_cell_length_b 11.701446
_cell_length_c 16.155928
_cell_angle_alpha 90.000000
_cell_angle_beta 109.533583
_cell_angle_gamma 90.000000
_cell_volume 1271.367857
_symmetry_space_group_name_H-M "P 2/C"
_symmetry_group_IT_number 13
_symmetry_cell_setting 'monoclinic'
loop_
_space_group_symop_operation_xyz
x,y,z
-x,y,1/2-z
-x,-y,-z
x,-y,1/2+z
loop_
_atom_site_type_symbol
_atom_site_label
_atom_site_fract_x
_atom_site_fract_y
_atom_site_fract_z
Si Si1 0.433796 0.368197 0.999223
Si Si2 0.093412 0.897937 0.937576
Si Si3 0.738766 0.302353 0.156021
Si Si4 0.500000 0.646278 0.250000
Si Si5 0.184405 0.559582 0.331678
Si Si6 0.385325 0.804631 0.103512
Si Si7 0.733706 0.859165 0.793595
Si Si8 0.189641 0.928859 0.316385
O O1 0.220487 0.370869 0.922379
O O2 0.564120 0.289330 0.958431
O O3 0.500000 0.500000 0.000000
O O4 0.503035 0.322042 0.098693
O O5 0.179687 0.800177 0.888423
O O6 0.857135 0.874958 0.895913
O O7 0.149502 0.016799 0.901080
O O8 0.207376 0.879869 0.040509
O O9 0.833299 0.424945 0.151719
O O10 0.778520 0.260234 0.254412
O O11 0.377016 0.576351 0.300048
O O12 0.348845 0.730939 0.179868
O O13 0.000000 0.595333 0.250000
O O14 0.593330 0.871364 0.148521
O O15 0.500000 0.868139 0.750000
O O16 0.800780 0.965376 0.746487
O O17 0.000000 0.861681 0.250000
#
# Coordination Sequence:
#
# PCOD9228608 Si02
#       8
#     4   4   4   2   4   4   4   4
#     4   8  17  33  55  79 107 142 189 236 275 330
#     4   9  18  36  58  85 108 147 194 233 285 343
#     4   9  17  34  59  79 105 148 190 235 287 342
#     4  10  24  36  52  84 118 150 190 244 284 344
#     4  10  19  35  56  79 112 152 191 234 291 345
#     4  10  19  35  59  79 116 151 185 238 286 336
#     4  10  20  33  53  84 116 142 182 238 289 338
#     4   9  19  35  60  83 109 149 189 229 282 352
#
# _framework density 23.596634000000002
#
# number of rings (size 3 to 8) (size 9 to 14) (size 15 to 20)
#    0.000    2.667    0.000    2.400    1.867    2.133 
#    2.400    0.667    2.933    5.600    0.000    0.000 
#    0.000    0.000    0.000    0.000    0.000    0.000 
#
# Total GULP energy -167141.566671 kJ/mol
# GULP energy per Si atom -5571.385556 kJ/mol
# Density = 2.354293 g / cm^3
# Si number density = 23.596634 Si / 1000 Ang^3
#
#
#
# Elastic Constant Matrix: (Units=GPa)
#
#
# Indices 1 2 3 4 5 6 
#
# 1 63.7375 16.2358 17.2741 0.0000 31.6643 0.0000
# 2 16.2358 84.2511 32.5503 0.0000 2.1688 0.0000
# 3 17.2741 32.5503 125.6096 0.0000 43.4918 0.0000
# 4 0.0000 0.0000 0.0000 12.3518 0.0000 1.2899
# 5 31.6643 2.1688 43.4918 0.0000 39.6355 0.0000
# 6 0.0000 0.0000 0.0000 1.2899 0.0000 13.8536
#
#
#
# Elastic Compliance Matrix: (Units=1/GPa)
#
#
# Indices 1 2 3 4 5 6 
#
# 1 0.035365 -0.010383 0.011955 0.000000 -0.040802 0.000000
# 2 -0.010383 0.016852 -0.008857 0.000000 0.017092 0.000000
# 3 0.011955 -0.008857 0.018952 0.000000 -0.029862 0.000000
# 4 0.000000 0.000000 0.000000 0.081755 0.000000 -0.007612
# 5 -0.040802 0.017092 -0.029862 0.000000 0.089658 0.000000
# 6 0.000000 0.000000 0.000000 -0.007612 0.000000 0.072892
#
#
# Mechanical properties :
#
#
# Convention : Reuss Voigt Hill
#
# Bulk Modulus (GPa) = 17.66867 45.07985 31.37426
# Shear Modulus (GPa) = 14.33030 27.00403 20.66716
#
# Velocity S-wave (km/s) = 2.46702 3.38657 2.96269
# Velocity P-wave (km/s) = 3.95209 5.86836 5.00283
#
# Compressibility (1/GPa) = 0.05659736
#
# Stress axis : x y z
#
# Youngs Moduli (GPa) = 28.27690 59.33940 52.76533
#
# Poissons Ratio (x) = 0.61615 -0.63081
# Poissons Ratio (y) = 0.29361 0.46735
# Poissons Ratio (z) = -0.33805 0.52558
#
# Static dielectric constant tensor:
#      x y z
#    x 1.917410 0.000000 0.041710 
#    y 0.000000 1.899730 0.000000 
#    z 0.041710 0.000000 1.983990 
# 
# From -- ./inp_files/64460.got.cif
#   From: 2010.05.17/outbox.cif.g08.bks.cpg/sg13_33_cif.got.tgz:64460.got - 2010.06.03 16:44:36.
