data_PCOD9228283
_publ_section_title
;
Structure prediction by ZEFSAII (Michael W. Deem and Ramdas Pophale) SiO2 
 PCOD9228283
Probable space group: P 2/C
;
_chemical_formula_sum "Si O2"
_cell_formula_units_Z 32
_cell_length_a 21.747470
_cell_length_b 11.317913
_cell_length_c 9.836497
_cell_angle_alpha 90.000000
_cell_angle_beta 47.276739
_cell_angle_gamma 90.000000
_cell_volume 1778.646584
_symmetry_space_group_name_H-M "P 2/C"
_symmetry_group_IT_number 13
_symmetry_cell_setting 'monoclinic'
loop_
_space_group_symop_operation_xyz
x,y,z
-x,y,1/2-z
-x,-y,-z
x,-y,1/2+z
loop_
_atom_site_type_symbol
_atom_site_label
_atom_site_fract_x
_atom_site_fract_y
_atom_site_fract_z
Si Si1 0.295683 0.118618 0.643597
Si Si2 1.000000 0.382812 0.909619
Si Si3 0.704317 0.118618 0.530647
Si Si4 0.181467 0.717772 0.134213
Si Si5 0.575430 0.675602 0.236649
Si Si6 0.575430 0.324398 0.037061
Si Si7 0.711105 0.500000 0.933342
Si Si8 0.818533 0.717772 0.678614
O O1 0.221430 0.193283 0.683265
O O2 0.378030 0.200634 0.504290
O O3 0.304889 1.000000 0.542666
O O4 0.282656 0.100903 0.826016
O O5 0.084312 0.308754 0.807401
O O6 0.000000 0.416454 0.750000
O O7 0.000000 0.500000 0.000000
O O8 0.915688 0.308754 0.060337
O O9 0.621970 0.200635 0.638378
O O10 0.778569 0.193283 0.347556
O O11 0.230898 0.593437 0.075445
O O12 0.191473 0.759606 0.962790
O O13 0.500000 0.650765 0.250000
O O14 0.539758 0.677972 0.440363
O O15 0.648603 0.578522 0.117194
O O16 0.500000 0.349234 0.250000
O O17 0.648602 0.421478 0.936999
O O18 0.769101 0.593437 0.768140
#
# Coordination Sequence:
#
# PCOD9228283 Si02
#       8
#     4   4   4   4   4   4   4   4
#     4  10  22  40  60  81 107 142 187 232 280 331
#     4  10  20  34  55  86 119 152 185 223 269 323
#     4  10  22  40  60  81 107 142 187 232 280 331
#     4  10  20  35  57  84 115 149 186 227 274 325
#     4  10  22  36  53  80 110 144 182 226 276 329
#     4  10  22  36  53  80 110 144 182 226 276 329
#     4  10  19  33  56  80 114 148 186 225 271 326
#     4  10  20  35  57  84 115 149 186 227 274 325
#
# _framework density 17.991209000000001
#
# number of rings (size 3 to 8) (size 9 to 14) (size 15 to 20)
#    0.000    2.000    1.250    1.875    0.000    9.500 
#    0.000    3.125    0.000    0.000    0.000    0.000 
#    0.000    0.000    0.000    0.000    0.000    0.000 
#
# Total GULP energy -178519.591307 kJ/mol
# GULP energy per Si atom -5578.737228 kJ/mol
# Density = 1.795026 g / cm^3
# Si number density = 17.991209 Si / 1000 Ang^3
#
#
#
# Elastic Constant Matrix: (Units=GPa)
#
#
# Indices 1 2 3 4 5 6 
#
# 1 104.0894 34.2349 59.6000 0.0000 -4.4435 0.0000
# 2 34.2349 96.4673 37.0377 0.0000 7.9515 0.0000
# 3 59.6000 37.0377 101.3787 0.0000 -3.2485 0.0000
# 4 0.0000 0.0000 0.0000 11.8681 0.0000 5.7153
# 5 -4.4435 7.9515 -3.2485 0.0000 24.8528 0.0000
# 6 0.0000 0.0000 0.0000 5.7153 0.0000 9.8536
#
#
#
# Elastic Compliance Matrix: (Units=1/GPa)
#
#
# Indices 1 2 3 4 5 6 
#
# 1 0.015029 -0.002531 -0.007832 0.000000 0.002473 0.000000
# 2 -0.002531 0.012995 -0.003422 0.000000 -0.005057 0.000000
# 3 -0.007832 -0.003422 0.015775 0.000000 0.001756 0.000000
# 4 0.000000 0.000000 0.000000 0.116916 0.000000 -0.067814
# 5 0.002473 -0.005057 0.001756 0.000000 0.042527 0.000000
# 6 0.000000 0.000000 0.000000 -0.067814 0.000000 0.140820
#
#
# Mechanical properties :
#
#
# Convention : Reuss Voigt Hill
#
# Bulk Modulus (GPa) = 61.61316 62.63118 62.12217
# Shear Modulus (GPa) = 13.26115 20.71907 16.99011
#
# Velocity S-wave (km/s) = 2.71789 3.39724 3.07637
# Velocity P-wave (km/s) = 6.64604 7.09056 6.87189
#
# Compressibility (1/GPa) = 0.01623030
#
# Stress axis : x y z
#
# Youngs Moduli (GPa) = 66.53592 76.95301 63.39222
#
# Poissons Ratio (x) = 0.19474 0.49649
# Poissons Ratio (y) = 0.16838 0.21692
# Poissons Ratio (z) = 0.52111 0.26333
#
# Static dielectric constant tensor:
#      x y z
#    x 1.603780 0.000000 0.009850 
#    y 0.000000 1.621200 0.000000 
#    z 0.009850 0.000000 1.607250 
# 
# From -- ./inp_files/23356.got.cif
#   From: 2010.05.17/outbox.cif.g08.bks.cpg/sg13_12_cif.got.tgz:23356.got - 2010.06.03 16:44:36.
