data_PCOD9228544
_publ_section_title
;
Structure prediction by ZEFSAII (Michael W. Deem and Ramdas Pophale) SiO2 
 PCOD9228544
Probable space group: P 2/C
;
_chemical_formula_sum "Si O2"
_cell_formula_units_Z 28
_cell_length_a 6.913282
_cell_length_b 14.170813
_cell_length_c 18.353947
_cell_angle_alpha 90.000000
_cell_angle_beta 35.601945
_cell_angle_gamma 90.000000
_cell_volume 1046.752101
_symmetry_space_group_name_H-M "P 2/C"
_symmetry_group_IT_number 13
_symmetry_cell_setting 'monoclinic'
loop_
_space_group_symop_operation_xyz
x,y,z
-x,y,1/2-z
-x,-y,-z
x,-y,1/2+z
loop_
_atom_site_type_symbol
_atom_site_label
_atom_site_fract_x
_atom_site_fract_y
_atom_site_fract_z
Si Si1 0.300093 0.504007 0.716724
Si Si2 0.949985 0.770833 0.339690
Si Si3 0.394818 0.673776 0.948843
Si Si4 0.506132 0.064976 0.832366
Si Si5 0.622664 0.860894 0.797460
Si Si6 0.807474 0.395193 0.466762
Si Si7 0.196379 0.816102 0.536345
O O1 0.529211 0.596376 0.634200
O O2 0.566897 0.425899 0.606878
O O3 0.000000 0.500900 0.750000
O O4 0.084467 0.527546 0.856388
O O5 0.956238 0.704652 0.408164
O O6 0.577575 0.808874 0.445114
O O7 0.000000 0.713271 0.250000
O O8 0.198260 0.857867 0.259526
O O9 0.531107 0.769817 0.871870
O O10 0.586623 0.627568 0.960789
O O11 0.500000 0.041352 0.750000
O O12 0.533415 0.961883 0.858963
O O13 0.200198 0.118857 0.963574
O O14 0.500000 0.848239 0.750000
O O15 0.010149 0.861031 0.660630
O O16 0.933528 0.288666 0.442312
#
# Coordination Sequence:
#
# PCOD9228544 Si02
#       7
#     4   4   4   4   4   4   4
#     4  10  19  34  59  96 120 160 200 258 322 390
#     4   9  21  39  57  93 125 158 208 269 328 367
#     4  10  20  36  60  89 122 161 206 259 318 377
#     4  10  24  41  63  91 124 174 224 262 314 386
#     4  11  25  40  63  89 123 175 224 260 313 389
#     4  10  21  37  62  97 127 160 207 266 333 384
#     4  10  22  43  61  91 135 162 212 274 322 379
#
# _framework density 26.749407999999999
#
# number of rings (size 3 to 8) (size 9 to 14) (size 15 to 20)
#    0.000    2.000    1.429    1.714    6.000    9.714 
#   12.857    0.000    0.000    1.714    0.000    0.000 
#    0.000    0.000    0.000    0.000    0.000    0.000 
#
# Total GULP energy -156237.942123 kJ/mol
# GULP energy per Si atom -5579.926504 kJ/mol
# Density = 2.668853 g / cm^3
# Si number density = 26.749408 Si / 1000 Ang^3
#
#
#
# Elastic Constant Matrix: (Units=GPa)
#
#
# Indices 1 2 3 4 5 6 
#
# 1 63.1845 16.1145 11.9095 0.0000 16.4699 0.0000
# 2 16.1145 155.7196 37.6135 0.0000 2.5263 0.0000
# 3 11.9095 37.6135 143.4990 0.0000 10.9203 0.0000
# 4 0.0000 0.0000 0.0000 50.3027 0.0000 8.5089
# 5 16.4699 2.5263 10.9203 0.0000 22.6718 0.0000
# 6 0.0000 0.0000 0.0000 8.5089 0.0000 19.5503
#
#
#
# Elastic Compliance Matrix: (Units=1/GPa)
#
#
# Indices 1 2 3 4 5 6 
#
# 1 0.020038 -0.001818 -0.000098 0.000000 -0.014307 0.000000
# 2 -0.001818 0.007021 -0.001796 0.000000 0.001403 0.000000
# 3 -0.000098 -0.001796 0.007710 0.000000 -0.003442 0.000000
# 4 0.000000 0.000000 0.000000 0.021459 0.000000 -0.009340
# 5 -0.014307 0.001403 -0.003442 0.000000 0.056002 0.000000
# 6 0.000000 0.000000 0.000000 -0.009340 0.000000 0.055215
#
#
# Mechanical properties :
#
#
# Convention : Reuss Voigt Hill
#
# Bulk Modulus (GPa) = 36.57004 54.85313 45.71158
# Shear Modulus (GPa) = 27.17619 38.28933 32.73276
#
# Velocity S-wave (km/s) = 3.19086 3.78750 3.50191
# Velocity P-wave (km/s) = 5.22269 6.29902 5.78594
#
# Compressibility (1/GPa) = 0.02734479
#
# Stress axis : x y z
#
# Youngs Moduli (GPa) = 49.90515 142.42909 129.70852
#
# Poissons Ratio (x) = 0.25892 0.01268
# Poissons Ratio (y) = 0.09072 0.23299
# Poissons Ratio (z) = 0.00488 0.25584
#
# Static dielectric constant tensor:
#      x y z
#    x 2.382290 0.000000 -0.008860 
#    y 0.000000 2.125780 0.000000 
#    z -0.008860 0.000000 2.230980 
# 
# From -- ./inp_files/76701.got.cif
#   From: 2010.05.17/outbox.cif.g08.bks.cpg/sg13_39_cif.got.tgz:76701.got - 2010.06.03 16:44:36.
