data_PCOD9228971
_publ_section_title
;
Structure prediction by ZEFSAII (Michael W. Deem and Ramdas Pophale) SiO2 
 PCOD9228971
Probable space group: P 2/C
;
_chemical_formula_sum "Si O2"
_cell_formula_units_Z 20
_cell_length_a 6.102673
_cell_length_b 7.420811
_cell_length_c 23.818558
_cell_angle_alpha 90.000000
_cell_angle_beta 128.280180
_cell_angle_gamma 90.000000
_cell_volume 846.742695
_symmetry_space_group_name_H-M "P 2/C"
_symmetry_group_IT_number 13
_symmetry_cell_setting 'monoclinic'
loop_
_space_group_symop_operation_xyz
x,y,z
-x,y,1/2-z
-x,-y,-z
x,-y,1/2+z
loop_
_atom_site_type_symbol
_atom_site_label
_atom_site_fract_x
_atom_site_fract_y
_atom_site_fract_z
Si Si1 0.608432 0.154266 0.327422
Si Si2 0.200418 0.641740 0.061330
Si Si3 0.295771 0.628675 0.865067
Si Si4 0.221305 0.553589 0.182163
Si Si5 0.771395 0.126414 0.039174
O O1 0.500000 0.081604 0.250000
O O2 0.377445 0.195924 0.339522
O O3 0.678349 0.363141 0.326884
O O4 0.908623 0.072940 0.392908
O O5 0.492244 0.536968 0.106459
O O6 0.108919 0.664185 0.111293
O O7 0.208995 0.810757 0.022126
O O8 0.000000 0.500000 0.000000
O O9 0.293275 0.708219 0.928059
O O10 0.003753 0.524065 0.810751
O O11 0.500000 0.643742 0.250000
O O12 0.500000 0.000000 0.000000
#
# Coordination Sequence:
#
# PCOD9228971 Si02
#       5
#     4   4   4   4   4
#     4   9  19  35  56  87 117 154 209 258 314 388
#     4  11  19  36  57  90 120 153 212 263 315 383
#     4  10  19  36  63  82 120 159 198 262 324 370
#     4   9  19  32  56  89 118 153 206 260 320 383
#     4  11  23  36  56  92 121 160 209 265 325 383
#
# _framework density 23.619927000000001
#
# number of rings (size 3 to 8) (size 9 to 14) (size 15 to 20)
#    0.000    2.000    6.000    0.600    0.000   13.600 
#    0.000    0.000    0.000    7.200    0.000    0.000 
#    0.000    0.000    0.000    0.000    0.000    0.000 
#
# Total GULP energy -111354.761126 kJ/mol
# GULP energy per Si atom -5567.738056 kJ/mol
# Density = 2.356617 g / cm^3
# Si number density = 23.619927 Si / 1000 Ang^3
#
#
#
# Elastic Constant Matrix: (Units=GPa)
#
#
# Indices 1 2 3 4 5 6 
#
# 1 122.6292 23.1525 80.8544 0.0000 1.5854 0.0000
# 2 23.1525 71.0708 38.4438 0.0000 -2.3444 0.0000
# 3 80.8544 38.4438 165.2270 0.0000 -1.3047 0.0000
# 4 0.0000 0.0000 0.0000 4.9523 0.0000 -2.4897
# 5 1.5854 -2.3444 -1.3047 0.0000 45.1267 0.0000
# 6 0.0000 0.0000 0.0000 -2.4897 0.0000 30.4417
#
#
#
# Elastic Compliance Matrix: (Units=1/GPa)
#
#
# Indices 1 2 3 4 5 6 
#
# 1 0.012101 -0.000866 -0.005725 0.000000 -0.000636 0.000000
# 2 -0.000866 0.016182 -0.003335 0.000000 0.000775 0.000000
# 3 -0.005725 -0.003335 0.009632 0.000000 0.000306 0.000000
# 4 0.000000 0.000000 0.000000 0.210583 0.000000 0.017222
# 5 -0.000636 0.000775 0.000306 0.000000 0.022231 0.000000
# 6 0.000000 0.000000 0.000000 0.017222 0.000000 0.034258
#
#
# Mechanical properties :
#
#
# Convention : Reuss Voigt Hill
#
# Bulk Modulus (GPa) = 55.36294 71.53650 63.44972
# Shear Modulus (GPa) = 15.11200 30.53589 22.82394
#
# Velocity S-wave (km/s) = 2.53217 3.59946 3.11191
# Velocity P-wave (km/s) = 5.66031 6.90123 6.31135
#
# Compressibility (1/GPa) = 0.01806262
#
# Stress axis : x y z
#
# Youngs Moduli (GPa) = 82.63536 61.79592 103.81630
#
# Poissons Ratio (x) = 0.05353 0.59438
# Poissons Ratio (y) = 0.07158 0.34624
# Poissons Ratio (z) = 0.47311 0.20610
#
# Static dielectric constant tensor:
#      x y z
#    x 2.228190 0.000000 -0.007080 
#    y 0.000000 1.866170 0.000000 
#    z -0.007080 0.000000 2.020890 
# 
# From -- ./inp_files/83435.got.cif
#   From: 2010.05.17/outbox.cif.g08.bks.cpg/sg13_42_cif.got.tgz:83435.got - 2010.06.03 16:44:36.
