data_PCOD9228934
_publ_section_title
;
Structure prediction by ZEFSAII (Michael W. Deem and Ramdas Pophale) SiO2 
 PCOD9228934
Probable space group: P 2/C
;
_chemical_formula_sum "Si O2"
_cell_formula_units_Z 30
_cell_length_a 11.063983
_cell_length_b 9.135825
_cell_length_c 15.090535
_cell_angle_alpha 90.000000
_cell_angle_beta 112.732119
_cell_angle_gamma 90.000000
_cell_volume 1406.845138
_symmetry_space_group_name_H-M "P 2/C"
_symmetry_group_IT_number 13
_symmetry_cell_setting 'monoclinic'
loop_
_space_group_symop_operation_xyz
x,y,z
-x,y,1/2-z
-x,-y,-z
x,-y,1/2+z
loop_
_atom_site_type_symbol
_atom_site_label
_atom_site_fract_x
_atom_site_fract_y
_atom_site_fract_z
Si Si1 0.524843 0.349775 0.052258
Si Si2 0.121775 0.879349 0.873223
Si Si3 0.277563 0.241859 0.257597
Si Si4 0.892794 0.626724 0.491324
Si Si5 0.598353 0.085960 0.962916
Si Si6 0.753032 0.342060 0.446484
Si Si7 0.012472 0.870161 0.430294
Si Si8 0.500000 0.023386 0.250000
O O1 0.639680 0.350734 0.157077
O O2 0.391237 0.296474 0.062061
O O3 0.500000 0.500000 0.000000
O O4 0.567981 0.248415 0.984269
O O5 0.166891 0.827318 0.789049
O O6 0.029833 0.022345 0.852491
O O7 0.081029 0.731809 0.916354
O O8 0.252398 0.935570 0.963364
O O9 0.232588 0.315719 0.154468
O O10 0.383227 0.119271 0.259244
O O11 0.772512 0.515429 0.470519
O O12 0.000000 0.500000 0.500000
O O13 0.897182 0.750218 0.414417
O O14 0.565689 0.059196 0.851609
O O15 0.500000 0.000000 0.000000
O O16 0.861008 0.235139 0.520860
O O17 0.000000 0.000000 0.500000
#
# Coordination Sequence:
#
# PCOD9228934 Si02
#       8
#     4   4   4   4   4   4   4   2
#     4  11  22  38  57  86 125 160 197 232 299 368
#     4  10  19  36  61  85 117 155 194 238 314 347
#     4  11  21  35  60  90 120 157 196 242 296 373
#     4   9  20  38  60  82 110 152 206 246 290 354
#     4  11  20  36  59  88 122 158 192 244 289 367
#     4  11  19  36  62  84 117 160 195 244 298 353
#     4   9  19  36  61  86 108 150 201 246 296 349
#     4  12  20  36  56  90 128 152 202 238 288 354
#
# _framework density 21.324311000000002
#
# number of rings (size 3 to 8) (size 9 to 14) (size 15 to 20)
#    0.000    1.600    4.000    3.200    0.000    0.000 
#    4.800    6.000    0.000    8.000    0.000    0.000 
#    0.000    0.000    0.000    0.000    0.000    0.000 
#
# Total GULP energy -167218.558551 kJ/mol
# GULP energy per Si atom -5573.951952 kJ/mol
# Density = 2.127578 g / cm^3
# Si number density = 21.324311 Si / 1000 Ang^3
#
#
#
# Elastic Constant Matrix: (Units=GPa)
#
#
# Indices 1 2 3 4 5 6 
#
# 1 71.0655 28.6830 11.1144 0.0000 -18.8844 0.0000
# 2 28.6830 115.2863 35.8068 0.0000 -8.1389 0.0000
# 3 11.1144 35.8068 118.4427 0.0000 -17.2685 0.0000
# 4 0.0000 0.0000 0.0000 -2.7572 0.0000 -18.0271
# 5 -18.8844 -8.1389 -17.2685 0.0000 33.4302 0.0000
# 6 0.0000 0.0000 0.0000 -18.0271 0.0000 45.5387
#
#
#
# Elastic Compliance Matrix: (Units=1/GPa)
#
#
# Indices 1 2 3 4 5 6 
#
# 1 0.018184 -0.004135 0.000967 0.000000 0.009765 0.000000
# 2 -0.004135 0.010539 -0.002990 0.000000 -0.001315 0.000000
# 3 0.000967 -0.002990 0.009981 0.000000 0.004975 0.000000
# 4 0.000000 0.000000 0.000000 -0.101076 0.000000 -0.040012
# 5 0.009765 -0.001315 0.004975 0.000000 0.037679 0.000000
# 6 0.000000 0.000000 0.000000 -0.040012 0.000000 0.006120
#
#
# Mechanical properties :
#
#
# Convention : Reuss Voigt Hill
#
# Bulk Modulus (GPa) = 37.89425 50.66699 44.28062
# Shear Modulus (GPa) = 1970.49878 30.52169 1000.51023
#
# Velocity S-wave (km/s) = 30.43137 3.78737 21.68424
# Velocity P-wave (km/s) = 35.39162 6.55266 25.45097
#
# Compressibility (1/GPa) = 0.02638923
#
# Stress axis : x y z
#
# Youngs Moduli (GPa) = 54.99292 94.88886 100.18865
#
# Poissons Ratio (x) = 0.39239 -0.09693
# Poissons Ratio (y) = 0.22741 0.29952
# Poissons Ratio (z) = -0.05321 0.28368
#
# Static dielectric constant tensor:
#      x y z
#    x 1.951640 0.000000 0.035400 
#    y 0.000000 1.638030 0.000000 
#    z 0.035400 0.000000 1.771550 
# 
# From -- ./inp_files/50394.got.cif
#   From: 2010.05.17/outbox.cif.g08.bks.cpg/sg13_26_cif.got.tgz:50394.got - 2010.06.03 16:44:36.
