data_PCOD9228170
_publ_section_title
;
Structure prediction by ZEFSAII (Michael W. Deem and Ramdas Pophale) SiO2 
 PCOD9228170
Probable space group: P 2/C
;
_chemical_formula_sum "Si O2"
_cell_formula_units_Z 20
_cell_length_a 27.399473
_cell_length_b 5.168821
_cell_length_c 4.947005
_cell_angle_alpha 90.000000
_cell_angle_beta 87.393930
_cell_angle_gamma 90.000000
_cell_volume 699.884948
_symmetry_space_group_name_H-M "P 2/C"
_symmetry_group_IT_number 13
_symmetry_cell_setting 'monoclinic'
loop_
_space_group_symop_operation_xyz
x,y,z
-x,y,1/2-z
-x,-y,-z
x,-y,1/2+z
loop_
_atom_site_type_symbol
_atom_site_label
_atom_site_fract_x
_atom_site_fract_y
_atom_site_fract_z
Si Si1 0.090040 0.682017 0.220761
Si Si2 0.598861 0.836702 0.367886
Si Si3 0.808911 0.314706 0.663023
Si Si4 0.500000 0.805828 0.250000
Si Si5 0.708429 0.662019 0.346100
Si Si6 0.000000 0.000000 0.000000
O O1 0.090695 0.450022 0.432828
O O2 0.140920 0.828356 0.275015
O O3 0.042777 0.864315 0.256898
O O4 0.552405 0.670393 0.274807
O O5 0.653951 0.752666 0.297687
O O6 0.594885 0.905809 0.682975
O O7 0.809782 0.437010 0.366885
O O8 0.756827 0.185318 0.741047
O O9 0.500000 0.000000 0.500000
O O10 0.711697 0.595299 0.659368
O O11 0.000000 0.774105 0.750000
#
# Coordination Sequence:
#
# PCOD9228170 Si02
#       6
#     4   4   4   2   4   2
#     4  10  21  40  63  84 113 153 189 228 281 336
#     4  10  19  33  51  74 101 138 181 218 261 316
#     4   8  16  32  55  78 104 143 179 208 262 332
#     4   8  16  30  48  66  96 138 178 214 254 314
#     4  10  19  33  53  79 108 136 171 220 272 321
#     4  12  26  40  58  90 118 144 190 236 274 334
#
# _framework density 28.576124
#
# number of rings (size 3 to 8) (size 9 to 14) (size 15 to 20)
#    0.000    2.400    0.000    2.400    0.000    2.400 
#    0.000    3.000    0.000    0.000    0.000    0.000 
#    0.000    0.000    0.000    0.000    0.000    0.000 
#
# Total GULP energy -111628.214775 kJ/mol
# GULP energy per Si atom -5581.410739 kJ/mol
# Density = 2.851108 g / cm^3
# Si number density = 28.576124 Si / 1000 Ang^3
#
#
#
# Elastic Constant Matrix: (Units=GPa)
#
#
# Indices 1 2 3 4 5 6 
#
# 1 331.0594 36.4379 24.5938 0.0000 41.4815 0.0000
# 2 36.4379 61.0216 31.9728 0.0000 4.4329 0.0000
# 3 24.5938 31.9728 195.4288 0.0000 -8.1572 0.0000
# 4 0.0000 0.0000 0.0000 58.2406 0.0000 -0.1014
# 5 41.4815 4.4329 -8.1572 0.0000 54.5119 0.0000
# 6 0.0000 0.0000 0.0000 -0.1014 0.0000 17.2413
#
#
#
# Elastic Compliance Matrix: (Units=1/GPa)
#
#
# Indices 1 2 3 4 5 6 
#
# 1 0.003565 -0.001802 -0.000263 0.000000 -0.002606 0.000000
# 2 -0.001802 0.019034 -0.002913 0.000000 -0.000613 0.000000
# 3 -0.000263 -0.002913 0.005680 0.000000 0.001287 0.000000
# 4 0.000000 0.000000 0.000000 0.017170 0.000000 0.000101
# 5 -0.002606 -0.000613 0.001287 0.000000 0.020570 0.000000
# 6 0.000000 0.000000 0.000000 0.000101 0.000000 0.058001
#
#
# Mechanical properties :
#
#
# Convention : Reuss Voigt Hill
#
# Bulk Modulus (GPa) = 54.57079 85.94653 70.25866
# Shear Modulus (GPa) = 35.69307 58.96578 47.32943
#
# Velocity S-wave (km/s) = 3.53803 4.54746 4.07413
# Velocity P-wave (km/s) = 5.98567 7.59699 6.83895
#
# Compressibility (1/GPa) = 0.01832482
#
# Stress axis : x y z
#
# Youngs Moduli (GPa) = 280.51250 52.53670 176.04818
#
# Poissons Ratio (x) = 0.09466 0.04623
# Poissons Ratio (y) = 0.50544 0.51281
# Poissons Ratio (z) = 0.07366 0.15303
#
# Static dielectric constant tensor:
#      x y z
#    x 2.496820 0.000000 0.089280 
#    y 0.000000 2.397800 0.000000 
#    z 0.089280 0.000000 2.341670 
# 
# From -- ./inp_files/7665.got.cif
#   From: 2010.05.17/outbox.cif.g08.bks.cpg/sg13_4_cif.got.tgz:7665.got - 2010.06.03 16:44:36.
