data_PCOD9228128
_publ_section_title
;
Structure prediction by ZEFSAII (Michael W. Deem and Ramdas Pophale) SiO2 
 PCOD9228128
Probable space group: P 2/C
;
_chemical_formula_sum "Si O2"
_cell_formula_units_Z 26
_cell_length_a 14.662777
_cell_length_b 5.960718
_cell_length_c 26.591522
_cell_angle_alpha 90.000000
_cell_angle_beta 28.989941
_cell_angle_gamma 90.000000
_cell_volume 1126.397429
_symmetry_space_group_name_H-M "P 2/C"
_symmetry_group_IT_number 13
_symmetry_cell_setting 'monoclinic'
loop_
_space_group_symop_operation_xyz
x,y,z
-x,y,1/2-z
-x,-y,-z
x,-y,1/2+z
loop_
_atom_site_type_symbol
_atom_site_label
_atom_site_fract_x
_atom_site_fract_y
_atom_site_fract_z
Si Si1 0.198829 0.587310 0.598203
Si Si2 0.000000 0.781269 0.250000
Si Si3 0.072891 0.191364 0.926710
Si Si4 0.563534 0.694191 0.588636
Si Si5 0.891280 0.936272 0.936211
Si Si6 0.665224 0.104332 0.384966
Si Si7 0.261487 0.557632 0.413726
O O1 0.369991 0.502667 0.481292
O O2 0.092231 0.790929 0.622106
O O3 0.270888 0.673693 0.616532
O O4 0.069564 0.376340 0.671396
O O5 0.169582 0.926922 0.189334
O O6 0.254098 0.317235 0.863044
O O7 0.069519 0.063383 0.874925
O O8 0.907299 0.375899 0.005137
O O9 0.000000 0.000000 0.000000
O O10 0.396244 0.823136 0.641193
O O11 0.566669 0.576709 0.642332
O O12 0.729485 0.878463 0.508596
O O13 0.809178 0.752798 0.014870
O O14 0.500000 0.000000 0.500000
#
# Coordination Sequence:
#
# PCOD9228128 Si02
#       7
#     4   2   4   4   4   4   4
#     4  11  21  36  54  78 107 154 210 244 304 361
#     4  12  26  36  54  80 110 156 212 278 302 358
#     4   8  13  24  40  68 108 145 179 224 286 350
#     4  10  19  32  55  75 105 154 201 239 296 369
#     4   9  16  28  47  74 105 148 189 230 289 363
#     4  12  23  40  57  78 112 159 216 252 310 363
#     4   8  15  24  43  72 104 147 183 228 289 351
#
# _framework density 23.082438
#
# number of rings (size 3 to 8) (size 9 to 14) (size 15 to 20)
#    0.000    2.154    3.077    0.923    0.000    0.000 
#    0.000    0.000    0.000    0.000    0.000    0.000 
#    0.000    0.000    0.000 3439.385    0.000    0.923 
#
# Total GULP energy -145004.724302 kJ/mol
# GULP energy per Si atom -5577.104781 kJ/mol
# Density = 2.302990 g / cm^3
# Si number density = 23.082438 Si / 1000 Ang^3
#
#
#
# Elastic Constant Matrix: (Units=GPa)
#
#
# Indices 1 2 3 4 5 6 
#
# 1 179.9004 69.5001 27.4683 0.0000 -32.3700 0.0000
# 2 69.5001 121.7650 26.0341 0.0000 -15.3392 0.0000
# 3 27.4683 26.0341 45.9102 0.0000 -12.1609 0.0000
# 4 0.0000 0.0000 0.0000 23.6545 0.0000 14.9585
# 5 -32.3700 -15.3392 -12.1609 0.0000 16.4779 0.0000
# 6 0.0000 0.0000 0.0000 14.9585 0.0000 68.3897
#
#
#
# Elastic Compliance Matrix: (Units=1/GPa)
#
#
# Indices 1 2 3 4 5 6 
#
# 1 0.009823 -0.003667 0.000509 0.000000 0.016259 0.000000
# 2 -0.003667 0.011209 -0.004110 0.000000 0.000197 0.000000
# 3 0.000509 -0.004110 0.028662 0.000000 0.018327 0.000000
# 4 0.000000 0.000000 0.000000 0.049061 0.000000 -0.010731
# 5 0.016259 0.000197 0.018327 0.000000 0.106337 0.000000
# 6 0.000000 0.000000 0.000000 -0.010731 0.000000 0.016969
#
#
# Mechanical properties :
#
#
# Convention : Reuss Voigt Hill
#
# Bulk Modulus (GPa) = 28.44278 65.95340 47.19809
# Shear Modulus (GPa) = 20.13546 36.67595 28.40570
#
# Velocity S-wave (km/s) = 2.95672 3.99044 3.51182
# Velocity P-wave (km/s) = 4.89952 7.06162 6.07749
#
# Compressibility (1/GPa) = 0.03515831
#
# Stress axis : x y z
#
# Youngs Moduli (GPa) = 101.79903 89.21080 34.88900
#
# Poissons Ratio (x) = 0.32718 -0.01776
# Poissons Ratio (y) = 0.37335 0.14339
# Poissons Ratio (z) = -0.05183 0.36666
#
# Static dielectric constant tensor:
#      x y z
#    x 1.970240 0.000000 -0.010520 
#    y 0.000000 1.881780 0.000000 
#    z -0.010520 0.000000 1.878100 
# 
# From -- ./inp_files/52217.got.cif
#   From: 2010.05.17/outbox.cif.g08.bks.cpg/sg13_27_cif.got.tgz:52217.got - 2010.06.03 16:44:36.
