data_PCOD9228908
_publ_section_title
;
Structure prediction by ZEFSAII (Michael W. Deem and Ramdas Pophale) SiO2 
 PCOD9228908
Probable space group: P 2/C
;
_chemical_formula_sum "Si O2"
_cell_formula_units_Z 24
_cell_length_a 8.277022
_cell_length_b 8.287377
_cell_length_c 15.284158
_cell_angle_alpha 90.000000
_cell_angle_beta 120.403150
_cell_angle_gamma 90.000000
_cell_volume 904.242054
_symmetry_space_group_name_H-M "P 2/C"
_symmetry_group_IT_number 13
_symmetry_cell_setting 'monoclinic'
loop_
_space_group_symop_operation_xyz
x,y,z
-x,y,1/2-z
-x,-y,-z
x,-y,1/2+z
loop_
_atom_site_type_symbol
_atom_site_label
_atom_site_fract_x
_atom_site_fract_y
_atom_site_fract_z
Si Si1 0.032893 0.005936 0.902671
Si Si2 0.406407 0.126358 0.037761
Si Si3 0.315339 0.571351 0.873808
Si Si4 0.310538 0.874700 0.158270
Si Si5 0.644966 0.464238 0.871286
Si Si6 0.036723 0.633531 0.634192
O O1 0.841403 0.075469 0.812709
O O2 0.034306 0.819395 0.876858
O O3 0.200064 0.131378 0.937971
O O4 0.000000 0.000000 0.000000
O O5 0.550306 0.270581 0.088344
O O6 0.368996 0.028692 0.117215
O O7 0.500000 0.000000 0.000000
O O8 0.483441 0.445235 0.902126
O O9 0.172689 0.590374 0.753020
O O10 0.163503 0.541802 0.909206
O O11 0.500000 0.816185 0.250000
O O12 0.245865 0.707422 0.097406
O O13 0.500000 0.501966 0.750000
O O14 0.815839 0.593807 0.904194
#
# Coordination Sequence:
#
# PCOD9228908 Si02
#       6
#     4   4   4   4   4   4
#     4  10  20  35  58  82 113 149 190 233 288 343
#     4  11  21  38  57  84 121 149 189 245 290 338
#     4  10  20  36  61  83 112 152 197 240 287 350
#     4  10  21  39  61  86 114 151 193 239 292 345
#     4   9  19  37  59  84 116 149 191 242 289 344
#     4  10  19  36  60  86 108 152 201 237 285 348
#
# _framework density 26.541566
#
# number of rings (size 3 to 8) (size 9 to 14) (size 15 to 20)
#    0.000    2.000    1.667    3.000    0.000    1.333 
#    3.000    8.333    0.000    0.000    0.000    0.000 
#    0.000    0.000    0.000    0.000    0.000    0.000 
#
# Total GULP energy -133631.430256 kJ/mol
# GULP energy per Si atom -5567.976261 kJ/mol
# Density = 2.648116 g / cm^3
# Si number density = 26.541566 Si / 1000 Ang^3
#
#
#
# Elastic Constant Matrix: (Units=GPa)
#
#
# Indices 1 2 3 4 5 6 
#
# 1 185.8260 27.3832 39.7658 0.0000 59.0364 0.0000
# 2 27.3832 87.3988 -4.8993 0.0000 21.9515 0.0000
# 3 39.7658 -4.8993 58.0597 0.0000 28.8213 0.0000
# 4 0.0000 0.0000 0.0000 31.8945 0.0000 7.2336
# 5 59.0364 21.9515 28.8213 0.0000 59.3054 0.0000
# 6 0.0000 0.0000 0.0000 7.2336 0.0000 22.0803
#
#
#
# Elastic Compliance Matrix: (Units=1/GPa)
#
#
# Indices 1 2 3 4 5 6 
#
# 1 0.008126 -0.001040 -0.002411 0.000000 -0.006532 0.000000
# 2 -0.001040 0.013688 0.005099 0.000000 -0.006509 0.000000
# 3 -0.002411 0.005099 0.025108 0.000000 -0.011690 0.000000
# 4 0.000000 0.000000 0.000000 0.033870 0.000000 -0.011096
# 5 -0.006532 -0.006509 -0.011690 0.000000 0.031455 0.000000
# 6 0.000000 0.000000 0.000000 -0.011096 0.000000 0.048924
#
#
# Mechanical properties :
#
#
# Convention : Reuss Voigt Hill
#
# Bulk Modulus (GPa) = 19.91335 50.64264 35.27800
# Shear Modulus (GPa) = 28.63452 40.59170 34.61311
#
# Velocity S-wave (km/s) = 3.28816 3.91495 3.61516
# Velocity P-wave (km/s) = 4.68348 6.28949 5.54494
#
# Compressibility (1/GPa) = 0.05021757
#
# Stress axis : x y z
#
# Youngs Moduli (GPa) = 123.06378 73.05466 39.82848
#
# Poissons Ratio (x) = 0.07600 0.09601
# Poissons Ratio (y) = 0.12803 -0.20307
# Poissons Ratio (z) = 0.29665 -0.37248
#
# Static dielectric constant tensor:
#      x y z
#    x 2.251140 0.000000 0.101720 
#    y 0.000000 2.196350 0.000000 
#    z 0.101720 0.000000 3.000560 
# 
# From -- ./inp_files/75757.got.cif
#   From: 2010.05.17/outbox.cif.g08.bks.cpg/sg13_38_cif.got.tgz:75757.got - 2010.06.03 16:44:36.
