data_PCOD9228479
_publ_section_title
;
Structure prediction by ZEFSAII (Michael W. Deem and Ramdas Pophale) SiO2 
 PCOD9228479
Probable space group: P 2/C
;
_chemical_formula_sum "Si O2"
_cell_formula_units_Z 28
_cell_length_a 23.414981
_cell_length_b 10.501636
_cell_length_c 23.698773
_cell_angle_alpha 90.000000
_cell_angle_beta 167.444860
_cell_angle_gamma 90.000000
_cell_volume 1266.760084
_symmetry_space_group_name_H-M "P 2/C"
_symmetry_group_IT_number 13
_symmetry_cell_setting 'monoclinic'
loop_
_space_group_symop_operation_xyz
x,y,z
-x,y,1/2-z
-x,-y,-z
x,-y,1/2+z
loop_
_atom_site_type_symbol
_atom_site_label
_atom_site_fract_x
_atom_site_fract_y
_atom_site_fract_z
Si Si1 0.640196 0.600603 0.593325
Si Si2 0.052189 0.713860 0.518812
Si Si3 0.393517 0.632478 0.498371
Si Si4 0.834110 0.839521 0.145201
Si Si5 0.710686 0.114119 0.997418
Si Si6 0.484630 0.862448 0.071784
Si Si7 0.998053 0.028577 0.578922
O O1 0.500000 0.500000 0.500000
O O2 0.909572 0.644012 0.884198
O O3 0.646553 0.519763 0.541717
O O4 0.495158 0.734649 0.444858
O O5 0.046009 0.866798 0.512094
O O6 0.810551 0.675122 0.247022
O O7 0.315041 0.672046 0.738763
O O8 0.318138 0.716167 0.479608
O O9 0.000000 0.808049 0.250000
O O10 0.997739 0.895342 0.356844
O O11 0.663521 0.963128 0.963863
O O12 0.662713 0.174628 0.012097
O O13 0.000000 0.125949 0.250000
O O14 0.500000 0.162233 0.750000
O O15 0.284378 0.964249 0.851335
O O16 0.762331 0.927889 0.351809
#
# Coordination Sequence:
#
# PCOD9228479 Si02
#       7
#     4   4   4   4   4   4   4
#     4  10  24  42  61  80 113 161 198 230 280 338
#     4  10  20  38  60  82 114 149 188 239 288 334
#     4  10  21  37  57  84 115 150 195 231 268 339
#     4   9  18  34  60  88 115 147 183 233 290 337
#     4  10  19  34  57  85 115 146 180 226 291 345
#     4  11  22  37  59  88 119 148 188 239 285 338
#     4  10  21  36  58  91 117 141 186 243 294 340
#
# _framework density 22.103632999999999
#
# number of rings (size 3 to 8) (size 9 to 14) (size 15 to 20)
#    0.000    2.000    0.000    5.571    0.000    8.000 
#    0.000    0.714    0.000    4.286    0.000    0.000 
#    0.000    0.000    0.000    0.000    0.000    0.000 
#
# Total GULP energy -156405.697083 kJ/mol
# GULP energy per Si atom -5585.917753 kJ/mol
# Density = 2.205332 g / cm^3
# Si number density = 22.103633 Si / 1000 Ang^3
#
#
#
# Elastic Constant Matrix: (Units=GPa)
#
#
# Indices 1 2 3 4 5 6 
#
# 1 76.7783 30.8573 38.9228 0.0000 6.2069 0.0000
# 2 30.8573 105.8912 8.7872 0.0000 11.5292 0.0000
# 3 38.9228 8.7872 60.4391 0.0000 9.4594 0.0000
# 4 0.0000 0.0000 0.0000 20.4312 0.0000 5.5181
# 5 6.2069 11.5292 9.4594 0.0000 26.8551 0.0000
# 6 0.0000 0.0000 0.0000 5.5181 0.0000 31.7379
#
#
#
# Elastic Compliance Matrix: (Units=1/GPa)
#
#
# Indices 1 2 3 4 5 6 
#
# 1 0.022017 -0.005507 -0.013707 0.000000 0.002104 0.000000
# 2 -0.005507 0.011323 0.002606 0.000000 -0.004506 0.000000
# 3 -0.013707 0.002606 0.026113 0.000000 -0.007149 0.000000
# 4 0.000000 0.000000 0.000000 0.051356 0.000000 -0.008929
# 5 0.002104 -0.004506 -0.007149 0.000000 0.041203 0.000000
# 6 0.000000 0.000000 0.000000 -0.008929 0.000000 0.033061
#
#
# Mechanical properties :
#
#
# Convention : Reuss Voigt Hill
#
# Bulk Modulus (GPa) = 38.11735 44.47146 41.29440
# Shear Modulus (GPa) = 22.02293 26.77427 24.39860
#
# Velocity S-wave (km/s) = 3.15992 3.48416 3.32599
# Velocity P-wave (km/s) = 5.53134 6.02901 5.78553
#
# Compressibility (1/GPa) = 0.02623478
#
# Stress axis : x y z
#
# Youngs Moduli (GPa) = 45.41968 88.31646 38.29483
#
# Poissons Ratio (x) = 0.48640 0.52493
# Poissons Ratio (y) = 0.25015 -0.09979
# Poissons Ratio (z) = 0.62259 -0.23014
#
# Static dielectric constant tensor:
#      x y z
#    x 1.918810 0.000000 -0.005010 
#    y 0.000000 1.893820 0.000000 
#    z -0.005010 0.000000 1.836720 
# 
# From -- ./inp_files/94190.got.cif
#   From: 2010.05.17/outbox.cif.g08.bks.cpg/sg13_48_cif.got.tgz:94190.got - 2010.06.03 16:44:36.
