data_PCOD9228529
_publ_section_title
;
Structure prediction by ZEFSAII (Michael W. Deem and Ramdas Pophale) SiO2 
 PCOD9228529
Probable space group: P 2/C
;
_chemical_formula_sum "Si O2"
_cell_formula_units_Z 28
_cell_length_a 17.182063
_cell_length_b 8.433841
_cell_length_c 19.168205
_cell_angle_alpha 90.000000
_cell_angle_beta 155.503819
_cell_angle_gamma 90.000000
_cell_volume 1151.716517
_symmetry_space_group_name_H-M "P 2/C"
_symmetry_group_IT_number 13
_symmetry_cell_setting 'monoclinic'
loop_
_space_group_symop_operation_xyz
x,y,z
-x,y,1/2-z
-x,-y,-z
x,-y,1/2+z
loop_
_atom_site_type_symbol
_atom_site_label
_atom_site_fract_x
_atom_site_fract_y
_atom_site_fract_z
Si Si1 0.654236 0.706792 0.154298
Si Si2 0.049213 0.441507 0.963496
Si Si3 0.646272 0.141210 0.462016
Si Si4 0.829796 0.011691 0.751264
Si Si5 0.914668 0.689140 0.754061
Si Si6 0.762718 0.121560 0.401726
Si Si7 0.442119 0.466266 0.056461
O O1 0.679760 0.895389 0.177482
O O2 0.600952 0.603557 0.178747
O O3 0.857521 0.654239 0.291231
O O4 0.522314 0.643924 0.983902
O O5 0.061447 0.584211 0.918617
O O6 0.208171 0.308562 0.091368
O O7 0.000000 0.500000 0.000000
O O8 0.775619 0.088288 0.631555
O O9 0.740689 0.097752 0.466459
O O10 0.435833 0.070189 0.291931
O O11 0.608520 0.330738 0.429703
O O12 0.830702 0.826316 0.734748
O O13 0.038581 0.040954 0.952274
O O14 0.743219 0.573581 0.597085
O O15 0.000000 0.746935 0.750000
#
# Coordination Sequence:
#
# PCOD9228529 Si02
#       7
#     4   4   4   4   4   4   4
#     4   8  17  33  54  79 108 153 195 234 291 351
#     4  10  20  36  57  82 116 153 196 253 305 354
#     4  10  19  34  59  85 112 153 203 250 298 355
#     4  10  21  38  59  85 123 161 198 245 302 371
#     4  11  22  36  59  88 120 160 199 247 311 369
#     4  10  20  35  58  85 113 154 201 245 299 363
#     4   9  17  32  54  81 111 143 197 249 285 345
#
# _framework density 24.311537000000001
#
# number of rings (size 3 to 8) (size 9 to 14) (size 15 to 20)
#    0.000    2.286    0.000    3.857    0.000    1.714 
#    0.000    5.714    0.000    6.857    0.000    0.000 
#    0.000    0.000    0.000    0.000    0.000    0.000 
#
# Total GULP energy -156088.402655 kJ/mol
# GULP energy per Si atom -5574.585809 kJ/mol
# Density = 2.425620 g / cm^3
# Si number density = 24.311537 Si / 1000 Ang^3
#
#
#
# Elastic Constant Matrix: (Units=GPa)
#
#
# Indices 1 2 3 4 5 6 
#
# 1 78.1023 36.7469 10.4231 0.0000 0.2489 0.0000
# 2 36.7469 59.6738 13.6183 0.0000 2.2053 0.0000
# 3 10.4231 13.6183 83.1168 0.0000 10.2557 0.0000
# 4 0.0000 0.0000 0.0000 -0.0836 0.0000 -0.8635
# 5 0.2489 2.2053 10.2557 0.0000 20.0346 0.0000
# 6 0.0000 0.0000 0.0000 -0.8635 0.0000 29.1626
#
#
#
# Elastic Compliance Matrix: (Units=1/GPa)
#
#
# Indices 1 2 3 4 5 6 
#
# 1 0.018075 -0.011038 -0.000620 0.000000 0.001308 0.000000
# 2 -0.011038 0.024153 -0.002415 0.000000 -0.001285 0.000000
# 3 -0.000620 -0.002415 0.013312 0.000000 -0.006541 0.000000
# 4 0.000000 0.000000 0.000000 -9.156953 0.000000 -0.271127
# 5 0.001308 -0.001285 -0.006541 0.000000 0.053387 0.000000
# 6 0.000000 0.000000 0.000000 -0.271127 0.000000 0.026263
#
#
# Mechanical properties :
#
#
# Convention : Reuss Voigt Hill
#
# Bulk Modulus (GPa) = 36.50095 38.05217 37.27656
# Shear Modulus (GPa) = -0.55651 20.49636 9.96992
#
# Velocity S-wave (km/s) = -0.47896 2.90672 2.02727
# Velocity P-wave (km/s) = 3.83934 5.19146 4.56573
#
# Compressibility (1/GPa) = 0.02739655
#
# Stress axis : x y z
#
# Youngs Moduli (GPa) = 55.32364 41.40216 75.12219
#
# Poissons Ratio (x) = 0.45699 0.04654
# Poissons Ratio (y) = 0.61065 0.18139
# Poissons Ratio (z) = 0.03428 0.09997
#
# Static dielectric constant tensor:
#      x y z
#    x 1.920530 0.000000 -0.017440 
#    y 0.000000 2.022040 0.000000 
#    z -0.017440 0.000000 2.035200 
# 
# From -- ./inp_files/88536.got.cif
#   From: 2010.05.17/outbox.cif.g08.bks.cpg/sg13_45_cif.got.tgz:88536.got - 2010.06.03 16:44:36.
