data_PCOD9228757
_publ_section_title
;
Structure prediction by ZEFSAII (Michael W. Deem and Ramdas Pophale) SiO2 
 PCOD9228757
Probable space group: P 2/C
;
_chemical_formula_sum "Si O2"
_cell_formula_units_Z 30
_cell_length_a 6.144826
_cell_length_b 13.147467
_cell_length_c 19.327608
_cell_angle_alpha 90.000000
_cell_angle_beta 88.308428
_cell_angle_gamma 90.000000
_cell_volume 1560.775671
_symmetry_space_group_name_H-M "P 2/C"
_symmetry_group_IT_number 13
_symmetry_cell_setting 'monoclinic'
loop_
_space_group_symop_operation_xyz
x,y,z
-x,y,1/2-z
-x,-y,-z
x,-y,1/2+z
loop_
_atom_site_type_symbol
_atom_site_label
_atom_site_fract_x
_atom_site_fract_y
_atom_site_fract_z
Si Si1 0.000000 0.771673 0.750000
Si Si2 0.550658 0.305307 0.437073
Si Si3 0.419996 0.942174 0.431630
Si Si4 0.685464 0.733769 0.427456
Si Si5 0.060866 0.174252 0.010263
Si Si6 0.683035 0.603790 0.804673
Si Si7 0.248624 0.629727 0.219710
Si Si8 0.739842 0.129809 0.130907
O O1 0.141467 0.693919 0.702346
O O2 0.152749 0.839509 0.797802
O O3 0.452828 0.327247 0.513475
O O4 0.769748 0.245057 0.451715
O O5 0.589086 0.395482 0.383179
O O6 0.399388 0.224375 0.397350
O O7 0.568923 0.843631 0.416668
O O8 0.189029 0.897395 0.456730
O O9 0.500000 0.000000 0.500000
O O10 0.399245 0.026249 0.371968
O O11 0.726573 0.677815 0.356088
O O12 0.906048 0.757640 0.465277
O O13 0.924973 0.117016 0.070396
O O14 0.500000 0.630237 0.750000
O O15 0.765302 0.492449 0.784697
O O16 0.500000 0.649596 0.250000
O O17 0.000000 0.661851 0.250000
#
# Coordination Sequence:
#
# PCOD9228757 Si02
#       8
#     2   4   4   4   4   4   4   4
#     4  12  22  36  60  94 134 178 216 278 342 418
#     4  10  20  36  64  98 130 164 215 281 332 402
#     4  11  20  36  62  93 124 170 219 270 334 404
#     4  10  24  41  66  96 128 171 232 283 337 400
#     4  10  19  35  62  88 127 168 217 270 332 396
#     4  11  22  41  67  93 133 177 223 271 348 419
#     4  11  27  49  75  96 133 187 234 282 350 419
#     4  11  21  34  58  94 130 170 214 266 332 404
#
# _framework density 19.221212000000001
#
# number of rings (size 3 to 8) (size 9 to 14) (size 15 to 20)
#    0.000    1.333    7.333    0.400    3.733    0.533 
#    0.000    2.000    0.000    0.000    0.000    0.000 
#    0.000    0.000    0.000    0.000    0.000    0.000 
#
# Total GULP energy -167120.954617 kJ/mol
# GULP energy per Si atom -5570.698487 kJ/mol
# Density = 1.917746 g / cm^3
# Si number density = 19.221212 Si / 1000 Ang^3
#
#
#
# Elastic Constant Matrix: (Units=GPa)
#
#
# Indices 1 2 3 4 5 6 
#
# 1 90.3932 15.0952 44.4594 0.0000 5.7033 0.0000
# 2 15.0952 17.7692 29.8619 0.0000 5.8623 0.0000
# 3 44.4594 29.8619 121.5935 0.0000 8.0547 0.0000
# 4 0.0000 0.0000 0.0000 19.6036 0.0000 9.4242
# 5 5.7033 5.8623 8.0547 0.0000 26.2749 0.0000
# 6 0.0000 0.0000 0.0000 9.4242 0.0000 -0.4912
#
#
#
# Elastic Compliance Matrix: (Units=1/GPa)
#
#
# Indices 1 2 3 4 5 6 
#
# 1 0.013811 -0.005273 -0.003710 0.000000 -0.000684 0.000000
# 2 -0.005273 0.103542 -0.022503 0.000000 -0.015059 0.000000
# 3 -0.003710 -0.022503 0.015026 0.000000 0.001220 0.000000
# 4 0.000000 0.000000 0.000000 0.004989 0.000000 0.095731
# 5 -0.000684 -0.015059 0.001220 0.000000 0.041194 0.000000
# 6 0.000000 0.000000 0.000000 0.095731 0.000000 -0.199133
#
#
# Mechanical properties :
#
#
# Convention : Reuss Voigt Hill
#
# Bulk Modulus (GPa) = 14.40751 45.39876 29.90314
# Shear Modulus (GPa) = 76.29241 18.43343 47.36292
#
# Velocity S-wave (km/s) = 6.30698 3.10016 4.96935
# Velocity P-wave (km/s) = 7.78133 6.04028 6.96542
#
# Compressibility (1/GPa) = 0.06940826
#
# Stress axis : x y z
#
# Youngs Moduli (GPa) = 72.40595 9.65787 66.55020
#
# Poissons Ratio (x) = 0.05092 0.24687
# Poissons Ratio (y) = 0.38178 1.49760
# Poissons Ratio (z) = 0.26860 0.21733
#
# Static dielectric constant tensor:
#      x y z
#    x 1.784550 0.000000 -0.031940 
#    y 0.000000 1.666570 0.000000 
#    z -0.031940 0.000000 1.665690 
# 
# From -- ./inp_files/73631.got.cif
#   From: 2010.05.17/outbox.cif.g08.bks.cpg/sg13_37_cif.got.tgz:73631.got - 2010.06.03 16:44:36.
