data_PCOD9228818
_publ_section_title
;
Structure prediction by ZEFSAII (Michael W. Deem and Ramdas Pophale) SiO2 
 PCOD9228818
Probable space group: P 2/C
;
_chemical_formula_sum "Si O2"
_cell_formula_units_Z 28
_cell_length_a 11.938594
_cell_length_b 8.969319
_cell_length_c 12.955525
_cell_angle_alpha 90.000000
_cell_angle_beta 121.020013
_cell_angle_gamma 90.000000
_cell_volume 1188.891114
_symmetry_space_group_name_H-M "P 2/C"
_symmetry_group_IT_number 13
_symmetry_cell_setting 'monoclinic'
loop_
_space_group_symop_operation_xyz
x,y,z
-x,y,1/2-z
-x,-y,-z
x,-y,1/2+z
loop_
_atom_site_type_symbol
_atom_site_label
_atom_site_fract_x
_atom_site_fract_y
_atom_site_fract_z
Si Si1 0.716945 0.455587 0.562698
Si Si2 0.439146 0.695911 0.883900
Si Si3 0.832934 0.939579 0.484386
Si Si4 0.743370 0.564126 0.847880
Si Si5 0.257881 0.738399 0.247623
Si Si6 0.102801 0.178280 0.148014
Si Si7 0.673550 0.023323 0.107129
O O1 0.665715 0.607603 0.591662
O O2 0.578740 0.376717 0.468244
O O3 0.782334 0.467293 0.483269
O O4 0.799711 0.351293 0.680150
O O5 0.372720 0.677056 0.739955
O O6 0.442038 0.866830 0.917137
O O7 0.810982 0.826749 0.377770
O O8 0.714750 0.967730 0.507163
O O9 0.955547 0.868089 0.602145
O O10 0.869303 0.097355 0.449316
O O11 0.683948 0.407398 0.779610
O O12 0.865705 0.647050 0.851368
O O13 0.339552 0.865489 0.342902
O O14 0.202390 0.100600 0.274180
#
# Coordination Sequence:
#
# PCOD9228818 Si02
#       7
#     4   4   4   4   4   4   4
#     4  10  19  36  56  80 115 152 187 235 287 338
#     4   9  20  34  56  81 108 151 195 226 281 353
#     4  10  19  36  56  80 115 152 187 235 287 338
#     4  10  19  36  56  81 115 149 188 240 285 334
#     4  10  22  34  56  88 114 146 196 234 284 354
#     4   9  20  34  56  81 108 151 195 226 281 353
#     4  10  19  36  56  81 115 149 188 240 285 334
#
# _framework density 23.551359000000001
#
# number of rings (size 3 to 8) (size 9 to 14) (size 15 to 20)
#    0.000    2.286    0.000    2.571    0.000    1.143 
#    0.000    4.286    0.000   20.571    0.000    0.000 
#    0.000    0.000    0.000    0.000    0.000    0.000 
#
# Total GULP energy -155918.362494 kJ/mol
# GULP energy per Si atom -5568.512946 kJ/mol
# Density = 2.349776 g / cm^3
# Si number density = 23.551359 Si / 1000 Ang^3
#
#
#
# Elastic Constant Matrix: (Units=GPa)
#
#
# Indices 1 2 3 4 5 6 
#
# 1 36.3958 -2.0726 0.9515 0.0000 1.1989 0.0000
# 2 -2.0726 124.1923 4.9143 0.0000 -4.5659 0.0000
# 3 0.9515 4.9143 100.2167 0.0000 -5.2360 0.0000
# 4 0.0000 0.0000 0.0000 32.6904 0.0000 6.6086
# 5 1.1989 -4.5659 -5.2360 0.0000 32.2275 0.0000
# 6 0.0000 0.0000 0.0000 6.6086 0.0000 11.8004
#
#
#
# Elastic Compliance Matrix: (Units=1/GPa)
#
#
# Indices 1 2 3 4 5 6 
#
# 1 0.027543 0.000436 -0.000336 0.000000 -0.001018 0.000000
# 2 0.000436 0.008113 -0.000346 0.000000 0.001077 0.000000
# 3 -0.000336 -0.000346 0.010082 0.000000 0.001602 0.000000
# 4 0.000000 0.000000 0.000000 0.034495 0.000000 -0.019318
# 5 -0.001018 0.001077 0.001602 0.000000 0.031480 0.000000
# 6 0.000000 0.000000 0.000000 -0.019318 0.000000 0.095562
#
#
# Mechanical properties :
#
#
# Convention : Reuss Voigt Hill
#
# Bulk Modulus (GPa) = 22.10179 29.82126 25.96152
# Shear Modulus (GPa) = 22.43670 32.47776 27.45723
#
# Velocity S-wave (km/s) = 3.08989 3.71754 3.41815
# Velocity P-wave (km/s) = 4.70476 5.57822 5.16000
#
# Compressibility (1/GPa) = 0.04524521
#
# Stress axis : x y z
#
# Youngs Moduli (GPa) = 36.30714 123.26551 99.18476
#
# Poissons Ratio (x) = -0.05369 0.03333
# Poissons Ratio (y) = -0.01581 0.03429
# Poissons Ratio (z) = 0.01220 0.04261
#
# Static dielectric constant tensor:
#      x y z
#    x 1.929130 0.000000 -0.017070 
#    y 0.000000 1.925330 0.000000 
#    z -0.017070 0.000000 1.976040 
# 
# From -- ./inp_files/36515.got.cif
#   From: 2010.05.17/outbox.cif.g08.bks.cpg/sg13_19_cif.got.tgz:36515.got - 2010.06.03 16:44:36.
