data_PCOD9228065
_publ_section_title
;
Structure prediction by ZEFSAII (Michael W. Deem and Ramdas Pophale) SiO2 
 PCOD9228065
Probable space group: P 2/C
;
_chemical_formula_sum "Si O2"
_cell_formula_units_Z 24
_cell_length_a 14.527929
_cell_length_b 11.241090
_cell_length_c 9.699652
_cell_angle_alpha 90.000000
_cell_angle_beta 63.977069
_cell_angle_gamma 90.000000
_cell_volume 1423.454717
_symmetry_space_group_name_H-M "P 2/C"
_symmetry_group_IT_number 13
_symmetry_cell_setting 'monoclinic'
loop_
_space_group_symop_operation_xyz
x,y,z
-x,y,1/2-z
-x,-y,-z
x,-y,1/2+z
loop_
_atom_site_type_symbol
_atom_site_label
_atom_site_fract_x
_atom_site_fract_y
_atom_site_fract_z
Si Si1 0.615970 0.889443 0.129188
Si Si2 0.858676 0.386320 0.080053
Si Si3 0.092626 0.347830 0.995795
Si Si4 0.724132 0.985184 0.331041
Si Si5 0.116830 0.212288 0.692924
Si Si6 0.228354 0.243251 0.135091
O O1 0.500000 0.872431 0.250000
O O2 0.682041 0.934088 0.216080
O O3 0.670318 0.774046 0.025257
O O4 0.631767 0.987912 0.998662
O O5 0.854847 0.522493 0.035223
O O6 0.776314 0.344767 0.246796
O O7 0.856900 0.299777 0.950083
O O8 0.970564 0.368899 0.077857
O O9 0.117426 0.286942 0.833908
O O10 0.136714 0.267503 0.088729
O O11 0.803682 0.894106 0.345126
O O12 0.778121 0.114866 0.284891
O O13 0.000000 0.168869 0.750000
#
# Coordination Sequence:
#
# PCOD9228065 Si02
#       6
#     4   4   4   4   4   4
#     4  10  21  37  58  78 106 140 183 229 275 325
#     4  10  20  32  54  78 109 148 189 210 258 316
#     4  10  19  35  51  78 110 148 184 220 248 319
#     4  10  20  36  54  83 110 139 175 225 277 330
#     4  10  19  32  51  78 114 145 172 216 269 326
#     4  10  21  33  56  80 109 138 178 227 272 316
#
# _framework density 16.860389000000001
#
# number of rings (size 3 to 8) (size 9 to 14) (size 15 to 20)
#    1.000    1.000    1.667    3.000    0.000    4.000 
#    0.000    4.167    0.000    1.000    0.000    0.000 
#    0.000    0.000    0.000    0.000    0.000    0.000 
#
# Total GULP energy -133655.655215 kJ/mol
# GULP energy per Si atom -5568.985634 kJ/mol
# Density = 1.682201 g / cm^3
# Si number density = 16.860389 Si / 1000 Ang^3
#
#
#
# Elastic Constant Matrix: (Units=GPa)
#
#
# Indices 1 2 3 4 5 6 
#
# 1 41.9845 27.8861 21.9136 0.0000 2.4265 0.0000
# 2 27.8861 64.5149 14.2194 0.0000 -8.4451 0.0000
# 3 21.9136 14.2194 88.1140 0.0000 -5.5301 0.0000
# 4 0.0000 0.0000 0.0000 11.5798 0.0000 -4.9092
# 5 2.4265 -8.4451 -5.5301 0.0000 25.6996 0.0000
# 6 0.0000 0.0000 0.0000 -4.9092 0.0000 0.1677
#
#
#
# Elastic Compliance Matrix: (Units=1/GPa)
#
#
# Indices 1 2 3 4 5 6 
#
# 1 0.039783 -0.016904 -0.007856 0.000000 -0.011002 0.000000
# 2 -0.016904 0.023858 0.000959 0.000000 0.009642 0.000000
# 3 -0.007856 0.000959 0.013395 0.000000 0.003939 0.000000
# 4 0.000000 0.000000 0.000000 -0.007568 0.000000 -0.221550
# 5 -0.011002 0.009642 0.003939 0.000000 0.043966 0.000000
# 6 0.000000 0.000000 0.000000 -0.221550 0.000000 -0.522591
#
#
# Mechanical properties :
#
#
# Convention : Reuss Voigt Hill
#
# Bulk Modulus (GPa) = 33.97580 35.85018 34.91299
# Shear Modulus (GPa) = -14.21491 16.19570 0.99040
#
# Velocity S-wave (km/s) = -2.90676 3.10268 0.76726
# Velocity P-wave (km/s) = 2.98820 5.84334 4.64079
#
# Compressibility (1/GPa) = 0.02943271
#
# Stress axis : x y z
#
# Youngs Moduli (GPa) = 25.13668 41.91497 74.65345
#
# Poissons Ratio (x) = 0.70854 0.58650
# Poissons Ratio (y) = 0.42492 -0.07160
# Poissons Ratio (z) = 0.19748 -0.04020
#
# Static dielectric constant tensor:
#      x y z
#    x 1.548220 0.000000 -0.002120 
#    y 0.000000 1.558070 0.000000 
#    z -0.002120 0.000000 1.595070 
# 
# From -- ./inp_files/18479.got.cif
#   From: 2010.05.17/outbox.cif.g08.bks.cpg/sg13_10_cif.got.tgz:18479.got - 2010.06.03 16:44:36.
