data_PCOD9228816
_publ_section_title
;
Structure prediction by ZEFSAII (Michael W. Deem and Ramdas Pophale) SiO2 
 PCOD9228816
Probable space group: P 2/C
;
_chemical_formula_sum "Si O2"
_cell_formula_units_Z 30
_cell_length_a 12.307458
_cell_length_b 9.241472
_cell_length_c 12.567605
_cell_angle_alpha 90.000000
_cell_angle_beta 75.559947
_cell_angle_gamma 90.000000
_cell_volume 1384.270258
_symmetry_space_group_name_H-M "P 2/C"
_symmetry_group_IT_number 13
_symmetry_cell_setting 'monoclinic'
loop_
_space_group_symop_operation_xyz
x,y,z
-x,y,1/2-z
-x,-y,-z
x,-y,1/2+z
loop_
_atom_site_type_symbol
_atom_site_label
_atom_site_fract_x
_atom_site_fract_y
_atom_site_fract_z
Si Si1 0.044506 0.909661 0.851716
Si Si2 0.781566 0.693241 0.175457
Si Si3 0.268291 0.007569 0.898472
Si Si4 0.013830 0.238677 0.570866
Si Si5 0.498979 0.311063 0.067094
Si Si6 0.742833 0.774507 0.427083
Si Si7 0.500000 0.911547 0.750000
Si Si8 0.568160 0.607987 0.138133
O O1 0.177080 0.925922 0.845311
O O2 0.000000 0.861380 0.750000
O O3 0.998516 0.075084 0.877278
O O4 0.001699 0.798007 0.950166
O O5 0.913860 0.663472 0.140523
O O6 0.746363 0.755652 0.299457
O O7 0.691618 0.578608 0.154998
O O8 0.767031 0.827219 0.098114
O O9 0.391801 0.994066 0.819702
O O10 0.260219 0.933173 0.016349
O O11 0.138877 0.292039 0.563875
O O12 0.465396 0.189896 0.159196
O O13 0.497234 0.465189 0.126008
O O14 0.629304 0.293961 0.000467
O O15 0.430513 0.308864 0.974228
O O16 0.500000 0.684393 0.250000
#
# Coordination Sequence:
#
# PCOD9228816 Si02
#       8
#     4   4   4   4   4   4   2   4
#     4   9  16  30  48  71 110 150 180 212 254 317
#     4  11  21  34  56  83 112 144 181 218 274 325
#     4   9  21  32  51  83 114 147 178 215 268 325
#     4   9  18  30  50  79 106 141 182 216 263 319
#     4  10  22  39  59  78 104 141 188 230 270 324
#     4  10  19  36  56  79 111 148 178 225 267 318
#     4  10  20  36  54  78 112 146 178 218 272 318
#     4  11  22  39  58  80 103 141 186 231 275 320
#
# _framework density 21.672067999999999
#
# number of rings (size 3 to 8) (size 9 to 14) (size 15 to 20)
#    0.000    2.133    2.000    2.800    0.933    2.133 
#    0.000    3.333    0.000    0.000    0.000    0.000 
#    0.000    0.000    0.000    0.000    0.000    0.000 
#
# Total GULP energy -167309.342670 kJ/mol
# GULP energy per Si atom -5576.978089 kJ/mol
# Density = 2.162274 g / cm^3
# Si number density = 21.672068 Si / 1000 Ang^3
#
#
#
# Elastic Constant Matrix: (Units=GPa)
#
#
# Indices 1 2 3 4 5 6 
#
# 1 93.9376 2.9910 38.5835 0.0000 -4.2588 0.0000
# 2 2.9910 8.7989 1.2921 0.0000 6.7916 0.0000
# 3 38.5835 1.2921 101.5912 0.0000 20.7213 0.0000
# 4 0.0000 0.0000 0.0000 2.4998 0.0000 -4.7414
# 5 -4.2588 6.7916 20.7213 0.0000 45.5224 0.0000
# 6 0.0000 0.0000 0.0000 -4.7414 0.0000 7.9580
#
#
#
# Elastic Compliance Matrix: (Units=1/GPa)
#
#
# Indices 1 2 3 4 5 6 
#
# 1 0.013660 -0.007786 -0.006158 0.000000 0.005243 0.000000
# 2 -0.007786 0.133462 0.006029 0.000000 -0.023384 0.000000
# 3 -0.006158 0.006029 0.013676 0.000000 -0.007701 0.000000
# 4 0.000000 0.000000 0.000000 -3.075213 0.000000 -1.832238
# 5 0.005243 -0.023384 -0.007701 0.000000 0.029452 0.000000
# 6 0.000000 0.000000 0.000000 -1.832238 0.000000 -0.966003
#
#
# Mechanical properties :
#
#
# Convention : Reuss Voigt Hill
#
# Bulk Modulus (GPa) = 6.89807 32.22898 19.56353
# Shear Modulus (GPa) = -1.32037 21.96010 10.31986
#
# Velocity S-wave (km/s) = -0.78139 3.18668 2.18453
# Velocity P-wave (km/s) = 1.54135 5.33323 3.92550
#
# Compressibility (1/GPa) = 0.14496801
#
# Stress axis : x y z
#
# Youngs Moduli (GPa) = 73.20394 7.49279 73.11875
#
# Poissons Ratio (x) = 0.05834 0.45030
# Poissons Ratio (y) = 0.56996 -0.44085
# Poissons Ratio (z) = 0.45082 -0.04518
#
# Static dielectric constant tensor:
#      x y z
#    x 1.843240 0.000000 -0.023190 
#    y 0.000000 1.801100 0.000000 
#    z -0.023190 0.000000 1.815470 
# 
# From -- ./inp_files/33786.got.cif
#   From: 2010.05.17/outbox.cif.g08.bks.cpg/sg13_17_cif.got.tgz:33786.got - 2010.06.03 16:44:36.
