data_PCOD9228892
_publ_section_title
;
Structure prediction by ZEFSAII (Michael W. Deem and Ramdas Pophale) SiO2 
 PCOD9228892
Probable space group: P 2/C
;
_chemical_formula_sum "Si O2"
_cell_formula_units_Z 26
_cell_length_a 10.520469
_cell_length_b 9.035700
_cell_length_c 18.847184
_cell_angle_alpha 90.000000
_cell_angle_beta 45.173372
_cell_angle_gamma 90.000000
_cell_volume 1270.686879
_symmetry_space_group_name_H-M "P 2/C"
_symmetry_group_IT_number 13
_symmetry_cell_setting 'monoclinic'
loop_
_space_group_symop_operation_xyz
x,y,z
-x,y,1/2-z
-x,-y,-z
x,-y,1/2+z
loop_
_atom_site_type_symbol
_atom_site_label
_atom_site_fract_x
_atom_site_fract_y
_atom_site_fract_z
Si Si1 0.500000 0.223373 0.750000
Si Si2 0.174358 0.952751 0.723296
Si Si3 0.500000 0.255885 0.250000
Si Si4 0.105958 0.412466 0.057056
Si Si5 0.951882 0.060878 0.442111
Si Si6 0.000000 0.339795 0.250000
Si Si7 0.750480 0.522893 0.139007
Si Si8 0.561193 0.013752 0.105920
O O1 0.343813 0.335906 0.790350
O O2 0.441967 0.122637 0.837975
O O3 0.379881 0.996547 0.630546
O O4 0.000000 0.016476 0.750000
O O5 0.150209 0.776528 0.718901
O O6 0.118528 0.980201 0.826442
O O7 0.663284 0.368751 0.195968
O O8 0.537265 0.155556 0.166704
O O9 0.070544 0.238684 0.053460
O O10 0.091152 0.422738 0.147977
O O11 0.949741 0.516361 0.088961
O O12 0.264906 0.458151 0.940729
O O13 0.759096 0.993596 0.493981
O O14 0.000000 0.000000 0.500000
#
# Coordination Sequence:
#
# PCOD9228892 Si02
#       8
#     2   4   2   4   4   2   4   4
#     4  10  20  34  56  94 124 152 196 262 314 352
#     4   9  21  36  55  86 121 159 205 247 302 369
#     4  10  20  34  54  90 118 150 198 256 306 360
#     4  10  19  36  59  86 118 162 196 248 306 369
#     4  11  20  34  61  93 118 157 208 253 309 365
#     4   8  18  38  58  82 122 162 202 244 304 366
#     4  10  20  34  58  88 120 152 202 252 303 365
#     4  11  20  36  61  88 126 163 199 260 311 358
#
# _framework density 20.461375
#
# number of rings (size 3 to 8) (size 9 to 14) (size 15 to 20)
#    0.462    1.538    1.538    4.615    0.000    0.615 
#    0.000    0.000    1.692   10.154    0.000    0.000 
#    0.000    0.000    0.000    0.000    0.000    0.000 
#
# Total GULP energy -144751.800811 kJ/mol
# GULP energy per Si atom -5567.376954 kJ/mol
# Density = 2.041480 g / cm^3
# Si number density = 20.461375 Si / 1000 Ang^3
#
#
#
# Elastic Constant Matrix: (Units=GPa)
#
#
# Indices 1 2 3 4 5 6 
#
# 1 62.2547 -3.9474 10.0889 0.0000 -4.0941 0.0000
# 2 -3.9474 69.2293 9.4056 0.0000 1.8858 0.0000
# 3 10.0889 9.4056 78.0666 0.0000 1.7985 0.0000
# 4 0.0000 0.0000 0.0000 16.4785 0.0000 8.9914
# 5 -4.0941 1.8858 1.7985 0.0000 44.9604 0.0000
# 6 0.0000 0.0000 0.0000 8.9914 0.0000 -1.1309
#
#
#
# Elastic Compliance Matrix: (Units=1/GPa)
#
#
# Indices 1 2 3 4 5 6 
#
# 1 0.016621 0.001222 -0.002331 0.000000 0.001555 0.000000
# 2 0.001222 0.014788 -0.001930 0.000000 -0.000432 0.000000
# 3 -0.002331 -0.001930 0.013359 0.000000 -0.000666 0.000000
# 4 0.000000 0.000000 0.000000 0.011368 0.000000 0.090383
# 5 0.001555 -0.000432 -0.000666 0.000000 0.022428 0.000000
# 6 0.000000 0.000000 0.000000 0.090383 0.000000 -0.165644
#
#
# Mechanical properties :
#
#
# Convention : Reuss Voigt Hill
#
# Bulk Modulus (GPa) = 25.84635 26.73831 26.29233
# Shear Modulus (GPa) = -73.41489 24.99516 -24.20987
#
# Velocity S-wave (km/s) = -5.99647 3.49890 -3.44350
# Velocity P-wave (km/s) = 5.94006 5.42394 1.71248
#
# Compressibility (1/GPa) = 0.03869018
#
# Stress axis : x y z
#
# Youngs Moduli (GPa) = 60.16638 67.62075 74.85778
#
# Poissons Ratio (x) = -0.08263 0.17449
# Poissons Ratio (y) = -0.07352 0.14445
# Poissons Ratio (z) = 0.14025 0.13049
#
# Static dielectric constant tensor:
#      x y z
#    x 1.781700 0.000000 -0.015600 
#    y 0.000000 1.705260 0.000000 
#    z -0.015600 0.000000 1.852970 
# 
# From -- ./inp_files/78237.got.cif
#   From: 2010.05.17/outbox.cif.g08.bks.cpg/sg13_40_cif.got.tgz:78237.got - 2010.06.03 16:44:36.
