data_PCOD9228711
_publ_section_title
;
Structure prediction by ZEFSAII (Michael W. Deem and Ramdas Pophale) SiO2 
 PCOD9228711
Probable space group: P 2/C
;
_chemical_formula_sum "Si O2"
_cell_formula_units_Z 24
_cell_length_a 26.037842
_cell_length_b 9.416380
_cell_length_c 12.829106
_cell_angle_alpha 90.000000
_cell_angle_beta 25.297706
_cell_angle_gamma 90.000000
_cell_volume 1344.126890
_symmetry_space_group_name_H-M "P 2/C"
_symmetry_group_IT_number 13
_symmetry_cell_setting 'monoclinic'
loop_
_space_group_symop_operation_xyz
x,y,z
-x,y,1/2-z
-x,-y,-z
x,-y,1/2+z
loop_
_atom_site_type_symbol
_atom_site_label
_atom_site_fract_x
_atom_site_fract_y
_atom_site_fract_z
Si Si1 0.604550 0.177662 0.972057
Si Si2 0.622374 0.855492 0.956273
Si Si3 0.953198 0.625944 0.661282
Si Si4 0.236604 0.678227 0.654364
Si Si5 0.521135 0.658748 0.422884
Si Si6 0.824025 0.384527 0.616720
O O1 0.552850 0.243867 0.962124
O O2 0.712978 0.278011 0.810537
O O3 0.642140 0.015115 0.881367
O O4 0.500000 0.179031 0.250000
O O5 0.734228 0.803948 0.819467
O O6 0.500000 0.862283 0.250000
O O7 0.589731 0.733778 0.932612
O O8 0.865955 0.710786 0.742998
O O9 0.000000 0.500000 0.500000
O O10 0.072343 0.684336 0.499889
O O11 0.873701 0.584266 0.908707
O O12 0.362434 0.653934 0.364507
O O13 0.207736 0.534210 0.770697
O O14 0.500000 0.500000 0.500000
#
# Coordination Sequence:
#
# PCOD9228711 Si02
#       6
#     4   4   4   4   4   4
#     4  11  21  36  54  83 119 152 185 225 288 343
#     4   9  21  35  52  79 119 155 182 225 280 346
#     4   9  19  35  60  83 112 146 190 240 285 322
#     4  10  19  36  56  82 113 144 190 236 283 325
#     4  11  20  33  56  84 114 149 190 232 277 334
#     4  10  19  35  60  87 110 145 194 234 281 336
#
# _framework density 17.855457000000001
#
# number of rings (size 3 to 8) (size 9 to 14) (size 15 to 20)
#    0.000    2.000    1.667    2.500    0.000    1.333 
#    0.000    0.833    0.000    8.000    0.000    0.000 
#    0.000    0.000    0.000    0.000    0.000    0.000 
#
# Total GULP energy -133695.501625 kJ/mol
# GULP energy per Si atom -5570.645901 kJ/mol
# Density = 1.781482 g / cm^3
# Si number density = 17.855457 Si / 1000 Ang^3
#
#
#
# Elastic Constant Matrix: (Units=GPa)
#
#
# Indices 1 2 3 4 5 6 
#
# 1 150.9978 48.7385 31.8328 0.0000 -7.1413 0.0000
# 2 48.7385 95.2855 17.3173 0.0000 11.7029 0.0000
# 3 31.8328 17.3173 61.4912 0.0000 2.5476 0.0000
# 4 0.0000 0.0000 0.0000 16.9808 0.0000 -0.9050
# 5 -7.1413 11.7029 2.5476 0.0000 21.7951 0.0000
# 6 0.0000 0.0000 0.0000 -0.9050 0.0000 31.5150
#
#
#
# Elastic Compliance Matrix: (Units=1/GPa)
#
#
# Indices 1 2 3 4 5 6 
#
# 1 0.009230 -0.004793 -0.003678 0.000000 0.006028 0.000000
# 2 -0.004793 0.014275 -0.001162 0.000000 -0.009100 0.000000
# 3 -0.003678 -0.001162 0.018608 0.000000 -0.002756 0.000000
# 4 0.000000 0.000000 0.000000 0.058980 0.000000 0.001694
# 5 0.006028 -0.009100 -0.002756 0.000000 0.053065 0.000000
# 6 0.000000 0.000000 0.000000 0.001694 0.000000 0.031780
#
#
# Mechanical properties :
#
#
# Convention : Reuss Voigt Hill
#
# Bulk Modulus (GPa) = 43.76934 55.95020 49.85977
# Shear Modulus (GPa) = 23.49391 28.05055 25.77223
#
# Velocity S-wave (km/s) = 3.63131 3.96786 3.80331
# Velocity P-wave (km/s) = 6.49217 7.23844 6.87543
#
# Compressibility (1/GPa) = 0.02284704
#
# Stress axis : x y z
#
# Youngs Moduli (GPa) = 108.33955 70.05122 53.74017
#
# Poissons Ratio (x) = 0.33577 0.19767
# Poissons Ratio (y) = 0.51929 0.06244
# Poissons Ratio (z) = 0.39849 0.08139
#
# Static dielectric constant tensor:
#      x y z
#    x 1.637230 0.000000 -0.004580 
#    y 0.000000 1.584670 0.000000 
#    z -0.004580 0.000000 1.628450 
# 
# From -- ./inp_files/41553.got.cif
#   From: 2010.05.17/outbox.cif.g08.bks.cpg/sg13_21_cif.got.tgz:41553.got - 2010.06.03 16:44:36.
