data_PCOD9228843
_publ_section_title
;
Structure prediction by ZEFSAII (Michael W. Deem and Ramdas Pophale) SiO2 
 PCOD9228843
Probable space group: P 2/C
;
_chemical_formula_sum "Si O2"
_cell_formula_units_Z 30
_cell_length_a 12.152940
_cell_length_b 16.182500
_cell_length_c 12.085749
_cell_angle_alpha 90.000000
_cell_angle_beta 144.393762
_cell_angle_gamma 90.000000
_cell_volume 1383.825450
_symmetry_space_group_name_H-M "P 2/C"
_symmetry_group_IT_number 13
_symmetry_cell_setting 'monoclinic'
loop_
_space_group_symop_operation_xyz
x,y,z
-x,y,1/2-z
-x,-y,-z
x,-y,1/2+z
loop_
_atom_site_type_symbol
_atom_site_label
_atom_site_fract_x
_atom_site_fract_y
_atom_site_fract_z
Si Si1 0.806478 0.148729 0.041754
Si Si2 0.087218 0.386153 0.170293
Si Si3 0.440821 0.873547 0.941286
Si Si4 0.690469 0.684914 0.346389
Si Si5 0.488878 0.683367 0.963015
Si Si6 0.660768 0.980721 0.284094
Si Si7 0.924091 0.559883 0.080017
Si Si8 0.500000 0.575561 0.750000
O O1 0.685912 0.134809 0.053070
O O2 0.000000 0.180047 0.250000
O O3 0.708196 0.217137 0.884607
O O4 0.828288 0.065932 0.985839
O O5 0.287262 0.342879 0.354504
O O6 0.067877 0.482857 0.183999
O O7 0.072257 0.384518 0.024857
O O8 0.889792 0.349651 0.050688
O O9 0.487238 0.781411 0.940354
O O10 0.338478 0.926915 0.762565
O O11 0.612793 0.926956 0.134336
O O12 0.500000 0.655329 0.250000
O O13 0.650562 0.666599 0.185407
O O14 0.512001 0.631088 0.870603
O O15 0.500000 0.977728 0.250000
O O16 0.000000 0.605337 0.250000
O O17 0.704109 0.530719 0.909491
#
# Coordination Sequence:
#
# PCOD9228843 Si02
#       8
#     4   4   4   4   4   4   4   2
#     4  11  21  37  57  86 126 158 202 259 310 364
#     4  10  25  39  61  94 119 162 208 254 312 373
#     4  10  19  36  57  83 120 154 207 253 303 363
#     4  12  23  37  62  92 123 159 205 261 313 364
#     4  11  22  41  62  93 124 162 213 259 312 372
#     4   9  19  36  58  84 113 164 202 251 306 361
#     4  10  22  43  62  86 128 162 200 257 314 371
#     4  10  24  40  66  90 122 168 210 254 312 382
#
# _framework density 21.679034999999999
#
# number of rings (size 3 to 8) (size 9 to 14) (size 15 to 20)
#    0.000    1.600    2.667    2.000    3.733    0.533 
#    0.000    4.000    0.000    0.800    0.000    0.000 
#    0.000    0.000    0.000    0.000    0.000    0.000 
#
# Total GULP energy -167314.940892 kJ/mol
# GULP energy per Si atom -5577.164696 kJ/mol
# Density = 2.162969 g / cm^3
# Si number density = 21.679035 Si / 1000 Ang^3
#
#
#
# Elastic Constant Matrix: (Units=GPa)
#
#
# Indices 1 2 3 4 5 6 
#
# 1 54.1295 -3.9328 19.2310 0.0000 -6.4956 0.0000
# 2 -3.9328 51.8644 14.4539 0.0000 0.5947 0.0000
# 3 19.2310 14.4539 112.2950 0.0000 -4.8630 0.0000
# 4 0.0000 0.0000 0.0000 -1.3639 0.0000 4.9313
# 5 -6.4956 0.5947 -4.8630 0.0000 43.2649 0.0000
# 6 0.0000 0.0000 0.0000 4.9313 0.0000 11.9171
#
#
#
# Elastic Compliance Matrix: (Units=1/GPa)
#
#
# Indices 1 2 3 4 5 6 
#
# 1 0.020280 0.002536 -0.003687 0.000000 0.002595 0.000000
# 2 0.002536 0.020329 -0.003061 0.000000 -0.000243 0.000000
# 3 -0.003687 -0.003061 0.009957 0.000000 0.000608 0.000000
# 4 0.000000 0.000000 0.000000 -0.293734 0.000000 0.121546
# 5 0.002595 -0.000243 0.000608 0.000000 0.023575 0.000000
# 6 0.000000 0.000000 0.000000 0.121546 0.000000 0.033617
#
#
# Mechanical properties :
#
#
# Convention : Reuss Voigt Hill
#
# Bulk Modulus (GPa) = 23.73025 30.86590 27.29807
# Shear Modulus (GPa) = -30.58042 23.33276 -3.62383
#
# Velocity S-wave (km/s) = -3.75987 3.28423 -1.29430
# Velocity P-wave (km/s) = 2.80693 5.35258 3.22268
#
# Compressibility (1/GPa) = 0.04214031
#
# Stress axis : x y z
#
# Youngs Moduli (GPa) = 49.31016 49.19018 100.43301
#
# Poissons Ratio (x) = -0.12472 0.37029
# Poissons Ratio (y) = -0.12503 0.30747
# Poissons Ratio (z) = 0.18180 0.15059
#
# Static dielectric constant tensor:
#      x y z
#    x 1.849930 0.000000 0.009460 
#    y 0.000000 1.819390 0.000000 
#    z 0.009460 0.000000 1.831690 
# 
# From -- ./inp_files/34767.got.cif
#   From: 2010.05.17/outbox.cif.g08.bks.cpg/sg13_18_cif.got.tgz:34767.got - 2010.06.03 16:44:36.
