data_PCOD9228284
_publ_section_title
;
Structure prediction by ZEFSAII (Michael W. Deem and Ramdas Pophale) SiO2 
 PCOD9228284
Probable space group: P 2/C
;
_chemical_formula_sum "Si O2"
_cell_formula_units_Z 24
_cell_length_a 7.894109
_cell_length_b 11.426505
_cell_length_c 24.752047
_cell_angle_alpha 90.000000
_cell_angle_beta 148.186617
_cell_angle_gamma 90.000000
_cell_volume 1176.970031
_symmetry_space_group_name_H-M "P 2/C"
_symmetry_group_IT_number 13
_symmetry_cell_setting 'monoclinic'
loop_
_space_group_symop_operation_xyz
x,y,z
-x,y,1/2-z
-x,-y,-z
x,-y,1/2+z
loop_
_atom_site_type_symbol
_atom_site_label
_atom_site_fract_x
_atom_site_fract_y
_atom_site_fract_z
Si Si1 0.795110 0.329383 0.241155
Si Si2 0.372108 0.297167 0.848542
Si Si3 0.642170 0.099947 0.849226
Si Si4 0.325845 0.531379 0.152148
Si Si5 0.254914 0.840673 0.577010
Si Si6 0.886419 0.329135 0.061344
O O1 0.548271 0.421407 0.198495
O O2 0.590136 0.225558 0.158891
O O3 0.000000 0.387443 0.250000
O O4 0.012963 0.296748 0.350993
O O5 0.420822 0.174412 0.830683
O O6 0.618388 0.381989 0.882108
O O7 0.000000 0.329485 0.750000
O O8 0.517114 0.305772 0.947694
O O9 0.500000 0.107738 0.750000
O O10 0.667921 0.966364 0.876367
O O11 0.007650 0.147421 0.959727
O O12 0.500000 0.592144 0.250000
O O13 0.997235 0.464735 0.079100
O O14 0.073019 0.761061 0.572409
#
# Coordination Sequence:
#
# PCOD9228284 Si02
#       6
#     4   4   4   4   4   4
#     4  10  19  33  56  81 102 130 177 227 265 300
#     4  11  22  34  50  79 115 139 167 217 276 319
#     4  10  20  35  55  78 105 143 179 211 259 319
#     4   9  18  36  56  75 102 140 180 214 255 316
#     4   9  19  36  57  77 102 139 183 219 252 308
#     4   9  19  36  57  76 101 142 182 218 255 311
#
# _framework density 20.391344
#
# number of rings (size 3 to 8) (size 9 to 14) (size 15 to 20)
#    0.000    2.333    0.000    4.000    0.000    2.000 
#    0.000    9.167    0.000    8.000    0.000    0.000 
#    0.000    0.000    0.000    0.000    0.000    0.000 
#
# Total GULP energy -133654.986002 kJ/mol
# GULP energy per Si atom -5568.957750 kJ/mol
# Density = 2.034493 g / cm^3
# Si number density = 20.391344 Si / 1000 Ang^3
#
#
#
# Elastic Constant Matrix: (Units=GPa)
#
#
# Indices 1 2 3 4 5 6 
#
# 1 35.7366 -1.8831 37.1931 0.0000 -2.4891 0.0000
# 2 -1.8831 71.0449 35.1245 0.0000 -2.7957 0.0000
# 3 37.1931 35.1245 158.9010 0.0000 -11.1590 0.0000
# 4 0.0000 0.0000 0.0000 1.8260 0.0000 -16.9207
# 5 -2.4891 -2.7957 -11.1590 0.0000 27.0719 0.0000
# 6 0.0000 0.0000 0.0000 -16.9207 0.0000 -3.5129
#
#
#
# Elastic Compliance Matrix: (Units=1/GPa)
#
#
# Indices 1 2 3 4 5 6 
#
# 1 0.039343 0.006282 -0.010605 0.000000 -0.000105 0.000000
# 2 0.006282 0.016807 -0.005173 0.000000 0.000181 0.000000
# 3 -0.010605 -0.005173 0.010105 0.000000 0.002656 0.000000
# 4 0.000000 0.000000 0.000000 0.012001 0.000000 -0.057804
# 5 -0.000105 0.000181 0.002656 0.000000 0.038043 0.000000
# 6 0.000000 0.000000 0.000000 -0.057804 0.000000 -0.006238
#
#
# Mechanical properties :
#
#
# Convention : Reuss Voigt Hill
#
# Bulk Modulus (GPa) = 21.15797 45.17238 33.16517
# Shear Modulus (GPa) = 34.52887 18.09353 26.31120
#
# Velocity S-wave (km/s) = 4.11945 2.98201 3.59599
# Velocity P-wave (km/s) = 5.74673 5.83587 5.79147
#
# Compressibility (1/GPa) = 0.04726352
#
# Stress axis : x y z
#
# Youngs Moduli (GPa) = 25.41744 59.50054 98.95761
#
# Poissons Ratio (x) = -0.37376 1.04942
# Poissons Ratio (y) = -0.15966 0.51187
# Poissons Ratio (z) = 0.26955 0.30777
#
# Static dielectric constant tensor:
#      x y z
#    x 1.790470 0.000000 0.039150 
#    y 0.000000 1.737340 0.000000 
#    z 0.039150 0.000000 1.833080 
# 
# From -- ./inp_files/64329.got.cif
#   From: 2010.05.17/outbox.cif.g08.bks.cpg/sg13_33_cif.got.tgz:64329.got - 2010.06.03 16:44:36.
