data_PCOD9228107
_publ_section_title
;
Structure prediction by ZEFSAII (Michael W. Deem and Ramdas Pophale) SiO2 
 PCOD9228107
Probable space group: P 2/C
;
_chemical_formula_sum "Si O2"
_cell_formula_units_Z 20
_cell_length_a 8.291215
_cell_length_b 24.223996
_cell_length_c 9.864200
_cell_angle_alpha 90.000000
_cell_angle_beta 148.398520
_cell_angle_gamma 90.000000
_cell_volume 1038.158519
_symmetry_space_group_name_H-M "P 2/C"
_symmetry_group_IT_number 13
_symmetry_cell_setting 'monoclinic'
loop_
_space_group_symop_operation_xyz
x,y,z
-x,y,1/2-z
-x,-y,-z
x,-y,1/2+z
loop_
_atom_site_type_symbol
_atom_site_label
_atom_site_fract_x
_atom_site_fract_y
_atom_site_fract_z
Si Si1 0.308078 0.658537 0.252876
Si Si2 0.868813 0.169390 0.005302
Si Si3 0.806872 0.466717 0.748637
Si Si4 0.136798 0.045938 0.500119
Si Si5 0.814661 0.721339 0.761589
O O1 0.500000 0.662012 0.250000
O O2 0.290549 0.595214 0.281978
O O3 0.477264 0.700189 0.478767
O O4 0.967175 0.678168 0.972214
O O5 0.500000 0.183796 0.750000
O O6 0.904020 0.108302 0.969601
O O7 0.000000 0.162055 0.250000
O O8 0.085068 0.218924 0.106908
O O9 0.500000 0.500000 0.500000
O O10 0.000000 0.464057 0.750000
O O11 0.000000 0.500000 0.000000
O O12 0.500000 0.037645 0.750000
O O13 0.000000 0.000000 0.500000
O O14 0.000000 0.042206 0.250000
O O15 0.000000 0.719959 0.750000
#
# Coordination Sequence:
#
# PCOD9228107 Si02
#       5
#     4   4   4   4   4
#     4  10  19  32  53  80 107 136 174 222 273 324
#     4   9  16  28  48  76 106 139 183 231 275 324
#     4  12  25  42  62  85 115 150 187 229 275 330
#     4  10  20  34  54  80 112 149 191 238 286 338
#     4   9  16  28  49  77 105 134 175 224 268 318
#
# _framework density 19.264880000000002
#
# number of rings (size 3 to 8) (size 9 to 14) (size 15 to 20)
#    0.000    2.000    0.000    6.600    0.000    1.600 
#    0.000    0.000    0.000    3.600    0.000    0.000 
#    0.000    0.000    0.000    0.000    0.000    0.000 
#
# Total GULP energy -111429.666266 kJ/mol
# GULP energy per Si atom -5571.483313 kJ/mol
# Density = 1.922103 g / cm^3
# Si number density = 19.264880 Si / 1000 Ang^3
#
#
#
# Elastic Constant Matrix: (Units=GPa)
#
#
# Indices 1 2 3 4 5 6 
#
# 1 22.8813 31.5934 29.8351 0.0000 1.4700 0.0000
# 2 31.5934 175.5864 55.7631 0.0000 1.7083 0.0000
# 3 29.8351 55.7631 155.2175 0.0000 11.3445 0.0000
# 4 0.0000 0.0000 0.0000 36.0947 0.0000 -4.0074
# 5 1.4700 1.7083 11.3445 0.0000 14.5255 0.0000
# 6 0.0000 0.0000 0.0000 -4.0074 0.0000 19.6126
#
#
#
# Elastic Compliance Matrix: (Units=1/GPa)
#
#
# Indices 1 2 3 4 5 6 
#
# 1 0.069765 -0.009332 -0.010204 0.000000 0.002006 0.000000
# 2 -0.009332 0.007694 -0.001032 0.000000 0.000846 0.000000
# 3 -0.010204 -0.001032 0.009216 0.000000 -0.006044 0.000000
# 4 0.000000 0.000000 0.000000 0.028348 0.000000 0.005792
# 5 0.002006 0.000846 -0.006044 0.000000 0.073263 0.000000
# 6 0.000000 0.000000 0.000000 0.005792 0.000000 0.052171
#
#
# Mechanical properties :
#
#
# Convention : Reuss Voigt Hill
#
# Bulk Modulus (GPa) = 21.95904 65.34092 43.64998
# Shear Modulus (GPa) = 16.84792 29.81279 23.33035
#
# Velocity S-wave (km/s) = 2.96047 3.93812 3.48376
# Velocity P-wave (km/s) = 4.80719 7.39386 6.23611
#
# Compressibility (1/GPa) = 0.04553934
#
# Stress axis : x y z
#
# Youngs Moduli (GPa) = 14.33388 129.97395 108.50109
#
# Poissons Ratio (x) = 1.21289 1.10714
# Poissons Ratio (y) = 0.13376 0.11199
# Poissons Ratio (z) = 0.14626 0.13416
#
# Static dielectric constant tensor:
#      x y z
#    x 1.637780 0.000000 -0.005770 
#    y 0.000000 1.732110 0.000000 
#    z -0.005770 0.000000 1.670190 
# 
# From -- ./inp_files/13856.got.cif
#   From: 2010.05.17/outbox.cif.g08.bks.cpg/sg13_7_cif.got.tgz:13856.got - 2010.06.03 16:44:36.
