data_PCOD9228009
_publ_section_title
;
Structure prediction by ZEFSAII (Michael W. Deem and Ramdas Pophale) SiO2 
 PCOD9228009
Probable space group: P 2/C
;
_chemical_formula_sum "Si O2"
_cell_formula_units_Z 30
_cell_length_a 9.177248
_cell_length_b 14.666379
_cell_length_c 14.967944
_cell_angle_alpha 90.000000
_cell_angle_beta 142.660310
_cell_angle_gamma 90.000000
_cell_volume 1221.958521
_symmetry_space_group_name_H-M "P 2/C"
_symmetry_group_IT_number 13
_symmetry_cell_setting 'monoclinic'
loop_
_space_group_symop_operation_xyz
x,y,z
-x,y,1/2-z
-x,-y,-z
x,-y,1/2+z
loop_
_atom_site_type_symbol
_atom_site_label
_atom_site_fract_x
_atom_site_fract_y
_atom_site_fract_z
Si Si1 0.436574 0.345058 0.347049
Si Si2 0.939191 0.653077 0.095075
Si Si3 0.355671 0.971882 0.342382
Si Si4 0.000000 0.822417 0.250000
Si Si5 0.963109 0.560275 0.631745
Si Si6 0.869956 0.835629 0.785184
Si Si7 0.643696 0.825299 0.403753
Si Si8 0.487620 0.343671 0.908797
O O1 0.688862 0.343665 0.417187
O O2 0.319039 0.245252 0.297463
O O3 0.516931 0.373914 0.489335
O O4 0.217854 0.412314 0.213268
O O5 0.897376 0.747491 0.130469
O O6 0.928504 0.546916 0.119291
O O7 0.232985 0.654029 0.233658
O O8 0.551938 0.926820 0.374214
O O9 0.169714 0.892080 0.278491
O O10 0.500000 0.000000 0.500000
O O11 0.231798 0.063629 0.249507
O O12 0.716174 0.604896 0.476170
O O13 0.000000 0.598454 0.750000
O O14 0.000000 0.835745 0.750000
O O15 0.073130 0.818840 0.959118
O O16 0.500000 0.788469 0.250000
O O17 0.562153 0.761953 0.445392
#
# Coordination Sequence:
#
# PCOD9228009 Si02
#       8
#     4   4   4   2   4   4   4   4
#     4  11  19  33  59  90 126 160 212 266 329 380
#     4  12  20  30  53  94 133 156 208 274 334 379
#     4  12  22  39  66  95 124 169 218 266 319 388
#     4  12  20  32  54  90 130 156 206 268 330 366
#     4  10  19  31  53  87 128 168 203 267 333 385
#     4  12  21  40  66  92 123 166 219 264 317 386
#     4  12  25  42  63  94 131 173 217 267 325 389
#     4  11  19  36  56  84 126 167 209 257 326 385
#
# _framework density 24.550751000000002
#
# number of rings (size 3 to 8) (size 9 to 14) (size 15 to 20)
#    0.000    0.533    8.000    2.000    0.000    2.667 
#    0.000    0.000    0.000    0.800    0.000    0.000 
#    0.000    0.000    0.000    0.000    0.000    0.000 
#
# Total GULP energy -167187.166796 kJ/mol
# GULP energy per Si atom -5572.905560 kJ/mol
# Density = 2.449487 g / cm^3
# Si number density = 24.550751 Si / 1000 Ang^3
#
#
#
# Elastic Constant Matrix: (Units=GPa)
#
#
# Indices 1 2 3 4 5 6 
#
# 1 36.5265 18.2496 43.0122 0.0000 1.9655 0.0000
# 2 18.2496 158.6804 62.3942 0.0000 26.0228 0.0000
# 3 43.0122 62.3942 202.7148 0.0000 55.9879 0.0000
# 4 0.0000 0.0000 0.0000 37.3957 0.0000 41.5935
# 5 1.9655 26.0228 55.9879 0.0000 36.3017 0.0000
# 6 0.0000 0.0000 0.0000 41.5935 0.0000 -30.3374
#
#
#
# Elastic Compliance Matrix: (Units=1/GPa)
#
#
# Indices 1 2 3 4 5 6 
#
# 1 0.045329 -0.003069 -0.014987 0.000000 0.022860 0.000000
# 2 -0.003069 0.007573 -0.000394 0.000000 -0.004655 0.000000
# 3 -0.014987 -0.000394 0.013818 0.000000 -0.020218 0.000000
# 4 0.000000 0.000000 0.000000 0.010591 0.000000 0.014520
# 5 0.022860 -0.004655 -0.020218 0.000000 0.060828 0.000000
# 6 0.000000 0.000000 0.000000 0.014520 0.000000 -0.013055
#
#
# Mechanical properties :
#
#
# Convention : Reuss Voigt Hill
#
# Bulk Modulus (GPa) = 33.53486 71.69264 52.61375
# Shear Modulus (GPa) = 29.08236 26.95636 28.01936
#
# Velocity S-wave (km/s) = 3.44551 3.31718 3.38195
# Velocity P-wave (km/s) = 5.43302 6.62848 6.06030
#
# Compressibility (1/GPa) = 0.02981972
#
# Stress axis : x y z
#
# Youngs Moduli (GPa) = 22.06090 132.04247 72.36762
#
# Poissons Ratio (x) = 0.40527 1.08458
# Poissons Ratio (y) = 0.06771 0.02853
# Poissons Ratio (z) = 0.33063 0.05205
#
# Static dielectric constant tensor:
#      x y z
#    x 2.120380 0.000000 0.028230 
#    y 0.000000 1.925490 0.000000 
#    z 0.028230 0.000000 2.072370 
# 
# From -- ./inp_files/87554.got.cif
#   From: 2010.05.17/outbox.cif.g08.bks.cpg/sg13_44_cif.got.tgz:87554.got - 2010.06.03 16:44:36.
