data_PCOD9228310
_publ_section_title
;
Structure prediction by ZEFSAII (Michael W. Deem and Ramdas Pophale) SiO2 
 PCOD9228310
Probable space group: P 2/C
;
_chemical_formula_sum "Si O2"
_cell_formula_units_Z 32
_cell_length_a 20.741957
_cell_length_b 8.511553
_cell_length_c 17.003655
_cell_angle_alpha 90.000000
_cell_angle_beta 34.828278
_cell_angle_gamma 90.000000
_cell_volume 1714.459604
_symmetry_space_group_name_H-M "P 2/C"
_symmetry_group_IT_number 13
_symmetry_cell_setting 'monoclinic'
loop_
_space_group_symop_operation_xyz
x,y,z
-x,y,1/2-z
-x,-y,-z
x,-y,1/2+z
loop_
_atom_site_type_symbol
_atom_site_label
_atom_site_fract_x
_atom_site_fract_y
_atom_site_fract_z
Si Si1 0.191692 0.605214 0.719143
Si Si2 0.251568 0.699694 0.077974
Si Si3 0.659935 0.151594 0.334953
Si Si4 0.021901 0.195468 0.062126
Si Si5 0.215840 0.283491 0.435995
Si Si6 0.017890 0.161296 0.876941
Si Si7 0.771936 0.595667 0.164223
Si Si8 0.399331 0.204738 0.568335
O O1 0.234008 0.486438 0.610273
O O2 0.278616 0.739331 0.661724
O O3 0.076321 0.688892 0.811515
O O4 0.173594 0.495457 0.814852
O O5 0.257974 0.745463 0.981147
O O6 0.359032 0.746695 0.022150
O O7 0.140690 0.784568 0.225580
O O8 0.532731 0.208457 0.446581
O O9 0.649008 0.970324 0.369381
O O10 0.731610 0.171343 0.183396
O O11 0.008771 0.182716 0.980286
O O12 0.005138 0.022975 0.114267
O O13 0.142697 0.274487 0.953642
O O14 0.080792 0.261219 0.565237
O O15 0.248867 0.459037 0.376938
O O16 0.661973 0.678666 0.309440
#
# Coordination Sequence:
#
# PCOD9228310 Si02
#       8
#     4   4   4   4   4   4   4   4
#     4  10  19  33  57  83 109 144 182 226 267 328
#     4  11  23  37  55  83 118 149 179 224 283 333
#     4  10  21  39  62  84 105 141 192 235 271 322
#     4  11  18  32  58  85 108 143 193 228 268 317
#     4  11  23  37  55  83 118 149 179 224 283 333
#     4  11  20  33  57  84 115 145 185 228 271 327
#     4  10  19  33  57  83 109 144 182 226 267 328
#     4  10  21  39  62  84 105 141 192 235 271 322
#
# _framework density 18.664774000000001
#
# number of rings (size 3 to 8) (size 9 to 14) (size 15 to 20)
#    0.000    1.500    5.000    3.000    0.000    5.000 
#    0.000    6.250    0.000    1.500    0.000    0.000 
#    0.000    0.000    0.000    0.000    0.000    0.000 
#
# Total GULP energy -178710.356883 kJ/mol
# GULP energy per Si atom -5584.698653 kJ/mol
# Density = 1.862229 g / cm^3
# Si number density = 18.664774 Si / 1000 Ang^3
#
#
#
# Elastic Constant Matrix: (Units=GPa)
#
#
# Indices 1 2 3 4 5 6 
#
# 1 34.0037 -16.0683 10.1227 0.0000 2.6837 0.0000
# 2 -16.0683 36.1970 -2.3185 0.0000 -0.3501 0.0000
# 3 10.1227 -2.3185 22.5981 0.0000 -6.9217 0.0000
# 4 0.0000 0.0000 0.0000 20.6958 0.0000 -11.2051
# 5 2.6837 -0.3501 -6.9217 0.0000 16.8897 0.0000
# 6 0.0000 0.0000 0.0000 -11.2051 0.0000 19.0665
#
#
#
# Elastic Compliance Matrix: (Units=1/GPa)
#
#
# Indices 1 2 3 4 5 6 
#
# 1 0.047055 0.019165 -0.024335 0.000000 -0.017052 0.000000
# 2 0.019165 0.035674 -0.006439 0.000000 -0.004945 0.000000
# 3 -0.024335 -0.006439 0.063621 0.000000 0.029806 0.000000
# 4 0.000000 0.000000 0.000000 0.070868 0.000000 0.041648
# 5 -0.017052 -0.004945 0.029806 0.000000 0.074030 0.000000
# 6 0.000000 0.000000 0.000000 0.041648 0.000000 0.076924
#
#
# Mechanical properties :
#
#
# Convention : Reuss Voigt Hill
#
# Bulk Modulus (GPa) = 8.12144 8.47451 8.29797
# Shear Modulus (GPa) = 11.56247 18.06792 14.81520
#
# Velocity S-wave (km/s) = 2.49164 3.11468 2.82042
# Velocity P-wave (km/s) = 3.55504 4.18153 3.88095
#
# Compressibility (1/GPa) = 0.12313094
#
# Stress axis : x y z
#
# Youngs Moduli (GPa) = 21.25185 28.03185 15.71807
#
# Poissons Ratio (x) = -0.53722 0.38249
# Poissons Ratio (y) = -0.40728 0.10121
# Poissons Ratio (z) = 0.51716 0.18050
#
# Static dielectric constant tensor:
#      x y z
#    x 1.628190 0.000000 0.004530 
#    y 0.000000 1.665320 0.000000 
#    z 0.004530 0.000000 1.632430 
# 
# From -- ./inp_files/71138.got.cif
#   From: 2010.05.17/outbox.cif.g08.bks.cpg/sg13_36_cif.got.tgz:71138.got - 2010.06.03 16:44:36.
