data_PCOD9228674
_publ_section_title
;
Structure prediction by ZEFSAII (Michael W. Deem and Ramdas Pophale) SiO2 
 PCOD9228674
Probable space group: P 2/C
;
_chemical_formula_sum "Si O2"
_cell_formula_units_Z 18
_cell_length_a 18.960339
_cell_length_b 8.444340
_cell_length_c 16.336530
_cell_angle_alpha 90.000000
_cell_angle_beta 157.004097
_cell_angle_gamma 90.000000
_cell_volume 1021.824868
_symmetry_space_group_name_H-M "P 2/C"
_symmetry_group_IT_number 13
_symmetry_cell_setting 'monoclinic'
loop_
_space_group_symop_operation_xyz
x,y,z
-x,y,1/2-z
-x,-y,-z
x,-y,1/2+z
loop_
_atom_site_type_symbol
_atom_site_label
_atom_site_fract_x
_atom_site_fract_y
_atom_site_fract_z
Si Si1 0.196603 0.182243 0.435985
Si Si2 0.419961 0.546948 0.250672
Si Si3 0.212733 0.635297 0.792507
Si Si4 0.000000 0.123273 0.750000
Si Si5 0.916514 0.626191 0.025595
O O1 0.341756 0.279633 0.642725
O O2 0.219752 0.222214 0.365367
O O3 0.000000 0.251155 0.250000
O O4 0.170244 0.997427 0.426621
O O5 0.500000 0.482191 0.250000
O O6 0.587121 0.561469 0.490786
O O7 0.254356 0.449239 0.109836
O O8 0.149405 0.679712 0.634532
O O9 0.070947 0.505615 0.675572
O O10 0.989437 0.232831 0.659449
#
# Coordination Sequence:
#
# PCOD9228674 Si02
#       5
#     4   4   4   2   4
#     4   9  18  36  53  74 108 148 177 208 268 329
#     4  10  19  35  59  78 107 147 184 218 268 326
#     4  10  21  35  59  82 107 144 179 229 269 319
#     4  10  20  34  58  76 112 148 174 222 272 324
#     4  11  20  36  57  85 111 134 185 231 272 312
#
# _framework density 17.615544
#
# number of rings (size 3 to 8) (size 9 to 14) (size 15 to 20)
#    0.667    1.333    2.222    3.333    0.000    0.889 
#    0.000   11.111    0.000    0.000    0.000    0.000 
#    0.000    0.000    0.000    0.000    0.000    0.000 
#
# Total GULP energy -100254.500707 kJ/mol
# GULP energy per Si atom -5569.694484 kJ/mol
# Density = 1.757545 g / cm^3
# Si number density = 17.615544 Si / 1000 Ang^3
#
#
#
# Elastic Constant Matrix: (Units=GPa)
#
#
# Indices 1 2 3 4 5 6 
#
# 1 78.9773 40.2498 29.3098 0.0000 -0.9804 0.0000
# 2 40.2498 49.1693 7.2464 0.0000 -8.9149 0.0000
# 3 29.3098 7.2464 82.5679 0.0000 2.4347 0.0000
# 4 0.0000 0.0000 0.0000 11.3248 0.0000 0.1668
# 5 -0.9804 -8.9149 2.4347 0.0000 39.6941 0.0000
# 6 0.0000 0.0000 0.0000 0.1668 0.0000 6.9501
#
#
#
# Elastic Compliance Matrix: (Units=1/GPa)
#
#
# Indices 1 2 3 4 5 6 
#
# 1 0.025908 -0.020787 -0.007267 0.000000 -0.003583 0.000000
# 2 -0.020787 0.038216 0.003794 0.000000 0.007837 0.000000
# 3 -0.007267 0.003794 0.014364 0.000000 -0.000208 0.000000
# 4 0.000000 0.000000 0.000000 0.088333 0.000000 -0.002121
# 5 -0.003583 0.007837 -0.000208 0.000000 0.026877 0.000000
# 6 0.000000 0.000000 0.000000 -0.002121 0.000000 0.143934
#
#
# Mechanical properties :
#
#
# Convention : Reuss Voigt Hill
#
# Bulk Modulus (GPa) = 33.36880 40.48070 36.92475
# Shear Modulus (GPa) = 12.62179 20.52103 16.57141
#
# Velocity S-wave (km/s) = 2.67968 3.41682 3.07045
# Velocity P-wave (km/s) = 5.34399 6.21259 5.79459
#
# Compressibility (1/GPa) = 0.02996811
#
# Stress axis : x y z
#
# Youngs Moduli (GPa) = 38.59814 26.16726 69.61856
#
# Poissons Ratio (x) = 0.54393 0.50590
# Poissons Ratio (y) = 0.80233 -0.26412
# Poissons Ratio (z) = 0.28048 -0.09928
#
# Static dielectric constant tensor:
#      x y z
#    x 1.611890 0.000000 0.015690 
#    y 0.000000 1.580590 0.000000 
#    z 0.015690 0.000000 1.614340 
# 
# From -- ./inp_files/45551.got.cif
#   From: 2010.05.17/outbox.cif.g08.bks.cpg/sg13_23_cif.got.tgz:45551.got - 2010.06.03 16:44:36.
