data_PCOD9228020
_publ_section_title
;
Structure prediction by ZEFSAII (Michael W. Deem and Ramdas Pophale) SiO2 
 PCOD9228020
Probable space group: P 2/C
;
_chemical_formula_sum "Si O2"
_cell_formula_units_Z 30
_cell_length_a 9.193866
_cell_length_b 13.110557
_cell_length_c 26.570722
_cell_angle_alpha 90.000000
_cell_angle_beta 151.798219
_cell_angle_gamma 90.000000
_cell_volume 1513.548405
_symmetry_space_group_name_H-M "P 2/C"
_symmetry_group_IT_number 13
_symmetry_cell_setting 'monoclinic'
loop_
_space_group_symop_operation_xyz
x,y,z
-x,y,1/2-z
-x,-y,-z
x,-y,1/2+z
loop_
_atom_site_type_symbol
_atom_site_label
_atom_site_fract_x
_atom_site_fract_y
_atom_site_fract_z
Si Si1 0.708634 0.655867 0.124362
Si Si2 0.364284 0.256543 0.005069
Si Si3 0.000000 0.030484 0.750000
Si Si4 0.681834 0.444195 0.854308
Si Si5 0.362131 0.153619 0.555052
Si Si6 0.779066 0.080766 0.089926
Si Si7 0.249607 0.799664 0.132137
Si Si8 0.405283 0.464365 0.068094
O O1 0.776872 0.693593 0.088849
O O2 0.441372 0.729679 0.064434
O O3 0.583280 0.541404 0.086317
O O4 0.000000 0.664400 0.250000
O O5 0.088708 0.195534 0.947256
O O6 0.633288 0.181959 0.070096
O O7 0.471372 0.348221 0.073633
O O8 0.305190 0.098631 0.846559
O O9 0.988810 0.965293 0.798277
O O10 0.500000 0.474774 0.750000
O O11 0.681300 0.320826 0.857531
O O12 0.526607 0.497232 0.854849
O O13 0.035667 0.475502 0.954169
O O14 0.144750 0.107806 0.444870
O O15 0.257048 0.146779 0.580390
O O16 0.500000 0.000000 0.000000
O O17 0.500000 0.834218 0.250000
#
# Coordination Sequence:
#
# PCOD9228020 Si02
#       8
#     4   4   2   4   4   4   4   4
#     4  11  20  33  57  88 119 149 196 241 284 339
#     4  10  22  37  54  84 121 150 192 240 288 349
#     4  10  20  40  64  80 114 146 198 240 308 360
#     4   9  19  35  55  81 121 160 190 236 289 342
#     4  10  19  35  62  90 109 146 192 243 299 349
#     4   9  21  39  62  80 113 152 188 246 297 345
#     4  10  19  31  59  88 116 146 189 245 295 339
#     4  10  20  34  54  84 121 154 195 231 282 349
#
# _framework density 19.820974
#
# number of rings (size 3 to 8) (size 9 to 14) (size 15 to 20)
#    0.000    2.133    2.000    1.200    7.467    0.000 
#    1.200    4.000    0.000    0.000    0.000    0.000 
#    0.000    0.000    0.000    0.000    0.000    0.000 
#
# Total GULP energy -167383.409012 kJ/mol
# GULP energy per Si atom -5579.446967 kJ/mol
# Density = 1.977586 g / cm^3
# Si number density = 19.820974 Si / 1000 Ang^3
#
#
#
# Elastic Constant Matrix: (Units=GPa)
#
#
# Indices 1 2 3 4 5 6 
#
# 1 99.5723 1.8198 10.8443 0.0000 -25.4433 0.0000
# 2 1.8198 38.8342 10.4226 0.0000 -3.8260 0.0000
# 3 10.8443 10.4226 41.3500 0.0000 -28.8430 0.0000
# 4 0.0000 0.0000 0.0000 15.5488 0.0000 -19.7843
# 5 -25.4433 -3.8260 -28.8430 0.0000 26.8521 0.0000
# 6 0.0000 0.0000 0.0000 -19.7843 0.0000 7.4296
#
#
#
# Elastic Compliance Matrix: (Units=1/GPa)
#
#
# Indices 1 2 3 4 5 6 
#
# 1 0.021148 -0.005054 0.036702 0.000000 0.058741 0.000000
# 2 -0.005054 0.030239 -0.026447 0.000000 -0.028889 0.000000
# 3 0.036702 -0.026447 0.170903 0.000000 0.214582 0.000000
# 4 0.000000 0.000000 0.000000 -0.026929 0.000000 -0.071709
# 5 0.058741 -0.028889 0.214582 0.000000 0.319276 0.000000
# 6 0.000000 0.000000 0.000000 -0.071709 0.000000 -0.056357
#
#
# Mechanical properties :
#
#
# Convention : Reuss Voigt Hill
#
# Bulk Modulus (GPa) = 4.29755 25.10331 14.70043
# Shear Modulus (GPa) = 9.51579 20.41075 14.96327
#
# Velocity S-wave (km/s) = 2.19347 3.21246 2.75056
# Velocity P-wave (km/s) = 2.93052 5.14319 4.18571
#
# Compressibility (1/GPa) = 0.23269072
#
# Stress axis : x y z
#
# Youngs Moduli (GPa) = 47.28546 33.06947 5.85129
#
# Poissons Ratio (x) = 0.16714 -0.21475
# Poissons Ratio (y) = 0.23899 0.15475
# Poissons Ratio (z) = -1.73546 0.87460
#
# Static dielectric constant tensor:
#      x y z
#    x 1.726090 0.000000 -0.027450 
#    y 0.000000 1.711560 0.000000 
#    z -0.027450 0.000000 1.694970 
# 
# From -- ./inp_files/85297.got.cif
#   From: 2010.05.17/outbox.cif.g08.bks.cpg/sg13_43_cif.got.tgz:85297.got - 2010.06.03 16:44:36.
