data_PCOD9228561
_publ_section_title
;
Structure prediction by ZEFSAII (Michael W. Deem and Ramdas Pophale) SiO2 
 PCOD9228561
Probable space group: P 2/C
;
_chemical_formula_sum "Si O2"
_cell_formula_units_Z 20
_cell_length_a 7.636000
_cell_length_b 9.188993
_cell_length_c 24.869603
_cell_angle_alpha 90.000000
_cell_angle_beta 34.689653
_cell_angle_gamma 90.000000
_cell_volume 993.150277
_symmetry_space_group_name_H-M "P 2/C"
_symmetry_group_IT_number 13
_symmetry_cell_setting 'monoclinic'
loop_
_space_group_symop_operation_xyz
x,y,z
-x,y,1/2-z
-x,-y,-z
x,-y,1/2+z
loop_
_atom_site_type_symbol
_atom_site_label
_atom_site_fract_x
_atom_site_fract_y
_atom_site_fract_z
Si Si1 0.381221 0.342832 0.513545
Si Si2 0.618315 0.181141 0.556761
Si Si3 0.276530 0.736683 0.355254
Si Si4 0.169565 0.072844 0.355595
Si Si5 0.249374 0.890058 0.641250
O O1 0.500000 0.500000 0.500000
O O2 0.419836 0.248650 0.558378
O O3 0.581469 0.256900 0.418828
O O4 0.039636 0.344839 0.576489
O O5 0.596196 0.275322 0.616497
O O6 0.974492 0.167353 0.447457
O O7 0.486311 0.017555 0.597495
O O8 0.500000 0.697299 0.250000
O O9 0.217503 0.910613 0.365383
O O10 0.500000 0.127738 0.250000
O O11 0.939341 0.059491 0.363471
O O12 0.000000 0.867416 0.750000
#
# Coordination Sequence:
#
# PCOD9228561 Si02
#       5
#     4   4   4   4   4
#     4  11  25  45  60  91 136 174 210 255 318 391
#     4  11  22  40  67  93 128 162 215 272 321 372
#     4  11  22  38  66  95 122 164 213 264 320 377
#     4  10  19  34  61  99 125 155 208 272 322 373
#     4  11  21  39  64  98 125 165 214 271 322 373
#
# _framework density 20.13794
#
# number of rings (size 3 to 8) (size 9 to 14) (size 15 to 20)
#    0.000    1.200    4.000    4.200    2.800    0.800 
#    3.600    4.000    0.000    0.000    0.000    0.000 
#    0.000    0.000    0.000    0.000    0.000    0.000 
#
# Total GULP energy -111714.438850 kJ/mol
# GULP energy per Si atom -5585.721942 kJ/mol
# Density = 2.009211 g / cm^3
# Si number density = 20.137940 Si / 1000 Ang^3
#
#
#
# Elastic Constant Matrix: (Units=GPa)
#
#
# Indices 1 2 3 4 5 6 
#
# 1 77.5227 15.7006 46.3872 0.0000 4.2785 0.0000
# 2 15.7006 76.5187 32.2765 0.0000 0.8278 0.0000
# 3 46.3872 32.2765 127.1200 0.0000 7.8160 0.0000
# 4 0.0000 0.0000 0.0000 11.8569 0.0000 -1.1385
# 5 4.2785 0.8278 7.8160 0.0000 34.6287 0.0000
# 6 0.0000 0.0000 0.0000 -1.1385 0.0000 22.6982
#
#
#
# Elastic Compliance Matrix: (Units=1/GPa)
#
#
# Indices 1 2 3 4 5 6 
#
# 1 0.016582 -0.000964 -0.005762 0.000000 -0.000725 0.000000
# 2 -0.000964 0.014701 -0.003414 0.000000 0.000538 0.000000
# 3 -0.005762 -0.003414 0.010939 0.000000 -0.001676 0.000000
# 4 0.000000 0.000000 0.000000 0.084747 0.000000 0.004251
# 5 -0.000725 0.000538 -0.001676 0.000000 0.029333 0.000000
# 6 0.000000 0.000000 0.000000 0.004251 0.000000 0.044270
#
#
# Mechanical properties :
#
#
# Convention : Reuss Voigt Hill
#
# Bulk Modulus (GPa) = 45.57371 52.21002 48.89187
# Shear Modulus (GPa) = 21.91398 26.28990 24.10194
#
# Velocity S-wave (km/s) = 3.30236 3.61708 3.46329
# Velocity P-wave (km/s) = 6.10087 6.58990 6.35010
#
# Compressibility (1/GPa) = 0.02194247
#
# Stress axis : x y z
#
# Youngs Moduli (GPa) = 60.30507 68.02386 91.41731
#
# Poissons Ratio (x) = 0.06560 0.52671
# Poissons Ratio (y) = 0.05815 0.31208
# Poissons Ratio (z) = 0.34745 0.23222
#
# Static dielectric constant tensor:
#      x y z
#    x 1.732520 0.000000 0.020530 
#    y 0.000000 1.690750 0.000000 
#    z 0.020530 0.000000 1.753480 
# 
# From -- ./inp_files/67898.got.cif
#   From: 2010.05.17/outbox.cif.g08.bks.cpg/sg13_34_cif.got.tgz:67898.got - 2010.06.03 16:44:36.
