data_PCOD9228770
_publ_section_title
;
Structure prediction by ZEFSAII (Michael W. Deem and Ramdas Pophale) SiO2 
 PCOD9228770
Probable space group: P 2/C
;
_chemical_formula_sum "Si O2"
_cell_formula_units_Z 24
_cell_length_a 9.615702
_cell_length_b 17.890928
_cell_length_c 9.146890
_cell_angle_alpha 90.000000
_cell_angle_beta 44.247276
_cell_angle_gamma 90.000000
_cell_volume 1097.971712
_symmetry_space_group_name_H-M "P 2/C"
_symmetry_group_IT_number 13
_symmetry_cell_setting 'monoclinic'
loop_
_space_group_symop_operation_xyz
x,y,z
-x,y,1/2-z
-x,-y,-z
x,-y,1/2+z
loop_
_atom_site_type_symbol
_atom_site_label
_atom_site_fract_x
_atom_site_fract_y
_atom_site_fract_z
Si Si1 0.654365 0.490460 0.253737
Si Si2 0.269173 0.102732 0.441318
Si Si3 0.203582 0.029135 0.183414
Si Si4 0.943053 0.777679 0.562363
Si Si5 0.025708 0.613581 0.557446
Si Si6 0.691800 0.175098 0.524466
O O1 0.500000 0.461930 0.250000
O O2 0.500000 0.500000 0.500000
O O3 0.835956 0.435010 0.150316
O O4 0.771332 0.567104 0.123376
O O5 0.500000 0.120936 0.250000
O O6 0.205942 0.048097 0.352931
O O7 0.142379 0.176806 0.509559
O O8 0.246873 0.055564 0.605887
O O9 0.000000 0.045582 0.250000
O O10 0.349000 0.090591 0.000414
O O11 0.011472 0.693170 0.489059
O O12 0.129731 0.820353 0.493469
O O13 0.772622 0.782587 0.818572
O O14 0.000000 0.626596 0.750000
O O15 0.500000 0.206841 0.750000
#
# Coordination Sequence:
#
# PCOD9228770 Si02
#       6
#     4   4   4   4   4   4
#     4  11  24  42  72 107 137 175 224 269 329 399
#     4  11  23  40  64  92 132 174 225 284 342 394
#     4  11  21  40  63  88 126 171 227 291 331 393
#     4  10  22  41  59  97 135 171 222 277 326 405
#     4  11  22  41  71  99 140 180 221 275 332 405
#     4  10  19  35  63  90 123 168 226 276 330 388
#
# _framework density 21.858488000000001
#
# number of rings (size 3 to 8) (size 9 to 14) (size 15 to 20)
#    0.000    1.333    6.667    1.500    0.000    4.000 
#    0.000    0.000    3.667    0.000    0.000    0.000 
#    0.000    0.000    0.000    0.000    0.000    0.000 
#
# Total GULP energy -134039.722995 kJ/mol
# GULP energy per Si atom -5584.988458 kJ/mol
# Density = 2.180874 g / cm^3
# Si number density = 21.858488 Si / 1000 Ang^3
#
#
#
# Elastic Constant Matrix: (Units=GPa)
#
#
# Indices 1 2 3 4 5 6 
#
# 1 98.5529 19.9918 15.6399 0.0000 -8.5141 0.0000
# 2 19.9918 119.8283 4.0614 0.0000 -1.5626 0.0000
# 3 15.6399 4.0614 87.1177 0.0000 -13.7094 0.0000
# 4 0.0000 0.0000 0.0000 14.5492 0.0000 7.1217
# 5 -8.5141 -1.5626 -13.7094 0.0000 30.8861 0.0000
# 6 0.0000 0.0000 0.0000 7.1217 0.0000 9.1556
#
#
#
# Elastic Compliance Matrix: (Units=1/GPa)
#
#
# Indices 1 2 3 4 5 6 
#
# 1 0.010937 -0.001744 -0.001528 0.000000 0.002248 0.000000
# 2 -0.001744 0.008639 -0.000104 0.000000 -0.000090 0.000000
# 3 -0.001528 -0.000104 0.012569 0.000000 0.005152 0.000000
# 4 0.000000 0.000000 0.000000 0.110993 0.000000 -0.086336
# 5 0.002248 -0.000090 0.005152 0.000000 0.035279 0.000000
# 6 0.000000 0.000000 0.000000 -0.086336 0.000000 0.176379
#
#
# Mechanical properties :
#
#
# Convention : Reuss Voigt Hill
#
# Bulk Modulus (GPa) = 39.38114 42.76500 41.07307
# Shear Modulus (GPa) = 13.51309 28.63858 21.07584
#
# Velocity S-wave (km/s) = 2.48908 3.62357 3.10852
# Velocity P-wave (km/s) = 5.12993 6.09212 5.63161
#
# Compressibility (1/GPa) = 0.02539287
#
# Stress axis : x y z
#
# Youngs Moduli (GPa) = 91.43001 115.76054 79.56233
#
# Poissons Ratio (x) = 0.20184 0.12161
# Poissons Ratio (y) = 0.15942 0.00826
# Poissons Ratio (z) = 0.13975 0.01202
#
# Static dielectric constant tensor:
#      x y z
#    x 1.759290 0.000000 -0.022870 
#    y 0.000000 1.799200 0.000000 
#    z -0.022870 0.000000 1.837920 
# 
# From -- ./inp_files/13457.got.cif
#   From: 2010.05.17/outbox.cif.g08.bks.cpg/sg13_7_cif.got.tgz:13457.got - 2010.06.03 16:44:36.
