data_PCOD9228025
_publ_section_title
;
Structure prediction by ZEFSAII (Michael W. Deem and Ramdas Pophale) SiO2 
 PCOD9228025
Probable space group: P 2/C
;
_chemical_formula_sum "Si O2"
_cell_formula_units_Z 30
_cell_length_a 12.452616
_cell_length_b 5.621654
_cell_length_c 22.974580
_cell_angle_alpha 90.000000
_cell_angle_beta 76.469701
_cell_angle_gamma 90.000000
_cell_volume 1563.682600
_symmetry_space_group_name_H-M "P 2/C"
_symmetry_group_IT_number 13
_symmetry_cell_setting 'monoclinic'
loop_
_space_group_symop_operation_xyz
x,y,z
-x,y,1/2-z
-x,-y,-z
x,-y,1/2+z
loop_
_atom_site_type_symbol
_atom_site_label
_atom_site_fract_x
_atom_site_fract_y
_atom_site_fract_z
Si Si1 0.553893 0.276503 0.808320
Si Si2 0.230555 0.973244 0.874014
Si Si3 0.943610 0.348574 0.160805
Si Si4 0.531563 0.224816 0.176842
Si Si5 0.000000 0.975033 0.750000
Si Si6 0.796311 0.710412 0.234318
Si Si7 0.872093 0.028580 0.494064
Si Si8 0.077893 0.528850 0.047524
O O1 0.500000 0.268126 0.750000
O O2 0.507175 0.519443 0.841911
O O3 0.684893 0.299066 0.784558
O O4 0.523523 0.020171 0.838999
O O5 0.122142 0.817159 0.875122
O O6 0.338758 0.814433 0.850270
O O7 0.210126 0.065595 0.941262
O O8 0.234066 0.176422 0.824627
O O9 0.851464 0.458368 0.214634
O O10 0.020405 0.190269 0.191489
O O11 0.004610 0.547092 0.115216
O O12 0.500000 0.232673 0.250000
O O13 0.892734 0.131333 0.749979
O O14 0.852032 0.768761 0.468525
O O15 0.865982 0.268204 0.456675
O O16 0.000000 0.000000 0.500000
O O17 0.000000 0.500000 0.000000
#
# Coordination Sequence:
#
# PCOD9228025 Si02
#       8
#     4   4   4   4   2   4   4   4
#     4  10  19  33  51  73 108 139 185 225 278 333
#     4  11  20  30  56  75 116 151 177 230 284 344
#     4  11  21  35  54  74 111 157 188 235 276 339
#     4  10  19  32  45  81 104 143 183 217 279 338
#     4  10  26  36  50  84 104 156 210 226 282 342
#     4  11  21  36  53  74 111 159 188 235 277 341
#     4  10  19  32  46  81 105 144 183 217 282 343
#     4  10  19  33  51  75 109 141 187 227 280 338
#
# _framework density 19.185479000000001
#
# number of rings (size 3 to 8) (size 9 to 14) (size 15 to 20)
#    0.000    1.600    5.333    3.600    3.733    0.000 
#    0.000    0.000    0.000    0.000    0.000    0.000 
#    0.000    6.400    0.000    0.000    0.000    0.000 
#
# Total GULP energy -167247.845532 kJ/mol
# GULP energy per Si atom -5574.928184 kJ/mol
# Density = 1.914181 g / cm^3
# Si number density = 19.185479 Si / 1000 Ang^3
#
#
#
# Elastic Constant Matrix: (Units=GPa)
#
#
# Indices 1 2 3 4 5 6 
#
# 1 45.8522 7.4643 26.2835 0.0000 -6.7158 0.0000
# 2 7.4643 122.5235 0.3275 0.0000 2.8986 0.0000
# 3 26.2835 0.3275 43.3751 0.0000 -14.1298 0.0000
# 4 0.0000 0.0000 0.0000 17.4472 0.0000 -6.9256
# 5 -6.7158 2.8986 -14.1298 0.0000 11.6132 0.0000
# 6 0.0000 0.0000 0.0000 -6.9256 0.0000 12.8418
#
#
#
# Elastic Compliance Matrix: (Units=1/GPa)
#
#
# Indices 1 2 3 4 5 6 
#
# 1 0.034372 -0.001836 -0.023507 0.000000 -0.008265 0.000000
# 2 -0.001836 0.008347 0.000041 0.000000 -0.003095 0.000000
# 3 -0.023507 0.000041 0.054447 0.000000 0.052642 0.000000
# 4 0.000000 0.000000 0.000000 0.072928 0.000000 0.039330
# 5 -0.008265 -0.003095 0.052642 0.000000 0.146151 0.000000
# 6 0.000000 0.000000 0.000000 0.039330 0.000000 0.099082
#
#
# Mechanical properties :
#
#
# Convention : Reuss Voigt Hill
#
# Bulk Modulus (GPa) = 21.47610 31.10017 26.28814
# Shear Modulus (GPa) = 10.38531 20.22547 15.30539
#
# Velocity S-wave (km/s) = 2.32913 3.25038 2.82753
# Velocity P-wave (km/s) = 4.29551 5.50746 4.93880
#
# Compressibility (1/GPa) = 0.04656339
#
# Stress axis : x y z
#
# Youngs Moduli (GPa) = 29.09351 119.80881 18.36649
#
# Poissons Ratio (x) = 0.21992 0.43173
# Poissons Ratio (y) = 0.05340 -0.00076
# Poissons Ratio (z) = 0.68389 -0.00493
#
# Static dielectric constant tensor:
#      x y z
#    x 1.648200 0.000000 -0.002570 
#    y 0.000000 1.675410 0.000000 
#    z -0.002570 0.000000 1.672730 
# 
# From -- ./inp_files/85819.got.cif
#   From: 2010.05.17/outbox.cif.g08.bks.cpg/sg13_43_cif.got.tgz:85819.got - 2010.06.03 16:44:36.
