data_PCOD9228668
_publ_section_title
;
Structure prediction by ZEFSAII (Michael W. Deem and Ramdas Pophale) SiO2 
 PCOD9228668
Probable space group: P 2/C
;
_chemical_formula_sum "Si O2"
_cell_formula_units_Z 26
_cell_length_a 10.472297
_cell_length_b 13.734736
_cell_length_c 16.493768
_cell_angle_alpha 90.000000
_cell_angle_beta 32.241643
_cell_angle_gamma 90.000000
_cell_volume 1265.637609
_symmetry_space_group_name_H-M "P 2/C"
_symmetry_group_IT_number 13
_symmetry_cell_setting 'monoclinic'
loop_
_space_group_symop_operation_xyz
x,y,z
-x,y,1/2-z
-x,-y,-z
x,-y,1/2+z
loop_
_atom_site_type_symbol
_atom_site_label
_atom_site_fract_x
_atom_site_fract_y
_atom_site_fract_z
Si Si1 0.000000 0.016032 0.250000
Si Si2 0.775357 0.775897 0.576696
Si Si3 0.144655 0.621039 0.595043
Si Si4 0.132989 0.578877 0.051314
Si Si5 0.099771 0.825846 0.819917
Si Si6 0.336895 0.646844 0.107265
Si Si7 0.658571 0.150926 0.968285
O O1 0.028797 0.087069 0.157668
O O2 0.766970 0.947038 0.373424
O O3 0.825954 0.660901 0.538110
O O4 0.915053 0.825895 0.575044
O O5 0.796208 0.827554 0.478882
O O6 0.011730 0.721356 0.644630
O O7 0.148902 0.535817 0.525682
O O8 0.410664 0.637437 0.484852
O O9 0.000000 0.580066 0.750000
O O10 0.319584 0.601760 0.025508
O O11 0.871658 0.600991 0.227597
O O12 0.500000 0.783229 0.750000
O O13 0.376220 0.838317 0.641307
O O14 0.286579 0.760442 0.120990
#
# Coordination Sequence:
#
# PCOD9228668 Si02
#       7
#     2   4   4   4   4   4   4
#     4  12  22  36  66  90 108 150 208 266 304 356
#     4   9  21  40  60  83 124 164 195 240 300 367
#     4  12  21  35  59  90 125 161 197 249 297 348
#     4  10  21  34  60  90 117 161 206 242 284 355
#     4  11  23  39  57  86 122 157 197 248 310 359
#     4  10  19  35  58  89 121 151 202 256 295 337
#     4  10  20  38  59  85 116 153 202 251 304 360
#
# _framework density 20.543005999999998
#
# number of rings (size 3 to 8) (size 9 to 14) (size 15 to 20)
#    0.000    1.538    3.846    2.769    0.000    1.231 
#    0.000    0.769    0.000    0.000    0.000    0.000 
#    0.000    0.000    0.000    0.000    0.000    0.000 
#
# Total GULP energy -145113.353252 kJ/mol
# GULP energy per Si atom -5581.282817 kJ/mol
# Density = 2.049625 g / cm^3
# Si number density = 20.543006 Si / 1000 Ang^3
#
#
#
# Elastic Constant Matrix: (Units=GPa)
#
#
# Indices 1 2 3 4 5 6 
#
# 1 76.0569 37.8181 20.8752 0.0000 -6.8083 0.0000
# 2 37.8181 142.9712 7.6746 0.0000 -0.8536 0.0000
# 3 20.8752 7.6746 34.5143 0.0000 -8.4951 0.0000
# 4 0.0000 0.0000 0.0000 10.1225 0.0000 7.6090
# 5 -6.8083 -0.8536 -8.4951 0.0000 21.9038 0.0000
# 6 0.0000 0.0000 0.0000 7.6090 0.0000 15.6971
#
#
#
# Elastic Compliance Matrix: (Units=1/GPa)
#
#
# Indices 1 2 3 4 5 6 
#
# 1 0.018033 -0.004248 -0.009533 0.000000 0.001742 0.000000
# 2 -0.004248 0.008082 0.000580 0.000000 -0.000780 0.000000
# 3 -0.009533 0.000580 0.037463 0.000000 0.011589 0.000000
# 4 0.000000 0.000000 0.000000 0.155421 0.000000 -0.075339
# 5 0.001742 -0.000780 0.011589 0.000000 0.050660 0.000000
# 6 0.000000 0.000000 0.000000 -0.075339 0.000000 0.100226
#
#
# Mechanical properties :
#
#
# Convention : Reuss Voigt Hill
#
# Bulk Modulus (GPa) = 26.89946 42.91981 34.90964
# Shear Modulus (GPa) = 12.23454 22.02299 17.12876
#
# Velocity S-wave (km/s) = 2.44305 3.27776 2.89069
# Velocity P-wave (km/s) = 4.59137 5.93826 5.30771
#
# Compressibility (1/GPa) = 0.03717547
#
# Stress axis : x y z
#
# Youngs Moduli (GPa) = 55.45460 123.72814 26.69303
#
# Poissons Ratio (x) = 0.52557 0.25447
# Poissons Ratio (y) = 0.23556 -0.01548
# Poissons Ratio (z) = 0.52867 -0.07175
#
# Static dielectric constant tensor:
#      x y z
#    x 1.794510 0.000000 -0.013050 
#    y 0.000000 1.756570 0.000000 
#    z -0.013050 0.000000 1.724680 
# 
# From -- ./inp_files/47859.got.cif
#   From: 2010.05.17/outbox.cif.g08.bks.cpg/sg13_24_cif.got.tgz:47859.got - 2010.06.03 16:44:36.
