data_PCOD9228531
_publ_section_title
;
Structure prediction by ZEFSAII (Michael W. Deem and Ramdas Pophale) SiO2 
 PCOD9228531
Probable space group: P 2/C
;
_chemical_formula_sum "Si O2"
_cell_formula_units_Z 24
_cell_length_a 11.509919
_cell_length_b 22.203096
_cell_length_c 14.061316
_cell_angle_alpha 90.000000
_cell_angle_beta 20.055021
_cell_angle_gamma 90.000000
_cell_volume 1232.274861
_symmetry_space_group_name_H-M "P 2/C"
_symmetry_group_IT_number 13
_symmetry_cell_setting 'monoclinic'
loop_
_space_group_symop_operation_xyz
x,y,z
-x,y,1/2-z
-x,-y,-z
x,-y,1/2+z
loop_
_atom_site_type_symbol
_atom_site_label
_atom_site_fract_x
_atom_site_fract_y
_atom_site_fract_z
Si Si1 0.477851 0.666835 0.988406
Si Si2 0.600699 0.412327 0.564195
Si Si3 0.259020 0.948145 0.142005
Si Si4 0.403244 0.456826 0.434157
Si Si5 0.157453 0.736863 0.950182
Si Si6 0.755114 0.872253 0.642155
O O1 0.130536 0.704869 0.264486
O O2 0.521147 0.645296 0.062952
O O3 0.492514 0.602291 0.923914
O O4 0.753246 0.704288 0.717960
O O5 0.449482 0.477688 0.648513
O O6 0.000000 0.419298 0.250000
O O7 0.500000 0.404175 0.750000
O O8 0.000000 0.962281 0.250000
O O9 0.026213 0.922529 0.405223
O O10 0.514724 0.895214 0.911215
O O11 0.500000 0.000000 0.000000
O O12 0.500000 0.447976 0.250000
O O13 0.000000 0.459650 0.750000
O O14 0.500000 0.733891 0.750000
O O15 0.082844 0.806050 0.980075
O O16 0.500000 0.868729 0.750000
#
# Coordination Sequence:
#
# PCOD9228531 Si02
#       6
#     4   4   4   4   4   4
#     4  12  21  34  56  79 102 137 180 225 274 325
#     4  10  22  38  53  71 100 139 181 225 272 331
#     4  10  19  34  59  87 116 150 186 225 268 321
#     4  10  20  34  52  77 105 128 163 222 287 339
#     4  11  22  35  55  83 112 141 176 223 275 328
#     4   9  19  35  54  81 116 147 175 214 270 326
#
# _framework density 19.476174
#
# number of rings (size 3 to 8) (size 9 to 14) (size 15 to 20)
#    0.000    1.667    0.000    6.000    0.000    2.667 
#    0.000    6.667    0.000   10.000    0.000    0.000 
#    0.000    0.000    0.000    0.000    0.000    0.000 
#
# Total GULP energy -133746.253087 kJ/mol
# GULP energy per Si atom -5572.760545 kJ/mol
# Density = 1.943185 g / cm^3
# Si number density = 19.476174 Si / 1000 Ang^3
#
#
#
# Elastic Constant Matrix: (Units=GPa)
#
#
# Indices 1 2 3 4 5 6 
#
# 1 49.7242 31.1972 21.8297 0.0000 17.1811 0.0000
# 2 31.1972 95.2494 20.0763 0.0000 -4.6113 0.0000
# 3 21.8297 20.0763 95.9245 0.0000 25.8923 0.0000
# 4 0.0000 0.0000 0.0000 46.1775 0.0000 7.0646
# 5 17.1811 -4.6113 25.8923 0.0000 30.8899 0.0000
# 6 0.0000 0.0000 0.0000 7.0646 0.0000 17.8917
#
#
#
# Elastic Compliance Matrix: (Units=1/GPa)
#
#
# Indices 1 2 3 4 5 6 
#
# 1 0.035593 -0.012856 0.000585 0.000000 -0.022206 0.000000
# 2 -0.012856 0.016159 -0.003926 0.000000 0.012854 0.000000
# 3 0.000585 -0.003926 0.014681 0.000000 -0.013217 0.000000
# 4 0.000000 0.000000 0.000000 0.023048 0.000000 -0.009101
# 5 -0.022206 0.012854 -0.013217 0.000000 0.057722 0.000000
# 6 0.000000 0.000000 0.000000 -0.009101 0.000000 0.059485
#
#
# Mechanical properties :
#
#
# Convention : Reuss Voigt Hill
#
# Bulk Modulus (GPa) = 29.37809 43.01163 36.19486
# Shear Modulus (GPa) = 19.96567 30.17814 25.07190
#
# Velocity S-wave (km/s) = 3.20524 3.94063 3.59180
# Velocity P-wave (km/s) = 5.36796 6.54499 5.98548
#
# Compressibility (1/GPa) = 0.03403897
#
# Stress axis : x y z
#
# Youngs Moduli (GPa) = 28.09519 61.88367 68.11498
#
# Poissons Ratio (x) = 0.79559 -0.03983
# Poissons Ratio (y) = 0.36120 0.26741
# Poissons Ratio (z) = -0.01643 0.24294
#
# Static dielectric constant tensor:
#      x y z
#    x 1.728620 0.000000 -0.019610 
#    y 0.000000 1.755830 0.000000 
#    z -0.019610 0.000000 1.695190 
# 
# From -- ./inp_files/51692.got.cif
#   From: 2010.05.17/outbox.cif.g08.bks.cpg/sg13_26_cif.got.tgz:51692.got - 2010.06.03 16:44:36.
