data_PCOD9228894
_publ_section_title
;
Structure prediction by ZEFSAII (Michael W. Deem and Ramdas Pophale) SiO2 
 PCOD9228894
Probable space group: P 2/C
;
_chemical_formula_sum "Si O2"
_cell_formula_units_Z 20
_cell_length_a 8.612983
_cell_length_b 9.128829
_cell_length_c 9.918521
_cell_angle_alpha 90.000000
_cell_angle_beta 77.192638
_cell_angle_gamma 90.000000
_cell_volume 760.455902
_symmetry_space_group_name_H-M "P 2/C"
_symmetry_group_IT_number 13
_symmetry_cell_setting 'monoclinic'
loop_
_space_group_symop_operation_xyz
x,y,z
-x,y,1/2-z
-x,-y,-z
x,-y,1/2+z
loop_
_atom_site_type_symbol
_atom_site_label
_atom_site_fract_x
_atom_site_fract_y
_atom_site_fract_z
Si Si1 0.639705 0.743515 0.353861
Si Si2 0.146345 0.553621 0.327963
Si Si3 0.166511 0.997375 0.268303
Si Si4 0.436965 0.860519 0.603101
Si Si5 0.911332 0.745506 0.521290
O O1 0.684058 0.601045 0.262344
O O2 0.493865 0.738230 0.485583
O O3 0.788585 0.760595 0.424124
O O4 0.685973 0.882051 0.246051
O O5 0.155847 0.392049 0.383095
O O6 0.000000 0.547084 0.250000
O O7 0.081430 0.680810 0.441494
O O8 0.249409 0.113717 0.151641
O O9 0.109467 0.101186 0.399931
O O10 0.000000 0.932443 0.250000
O O11 0.500000 0.846237 0.750000
O O12 0.500000 0.000000 0.500000
#
# Coordination Sequence:
#
# PCOD9228894 Si02
#       5
#     4   4   4   4   4
#     4  10  21  38  60  87 124 164 211 259 319 380
#     4   9  19  35  58  88 122 166 203 256 318 382
#     4  11  22  36  62  95 121 159 213 265 311 379
#     4  10  21  42  63  89 130 174 203 262 331 378
#     4  10  19  36  59  86 127 163 203 258 319 373
#
# _framework density 26.300014000000001
#
# number of rings (size 3 to 8) (size 9 to 14) (size 15 to 20)
#    0.000    2.000    2.000    2.400    0.000    3.200 
#    3.600    1.000    0.000    0.000    0.000    0.000 
#    0.000    0.000    0.000    0.000    0.000    0.000 
#
# Total GULP energy -111417.994837 kJ/mol
# GULP energy per Si atom -5570.899742 kJ/mol
# Density = 2.624015 g / cm^3
# Si number density = 26.300014 Si / 1000 Ang^3
#
#
#
# Elastic Constant Matrix: (Units=GPa)
#
#
# Indices 1 2 3 4 5 6 
#
# 1 83.2607 7.7245 44.5176 0.0000 -14.4281 0.0000
# 2 7.7245 49.6916 59.8958 0.0000 6.2148 0.0000
# 3 44.5176 59.8958 151.1826 0.0000 -25.3941 0.0000
# 4 0.0000 0.0000 0.0000 67.7065 0.0000 0.5696
# 5 -14.4281 6.2148 -25.3941 0.0000 45.8198 0.0000
# 6 0.0000 0.0000 0.0000 0.5696 0.0000 14.4944
#
#
#
# Elastic Compliance Matrix: (Units=1/GPa)
#
#
# Indices 1 2 3 4 5 6 
#
# 1 0.015072 0.005533 -0.006571 0.000000 0.000354 0.000000
# 2 0.005533 0.053084 -0.025997 0.000000 -0.019866 0.000000
# 3 -0.006571 -0.025997 0.021054 0.000000 0.013125 0.000000
# 4 0.000000 0.000000 0.000000 0.014775 0.000000 -0.000581
# 5 0.000354 -0.019866 0.013125 0.000000 0.031905 0.000000
# 6 0.000000 0.000000 0.000000 -0.000581 0.000000 0.069015
#
#
# Mechanical properties :
#
#
# Convention : Reuss Voigt Hill
#
# Bulk Modulus (GPa) = 28.45796 56.49007 42.47401
# Shear Modulus (GPa) = 18.47153 37.07060 27.77107
#
# Velocity S-wave (km/s) = 2.65304 3.75844 3.25304
# Velocity P-wave (km/s) = 4.49765 6.35297 5.50405
#
# Compressibility (1/GPa) = 0.03513956
#
# Stress axis : x y z
#
# Youngs Moduli (GPa) = 66.34985 18.83797 47.49800
#
# Poissons Ratio (x) = -0.10422 0.31209
# Poissons Ratio (y) = -0.36709 1.23481
# Poissons Ratio (z) = 0.43595 0.48973
#
# Static dielectric constant tensor:
#      x y z
#    x 1.982610 0.000000 -0.043100 
#    y 0.000000 2.156790 0.000000 
#    z -0.043100 0.000000 2.168780 
# 
# From -- ./inp_files/32095.got.cif
#   From: 2010.05.17/outbox.cif.g08.bks.cpg/sg13_17_cif.got.tgz:32095.got - 2010.06.03 16:44:36.
