data_PCOD9228794
_publ_section_title
;
Structure prediction by ZEFSAII (Michael W. Deem and Ramdas Pophale) SiO2 
 PCOD9228794
Probable space group: P 2/C
;
_chemical_formula_sum "Si O2"
_cell_formula_units_Z 28
_cell_length_a 26.459191
_cell_length_b 11.647273
_cell_length_c 26.602519
_cell_angle_alpha 90.000000
_cell_angle_beta 10.580044
_cell_angle_gamma 90.000000
_cell_volume 1505.280753
_symmetry_space_group_name_H-M "P 2/C"
_symmetry_group_IT_number 13
_symmetry_cell_setting 'monoclinic'
loop_
_space_group_symop_operation_xyz
x,y,z
-x,y,1/2-z
-x,-y,-z
x,-y,1/2+z
loop_
_atom_site_type_symbol
_atom_site_label
_atom_site_fract_x
_atom_site_fract_y
_atom_site_fract_z
Si Si1 0.360526 0.533574 0.836977
Si Si2 0.752836 0.551440 0.810490
Si Si3 0.140703 0.621379 0.685591
Si Si4 0.000000 0.184699 0.250000
Si Si5 0.286265 0.754279 0.853663
Si Si6 0.245097 0.387619 0.302027
Si Si7 0.500000 0.033456 0.750000
Si Si8 0.162219 0.845314 0.141660
O O1 0.500000 0.585996 0.750000
O O2 0.607791 0.463945 0.570509
O O3 0.210035 0.631677 0.952871
O O4 0.132005 0.438182 0.069631
O O5 0.865238 0.622812 0.748004
O O6 0.727029 0.626304 0.785078
O O7 0.956890 0.447296 0.596806
O O8 0.468103 0.484988 0.099139
O O9 0.153524 0.739340 0.642413
O O10 0.759163 0.111621 0.512633
O O11 0.277839 0.727282 0.802897
O O12 0.597331 0.770511 0.568676
O O13 0.078931 0.847432 0.080390
O O14 0.658828 0.953545 0.553775
O O15 0.000000 0.803410 0.250000
#
# Coordination Sequence:
#
# PCOD9228794 Si02
#       8
#     4   4   4   2   4   4   2   4
#     4  12  21  33  47  81 126 149 177 213 266 338
#     4  10  19  36  52  76 121 156 194 224 251 318
#     4  12  21  36  54  84 112 155 190 223 263 336
#     4  12  24  38  62  78 108 148 200 232 298 334
#     4  12  21  33  57  85 115 157 182 216 280 351
#     4  10  20  33  54  79 114 164 188 215 266 322
#     4  12  24  46  56  78 108 144 192 260 288 342
#     4  12  22  40  56  81 111 141 189 233 293 346
#
# _framework density 18.601181
#
# number of rings (size 3 to 8) (size 9 to 14) (size 15 to 20)
#    0.000    0.571    6.429    3.429    0.000    0.000 
#    0.000    0.000    0.000    0.000    0.000    6.000 
#    0.000    0.000    0.000    0.000    0.000    0.000 
#
# Total GULP energy -156027.320237 kJ/mol
# GULP energy per Si atom -5572.404294 kJ/mol
# Density = 1.855884 g / cm^3
# Si number density = 18.601181 Si / 1000 Ang^3
#
#
#
# Elastic Constant Matrix: (Units=GPa)
#
#
# Indices 1 2 3 4 5 6 
#
# 1 114.6636 20.6534 8.9110 0.0000 3.2132 0.0000
# 2 20.6534 37.3054 0.7648 0.0000 2.2157 0.0000
# 3 8.9110 0.7648 69.3060 0.0000 -2.4363 0.0000
# 4 0.0000 0.0000 0.0000 30.4028 0.0000 -0.4158
# 5 3.2132 2.2157 -2.4363 0.0000 18.1039 0.0000
# 6 0.0000 0.0000 0.0000 -0.4158 0.0000 10.3887
#
#
#
# Elastic Compliance Matrix: (Units=1/GPa)
#
#
# Indices 1 2 3 4 5 6 
#
# 1 0.009814 -0.005333 -0.001247 0.000000 -0.001257 0.000000
# 2 -0.005333 0.029912 0.000261 0.000000 -0.002679 0.000000
# 3 -0.001247 0.000261 0.014662 0.000000 0.002163 0.000000
# 4 0.000000 0.000000 0.000000 0.032910 0.000000 0.001317
# 5 -0.001257 -0.002679 0.002163 0.000000 0.056079 0.000000
# 6 0.000000 0.000000 0.000000 0.001317 0.000000 0.096311
#
#
# Mechanical properties :
#
#
# Convention : Reuss Voigt Hill
#
# Bulk Modulus (GPa) = 23.95173 31.32595 27.63884
# Shear Modulus (GPa) = 18.77988 24.50880 21.64434
#
# Velocity S-wave (km/s) = 3.18088 3.63381 3.41486
# Velocity P-wave (km/s) = 5.13761 5.87226 5.51718
#
# Compressibility (1/GPa) = 0.04175064
#
# Stress axis : x y z
#
# Youngs Moduli (GPa) = 101.89614 33.43134 68.20236
#
# Poissons Ratio (x) = 0.17829 0.08506
# Poissons Ratio (y) = 0.54342 -0.01783
# Poissons Ratio (z) = 0.12708 -0.00874
#
# Static dielectric constant tensor:
#      x y z
#    x 1.706770 0.000000 0.028360 
#    y 0.000000 1.677910 0.000000 
#    z 0.028360 0.000000 1.668360 
# 
# From -- ./inp_files/94168.got.cif
#   From: 2010.05.17/outbox.cif.g08.bks.cpg/sg13_48_cif.got.tgz:94168.got - 2010.06.03 16:44:36.
