data_PCOD9228474
_publ_section_title
;
Structure prediction by ZEFSAII (Michael W. Deem and Ramdas Pophale) SiO2 
 PCOD9228474
Probable space group: P 2/C
;
_chemical_formula_sum "Si O2"
_cell_formula_units_Z 24
_cell_length_a 5.365796
_cell_length_b 11.979886
_cell_length_c 22.546454
_cell_angle_alpha 90.000000
_cell_angle_beta 58.320238
_cell_angle_gamma 90.000000
_cell_volume 1233.368771
_symmetry_space_group_name_H-M "P 2/C"
_symmetry_group_IT_number 13
_symmetry_cell_setting 'monoclinic'
loop_
_space_group_symop_operation_xyz
x,y,z
-x,y,1/2-z
-x,-y,-z
x,-y,1/2+z
loop_
_atom_site_type_symbol
_atom_site_label
_atom_site_fract_x
_atom_site_fract_y
_atom_site_fract_z
Si Si1 0.888083 0.227655 0.481734
Si Si2 0.857455 0.593899 0.476031
Si Si3 0.219797 0.018922 0.387557
Si Si4 0.000000 0.684699 0.750000
Si Si5 0.500000 0.166382 0.250000
Si Si6 0.623123 0.916980 0.434606
Si Si7 0.807848 0.589912 0.896971
O O1 0.544521 0.197788 0.529745
O O2 0.954806 0.311797 0.418735
O O3 0.983043 0.291622 0.528923
O O4 0.065274 0.113175 0.448955
O O5 0.528360 0.602387 0.541258
O O6 0.884003 0.535402 0.408849
O O7 0.000000 0.500000 0.500000
O O8 0.338796 0.088192 0.317441
O O9 0.480807 0.960487 0.391020
O O10 0.969623 0.933377 0.396507
O O11 0.738720 0.759325 0.755182
O O12 0.872753 0.613809 0.820773
O O13 0.500000 0.000000 0.500000
#
# Coordination Sequence:
#
# PCOD9228474 Si02
#       7
#     4   4   4   2   2   4   4
#     4  10  19  34  57  83 120 153 197 249 299 353
#     4   9  20  36  56  87 119 155 199 255 303 348
#     4  11  22  37  54  90 121 156 198 241 301 362
#     4  12  24  38  62  92 124 164 192 244 322 388
#     4  12  24  38  60  86 128 164 188 246 316 380
#     4  10  22  34  55  86 119 154 199 248 289 347
#     4  10  21  36  58  90 124 152 201 249 311 366
#
# _framework density 19.458901000000001
#
# number of rings (size 3 to 8) (size 9 to 14) (size 15 to 20)
#    0.000    1.667    1.667    4.000   11.667    0.000 
#    0.000    0.000    0.000    0.000   13.000    0.000 
#    0.000    0.000    0.000    0.000    0.000    0.000 
#
# Total GULP energy -133895.705539 kJ/mol
# GULP energy per Si atom -5578.987731 kJ/mol
# Density = 1.941461 g / cm^3
# Si number density = 19.458901 Si / 1000 Ang^3
#
#
#
# Elastic Constant Matrix: (Units=GPa)
#
#
# Indices 1 2 3 4 5 6 
#
# 1 111.7791 43.3416 36.9041 0.0000 16.2072 0.0000
# 2 43.3416 87.7069 55.5788 0.0000 8.3153 0.0000
# 3 36.9041 55.5788 120.3252 0.0000 21.9862 0.0000
# 4 0.0000 0.0000 0.0000 40.3934 0.0000 6.0591
# 5 16.2072 8.3153 21.9862 0.0000 23.7828 0.0000
# 6 0.0000 0.0000 0.0000 6.0591 0.0000 47.4402
#
#
#
# Elastic Compliance Matrix: (Units=1/GPa)
#
#
# Indices 1 2 3 4 5 6 
#
# 1 0.011906 -0.005230 -0.000105 0.000000 -0.006188 0.000000
# 2 -0.005230 0.018462 -0.007695 0.000000 0.004223 0.000000
# 3 -0.000105 -0.007695 0.013708 0.000000 -0.009911 0.000000
# 4 0.000000 0.000000 0.000000 0.025240 0.000000 -0.003224
# 5 -0.006188 0.004223 -0.009911 0.000000 0.053949 0.000000
# 6 0.000000 0.000000 0.000000 -0.003224 0.000000 0.021491
#
#
# Mechanical properties :
#
#
# Convention : Reuss Voigt Hill
#
# Bulk Modulus (GPa) = 55.50816 65.71777 60.61297
# Shear Modulus (GPa) = 28.27672 34.58907 31.43290
#
# Velocity S-wave (km/s) = 3.81616 4.22067 4.02350
# Velocity P-wave (km/s) = 6.92858 7.58933 7.26647
#
# Compressibility (1/GPa) = 0.01801537
#
# Stress axis : x y z
#
# Youngs Moduli (GPa) = 83.99042 54.16437 72.94757
#
# Poissons Ratio (x) = 0.28330 0.00766
# Poissons Ratio (y) = 0.43930 0.56136
# Poissons Ratio (z) = 0.00882 0.41681
#
# Static dielectric constant tensor:
#      x y z
#    x 1.765340 0.000000 0.015740 
#    y 0.000000 1.737580 0.000000 
#    z 0.015740 0.000000 1.669010 
# 
# From -- ./inp_files/73353.got.cif
#   From: 2010.05.17/outbox.cif.g08.bks.cpg/sg13_37_cif.got.tgz:73353.got - 2010.06.03 16:44:36.
