data_PCOD9228812
_publ_section_title
;
Structure prediction by ZEFSAII (Michael W. Deem and Ramdas Pophale) SiO2 
 PCOD9228812
Probable space group: P 2/C
;
_chemical_formula_sum "Si O2"
_cell_formula_units_Z 32
_cell_length_a 18.964534
_cell_length_b 12.870415
_cell_length_c 22.212794
_cell_angle_alpha 90.000000
_cell_angle_beta 162.316041
_cell_angle_gamma 90.000000
_cell_volume 1646.939157
_symmetry_space_group_name_H-M "P 2/C"
_symmetry_group_IT_number 13
_symmetry_cell_setting 'monoclinic'
loop_
_space_group_symop_operation_xyz
x,y,z
-x,y,1/2-z
-x,-y,-z
x,-y,1/2+z
loop_
_atom_site_type_symbol
_atom_site_label
_atom_site_fract_x
_atom_site_fract_y
_atom_site_fract_z
Si Si1 0.732688 0.491940 0.407082
Si Si2 0.149116 0.935992 0.672257
Si Si3 0.926360 0.217698 0.917895
Si Si4 0.220656 0.478693 0.317487
Si Si5 0.783067 0.697202 0.118463
Si Si6 0.646433 0.740204 0.815960
Si Si7 0.692584 0.108721 0.625971
Si Si8 0.305439 0.436625 0.759257
O O1 0.500000 0.525684 0.250000
O O2 0.749146 0.366750 0.427281
O O3 0.722572 0.513419 0.328226
O O4 0.956553 0.547483 0.616278
O O5 0.013917 0.827688 0.552876
O O6 0.159232 0.003461 0.741875
O O7 0.427556 0.915736 0.890298
O O8 0.000000 0.000000 0.500000
O O9 0.714807 0.159959 0.711153
O O10 0.855168 0.336666 0.865375
O O11 0.147193 0.205627 0.052354
O O12 0.248106 0.596430 0.364956
O O13 0.423325 0.410593 0.510153
O O14 0.250066 0.486323 0.269426
O O15 0.798290 0.804321 0.168203
O O16 0.000000 0.685616 0.250000
O O17 0.547579 0.706209 0.889176
O O18 0.500000 0.795735 0.750000
#
# Coordination Sequence:
#
# PCOD9228812 Si02
#       8
#     4   4   4   4   4   4   4   4
#     4  11  22  37  54  77 115 157 199 246 293 343
#     4   9  20  35  58  82 113 142 180 238 294 354
#     4  11  20  35  56  84 115 155 199 245 290 354
#     4  11  23  36  53  82 122 159 198 244 291 354
#     4  12  21  35  58  86 124 157 190 241 308 368
#     4  11  21  34  52  82 125 164 192 237 296 363
#     4  10  19  36  55  87 114 143 187 234 298 362
#     4  11  23  35  54  82 116 158 203 240 288 340
#
# _framework density 19.429981999999999
#
# number of rings (size 3 to 8) (size 9 to 14) (size 15 to 20)
#    0.000    1.250    5.000    2.625    0.000    1.000 
#    0.000    0.000    0.000    0.000    9.750    0.000 
#    0.000    0.000    0.000    0.000    0.000    0.000 
#
# Total GULP energy -178334.771015 kJ/mol
# GULP energy per Si atom -5572.961594 kJ/mol
# Density = 1.938576 g / cm^3
# Si number density = 19.429982 Si / 1000 Ang^3
#
#
#
# Elastic Constant Matrix: (Units=GPa)
#
#
# Indices 1 2 3 4 5 6 
#
# 1 69.7797 27.4250 26.3813 0.0000 0.4263 0.0000
# 2 27.4250 43.5890 17.0630 0.0000 1.2778 0.0000
# 3 26.3813 17.0630 137.9101 0.0000 -3.3604 0.0000
# 4 0.0000 0.0000 0.0000 24.1220 0.0000 -2.6029
# 5 0.4263 1.2778 -3.3604 0.0000 30.9889 0.0000
# 6 0.0000 0.0000 0.0000 -2.6029 0.0000 14.7325
#
#
#
# Elastic Compliance Matrix: (Units=1/GPa)
#
#
# Indices 1 2 3 4 5 6 
#
# 1 0.019740 -0.011496 -0.002355 0.000000 -0.000053 0.000000
# 2 -0.011496 0.030859 -0.001650 0.000000 -0.001293 0.000000
# 3 -0.002355 -0.001650 0.007929 0.000000 0.000960 0.000000
# 4 0.000000 0.000000 0.000000 0.042262 0.000000 0.007467
# 5 -0.000053 -0.001293 0.000960 0.000000 0.032428 0.000000
# 6 0.000000 0.000000 0.000000 0.007467 0.000000 0.069196
#
#
# Mechanical properties :
#
#
# Convention : Reuss Voigt Hill
#
# Bulk Modulus (GPa) = 36.33145 43.66857 40.00001
# Shear Modulus (GPa) = 20.61078 25.99598 23.30338
#
# Velocity S-wave (km/s) = 3.26048 3.66174 3.46692
# Velocity P-wave (km/s) = 5.73704 6.35621 6.05454
#
# Compressibility (1/GPa) = 0.02752436
#
# Stress axis : x y z
#
# Youngs Moduli (GPa) = 50.65907 32.40578 126.11634
#
# Poissons Ratio (x) = 0.37255 0.29700
# Poissons Ratio (y) = 0.58239 0.20814
# Poissons Ratio (z) = 0.11930 0.05348
#
# Static dielectric constant tensor:
#      x y z
#    x 1.689490 0.000000 -0.013270 
#    y 0.000000 1.756960 0.000000 
#    z -0.013270 0.000000 1.771910 
# 
# From -- ./inp_files/81146.got.cif
#   From: 2010.05.17/outbox.cif.g08.bks.cpg/sg13_41_cif.got.tgz:81146.got - 2010.06.03 16:44:36.
