data_PCOD9228167
_publ_section_title
;
Structure prediction by ZEFSAII (Michael W. Deem and Ramdas Pophale) SiO2 
 PCOD9228167
Probable space group: P 2/C
;
_chemical_formula_sum "Si O2"
_cell_formula_units_Z 28
_cell_length_a 20.135235
_cell_length_b 12.948051
_cell_length_c 10.506388
_cell_angle_alpha 90.000000
_cell_angle_beta 143.395466
_cell_angle_gamma 90.000000
_cell_volume 1633.318578
_symmetry_space_group_name_H-M "P 2/C"
_symmetry_group_IT_number 13
_symmetry_cell_setting 'monoclinic'
loop_
_space_group_symop_operation_xyz
x,y,z
-x,y,1/2-z
-x,-y,-z
x,-y,1/2+z
loop_
_atom_site_type_symbol
_atom_site_label
_atom_site_fract_x
_atom_site_fract_y
_atom_site_fract_z
Si Si1 0.768919 0.330176 0.891879
Si Si2 0.877994 0.952326 0.832361
Si Si3 0.137249 0.897827 0.968055
Si Si4 0.243825 0.415441 0.350769
Si Si5 0.429972 0.465306 0.016262
Si Si6 0.908931 0.584739 0.399395
Si Si7 0.943873 0.271981 0.527479
O O1 0.656367 0.374625 0.655705
O O2 0.871082 0.395822 0.986198
O O3 0.804525 0.212564 0.924721
O O4 0.754477 0.349993 0.018732
O O5 0.827100 0.945029 0.613475
O O6 0.893376 0.836144 0.906191
O O7 0.829408 0.025650 0.866673
O O8 0.000000 0.000000 0.000000
O O9 0.000000 0.886036 0.750000
O O10 0.355937 0.436712 0.448199
O O11 0.200750 0.529954 0.326247
O O12 0.152585 0.358673 0.122708
O O13 0.500000 0.436506 0.250000
O O14 0.500000 0.500000 0.000000
O O15 0.000000 0.500000 0.500000
O O16 0.959656 0.689060 0.420647
O O17 0.000000 0.262335 0.750000
#
# Coordination Sequence:
#
# PCOD9228167 Si02
#       7
#     4   4   4   4   4   4   4
#     4  11  21  36  58  81 110 154 199 228 292 341
#     4  10  19  33  50  77 112 160 194 229 271 321
#     4  10  20  34  56  80 118 153 195 234 275 332
#     4  10  22  35  54  83 110 154 198 229 280 349
#     4  11  23  42  62  83 114 144 187 247 295 350
#     4   9  21  29  47  75 117 153 184 223 263 327
#     4  11  21  32  49  80 122 157 192 231 273 329
#
# _framework density 17.143011000000001
#
# number of rings (size 3 to 8) (size 9 to 14) (size 15 to 20)
#    0.000    1.714    2.857    3.000    8.000    0.000 
#    0.000    0.000    0.000    0.000    0.000    5.000 
#    0.000    0.000    0.000    0.000    0.000    0.000 
#
# Total GULP energy -155889.148357 kJ/mol
# GULP energy per Si atom -5567.469584 kJ/mol
# Density = 1.710399 g / cm^3
# Si number density = 17.143011 Si / 1000 Ang^3
#
#
#
# Elastic Constant Matrix: (Units=GPa)
#
#
# Indices 1 2 3 4 5 6 
#
# 1 138.1172 53.3018 43.4888 0.0000 -12.1667 0.0000
# 2 53.3018 107.6053 20.9512 0.0000 -6.8028 0.0000
# 3 43.4888 20.9512 57.0990 0.0000 -12.8991 0.0000
# 4 0.0000 0.0000 0.0000 25.3644 0.0000 -6.2547
# 5 -12.1667 -6.8028 -12.8991 0.0000 27.7659 0.0000
# 6 0.0000 0.0000 0.0000 -6.2547 0.0000 24.1655
#
#
#
# Elastic Compliance Matrix: (Units=1/GPa)
#
#
# Indices 1 2 3 4 5 6 
#
# 1 0.010997 -0.004096 -0.006716 0.000000 0.000695 0.000000
# 2 -0.004096 0.011551 -0.000989 0.000000 0.000576 0.000000
# 3 -0.006716 -0.000989 0.024883 0.000000 0.008375 0.000000
# 4 0.000000 0.000000 0.000000 0.042113 0.000000 0.010900
# 5 0.000695 0.000576 0.008375 0.000000 0.040352 0.000000
# 6 0.000000 0.000000 0.000000 0.010900 0.000000 0.044203
#
#
# Mechanical properties :
#
#
# Convention : Reuss Voigt Hill
#
# Bulk Modulus (GPa) = 41.96300 59.81168 50.88734
# Shear Modulus (GPa) = 24.31416 27.79782 26.05599
#
# Velocity S-wave (km/s) = 3.77014 4.03118 3.90284
# Velocity P-wave (km/s) = 6.59418 7.52548 7.07517
#
# Compressibility (1/GPa) = 0.02383052
#
# Stress axis : x y z
#
# Youngs Moduli (GPa) = 90.93769 86.57327 40.18807
#
# Poissons Ratio (x) = 0.35457 0.26988
# Poissons Ratio (y) = 0.37244 0.03974
# Poissons Ratio (z) = 0.61069 0.08561
#
# Static dielectric constant tensor:
#      x y z
#    x 1.634890 0.000000 -0.014740 
#    y 0.000000 1.587500 0.000000 
#    z -0.014740 0.000000 1.613660 
# 
# From -- ./inp_files/41798.got.cif
#   From: 2010.05.17/outbox.cif.g08.bks.cpg/sg13_21_cif.got.tgz:41798.got - 2010.06.03 16:44:36.
