data_PCOD9228781
_publ_section_title
;
Structure prediction by ZEFSAII (Michael W. Deem and Ramdas Pophale) SiO2 
 PCOD9228781
Probable space group: P 2/C
;
_chemical_formula_sum "Si O2"
_cell_formula_units_Z 32
_cell_length_a 13.243209
_cell_length_b 5.262017
_cell_length_c 24.154741
_cell_angle_alpha 90.000000
_cell_angle_beta 72.704431
_cell_angle_gamma 90.000000
_cell_volume 1607.137016
_symmetry_space_group_name_H-M "P 2/C"
_symmetry_group_IT_number 13
_symmetry_cell_setting 'monoclinic'
loop_
_space_group_symop_operation_xyz
x,y,z
-x,y,1/2-z
-x,-y,-z
x,-y,1/2+z
loop_
_atom_site_type_symbol
_atom_site_label
_atom_site_fract_x
_atom_site_fract_y
_atom_site_fract_z
Si Si1 0.257520 0.246237 0.045860
Si Si2 0.353104 0.939937 0.129380
Si Si3 0.528578 0.253757 0.530090
Si Si4 0.252964 0.455225 0.264576
Si Si5 0.971883 0.050416 0.440839
Si Si6 0.384327 0.979485 0.243731
Si Si7 0.036846 0.450203 0.863042
Si Si8 0.176849 0.554237 0.158274
O O1 0.215419 0.483168 0.089109
O O2 0.155034 0.087658 0.044956
O O3 0.325385 0.118167 0.083325
O O4 0.344179 0.273524 0.983195
O O5 0.447309 0.752937 0.094528
O O6 0.395578 0.061815 0.177823
O O7 0.239122 0.813409 0.159270
O O8 0.500000 0.500000 0.500000
O O9 0.500000 0.000000 0.500000
O O10 0.331573 0.699021 0.253158
O O11 0.151061 0.529572 0.317043
O O12 0.213041 0.403319 0.207466
O O13 0.308770 0.201880 0.279056
O O14 0.018934 0.310399 0.407136
O O15 0.014318 0.811643 0.398957
O O16 0.000000 0.000000 0.500000
O O17 0.500000 0.972673 0.250000
O O18 0.948119 0.455909 0.829011
#
# Coordination Sequence:
#
# PCOD9228781 Si02
#       8
#     4   4   4   4   4   4   4   4
#     4  10  19  37  60  88 121 163 206 255 312 360
#     4  10  19  37  60  87 123 160 208 256 310 362
#     4  10  20  32  56  88 120 150 211 258 298 352
#     4  11  23  41  65  95 126 161 210 261 309 379
#     4  11  24  42  65  88 130 169 206 252 322 378
#     4  11  24  42  65  88 130 170 206 251 323 379
#     4  11  23  41  65  95 126 161 210 261 308 379
#     4  10  19  35  64  92 126 160 204 256 321 368
#
# _framework density 19.911182
#
# number of rings (size 3 to 8) (size 9 to 14) (size 15 to 20)
#    0.000    1.500    3.750    1.875    0.000    0.000 
#    4.500    2.500    0.000    0.000    0.000    0.000 
#    0.000    0.000    0.000    0.000    0.000    0.000 
#
# Total GULP energy -178164.160274 kJ/mol
# GULP energy per Si atom -5567.630009 kJ/mol
# Density = 1.986586 g / cm^3
# Si number density = 19.911182 Si / 1000 Ang^3
#
#
#
# Elastic Constant Matrix: (Units=GPa)
#
#
# Indices 1 2 3 4 5 6 
#
# 1 140.4138 31.3511 50.6674 0.0000 1.8787 0.0000
# 2 31.3511 92.8042 12.0736 0.0000 3.4300 0.0000
# 3 50.6674 12.0736 40.9904 0.0000 2.2671 0.0000
# 4 0.0000 0.0000 0.0000 20.4205 0.0000 -8.2045
# 5 1.8787 3.4300 2.2671 0.0000 35.1473 0.0000
# 6 0.0000 0.0000 0.0000 -8.2045 0.0000 26.6721
#
#
#
# Elastic Compliance Matrix: (Units=1/GPa)
#
#
# Indices 1 2 3 4 5 6 
#
# 1 0.013386 -0.002481 -0.015846 0.000000 0.000549 0.000000
# 2 -0.002481 0.011692 -0.000323 0.000000 -0.000988 0.000000
# 3 -0.015846 -0.000323 0.044187 0.000000 -0.001972 0.000000
# 4 0.000000 0.000000 0.000000 0.055876 0.000000 0.017188
# 5 0.000549 -0.000988 -0.001972 0.000000 0.028646 0.000000
# 6 0.000000 0.000000 0.000000 0.017188 0.000000 0.042780
#
#
# Mechanical properties :
#
#
# Convention : Reuss Voigt Hill
#
# Bulk Modulus (GPa) = 31.28313 51.37696 41.33004
# Shear Modulus (GPa) = 20.44802 28.45572 24.45187
#
# Velocity S-wave (km/s) = 3.20810 3.78449 3.50815
# Velocity P-wave (km/s) = 5.42844 6.70489 6.10015
#
# Compressibility (1/GPa) = 0.03196611
#
# Stress axis : x y z
#
# Youngs Moduli (GPa) = 74.70241 85.52897 22.63091
#
# Poissons Ratio (x) = 0.21219 0.35862
# Poissons Ratio (y) = 0.18533 0.00730
# Poissons Ratio (z) = 1.18376 0.02759
#
# Static dielectric constant tensor:
#      x y z
#    x 1.737380 0.000000 -0.055630 
#    y 0.000000 1.756790 0.000000 
#    z -0.055630 0.000000 1.805320 
# 
# From -- ./inp_files/85990.got.cif
#   From: 2010.05.17/outbox.cif.g08.bks.cpg/sg13_43_cif.got.tgz:85990.got - 2010.06.03 16:44:36.
