data_PCOD9228102
_publ_section_title
;
Structure prediction by ZEFSAII (Michael W. Deem and Ramdas Pophale) SiO2 
 PCOD9228102
Probable space group: P 2/C
;
_chemical_formula_sum "Si O2"
_cell_formula_units_Z 22
_cell_length_a 18.619597
_cell_length_b 11.073253
_cell_length_c 9.021229
_cell_angle_alpha 90.000000
_cell_angle_beta 145.496673
_cell_angle_gamma 90.000000
_cell_volume 1053.600394
_symmetry_space_group_name_H-M "P 2/C"
_symmetry_group_IT_number 13
_symmetry_cell_setting 'monoclinic'
loop_
_space_group_symop_operation_xyz
x,y,z
-x,y,1/2-z
-x,-y,-z
x,-y,1/2+z
loop_
_atom_site_type_symbol
_atom_site_label
_atom_site_fract_x
_atom_site_fract_y
_atom_site_fract_z
Si Si1 0.500000 0.444385 0.250000
Si Si2 0.058090 0.716762 0.010093
Si Si3 0.138320 0.575684 0.412374
Si Si4 0.801207 0.223495 0.253042
Si Si5 0.897335 0.030469 0.947607
Si Si6 0.345077 0.381389 0.710496
O O1 0.572220 0.367971 0.499845
O O2 0.586512 0.532888 0.295318
O O3 0.000000 0.694545 0.750000
O O4 0.938376 0.751804 0.911098
O O5 0.122106 0.611022 0.212258
O O6 0.150618 0.833420 0.157846
O O7 0.203626 0.685630 0.614915
O O8 0.223273 0.457241 0.558074
O O9 0.000000 0.561708 0.250000
O O10 0.802815 0.082300 0.299789
O O11 0.700418 0.264117 0.957497
O O12 0.000000 0.039981 0.250000
O O13 0.000000 0.000000 0.000000
#
# Coordination Sequence:
#
# PCOD9228102 Si02
#       6
#     2   4   4   4   4   4
#     4  10  24  42  58  76 108 150 208 242 268 330
#     4   9  19  30  51  83 119 145 176 220 270 351
#     4  10  21  36  54  84 120 150 177 225 295 348
#     4  10  19  32  53  78 110 150 180 221 283 334
#     4   9  16  31  49  75 116 148 178 208 267 350
#     4  11  22  40  59  81 109 149 195 239 285 326
#
# _framework density 20.880782
#
# number of rings (size 3 to 8) (size 9 to 14) (size 15 to 20)
#    0.000    2.182    1.818    2.727    2.545    3.636 
#    0.000    0.909    0.000    0.000    0.000    7.636 
#    0.000    0.000    0.000    0.000    0.000    0.000 
#
# Total GULP energy -122661.573953 kJ/mol
# GULP energy per Si atom -5575.526089 kJ/mol
# Density = 2.083326 g / cm^3
# Si number density = 20.880782 Si / 1000 Ang^3
#
#
#
# Elastic Constant Matrix: (Units=GPa)
#
#
# Indices 1 2 3 4 5 6 
#
# 1 70.7325 -2.5193 11.3795 0.0000 -16.4926 0.0000
# 2 -2.5193 100.3065 43.0040 0.0000 -5.8823 0.0000
# 3 11.3795 43.0040 99.3959 0.0000 -20.4163 0.0000
# 4 0.0000 0.0000 0.0000 -11.9014 0.0000 1.3994
# 5 -16.4926 -5.8823 -20.4163 0.0000 33.3267 0.0000
# 6 0.0000 0.0000 0.0000 1.3994 0.0000 14.9339
#
#
#
# Elastic Compliance Matrix: (Units=1/GPa)
#
#
# Indices 1 2 3 4 5 6 
#
# 1 0.016101 0.001189 -0.000775 0.000000 0.007703 0.000000
# 2 0.001189 0.012372 -0.005628 0.000000 -0.000676 0.000000
# 3 -0.000775 -0.005628 0.014072 0.000000 0.007244 0.000000
# 4 0.000000 0.000000 0.000000 -0.083108 0.000000 0.007788
# 5 0.007703 -0.000676 0.007244 0.000000 0.038136 0.000000
# 6 0.000000 0.000000 0.000000 0.007788 0.000000 0.066232
#
#
# Mechanical properties :
#
#
# Convention : Reuss Voigt Hill
#
# Bulk Modulus (GPa) = 31.13688 41.57371 36.35529
# Shear Modulus (GPa) = 58.86434 21.84320 40.35377
#
# Velocity S-wave (km/s) = 5.31525 3.23784 4.40088
# Velocity P-wave (km/s) = 7.25350 5.82507 6.57817
#
# Compressibility (1/GPa) = 0.03211626
#
# Stress axis : x y z
#
# Youngs Moduli (GPa) = 62.10839 80.82446 71.06117
#
# Poissons Ratio (x) = -0.09606 0.05510
# Poissons Ratio (y) = -0.07382 0.39992
# Poissons Ratio (z) = 0.04816 0.45487
#
# Static dielectric constant tensor:
#      x y z
#    x 1.787140 0.000000 0.004100 
#    y 0.000000 1.836250 0.000000 
#    z 0.004100 0.000000 1.760790 
# 
# From -- ./inp_files/21673.got.cif
#   From: 2010.05.17/outbox.cif.g08.bks.cpg/sg13_11_cif.got.tgz:21673.got - 2010.06.03 16:44:36.
