data_PCOD9228594
_publ_section_title
;
Structure prediction by ZEFSAII (Michael W. Deem and Ramdas Pophale) SiO2 
 PCOD9228594
Probable space group: P 2/C
;
_chemical_formula_sum "Si O2"
_cell_formula_units_Z 22
_cell_length_a 7.923516
_cell_length_b 16.596651
_cell_length_c 9.094529
_cell_angle_alpha 90.000000
_cell_angle_beta 85.393210
_cell_angle_gamma 90.000000
_cell_volume 1192.101668
_symmetry_space_group_name_H-M "P 2/C"
_symmetry_group_IT_number 13
_symmetry_cell_setting 'monoclinic'
loop_
_space_group_symop_operation_xyz
x,y,z
-x,y,1/2-z
-x,-y,-z
x,-y,1/2+z
loop_
_atom_site_type_symbol
_atom_site_label
_atom_site_fract_x
_atom_site_fract_y
_atom_site_fract_z
Si Si1 0.806709 0.594281 0.439189
Si Si2 0.232324 0.033475 0.478155
Si Si3 0.445327 0.119642 0.925954
Si Si4 0.000000 0.991823 0.750000
Si Si5 0.486809 0.696871 0.429078
Si Si6 0.805811 0.421462 0.587139
O O1 0.665081 0.662597 0.478411
O O2 0.778366 0.511147 0.527871
O O3 0.791186 0.577271 0.265318
O O4 0.004734 0.612039 0.456900
O O5 0.403018 0.081254 0.490922
O O6 0.131383 0.057067 0.339843
O O7 0.285185 0.939054 0.459054
O O8 0.110136 0.042241 0.626316
O O9 0.500000 0.114817 0.750000
O O10 0.434078 0.212453 0.972142
O O11 0.500000 0.697910 0.250000
O O12 0.336812 0.634960 0.472242
#
# Coordination Sequence:
#
# PCOD9228594 Si02
#       6
#     4   4   4   2   4   4
#     4   9  17  31  52  74 100 132 170 212 255 307
#     4  10  20  36  58  78 108 140 182 216 270 318
#     4  10  19  35  55  78 107 144 177 222 266 322
#     4  10  20  36  56  86 100 136 186 222 262 322
#     4   9  18  32  50  79 102 133 171 216 258 308
#     4   9  17  31  52  74 100 132 170 212 255 307
#
# _framework density 18.454801
#
# number of rings (size 3 to 8) (size 9 to 14) (size 15 to 20)
#    0.000    2.545    1.818    0.545    0.000    0.000 
#    6.545    0.000    8.000    0.000    0.000    0.000 
#    0.000    0.000    0.000    0.000    0.000    0.000 
#
# Total GULP energy -122535.960481 kJ/mol
# GULP energy per Si atom -5569.816385 kJ/mol
# Density = 1.841280 g / cm^3
# Si number density = 18.454801 Si / 1000 Ang^3
#
#
#
# Elastic Constant Matrix: (Units=GPa)
#
#
# Indices 1 2 3 4 5 6 
#
# 1 81.1244 33.7563 24.2353 0.0000 10.5189 0.0000
# 2 33.7563 77.3416 8.6898 0.0000 -5.5990 0.0000
# 3 24.2353 8.6898 42.5901 0.0000 10.8362 0.0000
# 4 0.0000 0.0000 0.0000 13.7087 0.0000 -0.1195
# 5 10.5189 -5.5990 10.8362 0.0000 28.1453 0.0000
# 6 0.0000 0.0000 0.0000 -0.1195 0.0000 8.6243
#
#
#
# Elastic Compliance Matrix: (Units=1/GPa)
#
#
# Indices 1 2 3 4 5 6 
#
# 1 0.018463 -0.007608 -0.007553 0.000000 -0.005506 0.000000
# 2 -0.007608 0.016803 -0.000746 0.000000 0.006473 0.000000
# 3 -0.007553 -0.000746 0.030208 0.000000 -0.008956 0.000000
# 4 0.000000 0.000000 0.000000 0.072955 0.000000 0.001011
# 5 -0.005506 0.006473 -0.008956 0.000000 0.042323 0.000000
# 6 0.000000 0.000000 0.000000 0.001011 0.000000 0.115965
#
#
# Mechanical properties :
#
#
# Convention : Reuss Voigt Hill
#
# Bulk Modulus (GPa) = 29.70893 37.15765 33.43329
# Shear Modulus (GPa) = 14.71665 19.05399 16.88532
#
# Velocity S-wave (km/s) = 2.82697 3.21669 3.02810
# Velocity P-wave (km/s) = 5.17579 5.82874 5.51194
#
# Compressibility (1/GPa) = 0.03365992
#
# Stress axis : x y z
#
# Youngs Moduli (GPa) = 54.16293 59.51412 33.10341
#
# Poissons Ratio (x) = 0.45280 0.25002
# Poissons Ratio (y) = 0.41208 0.02469
# Poissons Ratio (z) = 0.40908 0.04440
#
# Static dielectric constant tensor:
#      x y z
#    x 1.670160 0.000000 -0.015170 
#    y 0.000000 1.616610 0.000000 
#    z -0.015170 0.000000 1.646110 
# 
# From -- ./inp_files/12510.got.cif
#   From: 2010.05.17/outbox.cif.g08.bks.cpg/sg13_7_cif.got.tgz:12510.got - 2010.06.03 16:44:36.
