data_PCOD9228506
_publ_section_title
;
Structure prediction by ZEFSAII (Michael W. Deem and Ramdas Pophale) SiO2 
 PCOD9228506
Probable space group: P 2/C
;
_chemical_formula_sum "Si O2"
_cell_formula_units_Z 32
_cell_length_a 16.547871
_cell_length_b 19.930399
_cell_length_c 17.243541
_cell_angle_alpha 90.000000
_cell_angle_beta 17.100895
_cell_angle_gamma 90.000000
_cell_volume 1672.297419
_symmetry_space_group_name_H-M "P 2/C"
_symmetry_group_IT_number 13
_symmetry_cell_setting 'monoclinic'
loop_
_space_group_symop_operation_xyz
x,y,z
-x,y,1/2-z
-x,-y,-z
x,-y,1/2+z
loop_
_atom_site_type_symbol
_atom_site_label
_atom_site_fract_x
_atom_site_fract_y
_atom_site_fract_z
Si Si1 0.538126 0.949007 0.328896
Si Si2 0.687415 0.802282 0.008998
Si Si3 0.369360 0.214503 0.113367
Si Si4 0.290073 0.353095 0.267699
Si Si5 0.100377 0.873029 0.383895
Si Si6 0.998708 0.036102 0.837569
Si Si7 0.203767 0.472288 0.248385
Si Si8 0.882749 0.591450 0.271630
O O1 0.419146 0.878159 0.408828
O O2 0.734191 0.929806 0.220864
O O3 0.284723 0.995968 0.584662
O O4 0.744703 0.985107 0.080025
O O5 0.656497 0.767087 0.953891
O O6 0.000000 0.803668 0.750000
O O7 0.500000 0.773698 0.250000
O O8 0.319511 0.276330 0.216186
O O9 0.135157 0.159425 0.346966
O O10 0.669992 0.182164 0.847982
O O11 0.218432 0.393571 0.253557
O O12 0.064128 0.370649 0.539936
O O13 0.575218 0.380974 0.041467
O O14 0.972847 0.907164 0.425697
O O15 0.000000 0.064466 0.750000
O O16 0.121103 0.511524 0.246270
O O17 0.000000 0.500000 0.500000
O O18 0.500000 0.500000 0.000000
O O19 0.000000 0.601952 0.250000
#
# Coordination Sequence:
#
# PCOD9228506 Si02
#       8
#     4   4   4   4   4   4   4   4
#     4  11  21  36  58  79 103 135 177 227 287 346
#     4  11  21  36  57  83 108 133 174 230 282 330
#     4  11  23  39  58  77 110 153 186 215 263 332
#     4  10  20  37  58  82 113 154 192 219 266 331
#     4  11  23  39  56  79 109 145 183 225 273 331
#     4  12  23  36  55  80 107 137 178 231 283 330
#     4   8  16  31  54  80 109 140 172 219 274 315
#     4  10  19  34  58  88 115 143 188 240 272 303
#
# _framework density 19.135352999999999
#
# number of rings (size 3 to 8) (size 9 to 14) (size 15 to 20)
#    0.000    1.500    0.000    7.875    0.000    0.000 
#    0.000    4.375    0.000    4.500    0.000    0.000 
#    0.000    0.000    0.000    0.000    0.000    0.000 
#
# Total GULP energy -178634.883444 kJ/mol
# GULP energy per Si atom -5582.340108 kJ/mol
# Density = 1.909180 g / cm^3
# Si number density = 19.135353 Si / 1000 Ang^3
#
#
#
# Elastic Constant Matrix: (Units=GPa)
#
#
# Indices 1 2 3 4 5 6 
#
# 1 89.5767 24.5529 4.5661 0.0000 7.9834 0.0000
# 2 24.5529 22.0006 -0.7917 0.0000 6.5173 0.0000
# 3 4.5661 -0.7917 108.1234 0.0000 0.3111 0.0000
# 4 0.0000 0.0000 0.0000 14.7827 0.0000 4.2205
# 5 7.9834 6.5173 0.3111 0.0000 27.8554 0.0000
# 6 0.0000 0.0000 0.0000 4.2205 0.0000 16.3668
#
#
#
# Elastic Compliance Matrix: (Units=1/GPa)
#
#
# Indices 1 2 3 4 5 6 
#
# 1 0.016160 -0.017937 -0.000813 0.000000 -0.000426 0.000000
# 2 -0.017937 0.068766 0.001293 0.000000 -0.010962 0.000000
# 3 -0.000813 0.001293 0.009293 0.000000 -0.000173 0.000000
# 4 0.000000 0.000000 0.000000 0.073023 0.000000 -0.018830
# 5 -0.000426 -0.010962 -0.000173 0.000000 0.038588 0.000000
# 6 0.000000 0.000000 0.000000 -0.018830 0.000000 0.065955
#
#
# Mechanical properties :
#
#
# Convention : Reuss Voigt Hill
#
# Bulk Modulus (GPa) = 16.86248 30.70615 23.78432
# Shear Modulus (GPa) = 15.31549 24.55919 19.93734
#
# Velocity S-wave (km/s) = 2.83216 3.58641 3.23137
# Velocity P-wave (km/s) = 4.41885 5.76467 5.13603
#
# Compressibility (1/GPa) = 0.05930325
#
# Stress axis : x y z
#
# Youngs Moduli (GPa) = 61.88268 14.54216 107.60819
#
# Poissons Ratio (x) = 0.26085 0.08744
# Poissons Ratio (y) = 1.11002 -0.13909
# Poissons Ratio (z) = 0.05028 -0.01880
#
# Static dielectric constant tensor:
#      x y z
#    x 1.683660 0.000000 0.008490 
#    y 0.000000 1.671170 0.000000 
#    z 0.008490 0.000000 1.663370 
# 
# From -- ./inp_files/53992.got.cif
#   From: 2010.05.17/outbox.cif.g08.bks.cpg/sg13_27_cif.got.tgz:53992.got - 2010.06.03 16:44:36.
