data_PCOD9228119
_publ_section_title
;
Structure prediction by ZEFSAII (Michael W. Deem and Ramdas Pophale) SiO2 
 PCOD9228119
Probable space group: P 2/C
;
_chemical_formula_sum "Si O2"
_cell_formula_units_Z 28
_cell_length_a 13.871504
_cell_length_b 14.312147
_cell_length_c 7.530538
_cell_angle_alpha 90.000000
_cell_angle_beta 59.651234
_cell_angle_gamma 90.000000
_cell_volume 1290.172971
_symmetry_space_group_name_H-M "P 2/C"
_symmetry_group_IT_number 13
_symmetry_cell_setting 'monoclinic'
loop_
_space_group_symop_operation_xyz
x,y,z
-x,y,1/2-z
-x,-y,-z
x,-y,1/2+z
loop_
_atom_site_type_symbol
_atom_site_label
_atom_site_fract_x
_atom_site_fract_y
_atom_site_fract_z
Si Si1 0.350897 0.077219 0.253293
Si Si2 0.737218 0.712200 0.229384
Si Si3 0.881707 0.647843 0.775285
Si Si4 0.418125 0.877916 0.094543
Si Si5 0.207044 0.232921 0.431409
Si Si6 0.601357 0.624617 0.788824
Si Si7 0.302441 0.506258 0.092022
O O1 0.388042 0.110024 0.414626
O O2 0.231383 0.127366 0.346136
O O3 0.356499 0.965382 0.242728
O O4 0.448292 0.108854 0.024785
O O5 0.630405 0.778967 0.301860
O O6 0.798727 0.751008 0.351115
O O7 0.701981 0.606276 0.305409
O O8 0.813584 0.707190 0.985768
O O9 0.884425 0.710621 0.594757
O O10 0.810471 0.554547 0.803331
O O11 0.000000 0.625139 0.750000
O O12 0.324584 0.283797 0.266564
O O13 0.500000 0.640089 0.750000
O O14 0.680380 0.547097 0.622474
O O15 0.594019 0.567323 0.976988
#
# Coordination Sequence:
#
# PCOD9228119 Si02
#       7
#     4   4   4   4   4   4   4
#     4   9  18  35  56  91 123 156 194 228 292 356
#     4  10  21  40  58  87 121 152 199 245 301 351
#     4  11  24  42  62  84 113 156 206 263 303 346
#     4   9  19  33  60  88 124 161 187 238 286 359
#     4   9  22  37  59  88 118 154 197 241 295 356
#     4  10  19  32  54  77 117 157 182 231 286 355
#     4  10  20  38  52  85 114 150 204 236 291 356
#
# _framework density 21.702515999999999
#
# number of rings (size 3 to 8) (size 9 to 14) (size 15 to 20)
#    0.000    2.286    1.429    0.429    8.000    1.143 
#    0.000    0.000    0.000    0.857    0.000    0.000 
#    0.000    0.000    0.000    0.000    0.000    0.000 
#
# Total GULP energy -156093.950916 kJ/mol
# GULP energy per Si atom -5574.783961 kJ/mol
# Density = 2.165312 g / cm^3
# Si number density = 21.702516 Si / 1000 Ang^3
#
#
#
# Elastic Constant Matrix: (Units=GPa)
#
#
# Indices 1 2 3 4 5 6 
#
# 1 99.1730 15.2307 -3.9112 0.0000 -2.9117 0.0000
# 2 15.2307 98.1755 12.6881 0.0000 5.5061 0.0000
# 3 -3.9112 12.6881 29.9003 0.0000 9.6681 0.0000
# 4 0.0000 0.0000 0.0000 24.8179 0.0000 6.8320
# 5 -2.9117 5.5061 9.6681 0.0000 15.3838 0.0000
# 6 0.0000 0.0000 0.0000 6.8320 0.0000 16.4580
#
#
#
# Elastic Compliance Matrix: (Units=1/GPa)
#
#
# Indices 1 2 3 4 5 6 
#
# 1 0.010494 -0.001935 0.001666 0.000000 0.001632 0.000000
# 2 -0.001935 0.011152 -0.004489 0.000000 -0.001537 0.000000
# 3 0.001666 -0.004489 0.043858 0.000000 -0.025641 0.000000
# 4 0.000000 0.000000 0.000000 0.045492 0.000000 -0.018885
# 5 0.001632 -0.001537 -0.025641 0.000000 0.081977 0.000000
# 6 0.000000 0.000000 0.000000 -0.018885 0.000000 0.068600
#
#
# Mechanical properties :
#
#
# Convention : Reuss Voigt Hill
#
# Bulk Modulus (GPa) = 17.86030 30.58490 24.22260
# Shear Modulus (GPa) = 17.25615 24.88136 21.06875
#
# Velocity S-wave (km/s) = 2.82285 3.38963 3.11914
# Velocity P-wave (km/s) = 4.34420 5.42613 4.91503
#
# Compressibility (1/GPa) = 0.05599009
#
# Stress axis : x y z
#
# Youngs Moduli (GPa) = 95.29115 89.66755 22.80077
#
# Poissons Ratio (x) = 0.17350 -0.03799
# Poissons Ratio (y) = 0.18438 0.10234
# Poissons Ratio (z) = -0.15878 0.40248
#
# Static dielectric constant tensor:
#      x y z
#    x 1.947900 0.000000 0.167060 
#    y 0.000000 2.218250 0.000000 
#    z 0.167060 0.000000 2.013570 
# 
# From -- ./inp_files/19602.got.cif
#   From: 2010.05.17/outbox.cif.g08.bks.cpg/sg13_10_cif.got.tgz:19602.got - 2010.06.03 16:44:36.
