data_PCOD9228446
_publ_section_title
;
Structure prediction by ZEFSAII (Michael W. Deem and Ramdas Pophale) SiO2 
 PCOD9228446
Probable space group: P 2/C
;
_chemical_formula_sum "Si O2"
_cell_formula_units_Z 28
_cell_length_a 23.846452
_cell_length_b 9.272643
_cell_length_c 18.230634
_cell_angle_alpha 90.000000
_cell_angle_beta 21.671741
_cell_angle_gamma 90.000000
_cell_volume 1488.657573
_symmetry_space_group_name_H-M "P 2/C"
_symmetry_group_IT_number 13
_symmetry_cell_setting 'monoclinic'
loop_
_space_group_symop_operation_xyz
x,y,z
-x,y,1/2-z
-x,-y,-z
x,-y,1/2+z
loop_
_atom_site_type_symbol
_atom_site_label
_atom_site_fract_x
_atom_site_fract_y
_atom_site_fract_z
Si Si1 0.422884 0.892304 0.203721
Si Si2 0.669887 0.888857 0.560328
Si Si3 0.045555 0.226680 0.294446
Si Si4 0.225045 0.632806 0.438176
Si Si5 0.832893 0.315853 0.976185
Si Si6 0.777396 0.067065 0.300980
Si Si7 0.159991 0.037890 0.438099
O O1 0.374047 0.728589 0.251111
O O2 0.356966 0.965497 0.358673
O O3 0.326712 0.979693 0.259449
O O4 0.602818 0.901870 0.990473
O O5 0.500000 0.836032 0.750000
O O6 0.757422 0.774848 0.502810
O O7 0.759749 0.933341 0.378488
O O8 0.895940 0.327526 0.478742
O O9 0.143388 0.193737 0.247944
O O10 0.965451 0.070487 0.374610
O O11 0.146103 0.301487 0.108542
O O12 0.253985 0.463749 0.403660
O O13 0.000000 0.364954 0.750000
O O14 0.850048 0.199952 0.020219
O O15 0.858818 0.032786 0.125989
#
# Coordination Sequence:
#
# PCOD9228446 Si02
#       7
#     4   4   4   4   4   4   4
#     4   9  19  36  60  79 110 151 186 220 273 338
#     4   9  19  34  55  83 106 137 189 236 265 322
#     4  10  19  34  56  81 107 139 189 229 271 322
#     4  10  20  37  54  80 106 149 190 227 265 338
#     4  11  21  36  57  80 109 148 189 224 279 330
#     4  11  19  35  59  88 112 138 188 235 283 318
#     4  10  22  34  59  85 114 145 179 234 284 333
#
# _framework density 18.808892
#
# number of rings (size 3 to 8) (size 9 to 14) (size 15 to 20)
#    0.000    2.000    2.857    1.714    6.000    0.000 
#    2.571    1.429    6.286    0.000    0.000    0.000 
#    0.000    0.000    0.000    0.000    0.000    0.000 
#
# Total GULP energy -156032.051726 kJ/mol
# GULP energy per Si atom -5572.573276 kJ/mol
# Density = 1.876608 g / cm^3
# Si number density = 18.808892 Si / 1000 Ang^3
#
#
#
# Elastic Constant Matrix: (Units=GPa)
#
#
# Indices 1 2 3 4 5 6 
#
# 1 114.6036 21.4419 23.2498 0.0000 1.1732 0.0000
# 2 21.4419 115.3183 14.3164 0.0000 4.6975 0.0000
# 3 23.2498 14.3164 32.4213 0.0000 -7.4851 0.0000
# 4 0.0000 0.0000 0.0000 11.7248 0.0000 0.0809
# 5 1.1732 4.6975 -7.4851 0.0000 36.4684 0.0000
# 6 0.0000 0.0000 0.0000 0.0809 0.0000 4.3980
#
#
#
# Elastic Compliance Matrix: (Units=1/GPa)
#
#
# Indices 1 2 3 4 5 6 
#
# 1 0.010435 -0.000942 -0.007471 0.000000 -0.001748 0.000000
# 2 -0.000942 0.009417 -0.003943 0.000000 -0.001992 0.000000
# 3 -0.007471 -0.003943 0.040012 0.000000 0.008961 0.000000
# 4 0.000000 0.000000 0.000000 0.085300 0.000000 -0.001570
# 5 -0.001748 -0.001992 0.008961 0.000000 0.029573 0.000000
# 6 0.000000 0.000000 0.000000 -0.001570 0.000000 0.227408
#
#
# Mechanical properties :
#
#
# Convention : Reuss Voigt Hill
#
# Bulk Modulus (GPa) = 28.44747 42.26218 35.35482
# Shear Modulus (GPa) = 11.40058 24.07390 17.73724
#
# Velocity S-wave (km/s) = 2.46464 3.58148 3.07420
# Velocity P-wave (km/s) = 4.82250 6.29450 5.60702
#
# Compressibility (1/GPa) = 0.03515251
#
# Stress axis : x y z
#
# Youngs Moduli (GPa) = 95.82682 106.18631 24.99280
#
# Poissons Ratio (x) = 0.09999 0.18673
# Poissons Ratio (y) = 0.09023 0.09855
# Poissons Ratio (z) = 0.71594 0.41871
#
# Static dielectric constant tensor:
#      x y z
#    x 1.683050 0.000000 -0.003930 
#    y 0.000000 1.642090 0.000000 
#    z -0.003930 0.000000 1.701970 
# 
# From -- ./inp_files/82424.got.cif
#   From: 2010.05.17/outbox.cif.g08.bks.cpg/sg13_42_cif.got.tgz:82424.got - 2010.06.03 16:44:36.
