data_PCOD9228804
_publ_section_title
;
Structure prediction by ZEFSAII (Michael W. Deem and Ramdas Pophale) SiO2 
 PCOD9228804
Probable space group: P 2/C
;
_chemical_formula_sum "Si O2"
_cell_formula_units_Z 32
_cell_length_a 23.081896
_cell_length_b 8.765258
_cell_length_c 23.461477
_cell_angle_alpha 90.000000
_cell_angle_beta 161.703789
_cell_angle_gamma 90.000000
_cell_volume 1490.129099
_symmetry_space_group_name_H-M "P 2/C"
_symmetry_group_IT_number 13
_symmetry_cell_setting 'monoclinic'
loop_
_space_group_symop_operation_xyz
x,y,z
-x,y,1/2-z
-x,-y,-z
x,-y,1/2+z
loop_
_atom_site_type_symbol
_atom_site_label
_atom_site_fract_x
_atom_site_fract_y
_atom_site_fract_z
Si Si1 0.687804 0.176180 0.716466
Si Si2 0.668441 0.001023 0.578690
Si Si3 0.330967 0.271693 0.633881
Si Si4 0.202421 0.575942 0.462494
Si Si5 0.075709 0.057604 0.464729
Si Si6 0.330232 0.315311 0.966742
Si Si7 0.085473 0.301202 0.966339
Si Si8 0.651874 0.475606 0.735126
O O1 0.694466 0.095141 0.662005
O O2 0.669137 0.357616 0.699726
O O3 0.506625 0.106104 0.577776
O O4 0.863904 0.134030 0.919488
O O5 0.634777 0.134229 0.501721
O O6 0.861538 0.916211 0.749258
O O7 0.500000 0.229131 0.750000
O O8 0.220549 0.398976 0.494900
O O9 0.375814 0.366133 0.734458
O O10 0.206856 0.131255 0.539188
O O11 0.335301 0.623011 0.535852
O O12 0.214886 0.670109 0.532144
O O13 0.000000 0.608844 0.250000
O O14 0.099705 0.876089 0.494487
O O15 0.124979 0.336750 0.748581
O O16 0.482559 0.408283 0.074559
O O17 0.166059 0.420921 0.086608
#
# Coordination Sequence:
#
# PCOD9228804 Si02
#       8
#     4   4   4   4   4   4   4   4
#     4  10  22  39  60  86 113 153 196 245 296 336
#     4  10  22  40  61  84 116 154 198 241 290 345
#     4  10  19  36  54  86 114 150 191 227 285 349
#     4   9  18  34  55  79 115 150 183 232 288 340
#     4  10  21  40  58  83 119 151 192 240 285 346
#     4  10  19  36  58  80 115 152 188 239 289 342
#     4   9  20  36  55  85 113 151 192 229 286 350
#     4  10  20  35  59  81 115 148 188 242 289 338
#
# _framework density 21.47465
#
# number of rings (size 3 to 8) (size 9 to 14) (size 15 to 20)
#    0.000    2.250    1.250    1.125    0.000    4.500 
#    6.750    4.375    0.000    0.000    0.000    0.000 
#    0.000    0.000    0.000    0.000    0.000    0.000 
#
# Total GULP energy -178675.751939 kJ/mol
# GULP energy per Si atom -5583.617248 kJ/mol
# Density = 2.142577 g / cm^3
# Si number density = 21.474650 Si / 1000 Ang^3
#
#
#
# Elastic Constant Matrix: (Units=GPa)
#
#
# Indices 1 2 3 4 5 6 
#
# 1 26.4791 3.6595 7.3063 0.0000 4.6388 0.0000
# 2 3.6595 53.1720 25.5494 0.0000 4.8900 0.0000
# 3 7.3063 25.5494 57.0035 0.0000 17.2508 0.0000
# 4 0.0000 0.0000 0.0000 32.1983 0.0000 1.3631
# 5 4.6388 4.8900 17.2508 0.0000 27.2581 0.0000
# 6 0.0000 0.0000 0.0000 1.3631 0.0000 33.7116
#
#
#
# Elastic Compliance Matrix: (Units=1/GPa)
#
#
# Indices 1 2 3 4 5 6 
#
# 1 0.039583 -0.000668 -0.003428 0.000000 -0.004447 0.000000
# 2 -0.000668 0.024193 -0.011724 0.000000 0.003193 0.000000
# 3 -0.003428 -0.011724 0.027736 0.000000 -0.014867 0.000000
# 4 0.000000 0.000000 0.000000 0.031111 0.000000 -0.001258
# 5 -0.004447 0.003193 -0.014867 0.000000 0.046279 0.000000
# 6 0.000000 0.000000 0.000000 -0.001258 0.000000 0.029714
#
#
# Mechanical properties :
#
#
# Convention : Reuss Voigt Hill
#
# Bulk Modulus (GPa) = 16.70266 23.29834 20.00050
# Shear Modulus (GPa) = 19.98297 25.30957 22.64627
#
# Velocity S-wave (km/s) = 3.05378 3.43677 3.25092
# Velocity P-wave (km/s) = 4.49765 5.15958 4.83994
#
# Compressibility (1/GPa) = 0.05987070
#
# Stress axis : x y z
#
# Youngs Moduli (GPa) = 25.26344 41.33488 36.05419
#
# Poissons Ratio (x) = 0.02761 0.12361
# Poissons Ratio (y) = 0.01687 0.42270
# Poissons Ratio (z) = 0.08661 0.48461
#
# Static dielectric constant tensor:
#      x y z
#    x 1.827970 0.000000 -0.009140 
#    y 0.000000 1.750960 0.000000 
#    z -0.009140 0.000000 1.783370 
# 
# From -- ./inp_files/88971.got.cif
#   From: 2010.05.17/outbox.cif.g08.bks.cpg/sg13_45_cif.got.tgz:88971.got - 2010.06.03 16:44:36.
