data_PCOD9228557
_publ_section_title
;
Structure prediction by ZEFSAII (Michael W. Deem and Ramdas Pophale) SiO2 
 PCOD9228557
Probable space group: P 2/C
;
_chemical_formula_sum "Si O2"
_cell_formula_units_Z 30
_cell_length_a 10.135380
_cell_length_b 9.781178
_cell_length_c 13.504561
_cell_angle_alpha 90.000000
_cell_angle_beta 88.255515
_cell_angle_gamma 90.000000
_cell_volume 1338.167070
_symmetry_space_group_name_H-M "P 2/C"
_symmetry_group_IT_number 13
_symmetry_cell_setting 'monoclinic'
loop_
_space_group_symop_operation_xyz
x,y,z
-x,y,1/2-z
-x,-y,-z
x,-y,1/2+z
loop_
_atom_site_type_symbol
_atom_site_label
_atom_site_fract_x
_atom_site_fract_y
_atom_site_fract_z
Si Si1 0.715509 0.232248 0.798507
Si Si2 0.808812 0.191000 0.577790
Si Si3 0.500000 0.039022 0.750000
Si Si4 0.321426 0.074392 0.416568
Si Si5 0.794539 0.515564 0.984881
Si Si6 0.584229 0.649558 0.594075
Si Si7 0.900506 0.771375 0.487017
Si Si8 0.680458 0.551409 0.794926
O O1 0.789890 0.185206 0.696606
O O2 0.587460 0.138062 0.816196
O O3 0.813099 0.219702 0.888731
O O4 0.669191 0.387998 0.780516
O O5 0.788562 0.347530 0.547780
O O6 0.957037 0.167652 0.537233
O O7 0.707663 0.076088 0.538882
O O8 0.606297 0.951663 0.688770
O O9 0.412270 0.198839 0.451816
O O10 0.178084 0.145597 0.427482
O O11 0.652827 0.443750 0.010276
O O12 0.896132 0.392542 0.007629
O O13 0.801519 0.560015 0.869494
O O14 0.678977 0.626101 0.689213
O O15 0.444063 0.611294 0.642220
#
# Coordination Sequence:
#
# PCOD9228557 Si02
#       8
#     4   4   2   4   4   4   4   4
#     4  10  21  36  63  93 116 160 204 252 305 363
#     4  11  21  41  61  86 125 160 204 257 290 359
#     4  10  20  38  58  88 126 148 200 250 300 356
#     4  10  23  39  60  87 122 161 198 245 309 357
#     4  10  21  36  60  92 112 155 206 251 304 356
#     4  10  19  37  57  83 127 155 190 252 305 365
#     4  10  22  41  62  88 119 164 206 244 305 362
#     4  10  19  34  61  86 122 154 199 246 318 357
#
# _framework density 22.418727000000001
#
# number of rings (size 3 to 8) (size 9 to 14) (size 15 to 20)
#    0.000    1.867    1.333    3.200    1.867    0.533 
#    7.200    0.000    0.000    0.000    0.000    0.000 
#    0.000    0.000    0.000    0.000    0.000    0.000 
#
# Total GULP energy -167127.722987 kJ/mol
# GULP energy per Si atom -5570.924100 kJ/mol
# Density = 2.236770 g / cm^3
# Si number density = 22.418727 Si / 1000 Ang^3
#
#
#
# Elastic Constant Matrix: (Units=GPa)
#
#
# Indices 1 2 3 4 5 6 
#
# 1 77.8983 44.2244 22.5434 0.0000 -28.7286 0.0000
# 2 44.2244 125.4242 30.3261 0.0000 -15.6015 0.0000
# 3 22.5434 30.3261 87.7640 0.0000 -16.4196 0.0000
# 4 0.0000 0.0000 0.0000 22.9088 0.0000 -22.5449
# 5 -28.7286 -15.6015 -16.4196 0.0000 29.9428 0.0000
# 6 0.0000 0.0000 0.0000 -22.5449 0.0000 27.3063
#
#
#
# Elastic Compliance Matrix: (Units=1/GPa)
#
#
# Indices 1 2 3 4 5 6 
#
# 1 0.023249 -0.005720 -0.000423 0.000000 0.019094 0.000000
# 2 -0.005720 0.010394 -0.002380 0.000000 -0.001378 0.000000
# 3 -0.000423 -0.002380 0.013391 0.000000 0.005697 0.000000
# 4 0.000000 0.000000 0.000000 0.232823 0.000000 0.192226
# 5 0.019094 -0.001378 0.005697 0.000000 0.054123 0.000000
# 6 0.000000 0.000000 0.000000 0.192226 0.000000 0.195329
#
#
# Mechanical properties :
#
#
# Convention : Reuss Voigt Hill
#
# Bulk Modulus (GPa) = 33.34717 53.91936 43.63327
# Shear Modulus (GPa) = 8.98713 28.96442 18.97577
#
# Velocity S-wave (km/s) = 2.00436 3.59830 2.91249
# Velocity P-wave (km/s) = 4.50151 6.43172 5.55115
#
# Compressibility (1/GPa) = 0.02998755
#
# Stress axis : x y z
#
# Youngs Moduli (GPa) = 43.01300 96.20978 74.67632
#
# Poissons Ratio (x) = 0.55034 0.03159
# Poissons Ratio (y) = 0.24604 0.17773
# Poissons Ratio (z) = 0.01820 0.22898
#
# Static dielectric constant tensor:
#      x y z
#    x 1.845320 0.000000 0.039840 
#    y 0.000000 1.885730 0.000000 
#    z 0.039840 0.000000 1.868310 
# 
# From -- ./inp_files/50055.got.cif
#   From: 2010.05.17/outbox.cif.g08.bks.cpg/sg13_26_cif.got.tgz:50055.got - 2010.06.03 16:44:36.
