data_PCOD9228748
_publ_section_title
;
Structure prediction by ZEFSAII (Michael W. Deem and Ramdas Pophale) SiO2 
 PCOD9228748
Probable space group: P 2/C
;
_chemical_formula_sum "Si O2"
_cell_formula_units_Z 20
_cell_length_a 19.419577
_cell_length_b 11.782303
_cell_length_c 15.600491
_cell_angle_alpha 90.000000
_cell_angle_beta 17.117024
_cell_angle_gamma 90.000000
_cell_volume 1050.592614
_symmetry_space_group_name_H-M "P 2/C"
_symmetry_group_IT_number 13
_symmetry_cell_setting 'monoclinic'
loop_
_space_group_symop_operation_xyz
x,y,z
-x,y,1/2-z
-x,-y,-z
x,-y,1/2+z
loop_
_atom_site_type_symbol
_atom_site_label
_atom_site_fract_x
_atom_site_fract_y
_atom_site_fract_z
Si Si1 0.110243 0.296156 0.526847
Si Si2 0.902332 0.705879 0.096312
Si Si3 0.476094 0.866033 0.023329
Si Si4 0.215870 0.549112 0.424317
Si Si5 0.444942 0.271126 0.912162
O O1 0.245841 0.415495 0.374928
O O2 0.000000 0.271082 0.750000
O O3 0.922081 0.318622 0.674514
O O4 0.288077 0.196706 0.289342
O O5 0.734737 0.813677 0.281225
O O6 0.828357 0.609184 0.115429
O O7 0.169432 0.730796 0.753615
O O8 0.436613 0.818808 0.165832
O O9 0.500000 0.000000 0.000000
O O10 0.441879 0.608696 0.196162
O O11 0.000000 0.565244 0.750000
O O12 0.500000 0.245824 0.750000
#
# Coordination Sequence:
#
# PCOD9228748 Si02
#       5
#     4   4   4   4   4
#     4  10  23  40  58  92 126 162 204 247 312 376
#     4  10  21  38  64  86 125 158 202 250 311 358
#     4  10  24  44  59  87 120 162 215 261 301 360
#     4  10  19  35  61  93 128 159 200 249 309 381
#     4  10  20  37  62  94 119 160 204 250 313 373
#
# _framework density 19.036874999999998
#
# number of rings (size 3 to 8) (size 9 to 14) (size 15 to 20)
#    0.000    2.000    2.000    0.600    0.000   12.800 
#    7.200    0.000    0.000    0.000    0.000    0.000 
#    0.000    0.000    0.000    0.000    0.000    0.000 
#
# Total GULP energy -111588.035523 kJ/mol
# GULP energy per Si atom -5579.401776 kJ/mol
# Density = 1.899355 g / cm^3
# Si number density = 19.036875 Si / 1000 Ang^3
#
#
#
# Elastic Constant Matrix: (Units=GPa)
#
#
# Indices 1 2 3 4 5 6 
#
# 1 140.5945 37.2212 34.8149 0.0000 27.2858 0.0000
# 2 37.2212 155.4038 33.3212 0.0000 3.5474 0.0000
# 3 34.8149 33.3212 60.0662 0.0000 1.3156 0.0000
# 4 0.0000 0.0000 0.0000 17.2945 0.0000 2.6572
# 5 27.2858 3.5474 1.3156 0.0000 29.2220 0.0000
# 6 0.0000 0.0000 0.0000 2.6572 0.0000 7.6451
#
#
#
# Elastic Compliance Matrix: (Units=1/GPa)
#
#
# Indices 1 2 3 4 5 6 
#
# 1 0.010571 -0.001187 -0.005261 0.000000 -0.009490 0.000000
# 2 -0.001187 0.007451 -0.003453 0.000000 0.000360 0.000000
# 3 -0.005261 -0.003453 0.021518 0.000000 0.004363 0.000000
# 4 0.000000 0.000000 0.000000 0.061084 0.000000 -0.021231
# 5 -0.009490 0.000360 0.004363 0.000000 0.042842 0.000000
# 6 0.000000 0.000000 0.000000 -0.021231 0.000000 0.138182
#
#
# Mechanical properties :
#
#
# Convention : Reuss Voigt Hill
#
# Bulk Modulus (GPa) = 50.66457 62.97546 56.82002
# Shear Modulus (GPa) = 16.23213 27.54614 21.88913
#
# Velocity S-wave (km/s) = 2.92322 3.80806 3.39459
# Velocity P-wave (km/s) = 6.16971 7.24484 6.72878
#
# Compressibility (1/GPa) = 0.01973766
#
# Stress axis : x y z
#
# Youngs Moduli (GPa) = 94.59421 134.20151 46.47356
#
# Poissons Ratio (x) = 0.15935 0.24449
# Poissons Ratio (y) = 0.11232 0.16049
# Poissons Ratio (z) = 0.49764 0.46344
#
# Static dielectric constant tensor:
#      x y z
#    x 1.700830 0.000000 0.005130 
#    y 0.000000 1.641950 0.000000 
#    z 0.005130 0.000000 1.671870 
# 
# From -- ./inp_files/43733.got.cif
#   From: 2010.05.17/outbox.cif.g08.bks.cpg/sg13_22_cif.got.tgz:43733.got - 2010.06.03 16:44:36.
