data_PCOD9228618
_publ_section_title
;
Structure prediction by ZEFSAII (Michael W. Deem and Ramdas Pophale) SiO2 
 PCOD9228618
Probable space group: P 2/C
;
_chemical_formula_sum "Si O2"
_cell_formula_units_Z 30
_cell_length_a 9.652807
_cell_length_b 9.695577
_cell_length_c 18.903699
_cell_angle_alpha 90.000000
_cell_angle_beta 127.610198
_cell_angle_gamma 90.000000
_cell_volume 1401.517470
_symmetry_space_group_name_H-M "P 2/C"
_symmetry_group_IT_number 13
_symmetry_cell_setting 'monoclinic'
loop_
_space_group_symop_operation_xyz
x,y,z
-x,y,1/2-z
-x,-y,-z
x,-y,1/2+z
loop_
_atom_site_type_symbol
_atom_site_label
_atom_site_fract_x
_atom_site_fract_y
_atom_site_fract_z
Si Si1 0.860142 0.695974 0.993113
Si Si2 0.284237 0.636971 0.409796
Si Si3 0.000000 0.166009 0.750000
Si Si4 0.863238 0.742182 0.529686
Si Si5 0.503359 0.828372 0.835327
Si Si6 0.651300 0.333657 0.096150
Si Si7 0.039596 0.965296 0.114753
Si Si8 0.610454 0.118025 0.850626
O O1 0.825856 0.604470 0.052194
O O2 0.931278 0.839510 0.047647
O O3 0.672583 0.734873 0.903992
O O4 0.997893 0.658199 0.974897
O O5 0.163429 0.737966 0.325733
O O6 0.335983 0.497111 0.385778
O O7 0.467433 0.696530 0.497390
O O8 0.053005 0.070860 0.700980
O O9 0.804046 0.695319 0.588169
O O10 0.949947 0.891617 0.569432
O O11 0.691152 0.768784 0.427622
O O12 0.500000 0.829562 0.750000
O O13 0.351470 0.756522 0.833707
O O14 0.517553 0.990102 0.861170
O O15 0.225824 0.956860 0.135790
O O16 0.500000 0.174733 0.750000
#
# Coordination Sequence:
#
# PCOD9228618 Si02
#       8
#     4   4   2   4   4   4   4   4
#     4   9  17  38  60  77 117 162 189 232 311 365
#     4   9  21  44  61  82 118 166 207 244 302 358
#     4  10  22  38  66  82 122 160 200 256 314 348
#     4  11  20  36  59  93 122 152 200 256 297 369
#     4  10  19  36  56  83 116 164 188 241 311 359
#     4  10  23  39  63  87 118 158 214 256 289 355
#     4  10  19  35  56  88 118 157 193 247 302 379
#     4  10  20  33  56  85 126 157 190 237 310 376
#
# _framework density 21.405369
#
# number of rings (size 3 to 8) (size 9 to 14) (size 15 to 20)
#    0.000    2.133    2.667    0.800    1.867    3.200 
#    2.400    0.000   11.733    0.000    0.000    0.000 
#    0.000    0.000    0.000    0.000    0.000    0.000 
#
# Total GULP energy -167376.627748 kJ/mol
# GULP energy per Si atom -5579.220925 kJ/mol
# Density = 2.135665 g / cm^3
# Si number density = 21.405369 Si / 1000 Ang^3
#
#
#
# Elastic Constant Matrix: (Units=GPa)
#
#
# Indices 1 2 3 4 5 6 
#
# 1 91.7951 11.5733 6.4067 0.0000 -26.1004 0.0000
# 2 11.5733 14.0873 -4.5422 0.0000 1.7690 0.0000
# 3 6.4067 -4.5422 56.1030 0.0000 -3.4376 0.0000
# 4 0.0000 0.0000 0.0000 9.2244 0.0000 -13.2024
# 5 -26.1004 1.7690 -3.4376 0.0000 33.3127 0.0000
# 6 0.0000 0.0000 0.0000 -13.2024 0.0000 26.2405
#
#
#
# Elastic Compliance Matrix: (Units=1/GPa)
#
#
# Indices 1 2 3 4 5 6 
#
# 1 0.017171 -0.016664 -0.002447 0.000000 0.014086 0.000000
# 2 -0.016664 0.089420 0.008103 0.000000 -0.016969 0.000000
# 3 -0.002447 0.008103 0.018734 0.000000 -0.000414 0.000000
# 4 0.000000 0.000000 0.000000 0.387324 0.000000 0.194875
# 5 0.014086 -0.016969 -0.000414 0.000000 0.041913 0.000000
# 6 0.000000 0.000000 0.000000 0.194875 0.000000 0.136157
#
#
# Mechanical properties :
#
#
# Convention : Reuss Voigt Hill
#
# Bulk Modulus (GPa) = 9.67973 20.98455 15.33214
# Shear Modulus (GPa) = 6.69191 23.65867 15.17529
#
# Velocity S-wave (km/s) = 1.77005 3.32816 2.66550
# Velocity P-wave (km/s) = 2.95116 4.95919 4.08062
#
# Compressibility (1/GPa) = 0.10330866
#
# Stress axis : x y z
#
# Youngs Moduli (GPa) = 58.23911 11.18317 53.37762
#
# Poissons Ratio (x) = 0.18636 0.13061
# Poissons Ratio (y) = 0.97051 -0.43251
# Poissons Ratio (z) = 0.14251 -0.09062
#
# Static dielectric constant tensor:
#      x y z
#    x 5.606400 0.000000 4.817580 
#    y 0.000000 1.761190 0.000000 
#    z 4.817580 0.000000 7.942070 
# 
# From -- ./inp_files/64453.got.cif
#   From: 2010.05.17/outbox.cif.g08.bks.cpg/sg13_33_cif.got.tgz:64453.got - 2010.06.03 16:44:36.
