data_PCOD9228174
_publ_section_title
;
Structure prediction by ZEFSAII (Michael W. Deem and Ramdas Pophale) SiO2 
 PCOD9228174
Probable space group: P 2/C
;
_chemical_formula_sum "Si O2"
_cell_formula_units_Z 26
_cell_length_a 35.723848
_cell_length_b 6.933537
_cell_length_c 5.161562
_cell_angle_alpha 90.000000
_cell_angle_beta 102.349654
_cell_angle_gamma 90.000000
_cell_volume 1248.897533
_symmetry_space_group_name_H-M "P 2/C"
_symmetry_group_IT_number 13
_symmetry_cell_setting 'monoclinic'
loop_
_space_group_symop_operation_xyz
x,y,z
-x,y,1/2-z
-x,-y,-z
x,-y,1/2+z
loop_
_atom_site_type_symbol
_atom_site_label
_atom_site_fract_x
_atom_site_fract_y
_atom_site_fract_z
Si Si1 0.517958 0.213180 0.526812
Si Si2 0.401177 0.633868 0.304839
Si Si3 0.000000 0.861041 0.750000
Si Si4 0.162163 0.132491 0.536500
Si Si5 0.243381 0.872803 0.042795
Si Si6 0.317714 0.374687 0.776108
Si Si7 0.081599 0.865557 0.803487
O O1 0.500000 0.305304 0.250000
O O2 0.563542 0.222830 0.602033
O O3 0.500000 0.000000 0.500000
O O4 0.500000 0.306315 0.750000
O O5 0.404039 0.467054 0.528739
O O6 0.358919 0.722585 0.281173
O O7 0.958716 0.757618 0.705974
O O8 0.000000 0.000000 0.500000
O O9 0.202806 0.232566 0.540961
O O10 0.161983 0.956072 0.325169
O O11 0.122018 0.238194 0.418726
O O12 0.280864 0.750839 0.157564
O O13 0.243587 0.048684 0.250410
O O14 0.316949 0.552208 0.570404
O O15 0.081748 0.959340 0.516845
#
# Coordination Sequence:
#
# PCOD9228174 Si02
#       7
#     4   4   2   4   4   4   4
#     4  10  21  37  53  78 107 130 159 200 239 273
#     4  10  21  37  57  78 101 134 167 194 232 287
#     4   8  12  16  24  38  62  94 142 174 212 272
#     4   8  14  23  37  55  84 111 146 189 235 279
#     4  10  19  33  51  78 100 129 169 206 244 298
#     4  10  21  38  56  77 107 136 166 204 250 293
#     4   8  12  18  27  43  66 103 137 179 222 270
#
# _framework density 20.818362
#
# number of rings (size 3 to 8) (size 9 to 14) (size 15 to 20)
#    0.000    2.769    0.000    1.846    0.000    1.846 
#    5.538    0.000    0.000    0.000    0.000    0.000 
#    0.000    0.000    0.000    1.385    0.000    5.385 
#
# Total GULP energy -144751.929298 kJ/mol
# GULP energy per Si atom -5567.381896 kJ/mol
# Density = 2.077098 g / cm^3
# Si number density = 20.818362 Si / 1000 Ang^3
#
#
#
# Elastic Constant Matrix: (Units=GPa)
#
#
# Indices 1 2 3 4 5 6 
#
# 1 236.1422 25.7494 -6.8892 0.0000 25.8029 0.0000
# 2 25.7494 28.0761 -4.3358 0.0000 1.1153 0.0000
# 3 -6.8892 -4.3358 124.8707 0.0000 -6.7817 0.0000
# 4 0.0000 0.0000 0.0000 -21.2835 0.0000 4.6347
# 5 25.8029 1.1153 -6.7817 0.0000 33.1988 0.0000
# 6 0.0000 0.0000 0.0000 4.6347 0.0000 10.0426
#
#
#
# Elastic Compliance Matrix: (Units=1/GPa)
#
#
# Indices 1 2 3 4 5 6 
#
# 1 0.005155 -0.004588 -0.000085 0.000000 -0.003870 0.000000
# 2 -0.004588 0.039922 0.001268 0.000000 0.002483 0.000000
# 3 -0.000085 0.001268 0.008139 0.000000 0.001686 0.000000
# 4 0.000000 0.000000 0.000000 -0.042694 0.000000 0.019704
# 5 -0.003870 0.002483 0.001686 0.000000 0.033391 0.000000
# 6 0.000000 0.000000 0.000000 0.019704 0.000000 0.090483
#
#
# Mechanical properties :
#
#
# Convention : Reuss Voigt Hill
#
# Bulk Modulus (GPa) = 21.54833 46.45977 34.00405
# Shear Modulus (GPa) = 31.91334 29.36255 30.63795
#
# Velocity S-wave (km/s) = 3.91953 3.75963 3.84041
# Velocity P-wave (km/s) = 5.55488 6.41962 6.00284
#
# Compressibility (1/GPa) = 0.04640730
#
# Stress axis : x y z
#
# Youngs Moduli (GPa) = 193.97231 25.04883 122.86232
#
# Poissons Ratio (x) = 0.11491 0.01045
# Poissons Ratio (y) = 0.88986 -0.15578
# Poissons Ratio (z) = 0.01650 -0.03176
#
# Static dielectric constant tensor:
#      x y z
#    x 1.852380 0.000000 0.012130 
#    y 0.000000 1.709050 0.000000 
#    z 0.012130 0.000000 1.754970 
# 
# From -- ./inp_files/8006.got.cif
#   From: 2010.05.17/outbox.cif.g08.bks.cpg/sg13_5_cif.got.tgz:8006.got - 2010.06.03 16:44:36.
