data_PCOD9228219
_publ_section_title
;
Structure prediction by ZEFSAII (Michael W. Deem and Ramdas Pophale) SiO2 
 PCOD9228219
Probable space group: P 2/C
;
_chemical_formula_sum "Si O2"
_cell_formula_units_Z 28
_cell_length_a 17.931987
_cell_length_b 16.478016
_cell_length_c 5.419645
_cell_angle_alpha 90.000000
_cell_angle_beta 109.292538
_cell_angle_gamma 90.000000
_cell_volume 1511.486908
_symmetry_space_group_name_H-M "P 2/C"
_symmetry_group_IT_number 13
_symmetry_cell_setting 'monoclinic'
loop_
_space_group_symop_operation_xyz
x,y,z
-x,y,1/2-z
-x,-y,-z
x,-y,1/2+z
loop_
_atom_site_type_symbol
_atom_site_label
_atom_site_fract_x
_atom_site_fract_y
_atom_site_fract_z
Si Si1 0.410066 0.548757 0.624256
Si Si2 0.589772 0.969395 0.151546
Si Si3 0.149849 0.686353 0.476102
Si Si4 0.088628 0.348867 0.409960
Si Si5 0.669459 0.282504 0.405261
Si Si6 0.205775 0.503879 0.567253
Si Si7 0.591163 0.217106 0.821918
O O1 0.500000 0.581529 0.750000
O O2 0.404777 0.519535 0.333545
O O3 0.354131 0.623324 0.636573
O O4 0.589659 0.878349 0.252989
O O5 0.625897 0.022059 0.416175
O O6 0.500000 0.000000 0.000000
O O7 0.118712 0.706028 0.714541
O O8 0.235646 0.722256 0.509340
O O9 0.160315 0.588441 0.509461
O O10 0.094483 0.696730 0.178070
O O11 0.145030 0.428390 0.496517
O O12 0.000000 0.375059 0.250000
O O13 0.635641 0.255645 0.634660
O O14 0.632553 0.236325 0.128798
O O15 0.253279 0.503070 0.869618
O O16 0.500000 0.244620 0.750000
#
# Coordination Sequence:
#
# PCOD9228219 Si02
#       7
#     4   4   4   4   4   4   4
#     4  10  21  37  54  67  89 130 188 253 296 312
#     4  10  19  34  58  85 116 138 167 226 258 319
#     4  10  21  34  46  69 103 130 165 216 273 333
#     4  10  19  33  54  74  94 125 174 233 287 338
#     4  12  25  37  53  78 108 145 189 231 287 339
#     4   8  16  27  44  65  89 118 158 212 276 326
#     4  12  23  37  59  82 111 146 186 230 270 320
#
# _framework density 18.524806000000002
#
# number of rings (size 3 to 8) (size 9 to 14) (size 15 to 20)
#    0.000    1.714    1.429    4.286    2.000    9.714 
#    0.000    0.000    0.000    0.000    0.000    0.000 
#    0.000    0.000    0.000    0.000    0.000  180.000 
#
# Total GULP energy -156051.849476 kJ/mol
# GULP energy per Si atom -5573.280338 kJ/mol
# Density = 1.848264 g / cm^3
# Si number density = 18.524806 Si / 1000 Ang^3
#
#
#
# Elastic Constant Matrix: (Units=GPa)
#
#
# Indices 1 2 3 4 5 6 
#
# 1 56.0287 3.5727 26.4203 0.0000 -10.0242 0.0000
# 2 3.5727 46.6917 19.0730 0.0000 -2.5729 0.0000
# 3 26.4203 19.0730 156.9210 0.0000 -31.9753 0.0000
# 4 0.0000 0.0000 0.0000 25.0518 0.0000 -7.1218
# 5 -10.0242 -2.5729 -31.9753 0.0000 40.0384 0.0000
# 6 0.0000 0.0000 0.0000 -7.1218 0.0000 2.3736
#
#
#
# Elastic Compliance Matrix: (Units=1/GPa)
#
#
# Indices 1 2 3 4 5 6 
#
# 1 0.019634 -0.000241 -0.002721 0.000000 0.002727 0.000000
# 2 -0.000241 0.022565 -0.002889 0.000000 -0.000917 0.000000
# 3 -0.002721 -0.002889 0.008367 0.000000 0.005815 0.000000
# 4 0.000000 0.000000 0.000000 0.271452 0.000000 0.814458
# 5 0.002727 -0.000917 0.005815 0.000000 0.030244 0.000000
# 6 0.000000 0.000000 0.000000 0.814458 0.000000 2.864975
#
#
# Mechanical properties :
#
#
# Convention : Reuss Voigt Hill
#
# Bulk Modulus (GPa) = 25.73001 39.75261 32.74131
# Shear Modulus (GPa) = 1.54231 27.53112 14.53672
#
# Velocity S-wave (km/s) = 0.91344 3.85928 2.80432
# Velocity P-wave (km/s) = 3.87713 6.43152 5.31020
#
# Compressibility (1/GPa) = 0.03886513
#
# Stress axis : x y z
#
# Youngs Moduli (GPa) = 50.93136 44.31620 119.52021
#
# Poissons Ratio (x) = 0.01066 0.32518
# Poissons Ratio (y) = 0.01226 0.34531
# Poissons Ratio (z) = 0.13857 0.12803
#
# Static dielectric constant tensor:
#      x y z
#    x 1.708640 0.000000 -0.066460 
#    y 0.000000 1.635090 0.000000 
#    z -0.066460 0.000000 1.735410 
# 
# From -- ./inp_files/6284.got.cif
#   From: 2010.05.17/outbox.cif.g08.bks.cpg/sg13_4_cif.got.tgz:6284.got - 2010.06.03 16:44:36.
