data_PCOD9228758
_publ_section_title
;
Structure prediction by ZEFSAII (Michael W. Deem and Ramdas Pophale) SiO2 
 PCOD9228758
Probable space group: P 2/C
;
_chemical_formula_sum "Si O2"
_cell_formula_units_Z 20
_cell_length_a 7.673554
_cell_length_b 21.648734
_cell_length_c 5.543978
_cell_angle_alpha 90.000000
_cell_angle_beta 63.476964
_cell_angle_gamma 90.000000
_cell_volume 824.052039
_symmetry_space_group_name_H-M "P 2/C"
_symmetry_group_IT_number 13
_symmetry_cell_setting 'monoclinic'
loop_
_space_group_symop_operation_xyz
x,y,z
-x,y,1/2-z
-x,-y,-z
x,-y,1/2+z
loop_
_atom_site_type_symbol
_atom_site_label
_atom_site_fract_x
_atom_site_fract_y
_atom_site_fract_z
Si Si1 0.214199 0.172765 0.505813
Si Si2 0.235578 0.031288 0.578320
Si Si3 0.710042 0.664058 0.999194
Si Si4 0.000000 0.240597 0.250000
Si Si5 0.273400 0.477807 0.114763
Si Si6 0.500000 0.267219 0.250000
O O1 0.280091 0.103025 0.503761
O O2 0.380393 0.219383 0.490927
O O3 0.160892 0.195383 0.267757
O O4 0.000000 0.179111 0.750000
O O5 0.000000 0.027289 0.750000
O O6 0.299640 0.994327 0.299024
O O7 0.752520 0.591986 0.961866
O O8 0.662515 0.688689 0.760878
O O9 0.878601 0.709716 0.986433
O O10 0.500000 0.671305 0.250000
O O11 0.196825 0.482286 0.436144
O O12 0.500000 0.500000 0.000000
#
# Coordination Sequence:
#
# PCOD9228758 Si02
#       6
#     4   4   4   2   4   2
#     4  10  21  38  61  83 125 151 206 251 303 363
#     4   9  19  34  60  89 116 160 204 250 308 364
#     4  11  21  38  63  83 124 153 207 248 305 364
#     4  10  24  38  56  94 114 162 200 252 304 360
#     4  10  19  35  62  89 115 160 203 248 305 361
#     4  10  22  38  58  90 112 168 198 244 312 364
#
# _framework density 24.270315
#
# number of rings (size 3 to 8) (size 9 to 14) (size 15 to 20)
#    0.000    2.000    2.000    2.400    7.000    0.000 
#    0.000    2.000    0.000    0.000    0.000    0.000 
#    0.000    0.000    0.000    0.000    0.000    0.000 
#
# Total GULP energy -111481.588328 kJ/mol
# GULP energy per Si atom -5574.079416 kJ/mol
# Density = 2.421507 g / cm^3
# Si number density = 24.270315 Si / 1000 Ang^3
#
#
#
# Elastic Constant Matrix: (Units=GPa)
#
#
# Indices 1 2 3 4 5 6 
#
# 1 82.9090 11.0177 15.2687 0.0000 -15.2158 0.0000
# 2 11.0177 152.0416 40.7615 0.0000 0.5972 0.0000
# 3 15.2687 40.7615 98.1756 0.0000 8.3563 0.0000
# 4 0.0000 0.0000 0.0000 31.9495 0.0000 0.2722
# 5 -15.2158 0.5972 8.3563 0.0000 28.4869 0.0000
# 6 0.0000 0.0000 0.0000 0.2722 0.0000 7.4455
#
#
#
# Elastic Compliance Matrix: (Units=1/GPa)
#
#
# Indices 1 2 3 4 5 6 
#
# 1 0.014155 -0.000312 -0.002785 0.000000 0.008384 0.000000
# 2 -0.000312 0.007424 -0.003083 0.000000 0.000582 0.000000
# 3 -0.002785 -0.003083 0.012328 0.000000 -0.005040 0.000000
# 4 0.000000 0.000000 0.000000 0.031309 0.000000 -0.001145
# 5 0.008384 0.000582 -0.005040 0.000000 0.041048 0.000000
# 6 0.000000 0.000000 0.000000 -0.001145 0.000000 0.134351
#
#
# Mechanical properties :
#
#
# Convention : Reuss Voigt Hill
#
# Bulk Modulus (GPa) = 46.41413 51.91355 49.16384
# Shear Modulus (GPa) = 19.21907 31.31494 25.26701
#
# Velocity S-wave (km/s) = 2.81708 3.59591 3.23006
# Velocity P-wave (km/s) = 5.45404 6.21908 5.84908
#
# Compressibility (1/GPa) = 0.02154516
#
# Stress axis : x y z
#
# Youngs Moduli (GPa) = 70.64886 134.69606 81.11475
#
# Poissons Ratio (x) = 0.04201 0.22594
# Poissons Ratio (y) = 0.02203 0.25012
# Poissons Ratio (z) = 0.19679 0.41533
#
# Static dielectric constant tensor:
#      x y z
#    x 2.038040 0.000000 0.095060 
#    y 0.000000 1.859410 0.000000 
#    z 0.095060 0.000000 1.739400 
# 
# From -- ./inp_files/1984.got.cif
#   From: 2010.05.17/outbox.cif.g08.bks.cpg/sg13_1_cif.got.tgz:1984.got - 2010.06.03 16:44:36.
