data_PCOD9228212
_publ_section_title
;
Structure prediction by ZEFSAII (Michael W. Deem and Ramdas Pophale) SiO2 
 PCOD9228212
Probable space group: P 2/C
;
_chemical_formula_sum "Si O2"
_cell_formula_units_Z 28
_cell_length_a 20.847157
_cell_length_b 14.592323
_cell_length_c 8.445866
_cell_angle_alpha 90.000000
_cell_angle_beta 33.829237
_cell_angle_gamma 90.000000
_cell_volume 1430.381727
_symmetry_space_group_name_H-M "P 2/C"
_symmetry_group_IT_number 13
_symmetry_cell_setting 'monoclinic'
loop_
_space_group_symop_operation_xyz
x,y,z
-x,y,1/2-z
-x,-y,-z
x,-y,1/2+z
loop_
_atom_site_type_symbol
_atom_site_label
_atom_site_fract_x
_atom_site_fract_y
_atom_site_fract_z
Si Si1 0.926747 0.669903 0.056548
Si Si2 0.559826 0.405988 0.425496
Si Si3 0.516638 0.897339 0.905995
Si Si4 0.855058 0.359611 0.213425
Si Si5 0.689326 0.254487 0.965120
Si Si6 0.635757 0.740922 0.198702
Si Si7 0.201652 0.528410 0.968200
O O1 0.825172 0.740753 0.223449
O O2 0.859127 0.583601 0.265252
O O3 0.000000 0.348655 0.250000
O O4 0.025858 0.688097 0.983326
O O5 0.500000 0.500000 0.500000
O O6 0.628360 0.346675 0.154606
O O7 0.455315 0.335619 0.673214
O O8 0.664781 0.441487 0.320572
O O9 0.500000 0.900585 0.750000
O O10 0.631232 0.832478 0.673471
O O11 0.424256 0.838475 0.196853
O O12 0.500000 0.000000 0.000000
O O13 0.757721 0.284851 0.374097
O O14 0.810795 0.423034 0.452764
O O15 0.860339 0.430594 0.058136
O O16 0.659550 0.257161 0.840046
#
# Coordination Sequence:
#
# PCOD9228212 Si02
#       7
#     4   4   4   4   4   4   4
#     4  11  21  39  60  78 112 161 206 251 279 332
#     4  10  19  33  53  80 119 153 195 245 291 344
#     4   9  19  40  66  94 120 146 186 239 304 371
#     4  12  23  37  55  80 120 160 214 249 289 337
#     4   9  20  37  61  87 113 156 202 235 291 358
#     4  10  20  36  58  87 116 158 193 236 303 361
#     4  11  25  36  52  81 114 163 213 252 287 336
#
# _framework density 19.575194
#
# number of rings (size 3 to 8) (size 9 to 14) (size 15 to 20)
#    0.000    1.714    2.857    3.000    2.000    1.714 
#    7.714    0.000    0.000    0.857    0.000    0.000 
#    0.000    0.000    0.000    0.000    0.000    0.000 
#
# Total GULP energy -155960.145325 kJ/mol
# GULP energy per Si atom -5570.005190 kJ/mol
# Density = 1.953064 g / cm^3
# Si number density = 19.575194 Si / 1000 Ang^3
#
#
#
# Elastic Constant Matrix: (Units=GPa)
#
#
# Indices 1 2 3 4 5 6 
#
# 1 75.2198 26.0743 38.8601 0.0000 -25.8426 0.0000
# 2 26.0743 136.7733 48.3705 0.0000 -13.1904 0.0000
# 3 38.8601 48.3705 102.3098 0.0000 -26.6605 0.0000
# 4 0.0000 0.0000 0.0000 15.5034 0.0000 4.3324
# 5 -25.8426 -13.1904 -26.6605 0.0000 41.8754 0.0000
# 6 0.0000 0.0000 0.0000 4.3324 0.0000 19.9165
#
#
#
# Elastic Compliance Matrix: (Units=1/GPa)
#
#
# Indices 1 2 3 4 5 6 
#
# 1 0.018903 -0.001235 -0.004385 0.000000 0.008485 0.000000
# 2 -0.001235 0.008861 -0.003826 0.000000 -0.000407 0.000000
# 3 -0.004385 -0.003826 0.014662 0.000000 0.005423 0.000000
# 4 0.000000 0.000000 0.000000 0.068677 0.000000 -0.014939
# 5 0.008485 -0.000407 0.005423 0.000000 0.032441 0.000000
# 6 0.000000 0.000000 0.000000 -0.014939 0.000000 0.053459
#
#
# Mechanical properties :
#
#
# Convention : Reuss Voigt Hill
#
# Bulk Modulus (GPa) = 42.49234 60.10143 51.29688
# Shear Modulus (GPa) = 22.34742 28.85892 25.60317
#
# Velocity S-wave (km/s) = 3.38245 3.84377 3.62047
# Velocity P-wave (km/s) = 6.08350 7.10415 6.61355
#
# Compressibility (1/GPa) = 0.02353365
#
# Stress axis : x y z
#
# Youngs Moduli (GPa) = 52.90219 112.85828 68.20300
#
# Poissons Ratio (x) = 0.13933 0.29908
# Poissons Ratio (y) = 0.06531 0.26097
# Poissons Ratio (z) = 0.23198 0.43183
#
# Static dielectric constant tensor:
#      x y z
#    x 1.891900 0.000000 0.010190 
#    y 0.000000 1.666240 0.000000 
#    z 0.010190 0.000000 1.756200 
# 
# From -- ./inp_files/21960.got.cif
#   From: 2010.05.17/outbox.cif.g08.bks.cpg/sg13_11_cif.got.tgz:21960.got - 2010.06.03 16:44:36.
