data_PCOD9228144
_publ_section_title
;
Structure prediction by ZEFSAII (Michael W. Deem and Ramdas Pophale) SiO2 
 PCOD9228144
Probable space group: P 2/C
;
_chemical_formula_sum "Si O2"
_cell_formula_units_Z 26
_cell_length_a 23.912235
_cell_length_b 5.435477
_cell_length_c 14.412254
_cell_angle_alpha 90.000000
_cell_angle_beta 147.518117
_cell_angle_gamma 90.000000
_cell_volume 1005.982979
_symmetry_space_group_name_H-M "P 2/C"
_symmetry_group_IT_number 13
_symmetry_cell_setting 'monoclinic'
loop_
_space_group_symop_operation_xyz
x,y,z
-x,y,1/2-z
-x,-y,-z
x,-y,1/2+z
loop_
_atom_site_type_symbol
_atom_site_label
_atom_site_fract_x
_atom_site_fract_y
_atom_site_fract_z
Si Si1 0.595447 0.270207 0.717606
Si Si2 0.000000 0.702066 0.750000
Si Si3 0.886620 0.229839 0.416028
Si Si4 0.101352 0.626102 0.231849
Si Si5 0.278329 0.836852 0.385975
Si Si6 0.500860 0.230100 0.375942
Si Si7 0.800329 0.378334 0.910171
O O1 0.542291 0.253079 0.541017
O O2 0.545040 0.496608 0.703666
O O3 0.716306 0.331269 0.870896
O O4 0.578015 0.999384 0.733088
O O5 0.936148 0.545415 0.737078
O O6 0.899535 0.807133 0.556178
O O7 0.898001 0.453788 0.357898
O O8 0.847009 0.351486 0.456765
O O9 0.010327 0.166297 0.598903
O O10 0.793806 0.067153 0.244842
O O11 0.216924 0.738113 0.389933
O O12 0.402407 0.847889 0.554082
O O13 0.259540 0.665121 0.269675
#
# Coordination Sequence:
#
# PCOD9228144 Si02
#       7
#     4   2   4   4   4   4   4
#     4   9  18  32  51  87 119 151 180 248 285 346
#     4  10  20  40  54  80 112 156 190 238 282 376
#     4   9  18  33  53  79 110 143 185 237 289 346
#     4   9  19  34  53  77 110 146 186 234 291 342
#     4  10  19  32  57  84 109 148 186 251 284 355
#     4   9  19  29  55  86 118 144 194 232 305 335
#     4   9  20  33  56  80 117 150 189 233 297 338
#
# _framework density 25.845365999999999
#
# number of rings (size 3 to 8) (size 9 to 14) (size 15 to 20)
#    0.000    2.769    0.000    1.385   12.923    0.000 
#    0.000    6.923    0.000    0.923    0.000    0.000 
#    0.000    0.000    0.000    0.000    0.000    0.000 
#
# Total GULP energy -144916.904629 kJ/mol
# GULP energy per Si atom -5573.727101 kJ/mol
# Density = 2.578654 g / cm^3
# Si number density = 25.845366 Si / 1000 Ang^3
#
#
#
# Elastic Constant Matrix: (Units=GPa)
#
#
# Indices 1 2 3 4 5 6 
#
# 1 118.9523 35.9614 54.8182 0.0000 46.2855 0.0000
# 2 35.9614 98.1681 34.2919 0.0000 37.3243 0.0000
# 3 54.8182 34.2919 108.9027 0.0000 49.8785 0.0000
# 4 0.0000 0.0000 0.0000 35.4735 0.0000 8.0870
# 5 46.2855 37.3243 49.8785 0.0000 63.2102 0.0000
# 6 0.0000 0.0000 0.0000 8.0870 0.0000 -2.8996
#
#
#
# Elastic Compliance Matrix: (Units=1/GPa)
#
#
# Indices 1 2 3 4 5 6 
#
# 1 0.012573 -0.001221 -0.003223 0.000000 -0.005943 0.000000
# 2 -0.001221 0.013312 -0.000605 0.000000 -0.006489 0.000000
# 3 -0.003223 -0.000605 0.015269 0.000000 -0.009332 0.000000
# 4 0.000000 0.000000 0.000000 0.017233 0.000000 0.048063
# 5 -0.005943 -0.006489 -0.009332 0.000000 0.031367 0.000000
# 6 0.000000 0.000000 0.000000 0.048063 0.000000 -0.210828
#
#
# Mechanical properties :
#
#
# Convention : Reuss Voigt Hill
#
# Bulk Modulus (GPa) = 32.19787 64.01846 48.10816
# Shear Modulus (GPa) = -49.69042 32.55361 -8.56840
#
# Velocity S-wave (km/s) = -4.38951 3.55287 -1.82276
# Velocity P-wave (km/s) = 3.63393 6.45400 3.77151
#
# Compressibility (1/GPa) = 0.03105796
#
# Stress axis : x y z
#
# Youngs Moduli (GPa) = 79.53288 75.11740 65.49096
#
# Poissons Ratio (x) = 0.09169 0.21106
# Poissons Ratio (y) = 0.09708 0.03964
# Poissons Ratio (z) = 0.25631 0.04547
#
# Static dielectric constant tensor:
#      x y z
#    x 1.942540 0.000000 -0.039280 
#    y 0.000000 2.080020 0.000000 
#    z -0.039280 0.000000 2.151880 
# 
# From -- ./inp_files/70993.got.cif
#   From: 2010.05.17/outbox.cif.g08.bks.cpg/sg13_36_cif.got.tgz:70993.got - 2010.06.03 16:44:36.
