data_PCOD9228068
_publ_section_title
;
Structure prediction by ZEFSAII (Michael W. Deem and Ramdas Pophale) SiO2 
 PCOD9228068
Probable space group: P 2/C
;
_chemical_formula_sum "Si O2"
_cell_formula_units_Z 32
_cell_length_a 24.500026
_cell_length_b 9.225511
_cell_length_c 24.383277
_cell_angle_alpha 90.000000
_cell_angle_beta 161.316212
_cell_angle_gamma 90.000000
_cell_volume 1765.496850
_symmetry_space_group_name_H-M "P 2/C"
_symmetry_group_IT_number 13
_symmetry_cell_setting 'monoclinic'
loop_
_space_group_symop_operation_xyz
x,y,z
-x,y,1/2-z
-x,-y,-z
x,-y,1/2+z
loop_
_atom_site_type_symbol
_atom_site_label
_atom_site_fract_x
_atom_site_fract_y
_atom_site_fract_z
Si Si1 0.894274 0.688126 0.512832
Si Si2 0.083416 0.158664 0.582381
Si Si3 0.609724 0.937042 0.052836
Si Si4 0.130950 0.418938 0.077797
Si Si5 0.261176 0.772436 0.878841
Si Si6 0.317397 0.484889 0.355131
Si Si7 0.494270 0.660414 0.608677
Si Si8 0.524902 0.391047 0.709404
O O1 0.872513 0.784985 0.436957
O O2 0.943529 0.526316 0.538655
O O3 0.713565 0.665590 0.370854
O O4 0.060460 0.752106 0.701455
O O5 0.245958 0.148305 0.776150
O O6 0.952453 0.268301 0.486066
O O7 0.000000 0.000000 0.500000
O O8 0.689404 0.067334 0.093083
O O9 0.523981 0.828640 0.926543
O O10 0.500000 0.000000 0.000000
O O11 0.173028 0.512052 0.172943
O O12 0.321380 0.381757 0.239144
O O13 0.292224 0.676078 0.853716
O O14 0.387178 0.703728 0.043920
O O15 0.500000 0.500000 0.500000
O O16 0.338209 0.586853 0.426969
O O17 0.497522 0.562219 0.667243
O O18 0.500000 0.371887 0.750000
#
# Coordination Sequence:
#
# PCOD9228068 Si02
#       8
#     4   4   4   4   4   4   4   4
#     4  11  22  37  59  92 119 158 202 247 301 369
#     4  12  21  32  52  88 132 161 187 228 288 377
#     4  12  22  35  54  89 133 171 190 224 298 386
#     4  10  19  32  51  84 121 157 192 232 290 363
#     4  11  22  37  58  85 121 159 205 246 305 365
#     4   9  15  30  50  77 116 157 192 233 277 353
#     4   9  20  35  58  82 116 157 201 245 300 363
#     4  10  24  45  66  86 108 153 219 283 316 334
#
# _framework density 18.125209000000002
#
# number of rings (size 3 to 8) (size 9 to 14) (size 15 to 20)
#    0.000    1.500    2.500    4.875    3.500    1.500 
#    0.000    0.625    0.000    0.000    0.000    0.000 
#    0.000    0.000    0.000    0.000    0.000    0.000 
#
# Total GULP energy -178213.485546 kJ/mol
# GULP energy per Si atom -5569.171423 kJ/mol
# Density = 1.808396 g / cm^3
# Si number density = 18.125209 Si / 1000 Ang^3
#
#
#
# Elastic Constant Matrix: (Units=GPa)
#
#
# Indices 1 2 3 4 5 6 
#
# 1 96.8628 33.4007 49.6621 0.0000 1.0046 0.0000
# 2 33.4007 106.6261 32.4045 0.0000 4.9066 0.0000
# 3 49.6621 32.4045 99.9250 0.0000 3.5424 0.0000
# 4 0.0000 0.0000 0.0000 37.4246 0.0000 0.6884
# 5 1.0046 4.9066 3.5424 0.0000 15.9760 0.0000
# 6 0.0000 0.0000 0.0000 0.6884 0.0000 17.2408
#
#
#
# Elastic Compliance Matrix: (Units=1/GPa)
#
#
# Indices 1 2 3 4 5 6 
#
# 1 0.014506 -0.002662 -0.006393 0.000000 0.001323 0.000000
# 2 -0.002662 0.010990 -0.002144 0.000000 -0.002732 0.000000
# 3 -0.006393 -0.002144 0.013952 0.000000 -0.002033 0.000000
# 4 0.000000 0.000000 0.000000 0.026740 0.000000 -0.001068
# 5 0.001323 -0.002732 -0.002033 0.000000 0.063801 0.000000
# 6 0.000000 0.000000 0.000000 -0.001068 0.000000 0.058045
#
#
# Mechanical properties :
#
#
# Convention : Reuss Voigt Hill
#
# Bulk Modulus (GPa) = 58.65162 59.37205 59.01183
# Shear Modulus (GPa) = 23.13594 26.65805 24.89699
#
# Velocity S-wave (km/s) = 3.57662 3.83922 3.71025
# Velocity P-wave (km/s) = 7.03461 7.24435 7.14025
#
# Compressibility (1/GPa) = 0.01704983
#
# Stress axis : x y z
#
# Youngs Moduli (GPa) = 68.93813 90.99394 71.67382
#
# Poissons Ratio (x) = 0.24222 0.45821
# Poissons Ratio (y) = 0.18351 0.15367
# Poissons Ratio (z) = 0.44072 0.19509
#
# Static dielectric constant tensor:
#      x y z
#    x 1.631350 0.000000 0.015360 
#    y 0.000000 1.695550 0.000000 
#    z 0.015360 0.000000 1.696140 
# 
# From -- ./inp_files/88969.got.cif
#   From: 2010.05.17/outbox.cif.g08.bks.cpg/sg13_45_cif.got.tgz:88969.got - 2010.06.03 16:44:36.
