data_PCOD9228719
_publ_section_title
;
Structure prediction by ZEFSAII (Michael W. Deem and Ramdas Pophale) SiO2 
 PCOD9228719
Probable space group: P 2/C
;
_chemical_formula_sum "Si O2"
_cell_formula_units_Z 28
_cell_length_a 27.397134
_cell_length_b 9.682922
_cell_length_c 8.764533
_cell_angle_alpha 90.000000
_cell_angle_beta 141.724965
_cell_angle_gamma 90.000000
_cell_volume 1440.248764
_symmetry_space_group_name_H-M "P 2/C"
_symmetry_group_IT_number 13
_symmetry_cell_setting 'monoclinic'
loop_
_space_group_symop_operation_xyz
x,y,z
-x,y,1/2-z
-x,-y,-z
x,-y,1/2+z
loop_
_atom_site_type_symbol
_atom_site_label
_atom_site_fract_x
_atom_site_fract_y
_atom_site_fract_z
Si Si1 0.721190 0.023567 0.113749
Si Si2 0.909443 0.821585 0.543913
Si Si3 0.751871 0.696887 0.113560
Si Si4 0.165635 0.046972 0.353677
Si Si5 0.431209 0.604560 0.373535
Si Si6 0.543336 0.881915 0.196266
Si Si7 0.679236 0.481371 0.159523
O O1 0.722903 0.856661 0.076065
O O2 0.781810 0.043735 0.401269
O O3 0.764084 0.104785 0.080694
O O4 0.634309 0.073165 0.939355
O O5 0.845857 0.711550 0.329609
O O6 0.884355 0.856299 0.656976
O O7 0.000000 0.784497 0.750000
O O8 0.890270 0.957113 0.393079
O O9 0.732956 0.597297 0.210681
O O10 0.715342 0.622062 0.874860
O O11 0.500000 0.500000 0.500000
O O12 0.464239 0.755181 0.437557
O O13 0.391845 0.562560 0.433604
O O14 0.361298 0.600568 0.077091
O O15 0.500000 0.851289 0.250000
O O16 0.500000 0.000000 0.000000
#
# Coordination Sequence:
#
# PCOD9228719 Si02
#       7
#     4   4   4   4   4   4   4
#     4  10  21  38  59  85 125 158 198 251 296 366
#     4  10  19  35  60  91 126 150 190 245 301 363
#     4   9  22  39  62  85 113 157 207 236 305 351
#     4   8  18  34  58  83 118 158 195 224 296 365
#     4  11  25  41  64  84 117 158 212 253 302 345
#     4  12  28  37  58  89 126 157 200 256 316 346
#     4  10  22  42  64  79 113 162 210 247 279 375
#
# _framework density 19.441085999999999
#
# number of rings (size 3 to 8) (size 9 to 14) (size 15 to 20)
#    0.000    2.286    0.000    2.571   16.000    0.000 
#    0.000    0.714    0.000    0.000    0.000    0.000 
#    0.000    0.000    0.000    0.000    0.000    0.000 
#
# Total GULP energy -156095.449039 kJ/mol
# GULP energy per Si atom -5574.837466 kJ/mol
# Density = 1.939684 g / cm^3
# Si number density = 19.441086 Si / 1000 Ang^3
#
#
#
# Elastic Constant Matrix: (Units=GPa)
#
#
# Indices 1 2 3 4 5 6 
#
# 1 100.4347 2.9534 18.0007 0.0000 18.1150 0.0000
# 2 2.9534 86.0692 6.3674 0.0000 13.5245 0.0000
# 3 18.0007 6.3674 41.6421 0.0000 14.3680 0.0000
# 4 0.0000 0.0000 0.0000 18.8043 0.0000 6.0004
# 5 18.1150 13.5245 14.3680 0.0000 44.8627 0.0000
# 6 0.0000 0.0000 0.0000 6.0004 0.0000 17.5747
#
#
#
# Elastic Compliance Matrix: (Units=1/GPa)
#
#
# Indices 1 2 3 4 5 6 
#
# 1 0.011239 0.000436 -0.003725 0.000000 -0.003476 0.000000
# 2 0.000436 0.012230 -0.000816 0.000000 -0.003602 0.000000
# 3 -0.003725 -0.000816 0.028269 0.000000 -0.007303 0.000000
# 4 0.000000 0.000000 0.000000 0.059681 0.000000 -0.020377
# 5 -0.003476 -0.003602 -0.007303 0.000000 0.027119 0.000000
# 6 0.000000 0.000000 0.000000 -0.020377 0.000000 0.063857
#
#
# Mechanical properties :
#
#
# Convention : Reuss Voigt Hill
#
# Bulk Modulus (GPa) = 22.97387 31.42099 27.19743
# Shear Modulus (GPa) = 22.21095 29.63663 25.92379
#
# Velocity S-wave (km/s) = 3.38372 3.90863 3.65561
# Velocity P-wave (km/s) = 5.20662 6.04708 5.64252
#
# Compressibility (1/GPa) = 0.04352772
#
# Stress axis : x y z
#
# Youngs Moduli (GPa) = 88.97903 81.76678 35.37417
#
# Poissons Ratio (x) = -0.03567 0.13178
# Poissons Ratio (y) = -0.03882 0.02886
# Poissons Ratio (z) = 0.33148 0.06671
#
# Static dielectric constant tensor:
#      x y z
#    x 1.730950 0.000000 -0.032960 
#    y 0.000000 1.693190 0.000000 
#    z -0.032960 0.000000 1.703330 
# 
# From -- ./inp_files/24883.got.cif
#   From: 2010.05.17/outbox.cif.g08.bks.cpg/sg13_13_cif.got.tgz:24883.got - 2010.06.03 16:44:36.
