data_PCOD9228099
_publ_section_title
;
Structure prediction by ZEFSAII (Michael W. Deem and Ramdas Pophale) SiO2 
 PCOD9228099
Probable space group: P 2/C
;
_chemical_formula_sum "Si O2"
_cell_formula_units_Z 26
_cell_length_a 31.907057
_cell_length_b 7.000689
_cell_length_c 5.298626
_cell_angle_alpha 90.000000
_cell_angle_beta 94.536462
_cell_angle_gamma 90.000000
_cell_volume 1179.853558
_symmetry_space_group_name_H-M "P 2/C"
_symmetry_group_IT_number 13
_symmetry_cell_setting 'monoclinic'
loop_
_space_group_symop_operation_xyz
x,y,z
-x,y,1/2-z
-x,-y,-z
x,-y,1/2+z
loop_
_atom_site_type_symbol
_atom_site_label
_atom_site_fract_x
_atom_site_fract_y
_atom_site_fract_z
Si Si1 0.698649 0.625995 0.541513
Si Si2 0.000000 0.369315 0.750000
Si Si3 0.209538 0.631578 0.867024
Si Si4 0.518799 0.213276 0.009076
Si Si5 0.607984 0.368863 0.080611
Si Si6 0.123357 0.211148 0.202399
Si Si7 0.910699 0.218626 0.814034
O O1 0.698316 0.541396 0.256852
O O2 0.743768 0.723463 0.606751
O O3 0.654056 0.726085 0.570897
O O4 0.041828 0.241243 0.754571
O O5 0.000000 0.500000 0.500000
O O6 0.206453 0.490404 0.623655
O O7 0.170990 0.776765 0.820131
O O8 0.500000 0.302905 0.250000
O O9 0.568856 0.227173 0.037109
O O10 0.500000 0.302370 0.750000
O O11 0.500000 0.000000 0.000000
O O12 0.605242 0.478115 0.348332
O O13 0.095193 0.303192 0.409593
O O14 0.105162 0.998449 0.157278
O O15 0.118534 0.299570 0.922650
#
# Coordination Sequence:
#
# PCOD9228099 Si02
#       7
#     4   2   4   4   4   4   4
#     4   8  16  30  48  76 109 138 171 216 268 313
#     4  12  26  42  62  86 110 138 182 234 276 320
#     4  10  19  32  55  85 114 143 178 219 261 309
#     4  10  21  35  50  70 104 142 177 219 274 325
#     4  10  19  32  53  78 104 137 180 224 266 319
#     4  10  21  37  59  82 113 150 180 215 266 320
#     4  10  23  40  58  81 112 148 182 217 269 324
#
# _framework density 22.036632999999998
#
# number of rings (size 3 to 8) (size 9 to 14) (size 15 to 20)
#    0.000    2.154    0.000    2.769    0.000    8.000 
#    0.000    0.000    0.000    7.385    0.000    0.000 
#    0.000    0.000    0.000    0.000    0.000    0.000 
#
# Total GULP energy -144987.573372 kJ/mol
# GULP energy per Si atom -5576.445130 kJ/mol
# Density = 2.198648 g / cm^3
# Si number density = 22.036633 Si / 1000 Ang^3
#
#
#
# Elastic Constant Matrix: (Units=GPa)
#
#
# Indices 1 2 3 4 5 6 
#
# 1 186.3384 21.4273 -12.7097 0.0000 7.0818 0.0000
# 2 21.4273 77.7471 -5.4446 0.0000 0.4343 0.0000
# 3 -12.7097 -5.4446 167.7338 0.0000 -3.5981 0.0000
# 4 0.0000 0.0000 0.0000 -8.3410 0.0000 11.1311
# 5 7.0818 0.4343 -3.5981 0.0000 33.7327 0.0000
# 6 0.0000 0.0000 0.0000 11.1311 0.0000 73.9958
#
#
#
# Elastic Compliance Matrix: (Units=1/GPa)
#
#
# Indices 1 2 3 4 5 6 
#
# 1 0.005607 -0.001514 0.000352 0.000000 -0.001120 0.000000
# 2 -0.001514 0.013301 0.000321 0.000000 0.000181 0.000000
# 3 0.000352 0.000321 0.006011 0.000000 0.000563 0.000000
# 4 0.000000 0.000000 0.000000 -0.099846 0.000000 0.015020
# 5 -0.001120 0.000181 0.000563 0.000000 0.029938 0.000000
# 6 0.000000 0.000000 0.000000 0.015020 0.000000 0.011255
#
#
# Mechanical properties :
#
#
# Convention : Reuss Voigt Hill
#
# Bulk Modulus (GPa) = 43.03764 48.70726 45.87245
# Shear Modulus (GPa) = -205.72140 48.44725 -78.63707
#
# Velocity S-wave (km/s) = -9.67248 4.69389 -5.98015
# Velocity P-wave (km/s) = 10.25525 7.17828 5.17892
#
# Compressibility (1/GPa) = 0.02323548
#
# Stress axis : x y z
#
# Youngs Moduli (GPa) = 178.33916 75.18192 166.36245
#
# Poissons Ratio (x) = 0.11386 -0.05851
# Poissons Ratio (y) = 0.27009 -0.05338
# Poissons Ratio (z) = -0.06272 -0.02412
#
# Static dielectric constant tensor:
#      x y z
#    x 1.838210 0.000000 -0.002930 
#    y 0.000000 1.387930 0.000000 
#    z -0.002930 0.000000 1.883030 
# 
# From -- ./inp_files/7789.got.cif
#   From: 2010.05.17/outbox.cif.g08.bks.cpg/sg13_4_cif.got.tgz:7789.got - 2010.06.03 16:44:36.
