data_PCOD9228784
_publ_section_title
;
Structure prediction by ZEFSAII (Michael W. Deem and Ramdas Pophale) SiO2 
 PCOD9228784
Probable space group: P 2/C
;
_chemical_formula_sum "Si O2"
_cell_formula_units_Z 32
_cell_length_a 9.111684
_cell_length_b 11.184598
_cell_length_c 30.837911
_cell_angle_alpha 90.000000
_cell_angle_beta 23.125074
_cell_angle_gamma 90.000000
_cell_volume 1234.265783
_symmetry_space_group_name_H-M "P 2/C"
_symmetry_group_IT_number 13
_symmetry_cell_setting 'monoclinic'
loop_
_space_group_symop_operation_xyz
x,y,z
-x,y,1/2-z
-x,-y,-z
x,-y,1/2+z
loop_
_atom_site_type_symbol
_atom_site_label
_atom_site_fract_x
_atom_site_fract_y
_atom_site_fract_z
Si Si1 0.951408 0.237233 0.633575
Si Si2 0.228096 0.952518 0.898703
Si Si3 0.228126 0.171966 0.728112
Si Si4 0.761731 0.549471 0.498894
Si Si5 0.919540 0.807710 0.721141
Si Si6 0.045418 0.961852 0.866394
Si Si7 0.534866 0.567058 0.340514
Si Si8 0.114901 0.420711 0.327859
O O1 0.500000 0.265744 0.750000
O O2 0.024280 0.227192 0.664948
O O3 0.197552 0.323216 0.536888
O O4 0.015525 0.099011 0.605158
O O5 0.482336 0.839956 0.839930
O O6 0.931706 0.906002 0.942933
O O7 0.522249 0.068693 0.816834
O O8 0.000000 0.000000 0.000000
O O9 0.436713 0.292523 0.656005
O O10 0.000000 0.119584 0.750000
O O11 0.458045 0.512845 0.617579
O O12 0.142526 0.546919 0.423138
O O13 0.811217 0.455297 0.446348
O O14 0.089472 0.909345 0.642044
O O15 0.977094 0.690047 0.677483
O O16 0.000000 0.803538 0.750000
O O17 0.500000 0.938866 0.750000
O O18 0.815016 0.525777 0.226159
O O19 0.500000 0.399859 0.250000
#
# Coordination Sequence:
#
# PCOD9228784 Si02
#       8
#     4   4   4   4   4   4   4   4
#     4  11  16  36  65  90 119 164 222 259 312 389
#     4  11  23  40  66  96 123 159 222 276 317 390
#     4  12  23  39  66  96 130 170 213 271 342 396
#     4  10  19  35  65  96 120 163 224 270 308 378
#     4  11  23  40  63  90 129 169 210 261 341 405
#     4   9  18  35  64  87 113 163 216 259 307 396
#     4  10  21  36  63  98 128 161 222 276 313 384
#     4  10  20  37  62  90 129 179 215 258 321 391
#
# _framework density 25.926345000000001
#
# number of rings (size 3 to 8) (size 9 to 14) (size 15 to 20)
#    0.000    1.500    6.250    1.875    0.000    5.500 
#    0.000    1.250    5.500    0.000    0.000    0.000 
#    0.000    0.000    0.000    0.000    0.000    0.000 
#
# Total GULP energy -178406.143320 kJ/mol
# GULP energy per Si atom -5575.191979 kJ/mol
# Density = 2.586734 g / cm^3
# Si number density = 25.926345 Si / 1000 Ang^3
#
#
#
# Elastic Constant Matrix: (Units=GPa)
#
#
# Indices 1 2 3 4 5 6 
#
# 1 219.4256 48.8648 35.9846 0.0000 28.1135 0.0000
# 2 48.8648 107.7658 -3.9011 0.0000 1.9071 0.0000
# 3 35.9846 -3.9011 48.0322 0.0000 3.4746 0.0000
# 4 0.0000 0.0000 0.0000 -20.3309 0.0000 12.2799
# 5 28.1135 1.9071 3.4746 0.0000 28.4183 0.0000
# 6 0.0000 0.0000 0.0000 12.2799 0.0000 31.0500
#
#
#
# Elastic Compliance Matrix: (Units=1/GPa)
#
#
# Indices 1 2 3 4 5 6 
#
# 1 0.006838 -0.003175 -0.004951 0.000000 -0.005946 0.000000
# 2 -0.003175 0.010795 0.003108 0.000000 0.002036 0.000000
# 3 -0.004951 0.003108 0.024660 0.000000 0.001674 0.000000
# 4 0.000000 0.000000 0.000000 -0.039702 0.000000 0.015702
# 5 -0.005946 0.002036 0.001674 0.000000 0.040730 0.000000
# 6 0.000000 0.000000 0.000000 0.015702 0.000000 0.025996
#
#
# Mechanical properties :
#
#
# Convention : Reuss Voigt Hill
#
# Bulk Modulus (GPa) = 30.99984 59.68003 45.33994
# Shear Modulus (GPa) = 55.49118 27.44581 41.46850
#
# Velocity S-wave (km/s) = 4.63140 3.25715 4.00368
# Velocity P-wave (km/s) = 6.37045 6.10036 6.23687
#
# Compressibility (1/GPa) = 0.03225823
#
# Stress axis : x y z
#
# Youngs Moduli (GPa) = 146.24025 92.63268 40.55218
#
# Poissons Ratio (x) = 0.29407 0.20076
# Poissons Ratio (y) = 0.46425 -0.12603
# Poissons Ratio (z) = 0.72398 -0.28789
#
# Static dielectric constant tensor:
#      x y z
#    x 2.298530 -0.000010 0.110630 
#    y -0.000010 -10.463170 0.000000 
#    z 0.110630 0.000000 2.373630 
# 
# From -- ./inp_files/96139.got.cif
#   From: 2010.05.17/outbox.cif.g08.bks.cpg/sg13_49_cif.got.tgz:96139.got - 2010.06.03 16:44:36.
