data_PCOD9228549
_publ_section_title
;
Structure prediction by ZEFSAII (Michael W. Deem and Ramdas Pophale) SiO2 
 PCOD9228549
Probable space group: P 2/C
;
_chemical_formula_sum "Si O2"
_cell_formula_units_Z 28
_cell_length_a 7.578850
_cell_length_b 16.135763
_cell_length_c 19.245464
_cell_angle_alpha 90.000000
_cell_angle_beta 141.315060
_cell_angle_gamma 90.000000
_cell_volume 1471.049475
_symmetry_space_group_name_H-M "P 2/C"
_symmetry_group_IT_number 13
_symmetry_cell_setting 'monoclinic'
loop_
_space_group_symop_operation_xyz
x,y,z
-x,y,1/2-z
-x,-y,-z
x,-y,1/2+z
loop_
_atom_site_type_symbol
_atom_site_label
_atom_site_fract_x
_atom_site_fract_y
_atom_site_fract_z
Si Si1 0.243581 0.660267 0.722071
Si Si2 0.212833 0.901947 0.504583
Si Si3 0.619316 0.630648 0.500060
Si Si4 0.730813 0.799434 0.116629
Si Si5 0.683304 0.512075 0.654117
Si Si6 0.181299 0.097473 0.482343
Si Si7 0.301934 0.836582 0.758496
O O1 0.500000 0.670023 0.750000
O O2 0.299242 0.574382 0.776862
O O3 0.259474 0.743075 0.773071
O O4 0.940932 0.660301 0.592075
O O5 0.179771 0.841767 0.428761
O O6 0.523879 0.887653 0.632188
O O7 0.985720 0.884721 0.496496
O O8 0.193501 0.998344 0.479343
O O9 0.411544 0.708935 0.438454
O O10 0.618930 0.574635 0.570142
O O11 0.528772 0.564382 0.413687
O O12 0.000000 0.793899 0.250000
O O13 0.483675 0.858073 0.072435
O O14 0.000000 0.475820 0.750000
O O15 0.993614 0.130237 0.360431
O O16 0.500000 0.837999 0.750000
#
# Coordination Sequence:
#
# PCOD9228549 Si02
#       7
#     4   4   4   4   4   4   4
#     4  10  19  34  60  87 115 149 196 254 305 358
#     4  10  23  40  65  89 121 165 201 254 310 357
#     4  10  20  38  56  83 118 154 197 248 293 363
#     4  12  25  39  60  89 125 164 205 243 304 371
#     4   9  19  35  60  82 112 155 194 239 308 361
#     4  10  22  42  62  90 124 156 204 260 304 356
#     4   9  18  36  62  89 116 154 204 250 305 360
#
# _framework density 19.034029
#
# number of rings (size 3 to 8) (size 9 to 14) (size 15 to 20)
#    0.000    2.000    1.429    1.714    2.000    1.714 
#    0.000    0.000    3.143    0.000    0.000    0.000 
#    0.000    0.000    0.000    0.000    0.000    0.000 
#
# Total GULP energy -156115.612615 kJ/mol
# GULP energy per Si atom -5575.557593 kJ/mol
# Density = 1.899071 g / cm^3
# Si number density = 19.034029 Si / 1000 Ang^3
#
#
#
# Elastic Constant Matrix: (Units=GPa)
#
#
# Indices 1 2 3 4 5 6 
#
# 1 60.7929 30.8006 38.1884 0.0000 10.0050 0.0000
# 2 30.8006 105.0109 50.2160 0.0000 4.1789 0.0000
# 3 38.1884 50.2160 130.5668 0.0000 11.0034 0.0000
# 4 0.0000 0.0000 0.0000 36.8594 0.0000 8.3326
# 5 10.0050 4.1789 11.0034 0.0000 23.8208 0.0000
# 6 0.0000 0.0000 0.0000 8.3326 0.0000 20.9388
#
#
#
# Elastic Compliance Matrix: (Units=1/GPa)
#
#
# Indices 1 2 3 4 5 6 
#
# 1 0.022434 -0.004222 -0.004376 0.000000 -0.006660 0.000000
# 2 -0.004222 0.012464 -0.003666 0.000000 0.001281 0.000000
# 3 -0.004376 -0.003666 0.010551 0.000000 -0.002392 0.000000
# 4 0.000000 0.000000 0.000000 0.029812 0.000000 -0.011864
# 5 -0.006660 0.001281 -0.002392 0.000000 0.045658 0.000000
# 6 0.000000 0.000000 0.000000 -0.011864 0.000000 0.052479
#
#
# Mechanical properties :
#
#
# Convention : Reuss Voigt Hill
#
# Bulk Modulus (GPa) = 47.80599 59.42006 53.61302
# Shear Modulus (GPa) = 24.40216 28.13484 26.26850
#
# Velocity S-wave (km/s) = 3.58443 3.84882 3.71897
# Velocity P-wave (km/s) = 6.50395 7.14401 6.83148
#
# Compressibility (1/GPa) = 0.02091788
#
# Stress axis : x y z
#
# Youngs Moduli (GPa) = 44.57594 80.23383 94.78103
#
# Poissons Ratio (x) = 0.33876 0.41479
# Poissons Ratio (y) = 0.18821 0.34751
# Poissons Ratio (z) = 0.19508 0.29418
#
# Static dielectric constant tensor:
#      x y z
#    x 1.663740 0.000000 -0.017160 
#    y 0.000000 1.679860 0.000000 
#    z -0.017160 0.000000 1.637860 
# 
# From -- ./inp_files/76770.got.cif
#   From: 2010.05.17/outbox.cif.g08.bks.cpg/sg13_39_cif.got.tgz:76770.got - 2010.06.03 16:44:36.
