data_PCOD9228974
_publ_section_title
;
Structure prediction by ZEFSAII (Michael W. Deem and Ramdas Pophale) SiO2 
 PCOD9228974
Probable space group: P 2/C
;
_chemical_formula_sum "Si O2"
_cell_formula_units_Z 32
_cell_length_a 26.986736
_cell_length_b 8.177792
_cell_length_c 21.310131
_cell_angle_alpha 90.000000
_cell_angle_beta 18.951193
_cell_angle_gamma 90.000000
_cell_volume 1527.349947
_symmetry_space_group_name_H-M "P 2/C"
_symmetry_group_IT_number 13
_symmetry_cell_setting 'monoclinic'
loop_
_space_group_symop_operation_xyz
x,y,z
-x,y,1/2-z
-x,-y,-z
x,-y,1/2+z
loop_
_atom_site_type_symbol
_atom_site_label
_atom_site_fract_x
_atom_site_fract_y
_atom_site_fract_z
Si Si1 0.867848 0.685286 0.271633
Si Si2 0.158745 0.599824 0.325698
Si Si3 0.185517 0.128229 0.538977
Si Si4 0.200109 0.825823 0.888082
Si Si5 0.095265 0.200497 0.026643
Si Si6 0.230422 0.690823 0.597902
Si Si7 0.368310 0.294754 0.067374
Si Si8 0.687241 0.772116 0.129774
O O1 0.814797 0.722818 0.264359
O O2 0.799921 0.780805 0.412298
O O3 0.830710 0.493941 0.322874
O O4 0.047247 0.724440 0.056880
O O5 0.137721 0.693960 0.415326
O O6 0.300314 0.476008 0.159444
O O7 0.000000 0.500000 0.500000
O O8 0.242994 0.224178 0.407925
O O9 0.000000 0.102235 0.750000
O O10 0.283044 0.962759 0.420557
O O11 0.313351 0.800774 0.694824
O O12 0.158659 0.017693 0.942637
O O13 0.164544 0.276630 0.007029
O O14 0.913486 0.196736 0.247194
O O15 0.295211 0.749873 0.586849
O O16 0.335016 0.691330 0.411201
O O17 0.546016 0.268999 0.843369
#
# Coordination Sequence:
#
# PCOD9228974 Si02
#       8
#     4   4   4   4   4   4   4   4
#     4  10  19  36  63  89 117 157 204 257 301 358
#     4  11  20  41  61  92 121 155 206 256 299 370
#     4   9  20  37  58  90 127 156 205 262 300 371
#     4  10  20  36  60  92 121 154 205 255 314 358
#     4  11  22  37  64  92 119 156 208 260 295 365
#     4  11  21  39  61  89 118 161 211 248 303 369
#     4  11  23  40  61  85 126 166 195 254 315 372
#     4  11  24  39  58  90 127 163 202 248 316 367
#
# _framework density 20.951322999999999
#
# number of rings (size 3 to 8) (size 9 to 14) (size 15 to 20)
#    0.000    1.500    3.750    3.000    0.000    9.500 
#    0.000    1.250    0.000    4.500    0.000    0.000 
#    0.000    0.000    0.000    0.000    0.000    0.000 
#
# Total GULP energy -178522.969948 kJ/mol
# GULP energy per Si atom -5578.842811 kJ/mol
# Density = 2.090364 g / cm^3
# Si number density = 20.951323 Si / 1000 Ang^3
#
#
#
# Elastic Constant Matrix: (Units=GPa)
#
#
# Indices 1 2 3 4 5 6 
#
# 1 111.3759 17.0487 21.7648 0.0000 35.7124 0.0000
# 2 17.0487 31.6800 7.5263 0.0000 11.4748 0.0000
# 3 21.7648 7.5263 80.8721 0.0000 29.9569 0.0000
# 4 0.0000 0.0000 0.0000 27.9414 0.0000 17.0337
# 5 35.7124 11.4748 29.9569 0.0000 45.2064 0.0000
# 6 0.0000 0.0000 0.0000 17.0337 0.0000 35.1038
#
#
#
# Elastic Compliance Matrix: (Units=1/GPa)
#
#
# Indices 1 2 3 4 5 6 
#
# 1 0.012362 -0.003430 0.000381 0.000000 -0.009148 0.000000
# 2 -0.003430 0.035713 -0.000061 0.000000 -0.006315 0.000000
# 3 0.000381 -0.000061 0.016400 0.000000 -0.011153 0.000000
# 4 0.000000 0.000000 0.000000 0.050823 0.000000 -0.024661
# 5 -0.009148 -0.006315 -0.011153 0.000000 0.038341 0.000000
# 6 0.000000 0.000000 0.000000 -0.024661 0.000000 0.040454
#
#
# Mechanical properties :
#
#
# Convention : Reuss Voigt Hill
#
# Bulk Modulus (GPa) = 17.16607 35.17862 26.17235
# Shear Modulus (GPa) = 22.75492 33.48954 28.12223
#
# Velocity S-wave (km/s) = 3.29916 4.00239 3.66767
# Velocity P-wave (km/s) = 4.76694 6.17948 5.51859
#
# Compressibility (1/GPa) = 0.05825445
#
# Stress axis : x y z
#
# Youngs Moduli (GPa) = 80.89002 28.00066 60.97670
#
# Poissons Ratio (x) = 0.09604 -0.02321
# Poissons Ratio (y) = 0.27745 0.00374
# Poissons Ratio (z) = -0.03080 0.00172
#
# Static dielectric constant tensor:
#      x y z
#    x 1.806480 0.000000 0.027670 
#    y 0.000000 1.756260 0.000000 
#    z 0.027670 0.000000 1.778460 
# 
# From -- ./inp_files/82518.got.cif
#   From: 2010.05.17/outbox.cif.g08.bks.cpg/sg13_42_cif.got.tgz:82518.got - 2010.06.03 16:44:36.
