data_PCOD9228472
_publ_section_title
;
Structure prediction by ZEFSAII (Michael W. Deem and Ramdas Pophale) SiO2 
 PCOD9228472
Probable space group: P 2/C
;
_chemical_formula_sum "Si O2"
_cell_formula_units_Z 32
_cell_length_a 8.840007
_cell_length_b 8.348507
_cell_length_c 18.896026
_cell_angle_alpha 90.000000
_cell_angle_beta 96.987111
_cell_angle_gamma 90.000000
_cell_volume 1384.186460
_symmetry_space_group_name_H-M "P 2/C"
_symmetry_group_IT_number 13
_symmetry_cell_setting 'monoclinic'
loop_
_space_group_symop_operation_xyz
x,y,z
-x,y,1/2-z
-x,-y,-z
x,-y,1/2+z
loop_
_atom_site_type_symbol
_atom_site_label
_atom_site_fract_x
_atom_site_fract_y
_atom_site_fract_z
Si Si1 0.839657 0.257024 0.278695
Si Si2 0.079887 0.594432 0.184923
Si Si3 0.658722 0.118134 0.149084
Si Si4 0.773138 0.250955 0.940002
Si Si5 0.663534 0.250514 0.396698
Si Si6 0.810320 0.568669 0.584793
Si Si7 0.505781 0.438614 0.580954
Si Si8 0.679134 0.047071 0.518848
O O1 0.815584 0.450738 0.275559
O O2 0.719107 0.148206 0.230264
O O3 0.811429 0.218896 0.358779
O O4 0.000000 0.226543 0.250000
O O5 0.149850 0.715656 0.131296
O O6 0.000000 0.668365 0.250000
O O7 0.963165 0.487966 0.130727
O O8 0.477156 0.138070 0.134462
O O9 0.735760 0.268587 0.111821
O O10 0.711312 0.970156 0.103696
O O11 0.592379 0.280884 0.918125
O O12 0.779757 0.079809 0.978961
O O13 0.823043 0.385831 0.001907
O O14 0.591251 0.426156 0.383349
O O15 0.698829 0.213842 0.480206
O O16 0.683735 0.440926 0.603915
O O17 0.500000 0.500000 0.500000
O O18 0.500000 0.000000 0.500000
#
# Coordination Sequence:
#
# PCOD9228472 Si02
#       8
#     4   4   4   4   4   4   4   4
#     4  11  20  33  54  82 117 145 193 239 281 339
#     4  11  20  33  51  82 118 153 187 235 287 345
#     4   9  17  33  55  83 108 146 189 238 282 340
#     4  10  19  34  57  82 113 149 189 237 289 340
#     4  10  19  34  57  84 110 150 194 238 287 343
#     4   9  17  31  52  80 113 143 182 235 291 335
#     4   9  17  30  54  85 108 136 186 248 284 325
#     4   9  19  36  61  83 114 150 190 236 292 345
#
# _framework density 23.118274
#
# number of rings (size 3 to 8) (size 9 to 14) (size 15 to 20)
#    0.000    2.250    3.750    3.000    0.000    0.000 
#    0.000    1.875    0.000   10.500    0.000    0.000 
#    0.000    0.000    0.000    0.000    0.000    0.000 
#
# Total GULP energy -178230.185878 kJ/mol
# GULP energy per Si atom -5569.693309 kJ/mol
# Density = 2.306566 g / cm^3
# Si number density = 23.118274 Si / 1000 Ang^3
#
#
#
# Elastic Constant Matrix: (Units=GPa)
#
#
# Indices 1 2 3 4 5 6 
#
# 1 62.6867 17.6413 36.8424 0.0000 -19.8793 0.0000
# 2 17.6413 55.4859 20.7248 0.0000 -9.1312 0.0000
# 3 36.8424 20.7248 111.5780 0.0000 -29.8946 0.0000
# 4 0.0000 0.0000 0.0000 26.7864 0.0000 -3.2310
# 5 -19.8793 -9.1312 -29.8946 0.0000 39.8978 0.0000
# 6 0.0000 0.0000 0.0000 -3.2310 0.0000 10.7890
#
#
#
# Elastic Compliance Matrix: (Units=1/GPa)
#
#
# Indices 1 2 3 4 5 6 
#
# 1 0.021952 -0.004145 -0.004757 0.000000 0.006425 0.000000
# 2 -0.004145 0.020301 -0.002140 0.000000 0.000977 0.000000
# 3 -0.004757 -0.002140 0.012717 0.000000 0.006669 0.000000
# 4 0.000000 0.000000 0.000000 0.038731 0.000000 0.011599
# 5 0.006425 0.000977 0.006669 0.000000 0.033486 0.000000
# 6 0.000000 0.000000 0.000000 0.011599 0.000000 0.096160
#
#
# Mechanical properties :
#
#
# Convention : Reuss Voigt Hill
#
# Bulk Modulus (GPa) = 30.40908 42.24084 36.32496
# Shear Modulus (GPa) = 19.50117 25.79745 22.64931
#
# Velocity S-wave (km/s) = 2.90753 3.34412 3.13344
# Velocity P-wave (km/s) = 4.94508 5.76386 5.37010
#
# Compressibility (1/GPa) = 0.03288492
#
# Stress axis : x y z
#
# Youngs Moduli (GPa) = 45.55345 49.25921 78.63241
#
# Poissons Ratio (x) = 0.20420 0.37407
# Poissons Ratio (y) = 0.18884 0.16828
# Poissons Ratio (z) = 0.21671 0.10542
#
# Static dielectric constant tensor:
#      x y z
#    x 1.920400 0.000000 0.030100 
#    y 0.000000 1.973330 0.000000 
#    z 0.030100 0.000000 1.927320 
# 
# From -- ./inp_files/64292.got.cif
#   From: 2010.05.17/outbox.cif.g08.bks.cpg/sg13_33_cif.got.tgz:64292.got - 2010.06.03 16:44:36.
