data_PCOD9228685
_publ_section_title
;
Structure prediction by ZEFSAII (Michael W. Deem and Ramdas Pophale) SiO2 
 PCOD9228685
Probable space group: P 2/C
;
_chemical_formula_sum "Si O2"
_cell_formula_units_Z 28
_cell_length_a 21.914056
_cell_length_b 10.972859
_cell_length_c 27.487069
_cell_angle_alpha 90.000000
_cell_angle_beta 167.477175
_cell_angle_gamma 90.000000
_cell_volume 1433.136029
_symmetry_space_group_name_H-M "P 2/C"
_symmetry_group_IT_number 13
_symmetry_cell_setting 'monoclinic'
loop_
_space_group_symop_operation_xyz
x,y,z
-x,y,1/2-z
-x,-y,-z
x,-y,1/2+z
loop_
_atom_site_type_symbol
_atom_site_label
_atom_site_fract_x
_atom_site_fract_y
_atom_site_fract_z
Si Si1 0.310851 0.053853 0.230860
Si Si2 0.387278 0.584706 0.293044
Si Si3 0.703780 0.953481 0.617338
Si Si4 0.784435 0.976082 0.537423
Si Si5 0.722726 0.688063 0.467138
Si Si6 0.296321 0.332060 0.368754
Si Si7 0.767942 0.328877 0.293602
O O1 0.311451 0.194475 0.249118
O O2 0.515744 0.972981 0.423569
O O3 0.480067 0.036367 0.311295
O O4 0.000000 0.000000 0.000000
O O5 0.622552 0.620805 0.437617
O O6 0.464947 0.625802 0.408190
O O7 0.340338 0.439831 0.257591
O O8 0.105423 0.654928 0.057107
O O9 0.740777 0.812547 0.656382
O O10 0.500000 0.000000 0.500000
O O11 0.012115 0.012635 0.849685
O O12 0.750405 0.830247 0.504558
O O13 0.000000 0.000731 0.750000
O O14 0.500000 0.684303 0.250000
O O15 0.001586 0.625199 0.662385
O O16 0.334209 0.354773 0.341126
#
# Coordination Sequence:
#
# PCOD9228685 Si02
#       7
#     4   4   4   4   4   4   4
#     4  11  21  36  61  89 125 161 198 249 317 368
#     4  11  23  40  59  89 123 159 208 261 294 362
#     4  10  19  35  59  87 122 152 200 253 305 363
#     4   9  20  35  56  88 120 156 200 255 301 369
#     4  11  20  36  63  88 118 157 209 258 299 351
#     4  11  21  39  64  91 118 160 206 255 309 360
#     4  11  23  39  62  90 120 163 206 247 311 374
#
# _framework density 19.537572999999998
#
# number of rings (size 3 to 8) (size 9 to 14) (size 15 to 20)
#    0.000    1.429    2.857    5.143    0.000    0.000 
#    0.000    4.286    0.000    0.857    0.000    0.000 
#    0.000    0.000    0.000    0.000    0.000    0.000 
#
# Total GULP energy -155966.017857 kJ/mol
# GULP energy per Si atom -5570.214923 kJ/mol
# Density = 1.949310 g / cm^3
# Si number density = 19.537573 Si / 1000 Ang^3
#
#
#
# Elastic Constant Matrix: (Units=GPa)
#
#
# Indices 1 2 3 4 5 6 
#
# 1 73.1489 31.3694 34.3022 0.0000 21.8700 0.0000
# 2 31.3694 12.2253 -28.0694 0.0000 26.2520 0.0000
# 3 34.3022 -28.0694 48.5488 0.0000 22.9899 0.0000
# 4 0.0000 0.0000 0.0000 20.4559 0.0000 -1.9573
# 5 21.8700 26.2520 22.9899 0.0000 43.5054 0.0000
# 6 0.0000 0.0000 0.0000 -1.9573 0.0000 22.6575
#
#
#
# Elastic Compliance Matrix: (Units=1/GPa)
#
#
# Indices 1 2 3 4 5 6 
#
# 1 0.011647 0.009951 0.004188 0.000000 -0.014073 0.000000
# 2 0.009951 -0.010750 -0.018604 0.000000 0.011315 0.000000
# 3 0.004188 -0.018604 0.003419 0.000000 0.007314 0.000000
# 4 0.000000 0.000000 0.000000 0.049293 0.000000 0.004258
# 5 -0.014073 0.011315 0.007314 0.000000 0.019367 0.000000
# 6 0.000000 0.000000 0.000000 0.004258 0.000000 0.044503
#
#
# Mechanical properties :
#
#
# Convention : Reuss Voigt Hill
#
# Bulk Modulus (GPa) = -216.73513 23.23637 -96.74938
# Shear Modulus (GPa) = 40.04143 23.74515 31.89329
#
# Velocity S-wave (km/s) = 4.53200 3.48998 4.04469
# Velocity P-wave (km/s) = 9.15357 5.30650 5.27394
#
# Compressibility (1/GPa) = -0.00461393
#
# Stress axis : x y z
#
# Youngs Moduli (GPa) = 85.86141 -93.02715 292.52075
#
# Poissons Ratio (x) = 0.92571 -1.22520
# Poissons Ratio (y) = -0.85441 5.44212
# Poissons Ratio (z) = -0.35962 -1.73070
#
# Static dielectric constant tensor:
#      x y z
#    x 1.796260 0.000000 0.083700 
#    y 0.000000 1.671130 0.000000 
#    z 0.083700 0.000000 1.742640 
# 
# From -- ./inp_files/97717.got.cif
#   From: 2010.05.17/outbox.cif.g08.bks.cpg/sg13_49_cif.got.tgz:97717.got - 2010.06.03 16:44:36.
