data_PCOD9228314
_publ_section_title
;
Structure prediction by ZEFSAII (Michael W. Deem and Ramdas Pophale) SiO2 
 PCOD9228314
Probable space group: P 2/C
;
_chemical_formula_sum "Si O2"
_cell_formula_units_Z 32
_cell_length_a 11.227989
_cell_length_b 21.556923
_cell_length_c 8.301077
_cell_angle_alpha 90.000000
_cell_angle_beta 128.960588
_cell_angle_gamma 90.000000
_cell_volume 1562.311137
_symmetry_space_group_name_H-M "P 2/C"
_symmetry_group_IT_number 13
_symmetry_cell_setting 'monoclinic'
loop_
_space_group_symop_operation_xyz
x,y,z
-x,y,1/2-z
-x,-y,-z
x,-y,1/2+z
loop_
_atom_site_type_symbol
_atom_site_label
_atom_site_fract_x
_atom_site_fract_y
_atom_site_fract_z
Si Si1 0.817887 0.187026 0.097704
Si Si2 0.836922 0.455720 0.520633
Si Si3 0.326974 0.940311 0.035490
Si Si4 0.333689 0.697540 0.152666
Si Si5 0.682242 0.794629 0.846126
Si Si6 0.664278 0.666220 0.975012
Si Si7 0.825994 0.584916 0.642095
Si Si8 0.321476 0.929666 0.646326
O O1 0.731746 0.202101 0.197711
O O2 0.000000 0.179898 0.250000
O O3 0.750805 0.122822 0.972349
O O4 0.781756 0.245977 0.957967
O O5 0.747663 0.398405 0.518988
O O6 0.775669 0.525294 0.494429
O O7 0.836977 0.439484 0.332987
O O8 0.000000 0.457161 0.750000
O O9 0.500000 0.940211 0.250000
O O10 0.254175 0.006530 0.020361
O O11 0.321429 0.935494 0.838494
O O12 0.500000 0.722487 0.250000
O O13 0.345347 0.674356 0.343362
O O14 0.282898 0.642520 0.989451
O O15 0.500000 0.794191 0.750000
O O16 0.741715 0.862015 0.957789
O O17 0.740302 0.728890 0.964926
O O18 0.500000 0.661311 0.750000
O O19 0.000000 0.604377 0.750000
O O20 0.500000 0.928942 0.750000
#
# Coordination Sequence:
#
# PCOD9228314 Si02
#       8
#     4   4   4   4   4   4   4   4
#     4  11  24  41  60  89 125 162 202 255 314 372
#     4  11  22  39  62  88 121 162 202 244 301 368
#     4  10  19  33  57  85 116 156 205 252 303 366
#     4  12  24  40  64  91 118 160 205 253 311 370
#     4   9  19  38  60  85 118 158 201 250 301 362
#     4  11  23  39  60  89 120 152 198 255 306 360
#     4  11  22  40  62  89 122 159 203 250 301 366
#     4   9  17  30  55  86 113 149 201 251 298 358
#
# _framework density 20.482474
#
# number of rings (size 3 to 8) (size 9 to 14) (size 15 to 20)
#    0.000    1.500    0.000    8.250    0.000    5.500 
#    0.000    5.000    0.000    0.750    0.000    0.000 
#    0.000    0.000    0.000    0.000    0.000    0.000 
#
# Total GULP energy -178418.917014 kJ/mol
# GULP energy per Si atom -5575.591157 kJ/mol
# Density = 2.043585 g / cm^3
# Si number density = 20.482474 Si / 1000 Ang^3
#
#
#
# Elastic Constant Matrix: (Units=GPa)
#
#
# Indices 1 2 3 4 5 6 
#
# 1 37.2917 -10.0613 1.9338 0.0000 -0.6956 0.0000
# 2 -10.0613 124.1150 15.6963 0.0000 32.0413 0.0000
# 3 1.9338 15.6963 42.9025 0.0000 0.0249 0.0000
# 4 0.0000 0.0000 0.0000 82.3785 0.0000 19.2208
# 5 -0.6956 32.0413 0.0249 0.0000 23.0853 0.0000
# 6 0.0000 0.0000 0.0000 19.2208 0.0000 50.4891
#
#
#
# Elastic Compliance Matrix: (Units=1/GPa)
#
#
# Indices 1 2 3 4 5 6 
#
# 1 0.027868 0.003695 -0.002605 0.000000 -0.004286 0.000000
# 2 0.003695 0.014017 -0.005284 0.000000 -0.019338 0.000000
# 3 -0.002605 -0.005284 0.025355 0.000000 0.007228 0.000000
# 4 0.000000 0.000000 0.000000 0.013322 0.000000 -0.005072
# 5 -0.004286 -0.019338 0.007228 0.000000 0.070021 0.000000
# 6 0.000000 0.000000 0.000000 -0.005072 0.000000 0.021737
#
#
# Mechanical properties :
#
#
# Convention : Reuss Voigt Hill
#
# Bulk Modulus (GPa) = 16.99189 24.38298 20.68744
# Shear Modulus (GPa) = 24.95938 44.30660 34.63299
#
# Velocity S-wave (km/s) = 3.49459 4.65601 4.11647
# Velocity P-wave (km/s) = 4.95951 6.39021 5.71977
#
# Compressibility (1/GPa) = 0.05885159
#
# Stress axis : x y z
#
# Youngs Moduli (GPa) = 35.88387 71.34168 39.44002
#
# Poissons Ratio (x) = -0.26361 0.10276
# Poissons Ratio (y) = -0.13259 0.20839
# Poissons Ratio (z) = 0.09350 0.37694
#
# Static dielectric constant tensor:
#      x y z
#    x 2.187940 0.000000 0.011540 
#    y 0.000000 1.759970 0.000000 
#    z 0.011540 0.000000 1.698170 
# 
# From -- ./inp_files/17302.got.cif
#   From: 2010.05.17/outbox.cif.g08.bks.cpg/sg13_9_cif.got.tgz:17302.got - 2010.06.03 16:44:36.
