data_PCOD9228679
_publ_section_title
;
Structure prediction by ZEFSAII (Michael W. Deem and Ramdas Pophale) SiO2 
 PCOD9228679
Probable space group: P 2/C
;
_chemical_formula_sum "Si O2"
_cell_formula_units_Z 16
_cell_length_a 7.867590
_cell_length_b 18.386852
_cell_length_c 10.041209
_cell_angle_alpha 90.000000
_cell_angle_beta 149.196487
_cell_angle_gamma 90.000000
_cell_volume 743.851240
_symmetry_space_group_name_H-M "P 2/C"
_symmetry_group_IT_number 13
_symmetry_cell_setting 'monoclinic'
loop_
_space_group_symop_operation_xyz
x,y,z
-x,y,1/2-z
-x,-y,-z
x,-y,1/2+z
loop_
_atom_site_type_symbol
_atom_site_label
_atom_site_fract_x
_atom_site_fract_y
_atom_site_fract_z
Si Si1 0.725256 0.715857 0.767697
Si Si2 0.225489 0.789078 0.273484
Si Si3 0.693455 0.953724 0.243735
Si Si4 0.600700 0.563946 0.968906
O O1 0.500000 0.725210 0.750000
O O2 0.595098 0.769548 0.566730
O O3 0.625673 0.635107 0.654779
O O4 0.086698 0.739466 0.060559
O O5 0.196076 0.874597 0.231199
O O6 0.000000 0.770912 0.250000
O O7 0.500000 0.940299 0.250000
O O8 0.000000 0.000000 0.500000
O O9 0.500000 0.000000 0.000000
O O10 0.000000 0.579300 0.250000
O O11 0.500000 0.543645 0.750000
O O12 0.500000 0.500000 0.000000
#
# Coordination Sequence:
#
# PCOD9228679 Si02
#       4
#     4   4   4   4
#     4   9  18  34  58  83 114 156 201 242 296 366
#     4  10  19  35  59  85 112 153 202 248 296 357
#     4  12  25  42  63  91 125 161 201 250 305 366
#     4  11  22  39  62  91 125 164 209 258 309 369
#
# _framework density 21.509675000000001
#
# number of rings (size 3 to 8) (size 9 to 14) (size 15 to 20)
#    0.000    1.500    0.000    8.250    0.000    2.000 
#    0.000    3.750    0.000    0.000    0.000    0.000 
#    0.000    0.000    0.000    0.000    0.000    0.000 
#
# Total GULP energy -89301.311047 kJ/mol
# GULP energy per Si atom -5581.331940 kJ/mol
# Density = 2.146072 g / cm^3
# Si number density = 21.509675 Si / 1000 Ang^3
#
#
#
# Elastic Constant Matrix: (Units=GPa)
#
#
# Indices 1 2 3 4 5 6 
#
# 1 20.4711 -1.0006 20.9728 0.0000 -3.4274 0.0000
# 2 -1.0006 149.1141 89.6210 0.0000 -8.3508 0.0000
# 3 20.9728 89.6210 187.1088 0.0000 -12.7380 0.0000
# 4 0.0000 0.0000 0.0000 44.9958 0.0000 -12.9302
# 5 -3.4274 -8.3508 -12.7380 0.0000 19.3280 0.0000
# 6 0.0000 0.0000 0.0000 -12.9302 0.0000 26.9576
#
#
#
# Elastic Compliance Matrix: (Units=1/GPa)
#
#
# Indices 1 2 3 4 5 6 
#
# 1 0.059879 0.006383 -0.009274 0.000000 0.007264 0.000000
# 2 0.006383 0.010122 -0.005433 0.000000 0.001925 0.000000
# 3 -0.009274 -0.005433 0.009124 0.000000 0.002021 0.000000
# 4 0.000000 0.000000 0.000000 0.025777 0.000000 0.012364
# 5 0.007264 0.001925 0.002021 0.000000 0.055190 0.000000
# 6 0.000000 0.000000 0.000000 0.012364 0.000000 0.043026
#
#
# Mechanical properties :
#
#
# Convention : Reuss Voigt Hill
#
# Bulk Modulus (GPa) = 16.00610 63.98673 39.99641
# Shear Modulus (GPa) = 20.78205 34.72966 27.75586
#
# Velocity S-wave (km/s) = 3.11170 4.02258 3.59610
# Velocity P-wave (km/s) = 4.51307 7.16849 5.98978
#
# Compressibility (1/GPa) = 0.06247620
#
# Stress axis : x y z
#
# Youngs Moduli (GPa) = 16.70030 98.79445 109.60403
#
# Poissons Ratio (x) = -0.63058 1.01652
# Poissons Ratio (y) = -0.10659 0.59544
# Poissons Ratio (z) = 0.15489 0.53671
#
# Static dielectric constant tensor:
#      x y z
#    x 1.731370 0.000000 0.007670 
#    y 0.000000 1.747690 0.000000 
#    z 0.007670 0.000000 1.800930 
# 
# From -- ./inp_files/9231.got.cif
#   From: 2010.05.17/outbox.cif.g08.bks.cpg/sg13_5_cif.got.tgz:9231.got - 2010.06.03 16:44:36.
