data_PCOD9228343
_publ_section_title
;
Structure prediction by ZEFSAII (Michael W. Deem and Ramdas Pophale) SiO2 
 PCOD9228343
Probable space group: P 2/C
;
_chemical_formula_sum "Si O2"
_cell_formula_units_Z 32
_cell_length_a 14.232740
_cell_length_b 15.044584
_cell_length_c 19.364245
_cell_angle_alpha 90.000000
_cell_angle_beta 21.680717
_cell_angle_gamma 90.000000
_cell_volume 1531.814484
_symmetry_space_group_name_H-M "P 2/C"
_symmetry_group_IT_number 13
_symmetry_cell_setting 'monoclinic'
loop_
_space_group_symop_operation_xyz
x,y,z
-x,y,1/2-z
-x,-y,-z
x,-y,1/2+z
loop_
_atom_site_type_symbol
_atom_site_label
_atom_site_fract_x
_atom_site_fract_y
_atom_site_fract_z
Si Si1 0.125063 0.030898 0.087017
Si Si2 0.071451 0.663538 0.123160
Si Si3 0.371984 0.789793 0.409717
Si Si4 0.547594 0.265900 0.928205
Si Si5 0.618676 0.911318 0.886292
Si Si6 0.048560 0.352727 0.294183
Si Si7 0.183445 0.502703 0.448363
Si Si8 0.756707 0.154830 0.968297
O O1 0.000000 0.028265 0.250000
O O2 0.915511 0.071233 0.179386
O O3 0.180645 0.929825 0.026659
O O4 0.344627 0.104469 0.940335
O O5 0.277874 0.743855 0.984261
O O6 0.000000 0.631810 0.250000
O O7 0.822397 0.714328 0.267182
O O8 0.126572 0.586380 0.031228
O O9 0.500000 0.774798 0.250000
O O10 0.534564 0.737260 0.355205
O O11 0.097803 0.741913 0.602843
O O12 0.447942 0.169959 0.018593
O O13 0.347842 0.335953 0.095143
O O14 0.483972 0.882491 0.908399
O O15 0.500000 0.000000 0.000000
O O16 0.000000 0.388937 0.250000
O O17 0.937848 0.415120 0.427906
O O18 0.500000 0.512776 0.250000
O O19 0.000000 0.500000 0.500000
O O20 0.000000 0.160400 0.750000
#
# Coordination Sequence:
#
# PCOD9228343 Si02
#       8
#     4   4   4   4   4   4   4   4
#     4  11  18  33  58  94 124 172 228 276 325 389
#     4  11  24  44  69 101 137 180 234 287 349 427
#     4  11  22  36  60  93 138 175 223 280 345 406
#     4  11  21  37  67 100 127 176 232 288 342 396
#     4  12  17  30  59  96 132 168 223 280 327 394
#     4  10  23  44  72  97 128 171 234 291 344 412
#     4  12  31  51  74 104 141 184 226 288 377 444
#     4  10  19  33  58  95 129 172 222 280 330 394
#
# _framework density 20.890259
#
# number of rings (size 3 to 8) (size 9 to 14) (size 15 to 20)
#    0.000    1.000    7.500    1.125    7.000    0.500 
#    0.000    0.625    0.000    6.750    0.000    0.000 
#    0.000    0.000    0.000    0.000    0.000    0.000 
#
# Total GULP energy -178157.994765 kJ/mol
# GULP energy per Si atom -5567.437336 kJ/mol
# Density = 2.084271 g / cm^3
# Si number density = 20.890259 Si / 1000 Ang^3
#
#
#
# Elastic Constant Matrix: (Units=GPa)
#
#
# Indices 1 2 3 4 5 6 
#
# 1 87.5144 48.8946 43.8218 0.0000 -4.3100 0.0000
# 2 48.8946 117.8471 12.0549 0.0000 7.2641 0.0000
# 3 43.8218 12.0549 41.6117 0.0000 -3.0177 0.0000
# 4 0.0000 0.0000 0.0000 8.1013 0.0000 0.1044
# 5 -4.3100 7.2641 -3.0177 0.0000 30.2442 0.0000
# 6 0.0000 0.0000 0.0000 0.1044 0.0000 15.1031
#
#
#
# Elastic Compliance Matrix: (Units=1/GPa)
#
#
# Indices 1 2 3 4 5 6 
#
# 1 0.033968 -0.011057 -0.032259 0.000000 0.004278 0.000000
# 2 -0.011057 0.012516 0.007742 0.000000 -0.003809 0.000000
# 3 -0.032259 0.007742 0.055696 0.000000 -0.000899 0.000000
# 4 0.000000 0.000000 0.000000 0.123448 0.000000 -0.000853
# 5 0.004278 -0.003809 -0.000899 0.000000 0.034499 0.000000
# 6 0.000000 0.000000 0.000000 -0.000853 0.000000 0.066218
#
#
# Mechanical properties :
#
#
# Convention : Reuss Voigt Hill
#
# Bulk Modulus (GPa) = 32.22431 50.72401 41.47416
# Shear Modulus (GPa) = 12.25979 20.16984 16.21481
#
# Velocity S-wave (km/s) = 2.42516 3.11064 2.78904
# Velocity P-wave (km/s) = 4.82710 6.10208 5.50165
#
# Compressibility (1/GPa) = 0.03103248
#
# Stress axis : x y z
#
# Youngs Moduli (GPa) = 29.43906 79.89754 17.95463
#
# Poissons Ratio (x) = 0.88345 0.57920
# Poissons Ratio (y) = 0.32552 -0.13901
# Poissons Ratio (z) = 0.94968 -0.61860
#
# Static dielectric constant tensor:
#      x y z
#    x 1.539120 0.000000 -0.063970 
#    y 0.000000 1.800620 0.000000 
#    z -0.063970 0.000000 1.756360 
# 
# From -- ./inp_files/80341.got.cif
#   From: 2010.05.17/outbox.cif.g08.bks.cpg/sg13_41_cif.got.tgz:80341.got - 2010.06.03 16:44:36.
