data_PCOD9228751
_publ_section_title
;
Structure prediction by ZEFSAII (Michael W. Deem and Ramdas Pophale) SiO2 
 PCOD9228751
Probable space group: P 2/C
;
_chemical_formula_sum "Si O2"
_cell_formula_units_Z 30
_cell_length_a 17.558243
_cell_length_b 12.176670
_cell_length_c 15.097701
_cell_angle_alpha 90.000000
_cell_angle_beta 154.574589
_cell_angle_gamma 90.000000
_cell_volume 1385.853873
_symmetry_space_group_name_H-M "P 2/C"
_symmetry_group_IT_number 13
_symmetry_cell_setting 'monoclinic'
loop_
_space_group_symop_operation_xyz
x,y,z
-x,y,1/2-z
-x,-y,-z
x,-y,1/2+z
loop_
_atom_site_type_symbol
_atom_site_label
_atom_site_fract_x
_atom_site_fract_y
_atom_site_fract_z
Si Si1 0.350693 0.520834 0.767998
Si Si2 0.071017 0.328426 0.064735
Si Si3 0.158642 0.614105 0.854048
Si Si4 0.178474 0.154293 0.467312
Si Si5 0.500000 0.470187 0.250000
Si Si6 0.521886 0.987419 0.679772
Si Si7 0.723078 0.282930 0.768422
Si Si8 0.638539 0.143731 0.131004
O O1 0.178143 0.587776 0.615438
O O2 0.433524 0.583165 0.770905
O O3 0.304215 0.393128 0.702563
O O4 0.500000 0.500000 0.000000
O O5 0.095785 0.380583 0.187693
O O6 0.184062 0.215860 0.183175
O O7 0.858769 0.311908 0.831324
O O8 0.197281 0.738970 0.925502
O O9 0.000000 0.572345 0.750000
O O10 0.334438 0.543526 0.045266
O O11 0.345997 0.078712 0.643129
O O12 0.167383 0.198863 0.555539
O O13 0.000000 0.095617 0.250000
O O14 0.500000 0.920780 0.750000
O O15 0.377840 0.057615 0.469133
O O16 0.615949 0.919161 0.700307
O O17 0.532768 0.226539 0.552803
#
# Coordination Sequence:
#
# PCOD9228751 Si02
#       8
#     4   4   4   4   2   4   4   4
#     4  12  23  38  62  92 122 169 208 252 305 369
#     4  12  22  39  63  89 127 165 206 254 308 367
#     4  11  20  33  60  92 118 150 203 261 315 359
#     4  10  19  35  61  98 116 149 202 266 324 357
#     4  12  22  38  56  88 126 160 202 260 306 366
#     4  10  22  40  64  89 125 161 203 261 309 371
#     4  11  21  39  62  90 127 160 204 259 312 368
#     4  10  23  42  60  94 124 164 209 250 314 368
#
# _framework density 21.647302
#
# number of rings (size 3 to 8) (size 9 to 14) (size 15 to 20)
#    0.000    1.067    6.667    1.200    2.800    0.000 
#    3.600    2.000    0.000    1.600    0.000    0.000 
#    0.000    0.000    0.000    0.000    0.000    0.000 
#
# Total GULP energy -167309.259706 kJ/mol
# GULP energy per Si atom -5576.975324 kJ/mol
# Density = 2.159803 g / cm^3
# Si number density = 21.647302 Si / 1000 Ang^3
#
#
#
# Elastic Constant Matrix: (Units=GPa)
#
#
# Indices 1 2 3 4 5 6 
#
# 1 134.7968 12.0710 0.7241 0.0000 2.6792 0.0000
# 2 12.0710 24.4896 -1.2344 0.0000 6.4451 0.0000
# 3 0.7241 -1.2344 51.1785 0.0000 7.0600 0.0000
# 4 0.0000 0.0000 0.0000 -18.6357 0.0000 7.1082
# 5 2.6792 6.4451 7.0600 0.0000 31.5523 0.0000
# 6 0.0000 0.0000 0.0000 7.1082 0.0000 26.0662
#
#
#
# Elastic Compliance Matrix: (Units=1/GPa)
#
#
# Indices 1 2 3 4 5 6 
#
# 1 0.007764 -0.003888 -0.000229 0.000000 0.000186 0.000000
# 2 -0.003888 0.045371 0.002458 0.000000 -0.009488 0.000000
# 3 -0.000229 0.002458 0.020295 0.000000 -0.005024 0.000000
# 4 0.000000 0.000000 0.000000 -0.048605 0.000000 0.013254
# 5 0.000186 -0.009488 -0.005024 0.000000 0.034740 0.000000
# 6 0.000000 0.000000 0.000000 0.013254 0.000000 0.034749
#
#
# Mechanical properties :
#
#
# Convention : Reuss Voigt Hill
#
# Bulk Modulus (GPa) = 14.26279 25.95404 20.10841
# Shear Modulus (GPa) = 41.32144 21.05684 31.18914
#
# Velocity S-wave (km/s) = 4.37378 3.12224 3.79989
# Velocity P-wave (km/s) = 5.66653 5.00133 5.34429
#
# Compressibility (1/GPa) = 0.07011252
#
# Stress axis : x y z
#
# Youngs Moduli (GPa) = 128.79562 22.04065 49.27320
#
# Poissons Ratio (x) = 0.08568 0.01130
# Poissons Ratio (y) = 0.50070 -0.12112
# Poissons Ratio (z) = 0.02953 -0.05418
#
# Static dielectric constant tensor:
#      x y z
#    x 1.964360 0.000000 0.020410 
#    y 0.000000 1.831060 0.000000 
#    z 0.020410 0.000000 1.857060 
# 
# From -- ./inp_files/53884.got.cif
#   From: 2010.05.17/outbox.cif.g08.bks.cpg/sg13_27_cif.got.tgz:53884.got - 2010.06.03 16:44:36.
