data_PCOD9228323
_publ_section_title
;
Structure prediction by ZEFSAII (Michael W. Deem and Ramdas Pophale) SiO2 
 PCOD9228323
Probable space group: P 2/C
;
_chemical_formula_sum "Si O2"
_cell_formula_units_Z 24
_cell_length_a 20.240394
_cell_length_b 7.636622
_cell_length_c 20.383515
_cell_angle_alpha 90.000000
_cell_angle_beta 19.152380
_cell_angle_gamma 90.000000
_cell_volume 1033.668443
_symmetry_space_group_name_H-M "P 2/C"
_symmetry_group_IT_number 13
_symmetry_cell_setting 'monoclinic'
loop_
_space_group_symop_operation_xyz
x,y,z
-x,y,1/2-z
-x,-y,-z
x,-y,1/2+z
loop_
_atom_site_type_symbol
_atom_site_label
_atom_site_fract_x
_atom_site_fract_y
_atom_site_fract_z
Si Si1 0.387801 0.741106 0.273155
Si Si2 0.143139 0.578586 0.021200
Si Si3 0.147027 0.958384 0.055347
Si Si4 0.711742 0.558108 0.889537
Si Si5 0.842294 0.033456 0.592646
Si Si6 0.649436 0.698178 0.804583
O O1 0.288633 0.580030 0.404001
O O2 0.250401 0.778270 0.336484
O O3 0.336711 0.916175 0.361994
O O4 0.601191 0.687568 0.044558
O O5 0.185958 0.751401 0.024087
O O6 0.915317 0.512326 0.230819
O O7 0.202243 0.626342 0.890868
O O8 0.000000 0.018981 0.250000
O O9 0.043568 0.978204 0.081306
O O10 0.728156 0.654875 0.803587
O O11 0.560989 0.396775 0.013726
O O12 0.655383 0.904994 0.784213
O O13 0.000000 0.000000 0.500000
#
# Coordination Sequence:
#
# PCOD9228323 Si02
#       6
#     4   4   4   4   4   4
#     4   9  21  37  58  92 121 152 205 254 297 362
#     4  10  19  38  60  86 117 161 205 248 298 370
#     4   9  21  40  62  87 117 164 203 250 311 366
#     4  10  19  33  57  90 122 162 194 248 312 353
#     4   9  18  35  59  91 118 155 201 245 298 366
#     4   9  19  33  55  87 131 156 195 246 305 364
#
# _framework density 23.218277
#
# number of rings (size 3 to 8) (size 9 to 14) (size 15 to 20)
#    1.000    1.667    0.000    1.500    0.000    8.000 
#    3.000    0.000    0.000   22.000    0.000    0.000 
#    0.000    0.000    0.000    0.000    0.000    0.000 
#
# Total GULP energy -133789.255527 kJ/mol
# GULP energy per Si atom -5574.552314 kJ/mol
# Density = 2.316543 g / cm^3
# Si number density = 23.218277 Si / 1000 Ang^3
#
#
#
# Elastic Constant Matrix: (Units=GPa)
#
#
# Indices 1 2 3 4 5 6 
#
# 1 79.7950 5.4648 25.9780 0.0000 10.9497 0.0000
# 2 5.4648 96.4048 30.4014 0.0000 5.1414 0.0000
# 3 25.9780 30.4014 91.3670 0.0000 7.6434 0.0000
# 4 0.0000 0.0000 0.0000 15.1276 0.0000 12.0681
# 5 10.9497 5.1414 7.6434 0.0000 27.1221 0.0000
# 6 0.0000 0.0000 0.0000 12.0681 0.0000 -11.5848
#
#
#
# Elastic Compliance Matrix: (Units=1/GPa)
#
#
# Indices 1 2 3 4 5 6 
#
# 1 0.014428 0.000678 -0.003922 0.000000 -0.004848 0.000000
# 2 0.000678 0.011655 -0.003956 0.000000 -0.001368 0.000000
# 3 -0.003922 -0.003956 0.013499 0.000000 -0.001471 0.000000
# 4 0.000000 0.000000 0.000000 0.036102 0.000000 0.037608
# 5 -0.004848 -0.001368 -0.001471 0.000000 0.039501 0.000000
# 6 0.000000 0.000000 0.000000 0.037608 0.000000 -0.047143
#
#
# Mechanical properties :
#
#
# Convention : Reuss Voigt Hill
#
# Bulk Modulus (GPa) = 39.71300 43.47282 41.59291
# Shear Modulus (GPa) = 55.04281 19.84783 37.44532
#
# Velocity S-wave (km/s) = 4.87423 2.92693 4.02026
# Velocity P-wave (km/s) = 6.98705 5.49425 6.28512
#
# Compressibility (1/GPa) = 0.02518067
#
# Stress axis : x y z
#
# Youngs Moduli (GPa) = 69.31055 85.79931 74.07682
#
# Poissons Ratio (x) = -0.05813 0.29054
# Poissons Ratio (y) = -0.04696 0.29307
# Poissons Ratio (z) = 0.27184 0.33945
#
# Static dielectric constant tensor:
#      x y z
#    x 1.846610 0.000000 -0.029070 
#    y 0.000000 1.960160 0.000000 
#    z -0.029070 0.000000 1.826490 
# 
# From -- ./inp_files/81635.got.cif
#   From: 2010.05.17/outbox.cif.g08.bks.cpg/sg13_41_cif.got.tgz:81635.got - 2010.06.03 16:44:36.
