data_PCOD9228049
_publ_section_title
;
Structure prediction by ZEFSAII (Michael W. Deem and Ramdas Pophale) SiO2 
 PCOD9228049
Probable space group: P 2/C
;
_chemical_formula_sum "Si O2"
_cell_formula_units_Z 26
_cell_length_a 15.040130
_cell_length_b 15.352016
_cell_length_c 8.904022
_cell_angle_alpha 90.000000
_cell_angle_beta 41.987391
_cell_angle_gamma 90.000000
_cell_volume 1375.333287
_symmetry_space_group_name_H-M "P 2/C"
_symmetry_group_IT_number 13
_symmetry_cell_setting 'monoclinic'
loop_
_space_group_symop_operation_xyz
x,y,z
-x,y,1/2-z
-x,-y,-z
x,-y,1/2+z
loop_
_atom_site_type_symbol
_atom_site_label
_atom_site_fract_x
_atom_site_fract_y
_atom_site_fract_z
Si Si1 0.500000 0.962309 0.250000
Si Si2 0.824028 0.241980 0.625959
Si Si3 0.671321 0.077383 0.807358
Si Si4 0.164395 0.581716 0.225927
Si Si5 0.904642 0.051626 0.005491
Si Si6 0.158902 0.595829 0.888666
Si Si7 0.863039 0.777675 0.723295
O O1 0.421805 0.908850 0.220761
O O2 0.403555 0.023757 0.469588
O O3 0.728213 0.166390 0.803525
O O4 0.790201 0.338177 0.726880
O O5 0.824747 0.229525 0.445416
O O6 0.975741 0.225150 0.485441
O O7 0.794359 0.018269 0.595473
O O8 0.206822 0.488451 0.237388
O O9 0.002492 0.587558 0.422483
O O10 0.204003 0.590634 0.003546
O O11 0.832457 0.132567 0.177133
O O12 0.000000 0.080984 0.750000
O O13 0.000000 0.000000 0.000000
O O14 0.192042 0.690824 0.784487
#
# Coordination Sequence:
#
# PCOD9228049 Si02
#       7
#     2   4   4   4   4   4   4
#     4  10  24  40  56  72 104 152 194 246 278 318
#     4  10  19  32  51  73 108 140 181 223 272 333
#     4  11  22  39  56  77 108 145 193 232 284 334
#     4   9  17  28  46  68 103 149 181 215 255 318
#     4  12  23  34  55  82 113 145 181 232 288 344
#     4   9  17  28  43  68 108 148 182 206 254 328
#     4  10  20  30  47  78 111 145 174 217 274 337
#
# _framework density 18.904508
#
# number of rings (size 3 to 8) (size 9 to 14) (size 15 to 20)
#    0.000    1.846    1.538    3.692    4.308    3.692 
#    0.000    0.000    0.000    0.000    0.000    0.000 
#    0.000   41.846    0.000    0.000    0.000    0.000 
#
# Total GULP energy -145082.260055 kJ/mol
# GULP energy per Si atom -5580.086925 kJ/mol
# Density = 1.886148 g / cm^3
# Si number density = 18.904508 Si / 1000 Ang^3
#
#
#
# Elastic Constant Matrix: (Units=GPa)
#
#
# Indices 1 2 3 4 5 6 
#
# 1 54.8645 38.7489 16.7397 0.0000 14.2496 0.0000
# 2 38.7489 145.3885 15.9475 0.0000 11.8474 0.0000
# 3 16.7397 15.9475 39.3117 0.0000 8.3778 0.0000
# 4 0.0000 0.0000 0.0000 14.8200 0.0000 5.3280
# 5 14.2496 11.8474 8.3778 0.0000 22.4330 0.0000
# 6 0.0000 0.0000 0.0000 5.3280 0.0000 22.9341
#
#
#
# Elastic Compliance Matrix: (Units=1/GPa)
#
#
# Indices 1 2 3 4 5 6 
#
# 1 0.027329 -0.005566 -0.006851 0.000000 -0.011861 0.000000
# 2 -0.005566 0.008516 -0.000956 0.000000 -0.000605 0.000000
# 3 -0.006851 -0.000956 0.030104 0.000000 -0.006386 0.000000
# 4 0.000000 0.000000 0.000000 0.073626 0.000000 -0.017105
# 5 -0.011861 -0.000605 -0.006386 0.000000 0.054816 0.000000
# 6 0.000000 0.000000 0.000000 -0.017105 0.000000 0.047577
#
#
# Mechanical properties :
#
#
# Convention : Reuss Voigt Hill
#
# Bulk Modulus (GPa) = 25.50854 42.49300 34.00077
# Shear Modulus (GPa) = 17.74438 23.24599 20.49518
#
# Velocity S-wave (km/s) = 3.06703 3.51045 3.29620
# Velocity P-wave (km/s) = 5.10538 6.24159 5.70186
#
# Compressibility (1/GPa) = 0.03920256
#
# Stress axis : x y z
#
# Youngs Moduli (GPa) = 36.59181 117.43184 33.21843
#
# Poissons Ratio (x) = 0.65357 0.22760
# Poissons Ratio (y) = 0.20365 0.03175
# Poissons Ratio (z) = 0.25071 0.11222
#
# Static dielectric constant tensor:
#      x y z
#    x 1.654830 0.000000 0.007780 
#    y 0.000000 1.664680 0.000000 
#    z 0.007780 0.000000 1.663690 
# 
# From -- ./inp_files/19851.got.cif
#   From: 2010.05.17/outbox.cif.g08.bks.cpg/sg13_10_cif.got.tgz:19851.got - 2010.06.03 16:44:36.
