data_PCOD9228265
_publ_section_title
;
Structure prediction by ZEFSAII (Michael W. Deem and Ramdas Pophale) SiO2 
 PCOD9228265
Probable space group: P 2/C
;
_chemical_formula_sum "Si O2"
_cell_formula_units_Z 32
_cell_length_a 24.191318
_cell_length_b 11.785654
_cell_length_c 17.994623
_cell_angle_alpha 90.000000
_cell_angle_beta 19.259324
_cell_angle_gamma 90.000000
_cell_volume 1692.251558
_symmetry_space_group_name_H-M "P 2/C"
_symmetry_group_IT_number 13
_symmetry_cell_setting 'monoclinic'
loop_
_space_group_symop_operation_xyz
x,y,z
-x,y,1/2-z
-x,-y,-z
x,-y,1/2+z
loop_
_atom_site_type_symbol
_atom_site_label
_atom_site_fract_x
_atom_site_fract_y
_atom_site_fract_z
Si Si1 0.702251 0.371486 0.770250
Si Si2 0.464399 0.146039 0.477626
Si Si3 0.703789 0.922914 0.804423
Si Si4 0.419666 0.489193 0.716952
Si Si5 0.038286 0.371017 0.429506
Si Si6 0.955953 0.769454 0.426479
Si Si7 0.733316 0.717881 0.564991
Si Si8 0.395454 0.727056 0.451775
O O1 0.696699 0.442364 0.701758
O O2 0.883289 0.344801 0.572838
O O3 0.614251 0.249572 0.876278
O O4 0.583199 0.446747 0.975469
O O5 0.600426 0.090272 0.359210
O O6 0.567415 0.205752 0.281086
O O7 0.333018 0.049640 0.621311
O O8 0.889933 0.888998 0.542288
O O9 0.639881 0.826358 0.943065
O O10 0.318834 0.588504 0.886708
O O11 0.488129 0.377688 0.669657
O O12 0.036479 0.308679 0.511072
O O13 0.000000 0.500000 0.500000
O O14 0.214107 0.333199 0.169332
O O15 0.822448 0.722669 0.534044
O O16 0.132607 0.768028 0.161470
O O17 0.500000 0.776278 0.250000
#
# Coordination Sequence:
#
# PCOD9228265 Si02
#       8
#     4   4   4   4   4   4   4   4
#     4  10  19  34  57  86 110 147 189 235 285 339
#     4   9  17  34  62  84 105 145 201 235 274 335
#     4   9  18  37  59  79 108 155 197 230 275 339
#     4  10  19  33  55  81 118 146 187 234 284 350
#     4  11  21  35  54  79 113 150 183 227 287 346
#     4   9  19  34  52  83 113 147 188 231 292 335
#     4   9  18  32  56  87 110 143 189 244 286 332
#     4  11  23  38  54  80 116 157 186 230 293 347
#
# _framework density 18.909717000000001
#
# number of rings (size 3 to 8) (size 9 to 14) (size 15 to 20)
#    0.000    2.250    2.500    0.750    5.250    0.000 
#    0.000    6.875    0.000    1.500    0.000    0.000 
#    0.000    0.000    0.000    0.000    0.000    0.000 
#
# Total GULP energy -178179.293240 kJ/mol
# GULP energy per Si atom -5568.102914 kJ/mol
# Density = 1.886668 g / cm^3
# Si number density = 18.909717 Si / 1000 Ang^3
#
#
#
# Elastic Constant Matrix: (Units=GPa)
#
#
# Indices 1 2 3 4 5 6 
#
# 1 33.1851 -0.9682 31.4069 0.0000 6.0246 0.0000
# 2 -0.9682 106.0787 39.0687 0.0000 14.2713 0.0000
# 3 31.4069 39.0687 99.8972 0.0000 13.0935 0.0000
# 4 0.0000 0.0000 0.0000 21.9249 0.0000 -8.7125
# 5 6.0246 14.2713 13.0935 0.0000 13.9257 0.0000
# 6 0.0000 0.0000 0.0000 -8.7125 0.0000 13.9120
#
#
#
# Elastic Compliance Matrix: (Units=1/GPa)
#
#
# Indices 1 2 3 4 5 6 
#
# 1 0.048911 0.008555 -0.016881 0.000000 -0.014055 0.000000
# 2 0.008555 0.013409 -0.006441 0.000000 -0.011387 0.000000
# 3 -0.016881 -0.006441 0.018265 0.000000 -0.003270 0.000000
# 4 0.000000 0.000000 0.000000 0.060722 0.000000 0.038028
# 5 -0.014055 -0.011387 -0.003270 0.000000 0.092634 0.000000
# 6 0.000000 0.000000 0.000000 0.038028 0.000000 0.095696
#
#
# Mechanical properties :
#
#
# Convention : Reuss Voigt Hill
#
# Bulk Modulus (GPa) = 19.58833 42.01953 30.80393
# Shear Modulus (GPa) = 13.29120 21.26275 17.27697
#
# Velocity S-wave (km/s) = 2.65406 3.35690 3.02595
# Velocity P-wave (km/s) = 4.44673 6.10691 5.34171
#
# Compressibility (1/GPa) = 0.05105080
#
# Stress axis : x y z
#
# Youngs Moduli (GPa) = 20.44514 74.57548 54.74920
#
# Poissons Ratio (x) = -0.63796 0.92421
# Poissons Ratio (y) = -0.17490 0.35265
# Poissons Ratio (z) = 0.34513 0.48036
#
# Static dielectric constant tensor:
#      x y z
#    x 1.742200 0.000000 -0.049280 
#    y 0.000000 1.673140 0.000000 
#    z -0.049280 0.000000 1.700320 
# 
# From -- ./inp_files/71456.got.cif
#   From: 2010.05.17/outbox.cif.g08.bks.cpg/sg13_36_cif.got.tgz:71456.got - 2010.06.03 16:44:36.
