data_PCOD9228526
_publ_section_title
;
Structure prediction by ZEFSAII (Michael W. Deem and Ramdas Pophale) SiO2 
 PCOD9228526
Probable space group: P 2/C
;
_chemical_formula_sum "Si O2"
_cell_formula_units_Z 28
_cell_length_a 9.108818
_cell_length_b 6.247815
_cell_length_c 21.724624
_cell_angle_alpha 90.000000
_cell_angle_beta 84.415920
_cell_angle_gamma 90.000000
_cell_volume 1230.485765
_symmetry_space_group_name_H-M "P 2/C"
_symmetry_group_IT_number 13
_symmetry_cell_setting 'monoclinic'
loop_
_space_group_symop_operation_xyz
x,y,z
-x,y,1/2-z
-x,-y,-z
x,-y,1/2+z
loop_
_atom_site_type_symbol
_atom_site_label
_atom_site_fract_x
_atom_site_fract_y
_atom_site_fract_z
Si Si1 0.646084 0.546533 0.279085
Si Si2 0.111004 0.314539 0.012962
Si Si3 0.493678 0.167088 0.351986
Si Si4 0.746725 0.180275 0.671272
Si Si5 0.987150 0.956794 0.411971
Si Si6 0.330283 0.208864 0.595086
Si Si7 0.610443 0.444584 0.561611
O O1 0.500000 0.632615 0.250000
O O2 0.594560 0.308551 0.301341
O O3 0.760386 0.645738 0.225809
O O4 0.678461 0.653339 0.342559
O O5 0.272116 0.407856 0.997080
O O6 0.061241 0.202681 0.077783
O O7 0.089903 0.124401 0.963944
O O8 0.000000 0.500000 0.000000
O O9 0.368577 0.021969 0.323038
O O10 0.601506 0.015456 0.386020
O O11 0.418227 0.326556 0.405093
O O12 0.909117 0.089335 0.649979
O O13 0.680969 0.315087 0.616689
O O14 0.834019 0.826886 0.422007
O O15 0.459064 0.322857 0.550917
#
# Coordination Sequence:
#
# PCOD9228526 Si02
#       7
#     4   4   4   4   4   4   4
#     4  11  20  34  59  89 109 150 195 236 274 343
#     4  10  21  40  64  84 114 153 200 238 290 348
#     4  10  19  34  59  84 112 148 195 235 285 337
#     4  10  20  36  60  83 116 154 193 233 283 344
#     4  10  23  41  59  85 120 154 188 240 295 345
#     4  10  22  37  58  86 122 149 190 240 289 339
#     4   9  19  35  58  89 109 151 198 240 280 337
#
# _framework density 22.755237999999999
#
# number of rings (size 3 to 8) (size 9 to 14) (size 15 to 20)
#    0.000    2.000    4.286    0.857    2.000    4.571 
#    0.000    1.429    3.143    0.000    0.000    0.000 
#    0.000    0.000    0.000    0.000    0.000    0.000 
#
# Total GULP energy -156080.361250 kJ/mol
# GULP energy per Si atom -5574.298616 kJ/mol
# Density = 2.270345 g / cm^3
# Si number density = 22.755238 Si / 1000 Ang^3
#
#
#
# Elastic Constant Matrix: (Units=GPa)
#
#
# Indices 1 2 3 4 5 6 
#
# 1 133.2610 47.9604 34.9621 0.0000 -22.9425 0.0000
# 2 47.9604 115.0471 22.5269 0.0000 -18.7214 0.0000
# 3 34.9621 22.5269 29.9819 0.0000 -24.8072 0.0000
# 4 0.0000 0.0000 0.0000 23.2385 0.0000 21.3362
# 5 -22.9425 -18.7214 -24.8072 0.0000 38.1699 0.0000
# 6 0.0000 0.0000 0.0000 21.3362 0.0000 5.5587
#
#
#
# Elastic Compliance Matrix: (Units=1/GPa)
#
#
# Indices 1 2 3 4 5 6 
#
# 1 0.011675 -0.002584 -0.014960 0.000000 -0.003973 0.000000
# 2 -0.002584 0.010764 -0.004307 0.000000 0.000927 0.000000
# 3 -0.014960 -0.004307 0.097016 0.000000 0.051949 0.000000
# 4 0.000000 0.000000 0.000000 -0.017048 0.000000 0.065437
# 5 -0.003973 0.000927 0.051949 0.000000 0.058028 0.000000
# 6 0.000000 0.000000 0.000000 0.065437 0.000000 -0.071271
#
#
# Mechanical properties :
#
#
# Convention : Reuss Voigt Hill
#
# Bulk Modulus (GPa) = 13.20064 54.35433 33.77748
# Shear Modulus (GPa) = 31.62254 24.91612 28.26933
#
# Velocity S-wave (km/s) = 3.73189 3.31261 3.52848
# Velocity P-wave (km/s) = 4.93792 6.21044 5.61037
#
# Compressibility (1/GPa) = 0.07575392
#
# Stress axis : x y z
#
# Youngs Moduli (GPa) = 85.65317 92.90622 10.30754
#
# Poissons Ratio (x) = 0.24010 0.15420
# Poissons Ratio (y) = 0.22135 0.04439
# Poissons Ratio (z) = 1.28133 0.40011
#
# Static dielectric constant tensor:
#      x y z
#    x 1.868690 0.000000 -0.055550 
#    y 0.000000 1.889510 0.000000 
#    z -0.055550 0.000000 1.956440 
# 
# From -- ./inp_files/90808.got.cif
#   From: 2010.05.17/outbox.cif.g08.bks.cpg/sg13_46_cif.got.tgz:90808.got - 2010.06.03 16:44:36.
