data_PCOD9228122
_publ_section_title
;
Structure prediction by ZEFSAII (Michael W. Deem and Ramdas Pophale) SiO2 
 PCOD9228122
Probable space group: P 2/C
;
_chemical_formula_sum "Si O2"
_cell_formula_units_Z 18
_cell_length_a 7.436893
_cell_length_b 24.329108
_cell_length_c 5.249217
_cell_angle_alpha 90.000000
_cell_angle_beta 115.465754
_cell_angle_gamma 90.000000
_cell_volume 857.480421
_symmetry_space_group_name_H-M "P 2/C"
_symmetry_group_IT_number 13
_symmetry_cell_setting 'monoclinic'
loop_
_space_group_symop_operation_xyz
x,y,z
-x,y,1/2-z
-x,-y,-z
x,-y,1/2+z
loop_
_atom_site_type_symbol
_atom_site_label
_atom_site_fract_x
_atom_site_fract_y
_atom_site_fract_z
Si Si1 0.500000 0.537797 0.750000
Si Si2 0.860497 0.377660 0.415831
Si Si3 0.138774 0.743507 0.584741
Si Si4 0.138620 0.862516 0.584279
Si Si5 0.278429 0.978123 0.803338
O O1 0.500000 0.500000 0.500000
O O2 0.306751 0.576473 0.657165
O O3 0.000000 0.384708 0.250000
O O4 0.762012 0.316427 0.345699
O O5 0.000000 0.379605 0.750000
O O6 0.000000 0.743337 0.250000
O O7 0.245442 0.802771 0.642484
O O8 0.000000 0.744273 0.750000
O O9 0.271291 0.916487 0.695527
O O10 0.000000 0.862088 0.750000
O O11 0.000000 0.867254 0.250000
O O12 0.187240 0.017113 0.529762
O O13 0.500000 0.000000 0.000000
#
# Coordination Sequence:
#
# PCOD9228122 Si02
#       5
#     2   4   4   4   4
#     4  12  26  40  60  94 128 162 210 246 282 356
#     4  10  21  40  64  88 122 162 199 249 304 349
#     4   8  16  32  55  81 106 137 179 230 290 346
#     4  10  19  32  54  80 102 132 180 232 278 333
#     4  10  21  35  48  67 102 139 171 213 271 330
#
# _framework density 20.991733
#
# number of rings (size 3 to 8) (size 9 to 14) (size 15 to 20)
#    0.000    2.222    0.000    2.667    0.000    5.333 
#    0.000    2.222    0.000   10.667    0.000    0.000 
#    0.000    0.000    0.000    0.000    0.000    0.000 
#
# Total GULP energy -100354.566684 kJ/mol
# GULP energy per Si atom -5575.253705 kJ/mol
# Density = 2.094396 g / cm^3
# Si number density = 20.991733 Si / 1000 Ang^3
#
#
#
# Elastic Constant Matrix: (Units=GPa)
#
#
# Indices 1 2 3 4 5 6 
#
# 1 83.9130 59.9081 50.1328 0.0000 -6.5536 0.0000
# 2 59.9081 250.3231 68.2858 0.0000 12.4394 0.0000
# 3 50.1328 68.2858 156.7048 0.0000 -38.2610 0.0000
# 4 0.0000 0.0000 0.0000 28.9960 0.0000 -14.3710
# 5 -6.5536 12.4394 -38.2610 0.0000 33.7781 0.0000
# 6 0.0000 0.0000 0.0000 -14.3710 0.0000 -6.0638
#
#
#
# Elastic Compliance Matrix: (Units=1/GPa)
#
#
# Indices 1 2 3 4 5 6 
#
# 1 0.016317 -0.002746 -0.004152 0.000000 -0.000525 0.000000
# 2 -0.002746 0.005842 -0.003210 0.000000 -0.006321 0.000000
# 3 -0.004152 -0.003210 0.012718 0.000000 0.014782 0.000000
# 4 0.000000 0.000000 0.000000 0.015859 0.000000 -0.037586
# 5 -0.000525 -0.006321 0.014782 0.000000 0.048575 0.000000
# 6 0.000000 0.000000 0.000000 -0.037586 0.000000 -0.075836
#
#
# Mechanical properties :
#
#
# Convention : Reuss Voigt Hill
#
# Bulk Modulus (GPa) = 68.21205 94.17714 81.19460
# Shear Modulus (GPa) = 102.92618 32.18300 67.55459
#
# Velocity S-wave (km/s) = 7.00987 3.91976 5.67903
# Velocity P-wave (km/s) = 9.90368 8.08996 9.04241
#
# Compressibility (1/GPa) = 0.01466017
#
# Stress axis : x y z
#
# Youngs Moduli (GPa) = 61.28497 171.17556 78.62994
#
# Poissons Ratio (x) = 0.47012 0.32645
# Poissons Ratio (y) = 0.16832 0.25243
# Poissons Ratio (z) = 0.25443 0.54952
#
# Static dielectric constant tensor:
#      x y z
#    x 2.214970 0.000000 -0.098190 
#    y 0.000000 1.815440 0.000000 
#    z -0.098190 0.000000 1.743640 
# 
# From -- ./inp_files/2205.got.cif
#   From: 2010.05.17/outbox.cif.g08.bks.cpg/sg13_2_cif.got.tgz:2205.got - 2010.06.03 16:44:36.
