data_PCOD9228846
_publ_section_title
;
Structure prediction by ZEFSAII (Michael W. Deem and Ramdas Pophale) SiO2 
 PCOD9228846
Probable space group: P 2/C
;
_chemical_formula_sum "Si O2"
_cell_formula_units_Z 28
_cell_length_a 27.738435
_cell_length_b 11.118632
_cell_length_c 27.423646
_cell_angle_alpha 90.000000
_cell_angle_beta 169.689822
_cell_angle_gamma 90.000000
_cell_volume 1513.755392
_symmetry_space_group_name_H-M "P 2/C"
_symmetry_group_IT_number 13
_symmetry_cell_setting 'monoclinic'
loop_
_space_group_symop_operation_xyz
x,y,z
-x,y,1/2-z
-x,-y,-z
x,-y,1/2+z
loop_
_atom_site_type_symbol
_atom_site_label
_atom_site_fract_x
_atom_site_fract_y
_atom_site_fract_z
Si Si1 0.754504 0.920291 0.809917
Si Si2 0.347622 0.800911 0.689846
Si Si3 0.080825 0.956931 0.886909
Si Si4 0.119689 0.332956 0.814451
Si Si5 0.593945 0.171921 0.942921
Si Si6 0.745875 0.096245 0.194080
Si Si7 0.253832 0.598852 0.968728
O O1 0.663645 0.840885 0.765146
O O2 0.801917 0.856751 0.804715
O O3 0.513665 0.012437 0.562825
O O4 0.009321 0.005651 0.074946
O O5 0.218985 0.913268 0.531788
O O6 0.132382 0.694980 0.470294
O O7 0.632228 0.755367 0.951900
O O8 0.000000 0.935744 0.750000
O O9 0.794302 0.937575 0.627796
O O10 0.298256 0.866610 0.128828
O O11 0.206346 0.471093 0.896002
O O12 0.000000 0.316031 0.750000
O O13 0.661409 0.187370 0.067219
O O14 0.683332 0.290713 0.003780
O O15 0.000000 0.628649 0.750000
O O16 0.500000 0.580764 0.250000
#
# Coordination Sequence:
#
# PCOD9228846 Si02
#       7
#     4   4   4   4   4   4   4
#     4  10  20  35  58  84 116 150 185 231 282 352
#     4  12  21  38  58  83 117 150 186 236 285 342
#     4  12  24  34  52  86 120 150 176 230 295 348
#     4  11  24  39  57  78 110 155 200 231 270 335
#     4  12  21  38  58  83 116 149 189 236 284 340
#     4  10  19  36  57  85 116 148 189 228 285 349
#     4  11  23  40  58  78 108 154 202 234 270 332
#
# _framework density 18.497043999999999
#
# number of rings (size 3 to 8) (size 9 to 14) (size 15 to 20)
#    0.000    0.857    2.857    6.857    0.000    1.143 
#    0.000    0.714    0.000    1.714    0.000    0.000 
#    0.000    0.000    0.000    0.000    0.000    0.000 
#
# Total GULP energy -156219.616633 kJ/mol
# GULP energy per Si atom -5579.272023 kJ/mol
# Density = 1.845494 g / cm^3
# Si number density = 18.497044 Si / 1000 Ang^3
#
#
#
# Elastic Constant Matrix: (Units=GPa)
#
#
# Indices 1 2 3 4 5 6 
#
# 1 89.5487 29.1390 16.7751 0.0000 -23.2982 0.0000
# 2 29.1390 71.3681 12.8093 0.0000 -2.9837 0.0000
# 3 16.7751 12.8093 112.8624 0.0000 -0.5400 0.0000
# 4 0.0000 0.0000 0.0000 25.4565 0.0000 -4.4970
# 5 -23.2982 -2.9837 -0.5400 0.0000 31.7812 0.0000
# 6 0.0000 0.0000 0.0000 -4.4970 0.0000 21.0573
#
#
#
# Elastic Compliance Matrix: (Units=1/GPa)
#
#
# Indices 1 2 3 4 5 6 
#
# 1 0.016381 -0.005904 -0.001710 0.000000 0.011425 0.000000
# 2 -0.005904 0.016486 -0.001007 0.000000 -0.002797 0.000000
# 3 -0.001710 -0.001007 0.009223 0.000000 -0.001191 0.000000
# 4 0.000000 0.000000 0.000000 0.040823 0.000000 0.008718
# 5 0.011425 -0.002797 -0.001191 0.000000 0.039558 0.000000
# 6 0.000000 0.000000 0.000000 0.008718 0.000000 0.049351
#
#
# Mechanical properties :
#
#
# Convention : Reuss Voigt Hill
#
# Bulk Modulus (GPa) = 40.24340 43.46957 41.85648
# Shear Modulus (GPa) = 25.33614 29.99606 27.66610
#
# Velocity S-wave (km/s) = 3.70501 4.03136 3.87163
# Velocity P-wave (km/s) = 6.33299 6.72466 6.53176
#
# Compressibility (1/GPa) = 0.02484879
#
# Stress axis : x y z
#
# Youngs Moduli (GPa) = 61.04616 60.65732 108.42337
#
# Poissons Ratio (x) = 0.35810 0.18541
# Poissons Ratio (y) = 0.36040 0.10918
# Poissons Ratio (z) = 0.10439 0.06108
#
# Static dielectric constant tensor:
#      x y z
#    x 1.776610 0.000000 -0.001630 
#    y 0.000000 1.639850 0.000000 
#    z -0.001630 0.000000 1.624390 
# 
# From -- ./inp_files/94182.got.cif
#   From: 2010.05.17/outbox.cif.g08.bks.cpg/sg13_48_cif.got.tgz:94182.got - 2010.06.03 16:44:36.
