data_PCOD9228421
_publ_section_title
;
Structure prediction by ZEFSAII (Michael W. Deem and Ramdas Pophale) SiO2 
 PCOD9228421
Probable space group: P 2/C
;
_chemical_formula_sum "Si O2"
_cell_formula_units_Z 24
_cell_length_a 20.321703
_cell_length_b 7.109368
_cell_length_c 20.799696
_cell_angle_alpha 90.000000
_cell_angle_beta 154.172100
_cell_angle_gamma 90.000000
_cell_volume 1309.197584
_symmetry_space_group_name_H-M "P 2/C"
_symmetry_group_IT_number 13
_symmetry_cell_setting 'monoclinic'
loop_
_space_group_symop_operation_xyz
x,y,z
-x,y,1/2-z
-x,-y,-z
x,-y,1/2+z
loop_
_atom_site_type_symbol
_atom_site_label
_atom_site_fract_x
_atom_site_fract_y
_atom_site_fract_z
Si Si1 0.419832 0.483599 0.826098
Si Si2 0.866772 0.549904 0.508847
Si Si3 0.557769 0.788274 0.553753
Si Si4 0.284443 0.560636 0.985930
Si Si5 0.140851 0.172880 0.257135
Si Si6 0.078285 0.235431 0.750695
O O1 0.250283 0.466935 0.651948
O O2 0.450415 0.686739 0.884783
O O3 0.538703 0.443885 0.873581
O O4 0.460374 0.335123 0.917758
O O5 0.768992 0.571217 0.488084
O O6 0.983699 0.722083 0.604640
O O7 0.966506 0.363707 0.609734
O O8 0.731484 0.783647 0.683216
O O9 0.500000 0.000000 0.500000
O O10 0.206559 0.733044 0.879904
O O11 0.213785 0.374171 0.890494
O O12 0.123253 0.951951 0.253297
O O13 0.000000 0.184202 0.750000
#
# Coordination Sequence:
#
# PCOD9228421 Si02
#       6
#     4   4   4   4   4   4
#     4  10  21  37  55  77 105 136 176 220 260 310
#     4  10  20  33  54  84 108 131 168 219 273 311
#     4  10  22  39  56  72 100 146 186 214 253 309
#     4   9  18  34  56  79 106 138 170 210 263 319
#     4  10  19  34  55  77 107 141 175 214 256 312
#     4   9  17  31  52  77 106 137 169 209 261 317
#
# _framework density 18.33184
#
# number of rings (size 3 to 8) (size 9 to 14) (size 15 to 20)
#    0.000    2.333    0.000    4.000    0.000    3.333 
#    0.000    1.667    0.000    6.000    0.000    0.000 
#    0.000    0.000    0.000    0.000    0.000    0.000 
#
# Total GULP energy -133920.107017 kJ/mol
# GULP energy per Si atom -5580.004459 kJ/mol
# Density = 1.829012 g / cm^3
# Si number density = 18.331840 Si / 1000 Ang^3
#
#
#
# Elastic Constant Matrix: (Units=GPa)
#
#
# Indices 1 2 3 4 5 6 
#
# 1 40.9382 15.1898 25.4841 0.0000 -0.9074 0.0000
# 2 15.1898 84.5697 25.2165 0.0000 0.1753 0.0000
# 3 25.4841 25.2165 114.2662 0.0000 3.7671 0.0000
# 4 0.0000 0.0000 0.0000 -2.0866 0.0000 4.4717
# 5 -0.9074 0.1753 3.7671 0.0000 2.8148 0.0000
# 6 0.0000 0.0000 0.0000 4.4717 0.0000 15.9838
#
#
#
# Elastic Compliance Matrix: (Units=1/GPa)
#
#
# Indices 1 2 3 4 5 6 
#
# 1 0.030248 -0.003506 -0.006592 0.000000 0.018791 0.000000
# 2 -0.003506 0.013090 -0.002137 0.000000 0.000914 0.000000
# 3 -0.006592 -0.002137 0.011255 0.000000 -0.017055 0.000000
# 4 0.000000 0.000000 0.000000 -0.299616 0.000000 0.083823
# 5 0.018791 0.000914 -0.017055 0.000000 0.384091 0.000000
# 6 0.000000 0.000000 0.000000 0.083823 0.000000 0.039113
#
#
# Mechanical properties :
#
#
# Convention : Reuss Voigt Hill
#
# Bulk Modulus (GPa) = 33.19697 41.28388 37.24042
# Shear Modulus (GPa) = 23.50830 14.93465 19.22148
#
# Velocity S-wave (km/s) = 3.58491 2.85736 3.24161
# Velocity P-wave (km/s) = 5.94001 5.78405 5.86255
#
# Compressibility (1/GPa) = 0.03012323
#
# Stress axis : x y z
#
# Youngs Moduli (GPa) = 33.06006 76.39662 88.84614
#
# Poissons Ratio (x) = 0.26788 0.58565
# Poissons Ratio (y) = 0.11592 0.18984
# Poissons Ratio (z) = 0.21792 0.16324
#
# Static dielectric constant tensor:
#      x y z
#    x 1.641130 0.000000 0.022060 
#    y 0.000000 1.607330 0.000000 
#    z 0.022060 0.000000 1.608830 
# 
# From -- ./inp_files/81405.got.cif
#   From: 2010.05.17/outbox.cif.g08.bks.cpg/sg13_41_cif.got.tgz:81405.got - 2010.06.03 16:44:36.
