data_PCOD9228396
_publ_section_title
;
Structure prediction by ZEFSAII (Michael W. Deem and Ramdas Pophale) SiO2 
 PCOD9228396
Probable space group: P 2/C
;
_chemical_formula_sum "Si O2"
_cell_formula_units_Z 28
_cell_length_a 15.278812
_cell_length_b 16.826899
_cell_length_c 8.222762
_cell_angle_alpha 90.000000
_cell_angle_beta 136.945811
_cell_angle_gamma 90.000000
_cell_volume 1443.227445
_symmetry_space_group_name_H-M "P 2/C"
_symmetry_group_IT_number 13
_symmetry_cell_setting 'monoclinic'
loop_
_space_group_symop_operation_xyz
x,y,z
-x,y,1/2-z
-x,-y,-z
x,-y,1/2+z
loop_
_atom_site_type_symbol
_atom_site_label
_atom_site_fract_x
_atom_site_fract_y
_atom_site_fract_z
Si Si1 0.736683 0.836641 0.611786
Si Si2 0.500000 0.718326 0.250000
Si Si3 0.134779 0.609149 0.196324
Si Si4 0.000000 0.497339 0.750000
Si Si5 0.987665 0.226072 0.036894
Si Si6 0.598737 0.687754 0.031151
Si Si7 0.603434 0.021504 0.009697
Si Si8 0.732647 0.859818 0.224204
O O1 0.623863 0.771897 0.463967
O O2 0.873625 0.799436 0.835023
O O3 0.704696 0.910652 0.683274
O O4 0.741753 0.870713 0.432990
O O5 0.458475 0.675775 0.363710
O O6 0.110689 0.558986 0.326134
O O7 0.277495 0.632852 0.335368
O O8 0.066354 0.554651 0.969450
O O9 0.058979 0.691999 0.102730
O O10 0.000000 0.238105 0.250000
O O11 0.875251 0.161783 0.858682
O O12 0.500000 0.675443 0.750000
O O13 0.647399 0.780047 0.088273
O O14 0.672254 0.938394 0.062340
O O15 0.500000 0.061562 0.750000
O O16 0.500000 0.000000 0.000000
#
# Coordination Sequence:
#
# PCOD9228396 Si02
#       8
#     4   2   4   2   4   4   4   4
#     4  10  19  34  53  83 113 156 207 243 300 362
#     4  10  20  36  60  88 120 168 210 250 308 356
#     4  10  21  41  65  96 121 159 197 249 304 371
#     4  10  22  40  68  94 124 152 198 244 306 382
#     4   9  18  35  61  82 113 152 195 247 293 356
#     4  10  21  40  62  93 126 163 211 252 299 362
#     4  12  20  33  52  74 110 152 193 245 292 349
#     4   9  19  34  54  82 113 155 205 250 301 346
#
# _framework density 19.400962
#
# number of rings (size 3 to 8) (size 9 to 14) (size 15 to 20)
#    0.000    2.000    2.857    2.143    0.000    1.714 
#    2.571    2.143    0.000    0.000    0.000    0.000 
#    0.000    0.000    0.000    0.000    0.000    0.000 
#
# Total GULP energy -156001.319658 kJ/mol
# GULP energy per Si atom -5571.475702 kJ/mol
# Density = 1.935680 g / cm^3
# Si number density = 19.400962 Si / 1000 Ang^3
#
#
#
# Elastic Constant Matrix: (Units=GPa)
#
#
# Indices 1 2 3 4 5 6 
#
# 1 113.3123 46.1820 39.9553 0.0000 30.6467 0.0000
# 2 46.1820 78.7243 30.4809 0.0000 24.3342 0.0000
# 3 39.9553 30.4809 71.7314 0.0000 29.2421 0.0000
# 4 0.0000 0.0000 0.0000 12.2199 0.0000 26.8777
# 5 30.6467 24.3342 29.2421 0.0000 33.6141 0.0000
# 6 0.0000 0.0000 0.0000 26.8777 0.0000 -64.2889
#
#
#
# Elastic Compliance Matrix: (Units=1/GPa)
#
#
# Indices 1 2 3 4 5 6 
#
# 1 0.013536 -0.004872 -0.002907 0.000000 -0.006285 0.000000
# 2 -0.004872 0.018636 -0.002349 0.000000 -0.007005 0.000000
# 3 -0.002907 -0.002349 0.022909 0.000000 -0.015578 0.000000
# 4 0.000000 0.000000 0.000000 0.042632 0.000000 0.017823
# 5 -0.006285 -0.007005 -0.015578 0.000000 0.054102 0.000000
# 6 0.000000 0.000000 0.000000 0.017823 0.000000 -0.008103
#
#
# Mechanical properties :
#
#
# Convention : Reuss Voigt Hill
#
# Bulk Modulus (GPa) = 28.71662 55.22273 41.96967
# Shear Modulus (GPa) = 28.47759 6.11899 17.29829
#
# Velocity S-wave (km/s) = 3.83540 1.77787 2.98924
# Velocity P-wave (km/s) = 5.86920 5.72190 5.79602
#
# Compressibility (1/GPa) = 0.03482304
#
# Stress axis : x y z
#
# Youngs Moduli (GPa) = 73.87811 53.66055 43.65063
#
# Poissons Ratio (x) = 0.26145 0.12690
# Poissons Ratio (y) = 0.35995 0.10255
# Poissons Ratio (z) = 0.21478 0.12606
#
# Static dielectric constant tensor:
#      x y z
#    x 1.765590 0.000000 -0.041620 
#    y 0.000000 1.656060 0.000000 
#    z -0.041620 0.000000 1.664590 
# 
# From -- ./inp_files/20126.got.cif
#   From: 2010.05.17/outbox.cif.g08.bks.cpg/sg13_11_cif.got.tgz:20126.got - 2010.06.03 16:44:36.
