data_PCOD9228160
_publ_section_title
;
Structure prediction by ZEFSAII (Michael W. Deem and Ramdas Pophale) SiO2 
 PCOD9228160
Probable space group: P 2/C
;
_chemical_formula_sum "Si O2"
_cell_formula_units_Z 24
_cell_length_a 5.586038
_cell_length_b 10.336251
_cell_length_c 19.040150
_cell_angle_alpha 90.000000
_cell_angle_beta 114.448475
_cell_angle_gamma 90.000000
_cell_volume 1000.778530
_symmetry_space_group_name_H-M "P 2/C"
_symmetry_group_IT_number 13
_symmetry_cell_setting 'monoclinic'
loop_
_space_group_symop_operation_xyz
x,y,z
-x,y,1/2-z
-x,-y,-z
x,-y,1/2+z
loop_
_atom_site_type_symbol
_atom_site_label
_atom_site_fract_x
_atom_site_fract_y
_atom_site_fract_z
Si Si1 0.695814 0.454409 0.383834
Si Si2 0.000000 0.660580 0.250000
Si Si3 0.313903 0.824740 0.482956
Si Si4 0.500000 0.667922 0.250000
Si Si5 0.697885 0.838051 0.862554
Si Si6 0.774457 0.930670 0.620325
Si Si7 0.763118 0.459735 0.583843
O O1 0.614677 0.572836 0.323698
O O2 0.629564 0.313088 0.346024
O O3 0.519152 0.477939 0.431746
O O4 0.011750 0.458192 0.427541
O O5 0.752206 0.739737 0.249467
O O6 0.887413 0.566096 0.176662
O O7 0.183145 0.850612 0.543103
O O8 0.618292 0.843097 0.542875
O O9 0.251610 0.684282 0.447865
O O10 0.238076 0.927464 0.414825
O O11 0.423411 0.915168 0.837684
O O12 0.927472 0.883587 0.839214
#
# Coordination Sequence:
#
# PCOD9228160 Si02
#       7
#     4   2   4   2   4   4   4
#     4  10  20  32  49  74  98 125 154 196 243 284
#     4   8  16  32  46  68  92 122 160 188 228 288
#     4   9  21  32  52  68  97 128 164 191 235 280
#     4   8  16  32  48  64  94 128 158 182 230 294
#     4  10  19  33  49  70  98 124 159 194 232 280
#     4   9  20  34  49  68  94 132 165 187 228 283
#     4  10  20  31  51  72  97 125 154 196 243 280
#
# _framework density 23.981327
#
# number of rings (size 3 to 8) (size 9 to 14) (size 15 to 20)
#    1.000    1.667    0.000    1.500    2.333    1.333 
#    0.000    0.000    0.000    2.000    0.000    0.000 
#    0.000    0.000    0.000    0.000    0.000    0.000 
#
# Total GULP energy -133812.454477 kJ/mol
# GULP energy per Si atom -5575.518937 kJ/mol
# Density = 2.392674 g / cm^3
# Si number density = 23.981327 Si / 1000 Ang^3
#
#
#
# Elastic Constant Matrix: (Units=GPa)
#
#
# Indices 1 2 3 4 5 6 
#
# 1 234.3865 10.5891 -1.2206 0.0000 3.7537 0.0000
# 2 10.5891 55.4020 6.3752 0.0000 10.2282 0.0000
# 3 -1.2206 6.3752 32.7600 0.0000 5.9133 0.0000
# 4 0.0000 0.0000 0.0000 -9.9773 0.0000 -2.8809
# 5 3.7537 10.2282 5.9133 0.0000 10.3882 0.0000
# 6 0.0000 0.0000 0.0000 -2.8809 0.0000 0.5759
#
#
#
# Elastic Compliance Matrix: (Units=1/GPa)
#
#
# Indices 1 2 3 4 5 6 
#
# 1 0.004318 -0.000663 0.000506 0.000000 -0.001196 0.000000
# 2 -0.000663 0.022167 -0.000493 0.000000 -0.021305 0.000000
# 3 0.000506 -0.000493 0.034088 0.000000 -0.019101 0.000000
# 4 0.000000 0.000000 0.000000 -0.041003 0.000000 -0.205113
# 5 -0.001196 -0.021305 -0.019101 0.000000 0.128545 0.000000
# 6 0.000000 0.000000 0.000000 -0.205113 0.000000 0.710367
#
#
# Mechanical properties :
#
#
# Convention : Reuss Voigt Hill
#
# Bulk Modulus (GPa) = 16.87114 39.33731 28.10422
# Shear Modulus (GPa) = 5.68480 20.65103 13.16791
#
# Velocity S-wave (km/s) = 1.54132 2.93768 2.34581
# Velocity P-wave (km/s) = 3.19655 5.28636 4.36827
#
# Compressibility (1/GPa) = 0.05927282
#
# Stress axis : x y z
#
# Youngs Moduli (GPa) = 231.57895 45.11293 29.33615
#
# Poissons Ratio (x) = 0.02990 -0.01484
# Poissons Ratio (y) = 0.15349 0.01445
# Poissons Ratio (z) = -0.11711 0.02223
#
# Static dielectric constant tensor:
#      x y z
#    x 2.038710 0.000000 0.023010 
#    y 0.000000 1.805200 0.000000 
#    z 0.023010 0.000000 2.056450 
# 
# From -- ./inp_files/83419.got.cif
#   From: 2010.05.17/outbox.cif.g08.bks.cpg/sg13_42_cif.got.tgz:83419.got - 2010.06.03 16:44:36.
