data_PCOD9228721
_publ_section_title
;
Structure prediction by ZEFSAII (Michael W. Deem and Ramdas Pophale) SiO2 
 PCOD9228721
Probable space group: P 2/C
;
_chemical_formula_sum "Si O2"
_cell_formula_units_Z 24
_cell_length_a 11.778648
_cell_length_b 20.311462
_cell_length_c 13.316728
_cell_angle_alpha 90.000000
_cell_angle_beta 158.331227
_cell_angle_gamma 90.000000
_cell_volume 1176.368174
_symmetry_space_group_name_H-M "P 2/C"
_symmetry_group_IT_number 13
_symmetry_cell_setting 'monoclinic'
loop_
_space_group_symop_operation_xyz
x,y,z
-x,y,1/2-z
-x,-y,-z
x,-y,1/2+z
loop_
_atom_site_type_symbol
_atom_site_label
_atom_site_fract_x
_atom_site_fract_y
_atom_site_fract_z
Si Si1 0.103650 0.562328 0.721228
Si Si2 0.636323 0.878684 0.695285
Si Si3 0.000000 0.677996 0.250000
Si Si4 0.868144 0.893625 0.540582
Si Si5 0.500000 0.772544 0.750000
Si Si6 0.949030 0.954408 0.321435
Si Si7 0.176253 0.417526 0.716116
O O1 0.024942 0.485611 0.632669
O O2 0.000000 0.579212 0.750000
O O3 0.972972 0.600087 0.515033
O O4 0.469040 0.569435 0.016649
O O5 0.527611 0.819361 0.675414
O O6 0.365878 0.915661 0.409604
O O7 0.946430 0.856228 0.893229
O O8 0.766489 0.933697 0.877460
O O9 0.846371 0.632912 0.209890
O O10 0.220795 0.724968 0.495202
O O11 0.000000 0.863853 0.750000
O O12 0.500000 0.898016 0.250000
O O13 0.022575 0.966774 0.656896
O O14 0.000000 0.931535 0.250000
#
# Coordination Sequence:
#
# PCOD9228721 Si02
#       7
#     4   4   2   4   2   4   4
#     4  10  19  35  60  96 127 165 198 235 322 367
#     4  12  22  40  59  85 118 154 205 254 291 369
#     4  12  24  44  60  92 126 160 220 252 302 346
#     4  11  23  37  58  90 118 156 187 243 325 390
#     4  12  26  40  66  84 114 172 212 262 296 338
#     4  11  19  35  58  88 121 145 187 246 328 370
#     4  10  21  35  60  89 131 166 195 257 297 361
#
# _framework density 20.401775000000001
#
# number of rings (size 3 to 8) (size 9 to 14) (size 15 to 20)
#    0.000    1.000    2.500    6.500    0.000    0.000 
#    0.000    0.000    0.000   10.000    0.000    0.000 
#    0.000    0.000    0.000    0.000    0.000    0.000 
#
# Total GULP energy -133737.411536 kJ/mol
# GULP energy per Si atom -5572.392147 kJ/mol
# Density = 2.035534 g / cm^3
# Si number density = 20.401775 Si / 1000 Ang^3
#
#
#
# Elastic Constant Matrix: (Units=GPa)
#
#
# Indices 1 2 3 4 5 6 
#
# 1 106.1923 15.2251 11.4118 0.0000 17.0539 0.0000
# 2 15.2251 39.0291 7.4625 0.0000 14.8157 0.0000
# 3 11.4118 7.4625 97.7180 0.0000 3.3592 0.0000
# 4 0.0000 0.0000 0.0000 5.5066 0.0000 1.5157
# 5 17.0539 14.8157 3.3592 0.0000 43.2189 0.0000
# 6 0.0000 0.0000 0.0000 1.5157 0.0000 14.9229
#
#
#
# Elastic Compliance Matrix: (Units=1/GPa)
#
#
# Indices 1 2 3 4 5 6 
#
# 1 0.010401 -0.002706 -0.000901 0.000000 -0.003106 0.000000
# 2 -0.002706 0.030518 -0.001696 0.000000 -0.009262 0.000000
# 3 -0.000901 -0.001696 0.010464 0.000000 0.000124 0.000000
# 4 0.000000 0.000000 0.000000 0.186822 0.000000 -0.018975
# 5 -0.003106 -0.009262 0.000124 0.000000 0.027529 0.000000
# 6 0.000000 0.000000 0.000000 -0.018975 0.000000 0.068938
#
#
# Mechanical properties :
#
#
# Convention : Reuss Voigt Hill
#
# Bulk Modulus (GPa) = 24.52414 34.57091 29.54753
# Shear Modulus (GPa) = 13.93263 26.65238 20.29250
#
# Velocity S-wave (km/s) = 2.61609 3.61830 3.15722
# Velocity P-wave (km/s) = 4.60130 5.86839 5.27304
#
# Compressibility (1/GPa) = 0.04077614
#
# Stress axis : x y z
#
# Youngs Moduli (GPa) = 96.14912 32.76787 95.56532
#
# Poissons Ratio (x) = 0.08866 0.08612
# Poissons Ratio (y) = 0.26015 0.16210
# Poissons Ratio (z) = 0.08665 0.05558
#
# Static dielectric constant tensor:
#      x y z
#    x 1.914780 0.000000 0.039870 
#    y 0.000000 1.715730 0.000000 
#    z 0.039870 0.000000 1.749540 
# 
# From -- ./inp_files/51703.got.cif
#   From: 2010.05.17/outbox.cif.g08.bks.cpg/sg13_26_cif.got.tgz:51703.got - 2010.06.03 16:44:36.
