data_PCOD9228341
_publ_section_title
;
Structure prediction by ZEFSAII (Michael W. Deem and Ramdas Pophale) SiO2 
 PCOD9228341
Probable space group: P 2/C
;
_chemical_formula_sum "Si O2"
_cell_formula_units_Z 28
_cell_length_a 17.868740
_cell_length_b 9.535698
_cell_length_c 15.392690
_cell_angle_alpha 90.000000
_cell_angle_beta 145.232767
_cell_angle_gamma 90.000000
_cell_volume 1495.621030
_symmetry_space_group_name_H-M "P 2/C"
_symmetry_group_IT_number 13
_symmetry_cell_setting 'monoclinic'
loop_
_space_group_symop_operation_xyz
x,y,z
-x,y,1/2-z
-x,-y,-z
x,-y,1/2+z
loop_
_atom_site_type_symbol
_atom_site_label
_atom_site_fract_x
_atom_site_fract_y
_atom_site_fract_z
Si Si1 0.230270 0.357316 0.281358
Si Si2 0.998287 0.148837 0.045561
Si Si3 0.229238 0.362309 0.078071
Si Si4 0.647162 0.393675 0.920311
Si Si5 0.926205 0.362298 0.827763
Si Si6 0.842984 0.142740 0.613357
Si Si7 0.143592 0.839978 0.915706
O O1 0.140694 0.216226 0.207373
O O2 0.272849 0.365062 0.220564
O O3 0.336744 0.380750 0.459342
O O4 0.136690 0.490528 0.209350
O O5 0.895029 0.122872 0.023300
O O6 0.947319 0.268399 0.932489
O O7 0.000000 0.000000 0.000000
O O8 0.303556 0.466141 0.083247
O O9 0.232256 0.206422 0.040699
O O10 0.071442 0.392228 0.927309
O O11 0.500000 0.368011 0.750000
O O12 0.747487 0.276170 0.983608
O O13 0.837215 0.262535 0.681517
O O14 0.000000 0.133934 0.750000
O O15 0.811205 0.979388 0.592897
O O16 0.000000 0.784353 0.750000
#
# Coordination Sequence:
#
# PCOD9228341 Si02
#       7
#     4   4   4   4   4   4   4
#     4  11  21  37  60  88 121 160 202 253 305 361
#     4  11  20  33  60 100 125 148 199 252 314 371
#     4  10  20  37  59  85 122 152 196 254 307 353
#     4  12  26  40  59  88 124 168 212 250 301 366
#     4  10  19  33  58  92 120 150 191 253 308 361
#     4   9  18  33  56  88 118 150 188 245 307 358
#     4  11  20  36  60  88 121 158 197 256 308 359
#
# _framework density 18.721319000000001
#
# number of rings (size 3 to 8) (size 9 to 14) (size 15 to 20)
#    0.000    1.429    2.857    6.857    0.000    0.571 
#    0.000    0.714    0.000    3.429    0.000    0.000 
#    0.000    0.000    0.000    0.000    0.000    0.000 
#
# Total GULP energy -155941.230040 kJ/mol
# GULP energy per Si atom -5569.329644 kJ/mol
# Density = 1.867871 g / cm^3
# Si number density = 18.721319 Si / 1000 Ang^3
#
#
#
# Elastic Constant Matrix: (Units=GPa)
#
#
# Indices 1 2 3 4 5 6 
#
# 1 49.6168 15.8040 39.4970 0.0000 -16.5314 0.0000
# 2 15.8040 110.4526 46.6698 0.0000 6.5064 0.0000
# 3 39.4970 46.6698 120.4090 0.0000 -14.1680 0.0000
# 4 0.0000 0.0000 0.0000 7.0763 0.0000 -19.6451
# 5 -16.5314 6.5064 -14.1680 0.0000 24.7781 0.0000
# 6 0.0000 0.0000 0.0000 -19.6451 0.0000 22.9774
#
#
#
# Elastic Compliance Matrix: (Units=1/GPa)
#
#
# Indices 1 2 3 4 5 6 
#
# 1 0.033295 -0.002576 -0.007751 0.000000 0.018458 0.000000
# 2 -0.002576 0.011809 -0.004609 0.000000 -0.007455 0.000000
# 3 -0.007751 -0.004609 0.013046 0.000000 0.003498 0.000000
# 4 0.000000 0.000000 0.000000 -0.102883 0.000000 -0.087962
# 5 0.018458 -0.007455 0.003498 0.000000 0.056631 0.000000
# 6 0.000000 0.000000 0.000000 -0.087962 0.000000 -0.031684
#
#
# Mechanical properties :
#
#
# Convention : Reuss Voigt Hill
#
# Bulk Modulus (GPa) = 35.36485 53.82444 44.59465
# Shear Modulus (GPa) = 256.24733 22.86687 139.55710
#
# Velocity S-wave (km/s) = 11.71203 3.49869 8.64328
# Velocity P-wave (km/s) = 14.20658 6.71818 11.11217
#
# Compressibility (1/GPa) = 0.02827666
#
# Stress axis : x y z
#
# Youngs Moduli (GPa) = 30.03434 84.68119 76.65313
#
# Poissons Ratio (x) = 0.21815 0.59416
# Poissons Ratio (y) = 0.07737 0.35332
# Poissons Ratio (z) = 0.23280 0.39032
#
# Static dielectric constant tensor:
#      x y z
#    x 1.704650 0.000000 -0.077980 
#    y 0.000000 1.657470 0.000000 
#    z -0.077980 0.000000 1.704260 
# 
# From -- ./inp_files/70518.got.cif
#   From: 2010.05.17/outbox.cif.g08.bks.cpg/sg13_36_cif.got.tgz:70518.got - 2010.06.03 16:44:36.
