data_PCOD9228484
_publ_section_title
;
Structure prediction by ZEFSAII (Michael W. Deem and Ramdas Pophale) SiO2 
 PCOD9228484
Probable space group: P 2/C
;
_chemical_formula_sum "Si O2"
_cell_formula_units_Z 18
_cell_length_a 7.187925
_cell_length_b 20.016995
_cell_length_c 7.683882
_cell_angle_alpha 90.000000
_cell_angle_beta 39.906817
_cell_angle_gamma 90.000000
_cell_volume 709.263247
_symmetry_space_group_name_H-M "P 2/C"
_symmetry_group_IT_number 13
_symmetry_cell_setting 'monoclinic'
loop_
_space_group_symop_operation_xyz
x,y,z
-x,y,1/2-z
-x,-y,-z
x,-y,1/2+z
loop_
_atom_site_type_symbol
_atom_site_label
_atom_site_fract_x
_atom_site_fract_y
_atom_site_fract_z
Si Si1 0.500000 0.483480 0.250000
Si Si2 0.761530 0.587356 0.274103
Si Si3 0.828455 0.728928 0.051502
Si Si4 0.131378 0.859071 0.854113
Si Si5 0.374263 0.071029 0.647797
O O1 0.748097 0.538120 0.119803
O O2 0.509661 0.434942 0.410900
O O3 0.782987 0.662644 0.196072
O O4 0.000000 0.575201 0.250000
O O5 0.500000 0.754384 0.250000
O O6 0.000000 0.711810 0.750000
O O7 0.023118 0.787220 0.996737
O O8 0.467831 0.874395 0.586522
O O9 0.000000 0.861083 0.750000
O O10 0.966585 0.916171 0.082687
O O11 0.500000 0.080406 0.750000
O O12 0.500000 0.000000 0.500000
#
# Coordination Sequence:
#
# PCOD9228484 Si02
#       5
#     2   4   4   4   4
#     4  10  24  46  64  98 132 178 228 286 356 410
#     4  11  24  41  68  96 134 176 230 288 347 412
#     4  11  23  41  67  96 128 176 227 279 345 410
#     4   9  18  35  58  84 120 162 212 256 320 395
#     4  10  19  34  57  87 118 162 207 262 317 383
#
# _framework density 25.378446
#
# number of rings (size 3 to 8) (size 9 to 14) (size 15 to 20)
#    0.000    1.778    1.111    4.667    3.111    0.889 
#    0.000    2.222    0.000    0.000    0.000    0.000 
#    0.000    0.000    0.000    0.000    0.000    0.000 
#
# Total GULP energy -100492.508501 kJ/mol
# GULP energy per Si atom -5582.917139 kJ/mol
# Density = 2.532068 g / cm^3
# Si number density = 25.378446 Si / 1000 Ang^3
#
#
#
# Elastic Constant Matrix: (Units=GPa)
#
#
# Indices 1 2 3 4 5 6 
#
# 1 71.6424 6.5440 14.0593 0.0000 15.4180 0.0000
# 2 6.5440 192.5579 70.7384 0.0000 15.7013 0.0000
# 3 14.0593 70.7384 130.1307 0.0000 0.7372 0.0000
# 4 0.0000 0.0000 0.0000 52.3688 0.0000 10.2188
# 5 15.4180 15.7013 0.7372 0.0000 46.0547 0.0000
# 6 0.0000 0.0000 0.0000 10.2188 0.0000 21.2618
#
#
#
# Elastic Compliance Matrix: (Units=1/GPa)
#
#
# Indices 1 2 3 4 5 6 
#
# 1 0.015442 0.000642 -0.001987 0.000000 -0.005357 0.000000
# 2 0.000642 0.006737 -0.003718 0.000000 -0.002452 0.000000
# 3 -0.001987 -0.003718 0.009910 0.000000 0.001774 0.000000
# 4 0.000000 0.000000 0.000000 0.021071 0.000000 -0.010127
# 5 -0.005357 -0.002452 0.001774 0.000000 0.024314 0.000000
# 6 0.000000 0.000000 0.000000 -0.010127 0.000000 0.051900
#
#
# Mechanical properties :
#
#
# Convention : Reuss Voigt Hill
#
# Bulk Modulus (GPa) = 45.52900 64.11271 54.82085
# Shear Modulus (GPa) = 34.05474 44.13634 39.09554
#
# Velocity S-wave (km/s) = 3.66714 4.17481 3.92918
# Velocity P-wave (km/s) = 5.99245 6.96823 6.49868
#
# Compressibility (1/GPa) = 0.02196402
#
# Stress axis : x y z
#
# Youngs Moduli (GPa) = 64.75711 148.43094 100.90663
#
# Poissons Ratio (x) = -0.09528 0.20050
# Poissons Ratio (y) = -0.04157 0.37514
# Poissons Ratio (z) = 0.12867 0.55183
#
# Static dielectric constant tensor:
#      x y z
#    x 2.041840 0.000000 -0.027480 
#    y 0.000000 1.991400 0.000000 
#    z -0.027480 0.000000 2.409160 
# 
# From -- ./inp_files/13389.got.cif
#   From: 2010.05.17/outbox.cif.g08.bks.cpg/sg13_7_cif.got.tgz:13389.got - 2010.06.03 16:44:36.
