data_PCOD9228097
_publ_section_title
;
Structure prediction by ZEFSAII (Michael W. Deem and Ramdas Pophale) SiO2 
 PCOD9228097
Probable space group: P 2/C
;
_chemical_formula_sum "Si O2"
_cell_formula_units_Z 20
_cell_length_a 6.956131
_cell_length_b 25.284744
_cell_length_c 5.316280
_cell_angle_alpha 90.000000
_cell_angle_beta 100.525216
_cell_angle_gamma 90.000000
_cell_volume 919.315990
_symmetry_space_group_name_H-M "P 2/C"
_symmetry_group_IT_number 13
_symmetry_cell_setting 'monoclinic'
loop_
_space_group_symop_operation_xyz
x,y,z
-x,y,1/2-z
-x,-y,-z
x,-y,1/2+z
loop_
_atom_site_type_symbol
_atom_site_label
_atom_site_fract_x
_atom_site_fract_y
_atom_site_fract_z
Si Si1 0.633499 0.863569 0.031530
Si Si2 0.220188 0.478051 0.028369
Si Si3 0.365055 0.250930 0.967677
Si Si4 0.226703 0.976841 0.333306
Si Si5 0.634520 0.365973 0.532363
O O1 0.500000 0.863972 0.250000
O O2 0.739430 0.806164 0.052354
O O3 0.760398 0.916243 0.078451
O O4 0.500000 0.866962 0.750000
O O5 0.309603 0.487749 0.323957
O O6 0.229199 0.416997 0.954717
O O7 0.000000 0.500000 0.000000
O O8 0.500000 0.250874 0.750000
O O9 0.262674 0.308203 0.939367
O O10 0.500000 0.250926 0.250000
O O11 0.000000 0.992080 0.250000
O O12 0.311362 0.013140 0.576080
O O13 0.500000 0.370467 0.750000
O O14 0.500000 0.366968 0.250000
#
# Coordination Sequence:
#
# PCOD9228097 Si02
#       5
#     4   4   4   4   4
#     4  10  19  32  53  78 103 132 170 218 259 303
#     4  10  21  35  50  71 103 139 162 204 257 308
#     4   8  16  30  48  74 100 126 160 207 260 294
#     4  10  21  35  50  72 105 143 172 209 257 305
#     4  10  19  32  53  78 101 130 173 213 249 306
#
# _framework density 21.755306000000001
#
# number of rings (size 3 to 8) (size 9 to 14) (size 15 to 20)
#    0.000    2.400    0.000    2.400    0.000    4.800 
#    0.000    0.000    4.400    0.000   10.400    0.000 
#    0.000    0.000    0.000    0.000    0.000    0.000 
#
# Total GULP energy -111495.876003 kJ/mol
# GULP energy per Si atom -5574.793800 kJ/mol
# Density = 2.170579 g / cm^3
# Si number density = 21.755306 Si / 1000 Ang^3
#
#
#
# Elastic Constant Matrix: (Units=GPa)
#
#
# Indices 1 2 3 4 5 6 
#
# 1 35.5665 5.6763 29.1434 0.0000 -2.7371 0.0000
# 2 5.6763 207.0909 34.4811 0.0000 2.8131 0.0000
# 3 29.1434 34.4811 174.8724 0.0000 -27.7045 0.0000
# 4 0.0000 0.0000 0.0000 52.6094 0.0000 -14.0396
# 5 -2.7371 2.8131 -27.7045 0.0000 24.9108 0.0000
# 6 0.0000 0.0000 0.0000 -14.0396 0.0000 -9.0245
#
#
#
# Elastic Compliance Matrix: (Units=1/GPa)
#
#
# Indices 1 2 3 4 5 6 
#
# 1 0.032751 0.000138 -0.005969 0.000000 -0.003056 0.000000
# 2 0.000138 0.005078 -0.001351 0.000000 -0.002060 0.000000
# 3 -0.005969 -0.001351 0.008376 0.000000 0.008811 0.000000
# 4 0.000000 0.000000 0.000000 0.013432 0.000000 -0.020896
# 5 -0.003056 -0.002060 0.008811 0.000000 0.049840 0.000000
# 6 0.000000 0.000000 0.000000 -0.020896 0.000000 -0.078301
#
#
# Mechanical properties :
#
#
# Convention : Reuss Voigt Hill
#
# Bulk Modulus (GPa) = 31.40749 61.79237 46.59993
# Shear Modulus (GPa) = 89.04449 36.91440 62.97945
#
# Velocity S-wave (km/s) = 6.40460 4.12369 5.38627
# Velocity P-wave (km/s) = 8.31624 7.15109 7.75558
#
# Compressibility (1/GPa) = 0.03183954
#
# Stress axis : x y z
#
# Youngs Moduli (GPa) = 30.53387 196.93212 119.39495
#
# Poissons Ratio (x) = -0.02713 0.71271
# Poissons Ratio (y) = -0.00421 0.16126
# Poissons Ratio (z) = 0.18227 0.26598
#
# Static dielectric constant tensor:
#      x y z
#    x 1.682880 0.000000 -0.027610 
#    y 0.000000 1.836270 0.000000 
#    z -0.027610 0.000000 1.815290 
# 
# From -- ./inp_files/2086.got.cif
#   From: 2010.05.17/outbox.cif.g08.bks.cpg/sg13_2_cif.got.tgz:2086.got - 2010.06.03 16:44:36.
