data_PCOD9228075
_publ_section_title
;
Structure prediction by ZEFSAII (Michael W. Deem and Ramdas Pophale) SiO2 
 PCOD9228075
Probable space group: P 2/C
;
_chemical_formula_sum "Si O2"
_cell_formula_units_Z 28
_cell_length_a 16.620719
_cell_length_b 6.874247
_cell_length_c 17.948491
_cell_angle_alpha 90.000000
_cell_angle_beta 29.460832
_cell_angle_gamma 90.000000
_cell_volume 1008.594366
_symmetry_space_group_name_H-M "P 2/C"
_symmetry_group_IT_number 13
_symmetry_cell_setting 'monoclinic'
loop_
_space_group_symop_operation_xyz
x,y,z
-x,y,1/2-z
-x,-y,-z
x,-y,1/2+z
loop_
_atom_site_type_symbol
_atom_site_label
_atom_site_fract_x
_atom_site_fract_y
_atom_site_fract_z
Si Si1 0.260258 0.446700 0.130850
Si Si2 0.333625 0.931690 0.216335
Si Si3 0.068933 0.479042 0.528616
Si Si4 0.184875 0.004123 0.177686
Si Si5 0.159173 0.092014 0.992510
Si Si6 0.596984 0.875743 0.609103
Si Si7 0.389146 0.471413 0.191031
O O1 0.215749 0.234313 0.132671
O O2 0.338700 0.398437 0.149371
O O3 0.094337 0.564182 0.289306
O O4 0.412426 0.544709 0.962380
O O5 0.175186 0.971691 0.393993
O O6 0.369553 0.705191 0.201667
O O7 0.291463 0.966681 0.165608
O O8 0.475370 0.055958 0.141251
O O9 0.120397 0.682146 0.523785
O O10 0.250689 0.394411 0.361103
O O11 0.000000 0.500000 0.500000
O O12 0.996487 0.987689 0.348817
O O13 0.236752 0.857016 0.071493
O O14 0.329226 0.043750 0.894945
O O15 0.500000 0.753342 0.750000
#
# Coordination Sequence:
#
# PCOD9228075 Si02
#       7
#     4   4   4   4   4   4   4
#     4   9  17  27  47  73  97 125 162 206 255 301
#     4  10  19  32  52  77 103 131 175 224 264 311
#     4   8  15  28  46  70 100 128 161 206 254 306
#     4  11  19  32  52  78  99 132 181 222 258 317
#     4   9  19  32  49  76 106 135 170 221 273 317
#     4  10  20  32  46  71 105 138 168 215 274 318
#     4   9  16  29  45  72 101 125 157 209 256 300
#
# _framework density 27.761406000000001
#
# number of rings (size 3 to 8) (size 9 to 14) (size 15 to 20)
#    0.000    2.571    1.429    1.286    0.000    0.000 
#    0.000    0.000    0.000    0.000    0.000   72.000 
#    0.000    0.000    0.000    0.000    0.000    0.000 
#
# Total GULP energy -156159.139355 kJ/mol
# GULP energy per Si atom -5577.112120 kJ/mol
# Density = 2.769822 g / cm^3
# Si number density = 27.761406 Si / 1000 Ang^3
#
#
#
# Elastic Constant Matrix: (Units=GPa)
#
#
# Indices 1 2 3 4 5 6 
#
# 1 115.5045 1.7761 47.0987 0.0000 -20.2036 0.0000
# 2 1.7761 79.5372 23.6968 0.0000 -19.4361 0.0000
# 3 47.0987 23.6968 317.7730 0.0000 9.5908 0.0000
# 4 0.0000 0.0000 0.0000 27.6100 0.0000 -16.7881
# 5 -20.2036 -19.4361 9.5908 0.0000 50.0801 0.0000
# 6 0.0000 0.0000 0.0000 -16.7881 0.0000 -5.2653
#
#
#
# Elastic Compliance Matrix: (Units=1/GPa)
#
#
# Indices 1 2 3 4 5 6 
#
# 1 0.010251 0.001544 -0.001788 0.000000 0.005077 0.000000
# 2 0.001544 0.014598 -0.001516 0.000000 0.006579 0.000000
# 3 -0.001788 -0.001516 0.003585 0.000000 -0.001996 0.000000
# 4 0.000000 0.000000 0.000000 0.012325 0.000000 -0.039297
# 5 0.005077 0.006579 -0.001996 0.000000 0.024952 0.000000
# 6 0.000000 0.000000 0.000000 -0.039297 0.000000 -0.064628
#
#
# Mechanical properties :
#
#
# Convention : Reuss Voigt Hill
#
# Bulk Modulus (GPa) = 40.13648 73.10644 56.62146
# Shear Modulus (GPa) = 387.42878 43.83452 215.63165
#
# Velocity S-wave (km/s) = 11.82622 3.97794 8.82280
# Velocity P-wave (km/s) = 14.17634 6.89128 11.14581
#
# Compressibility (1/GPa) = 0.02491499
#
# Stress axis : x y z
#
# Youngs Moduli (GPa) = 97.55143 68.50485 278.92666
#
# Poissons Ratio (x) = -0.10580 0.49865
# Poissons Ratio (y) = -0.15066 0.42286
# Poissons Ratio (z) = 0.17440 0.10385
#
# Static dielectric constant tensor:
#      x y z
#    x 1.932920 0.000000 -0.005310 
#    y 0.000000 2.333600 0.000000 
#    z -0.005310 0.000000 2.381400 
# 
# From -- ./inp_files/69648.got.cif
#   From: 2010.05.17/outbox.cif.g08.bks.cpg/sg13_35_cif.got.tgz:69648.got - 2010.06.03 16:44:36.
