data_PCOD9228450
_publ_section_title
;
Structure prediction by ZEFSAII (Michael W. Deem and Ramdas Pophale) SiO2 
 PCOD9228450
Probable space group: P 2/C
;
_chemical_formula_sum "Si O2"
_cell_formula_units_Z 24
_cell_length_a 8.117304
_cell_length_b 27.329877
_cell_length_c 5.238402
_cell_angle_alpha 90.000000
_cell_angle_beta 89.502610
_cell_angle_gamma 90.000000
_cell_volume 1162.069083
_symmetry_space_group_name_H-M "P 2/C"
_symmetry_group_IT_number 13
_symmetry_cell_setting 'monoclinic'
loop_
_space_group_symop_operation_xyz
x,y,z
-x,y,1/2-z
-x,-y,-z
x,-y,1/2+z
loop_
_atom_site_type_symbol
_atom_site_label
_atom_site_fract_x
_atom_site_fract_y
_atom_site_fract_z
Si Si1 0.198887 0.640243 0.745099
Si Si2 0.191776 0.808991 0.173641
Si Si3 0.201409 0.302731 0.744246
Si Si4 0.800537 0.029322 0.251144
Si Si5 0.687697 0.859830 0.826362
Si Si6 0.698906 0.528207 0.752606
O O1 0.256384 0.673785 0.509459
O O2 0.250828 0.584272 0.716087
O O3 0.000000 0.641685 0.750000
O O4 0.256720 0.663309 0.010271
O O5 0.252408 0.753176 0.199203
O O6 0.280415 0.841791 0.386778
O O7 0.000000 0.809968 0.250000
O O8 0.211690 0.829109 0.887299
O O9 0.000000 0.302634 0.750000
O O10 0.734165 0.083414 0.297853
O O11 0.000000 0.032083 0.250000
O O12 0.749499 0.993474 0.481534
O O13 0.500000 0.852783 0.750000
O O14 0.500000 0.526477 0.750000
O O15 0.758477 0.504740 0.487398
#
# Coordination Sequence:
#
# PCOD9228450 Si02
#       6
#     4   4   4   4   4   4
#     4  10  19  34  56  82 108 135 178 233 284 328
#     4  11  22  41  66  87 116 163 208 239 286 359
#     4   9  19  35  57  83 109 141 184 235 281 329
#     4  10  21  38  61  87 115 153 202 245 285 349
#     4  12  25  40  60  92 129 157 192 249 307 348
#     4  10  21  36  52  73 105 143 180 217 265 331
#
# _framework density 20.652815
#
# number of rings (size 3 to 8) (size 9 to 14) (size 15 to 20)
#    0.000    1.667    0.000    5.000    0.000    5.333 
#    0.000    5.000    0.000    0.000    0.000    0.000 
#    0.000    0.000    0.000    0.000    0.000    0.000 
#
# Total GULP energy -134211.253505 kJ/mol
# GULP energy per Si atom -5592.135563 kJ/mol
# Density = 2.060581 g / cm^3
# Si number density = 20.652815 Si / 1000 Ang^3
#
#
#
# Elastic Constant Matrix: (Units=GPa)
#
#
# Indices 1 2 3 4 5 6 
#
# 1 14.9737 -8.7894 -6.9893 0.0000 3.1833 0.0000
# 2 -8.7894 105.8730 4.6465 0.0000 -5.0533 0.0000
# 3 -6.9893 4.6465 87.2326 0.0000 -1.2188 0.0000
# 4 0.0000 0.0000 0.0000 44.5420 0.0000 -20.6549
# 5 3.1833 -5.0533 -1.2188 0.0000 12.6468 0.0000
# 6 0.0000 0.0000 0.0000 -20.6549 0.0000 76.7463
#
#
#
# Elastic Compliance Matrix: (Units=1/GPa)
#
#
# Indices 1 2 3 4 5 6 
#
# 1 0.075988 0.005277 0.005577 0.000000 -0.016481 0.000000
# 2 0.005277 0.010014 -0.000073 0.000000 0.002666 0.000000
# 3 0.005577 -0.000073 0.011910 0.000000 -0.000285 0.000000
# 4 0.000000 0.000000 0.000000 0.025652 0.000000 0.006904
# 5 -0.016481 0.002666 -0.000285 0.000000 0.084257 0.000000
# 6 0.000000 0.000000 0.000000 0.006904 0.000000 0.014888
#
#
# Mechanical properties :
#
#
# Convention : Reuss Voigt Hill
#
# Bulk Modulus (GPa) = 8.37004 20.64611 14.50808
# Shear Modulus (GPa) = 20.74919 41.40114 31.07517
#
# Velocity S-wave (km/s) = 3.17309 4.48216 3.88318
# Velocity P-wave (km/s) = 4.18165 6.06670 5.21013
#
# Compressibility (1/GPa) = 0.11947375
#
# Stress axis : x y z
#
# Youngs Moduli (GPa) = 13.15992 99.86195 83.96046
#
# Poissons Ratio (x) = -0.52697 -0.46825
# Poissons Ratio (y) = -0.06944 0.00616
# Poissons Ratio (z) = -0.07339 0.00732
#
# Static dielectric constant tensor:
#      x y z
#    x 1.766310 0.000000 -0.007630 
#    y 0.000000 1.682070 0.000000 
#    z -0.007630 0.000000 1.721070 
# 
# From -- ./inp_files/2419.got.cif
#   From: 2010.05.17/outbox.cif.g08.bks.cpg/sg13_2_cif.got.tgz:2419.got - 2010.06.03 16:44:36.
