data_PCOD9228842
_publ_section_title
;
Structure prediction by ZEFSAII (Michael W. Deem and Ramdas Pophale) SiO2 
 PCOD9228842
Probable space group: P 2/C
;
_chemical_formula_sum "Si O2"
_cell_formula_units_Z 28
_cell_length_a 11.905572
_cell_length_b 8.522157
_cell_length_c 14.554488
_cell_angle_alpha 90.000000
_cell_angle_beta 109.660880
_cell_angle_gamma 90.000000
_cell_volume 1390.623368
_symmetry_space_group_name_H-M "P 2/C"
_symmetry_group_IT_number 13
_symmetry_cell_setting 'monoclinic'
loop_
_space_group_symop_operation_xyz
x,y,z
-x,y,1/2-z
-x,-y,-z
x,-y,1/2+z
loop_
_atom_site_type_symbol
_atom_site_label
_atom_site_fract_x
_atom_site_fract_y
_atom_site_fract_z
Si Si1 0.306076 0.520110 0.529974
Si Si2 0.120336 0.597802 0.726018
Si Si3 0.235390 0.024690 0.556494
Si Si4 0.085848 0.716484 0.508352
Si Si5 0.535630 0.192377 0.365916
Si Si6 0.819801 0.312878 0.855934
Si Si7 0.697973 0.765475 0.596761
O O1 0.182575 0.614467 0.478273
O O2 0.405291 0.646006 0.582676
O O3 0.272916 0.410998 0.607608
O O4 0.337728 0.400718 0.458718
O O5 0.095444 0.655887 0.615610
O O6 0.169269 0.418889 0.731653
O O7 0.212280 0.716852 0.797941
O O8 0.000000 0.598400 0.750000
O O9 0.219540 0.133341 0.642456
O O10 0.239852 0.133515 0.466618
O O11 0.131874 0.895141 0.519483
O O12 0.360824 0.935742 0.596720
O O13 0.953125 0.690627 0.435811
O O14 0.500000 0.209407 0.250000
O O15 0.418914 0.154969 0.393464
#
# Coordination Sequence:
#
# PCOD9228842 Si02
#       7
#     4   4   4   4   4   4   4
#     4   9  19  35  58  84 109 148 193 233 281 335
#     4  11  21  36  60  90 116 149 192 237 285 343
#     4  10  22  38  58  85 115 156 192 232 291 348
#     4  10  19  37  61  86 120 156 188 232 287 342
#     4  11  22  40  60  82 113 152 195 242 291 343
#     4  10  19  36  57  83 116 150 188 234 281 334
#     4  11  21  38  60  86 118 153 193 240 287 341
#
# _framework density 20.134855000000002
#
# number of rings (size 3 to 8) (size 9 to 14) (size 15 to 20)
#    0.000    1.714    0.000    8.143    0.000    0.000 
#    0.000   16.429    0.000    0.000    0.000    0.000 
#    0.000    0.000    0.000    0.000    0.000    0.000 
#
# Total GULP energy -156324.278164 kJ/mol
# GULP energy per Si atom -5583.009934 kJ/mol
# Density = 2.008903 g / cm^3
# Si number density = 20.134855 Si / 1000 Ang^3
#
#
#
# Elastic Constant Matrix: (Units=GPa)
#
#
# Indices 1 2 3 4 5 6 
#
# 1 82.1713 24.1875 31.7571 0.0000 -5.0857 0.0000
# 2 24.1875 109.4956 19.0781 0.0000 -0.1609 0.0000
# 3 31.7571 19.0781 47.7629 0.0000 -2.7362 0.0000
# 4 0.0000 0.0000 0.0000 1.1125 0.0000 6.5540
# 5 -5.0857 -0.1609 -2.7362 0.0000 19.1811 0.0000
# 6 0.0000 0.0000 0.0000 6.5540 0.0000 20.5766
#
#
#
# Elastic Compliance Matrix: (Units=1/GPa)
#
#
# Indices 1 2 3 4 5 6 
#
# 1 0.016903 -0.001936 -0.010294 0.000000 0.002997 0.000000
# 2 -0.001936 0.010042 -0.002771 0.000000 -0.000824 0.000000
# 3 -0.010294 -0.002771 0.028967 0.000000 0.001380 0.000000
# 4 0.000000 0.000000 0.000000 -1.025531 0.000000 0.326650
# 5 0.002997 -0.000824 0.001380 0.000000 0.053119 0.000000
# 6 0.000000 0.000000 0.000000 0.326650 0.000000 -0.055445
#
#
# Mechanical properties :
#
#
# Convention : Reuss Voigt Hill
#
# Bulk Modulus (GPa) = 38.59456 43.27501 40.93479
# Shear Modulus (GPa) = -5.35730 19.13450 6.88860
#
# Velocity S-wave (km/s) = -1.63294 3.08607 1.85166
# Velocity P-wave (km/s) = 3.95656 5.85129 4.99460
#
# Compressibility (1/GPa) = 0.02591038
#
# Stress axis : x y z
#
# Youngs Moduli (GPa) = 59.15971 99.58109 34.52201
#
# Poissons Ratio (x) = 0.19279 0.35537
# Poissons Ratio (y) = 0.11453 0.09567
# Poissons Ratio (z) = 0.60899 0.27595
#
# Static dielectric constant tensor:
#      x y z
#    x 1.695940 0.000000 -0.012500 
#    y 0.000000 1.746010 0.000000 
#    z -0.012500 0.000000 1.705910 
# 
# From -- ./inp_files/50090.got.cif
#   From: 2010.05.17/outbox.cif.g08.bks.cpg/sg13_26_cif.got.tgz:50090.got - 2010.06.03 16:44:36.
