data_PCOD9228832
_publ_section_title
;
Structure prediction by ZEFSAII (Michael W. Deem and Ramdas Pophale) SiO2 
 PCOD9228832
Probable space group: P 2/C
;
_chemical_formula_sum "Si O2"
_cell_formula_units_Z 26
_cell_length_a 18.533508
_cell_length_b 14.829432
_cell_length_c 8.887457
_cell_angle_alpha 90.000000
_cell_angle_beta 148.862211
_cell_angle_gamma 90.000000
_cell_volume 1263.084729
_symmetry_space_group_name_H-M "P 2/C"
_symmetry_group_IT_number 13
_symmetry_cell_setting 'monoclinic'
loop_
_space_group_symop_operation_xyz
x,y,z
-x,y,1/2-z
-x,-y,-z
x,-y,1/2+z
loop_
_atom_site_type_symbol
_atom_site_label
_atom_site_fract_x
_atom_site_fract_y
_atom_site_fract_z
Si Si1 0.000000 0.995187 0.250000
Si Si2 0.796321 0.203128 0.688463
Si Si3 0.900820 0.877565 0.803531
Si Si4 0.132967 0.604578 0.206168
Si Si5 0.818152 0.583080 0.564101
Si Si6 0.546968 0.906253 0.660331
Si Si7 0.330382 0.240309 0.704141
O O1 0.076402 0.935798 0.508873
O O2 0.887932 0.055552 0.138897
O O3 0.797499 0.302260 0.617372
O O4 0.708665 0.123639 0.454279
O O5 0.734264 0.221846 0.744002
O O6 0.956748 0.174574 0.979060
O O7 0.773031 0.811793 0.591086
O O8 0.193231 0.519992 0.404342
O O9 0.160252 0.587812 0.077267
O O10 0.963382 0.612283 0.906634
O O11 0.692510 0.653842 0.369286
O O12 0.500000 0.914028 0.750000
O O13 0.471890 0.816804 0.457978
O O14 0.500000 0.000000 0.500000
#
# Coordination Sequence:
#
# PCOD9228832 Si02
#       7
#     2   4   4   4   4   4   4
#     4  10  24  30  52  80 106 136 180 236 262 318
#     4  10  19  36  57  78 107 146 180 219 270 328
#     4  11  20  36  53  78 105 138 184 221 275 315
#     4   9  17  32  54  80 106 137 173 220 271 321
#     4   9  17  32  54  80 106 137 173 220 271 321
#     4  10  24  38  55  78 110 146 185 222 267 320
#     4  10  19  36  57  78 107 146 180 219 270 328
#
# _framework density 20.584524999999999
#
# number of rings (size 3 to 8) (size 9 to 14) (size 15 to 20)
#    0.000    2.154    3.077    0.000    4.308    0.000 
#    2.769    0.769    0.000    0.000    0.000    0.000 
#    0.000    0.000    0.000    0.000    0.000    0.000 
#
# Total GULP energy -144958.270221 kJ/mol
# GULP energy per Si atom -5575.318085 kJ/mol
# Density = 2.053767 g / cm^3
# Si number density = 20.584525 Si / 1000 Ang^3
#
#
#
# Elastic Constant Matrix: (Units=GPa)
#
#
# Indices 1 2 3 4 5 6 
#
# 1 8.0748 9.8874 0.2578 0.0000 -5.4174 0.0000
# 2 9.8874 132.6206 27.5349 0.0000 -11.0050 0.0000
# 3 0.2578 27.5349 45.3184 0.0000 -0.1196 0.0000
# 4 0.0000 0.0000 0.0000 44.6682 0.0000 -4.8614
# 5 -5.4174 -11.0050 -0.1196 0.0000 14.4282 0.0000
# 6 0.0000 0.0000 0.0000 -4.8614 0.0000 21.3669
#
#
#
# Elastic Compliance Matrix: (Units=1/GPa)
#
#
# Indices 1 2 3 4 5 6 
#
# 1 0.174048 -0.009100 0.004693 0.000000 0.058447 0.000000
# 2 -0.009100 0.009769 -0.005873 0.000000 0.003986 0.000000
# 3 0.004693 -0.005873 0.025601 0.000000 -0.002505 0.000000
# 4 0.000000 0.000000 0.000000 0.022956 0.000000 0.005223
# 5 0.058447 0.003986 -0.002505 0.000000 0.094273 0.000000
# 6 0.000000 0.000000 0.000000 0.005223 0.000000 0.047990
#
#
# Mechanical properties :
#
#
# Convention : Reuss Voigt Hill
#
# Bulk Modulus (GPa) = 5.29500 29.04157 17.16828
# Shear Modulus (GPa) = 10.91346 25.98157 18.44752
#
# Velocity S-wave (km/s) = 2.30506 3.55658 2.99688
# Velocity P-wave (km/s) = 3.10842 5.56820 4.50927
#
# Compressibility (1/GPa) = 0.18885749
#
# Stress axis : x y z
#
# Youngs Moduli (GPa) = 5.74554 102.36565 39.06058
#
# Poissons Ratio (x) = 0.93156 -0.18332
# Poissons Ratio (y) = 0.05229 0.22941
# Poissons Ratio (z) = -0.02697 0.60121
#
# Static dielectric constant tensor:
#      x y z
#    x 1.740450 0.000000 0.016620 
#    y 0.000000 1.782390 0.000000 
#    z 0.016620 0.000000 1.680350 
# 
# From -- ./inp_files/23597.got.cif
#   From: 2010.05.17/outbox.cif.g08.bks.cpg/sg13_12_cif.got.tgz:23597.got - 2010.06.03 16:44:36.
