data_PCOD9228670
_publ_section_title
;
Structure prediction by ZEFSAII (Michael W. Deem and Ramdas Pophale) SiO2 
 PCOD9228670
Probable space group: P 2/C
;
_chemical_formula_sum "Si O2"
_cell_formula_units_Z 26
_cell_length_a 4.990632
_cell_length_b 18.161283
_cell_length_c 12.865868
_cell_angle_alpha 90.000000
_cell_angle_beta 64.309817
_cell_angle_gamma 90.000000
_cell_volume 1050.845534
_symmetry_space_group_name_H-M "P 2/C"
_symmetry_group_IT_number 13
_symmetry_cell_setting 'monoclinic'
loop_
_space_group_symop_operation_xyz
x,y,z
-x,y,1/2-z
-x,-y,-z
x,-y,1/2+z
loop_
_atom_site_type_symbol
_atom_site_label
_atom_site_fract_x
_atom_site_fract_y
_atom_site_fract_z
Si Si1 0.276118 0.594051 0.462763
Si Si2 0.311587 0.756400 0.677783
Si Si3 0.379667 0.432363 0.382965
Si Si4 0.004928 0.849629 0.089634
Si Si5 0.498517 0.254430 0.923630
Si Si6 0.454034 0.085280 0.134991
Si Si7 0.000000 0.966059 0.250000
O O1 0.306531 0.519776 0.390806
O O2 0.395385 0.574957 0.558497
O O3 0.448228 0.664383 0.386074
O O4 0.925744 0.608754 0.535626
O O5 0.500000 0.757631 0.750000
O O6 0.468128 0.726324 0.550959
O O7 0.262932 0.841030 0.650910
O O8 0.000000 0.719161 0.750000
O O9 0.500000 0.408524 0.250000
O O10 0.205565 0.794268 0.125736
O O11 0.762818 0.799398 0.073040
O O12 0.864713 0.912522 0.185392
O O13 0.238532 0.892862 0.974145
O O14 0.500000 0.078101 0.250000
O O15 0.246805 0.015159 0.148611
#
# Coordination Sequence:
#
# PCOD9228670 Si02
#       7
#     4   4   4   4   4   4   2
#     4  10  22  40  67  93 139 171 214 267 317 384
#     4  10  19  35  58  89 122 155 209 263 319 395
#     4  10  21  40  65 104 130 168 223 265 309 385
#     4  11  27  43  66  95 135 169 231 276 326 410
#     4  11  23  44  63  93 136 178 206 270 334 389
#     4  10  22  40  66  91 122 166 219 284 345 383
#     4  12  26  44  66  94 126 180 226 288 328 400
#
# _framework density 24.741979000000001
#
# number of rings (size 3 to 8) (size 9 to 14) (size 15 to 20)
#    0.000    1.538    0.769    4.615    4.308    2.462 
#    2.769    0.769    0.000    0.000    0.000    0.000 
#    0.000    0.000    0.000    0.000    0.000    0.000 
#
# Total GULP energy -145282.438605 kJ/mol
# GULP energy per Si atom -5587.786100 kJ/mol
# Density = 2.468567 g / cm^3
# Si number density = 24.741979 Si / 1000 Ang^3
#
#
#
# Elastic Constant Matrix: (Units=GPa)
#
#
# Indices 1 2 3 4 5 6 
#
# 1 132.1291 26.6179 19.1370 0.0000 -5.9059 0.0000
# 2 26.6179 143.7176 17.6923 0.0000 6.8149 0.0000
# 3 19.1370 17.6923 82.4164 0.0000 -3.2248 0.0000
# 4 0.0000 0.0000 0.0000 4.4395 0.0000 2.6038
# 5 -5.9059 6.8149 -3.2248 0.0000 18.2631 0.0000
# 6 0.0000 0.0000 0.0000 2.6038 0.0000 28.8306
#
#
#
# Elastic Compliance Matrix: (Units=1/GPa)
#
#
# Indices 1 2 3 4 5 6 
#
# 1 0.008212 -0.001479 -0.001474 0.000000 0.002947 0.000000
# 2 -0.001479 0.007576 -0.001422 0.000000 -0.003556 0.000000
# 3 -0.001474 -0.001422 0.012872 0.000000 0.002327 0.000000
# 4 0.000000 0.000000 0.000000 0.237851 0.000000 -0.021482
# 5 0.002947 -0.003556 0.002327 0.000000 0.057446 0.000000
# 6 0.000000 0.000000 0.000000 -0.021482 0.000000 0.036625
#
#
# Mechanical properties :
#
#
# Convention : Reuss Voigt Hill
#
# Bulk Modulus (GPa) = 50.22778 53.90640 52.06709
# Shear Modulus (GPa) = 13.29899 29.96103 21.63001
#
# Velocity S-wave (km/s) = 2.32094 3.48363 2.95993
# Velocity P-wave (km/s) = 5.24662 6.16568 5.72462
#
# Compressibility (1/GPa) = 0.01990930
#
# Stress axis : x y z
#
# Youngs Moduli (GPa) = 121.77991 132.00041 77.68781
#
# Poissons Ratio (x) = 0.19525 0.11450
# Poissons Ratio (y) = 0.18013 0.11047
# Poissons Ratio (z) = 0.17949 0.18770
#
# Static dielectric constant tensor:
#      x y z
#    x 1.911650 0.000000 -0.018360 
#    y 0.000000 2.066040 0.000000 
#    z -0.018360 0.000000 2.015860 
# 
# From -- ./inp_files/44237.got.cif
#   From: 2010.05.17/outbox.cif.g08.bks.cpg/sg13_23_cif.got.tgz:44237.got - 2010.06.03 16:44:36.
