data_PCOD9228504
_publ_section_title
;
Structure prediction by ZEFSAII (Michael W. Deem and Ramdas Pophale) SiO2 
 PCOD9228504
Probable space group: P 2/C
;
_chemical_formula_sum "Si O2"
_cell_formula_units_Z 24
_cell_length_a 8.887630
_cell_length_b 5.363671
_cell_length_c 22.328181
_cell_angle_alpha 90.000000
_cell_angle_beta 64.718001
_cell_angle_gamma 90.000000
_cell_volume 962.440742
_symmetry_space_group_name_H-M "P 2/C"
_symmetry_group_IT_number 13
_symmetry_cell_setting 'monoclinic'
loop_
_space_group_symop_operation_xyz
x,y,z
-x,y,1/2-z
-x,-y,-z
x,-y,1/2+z
loop_
_atom_site_type_symbol
_atom_site_label
_atom_site_fract_x
_atom_site_fract_y
_atom_site_fract_z
Si Si1 0.285863 0.819138 0.046886
Si Si2 0.332267 0.311362 0.671353
Si Si3 0.929094 0.632742 0.098199
Si Si4 0.500000 0.957025 0.250000
Si Si5 0.780654 0.326030 0.221097
Si Si6 0.221978 0.674163 0.500302
Si Si7 0.000000 0.999789 0.750000
O O1 0.366398 0.738630 0.096201
O O2 0.313580 0.591247 0.995607
O O3 0.083395 0.807789 0.088341
O O4 0.311918 0.096714 0.017867
O O5 0.296908 0.589274 0.701801
O O6 0.459804 0.200074 0.697690
O O7 0.158566 0.167487 0.711037
O O8 0.818731 0.561087 0.173449
O O9 0.035661 0.388034 0.058391
O O10 0.817209 0.723806 0.062343
O O11 0.654722 0.138884 0.211810
O O12 0.950784 0.185718 0.205291
#
# Coordination Sequence:
#
# PCOD9228504 Si02
#       7
#     4   4   4   2   4   4   2
#     4  10  19  34  58  86 124 152 195 248 304 366
#     4  11  22  37  58  89 118 162 203 251 313 368
#     4   9  19  32  59  87 125 154 200 247 306 367
#     4  10  26  40  56  82 124 164 210 246 320 362
#     4  11  21  39  58  88 120 161 198 258 307 367
#     4   9  20  34  55  95 122 160 190 250 310 363
#     4  10  20  32  58  90 118 142 202 248 316 364
#
# _framework density 24.936596999999999
#
# number of rings (size 3 to 8) (size 9 to 14) (size 15 to 20)
#    1.000    1.000    0.000    4.500    4.667    1.333 
#    0.000    0.000    0.000    2.000    0.000    0.000 
#    0.000    0.000    0.000    0.000    0.000    0.000 
#
# Total GULP energy -134171.033664 kJ/mol
# GULP energy per Si atom -5590.459736 kJ/mol
# Density = 2.487984 g / cm^3
# Si number density = 24.936597 Si / 1000 Ang^3
#
#
#
# Elastic Constant Matrix: (Units=GPa)
#
#
# Indices 1 2 3 4 5 6 
#
# 1 105.1094 32.4906 35.9857 0.0000 19.0156 0.0000
# 2 32.4906 104.9827 13.6075 0.0000 10.3529 0.0000
# 3 35.9857 13.6075 83.5099 0.0000 18.0645 0.0000
# 4 0.0000 0.0000 0.0000 24.4161 0.0000 6.0839
# 5 19.0156 10.3529 18.0645 0.0000 34.2369 0.0000
# 6 0.0000 0.0000 0.0000 6.0839 0.0000 33.7498
#
#
#
# Elastic Compliance Matrix: (Units=1/GPa)
#
#
# Indices 1 2 3 4 5 6 
#
# 1 0.012532 -0.002965 -0.004070 0.000000 -0.003917 0.000000
# 2 -0.002965 0.010607 -0.000128 0.000000 -0.001493 0.000000
# 3 -0.004070 -0.000128 0.014959 0.000000 -0.005594 0.000000
# 4 0.000000 0.000000 0.000000 0.042883 0.000000 -0.007730
# 5 -0.003917 -0.001493 -0.005594 0.000000 0.034787 0.000000
# 6 0.000000 0.000000 0.000000 -0.007730 0.000000 0.031023
#
#
# Mechanical properties :
#
#
# Convention : Reuss Voigt Hill
#
# Bulk Modulus (GPa) = 42.06402 50.86329 46.46365
# Shear Modulus (GPa) = 29.57868 32.58178 31.08023
#
# Velocity S-wave (km/s) = 3.44780 3.61859 3.53423
# Velocity P-wave (km/s) = 5.72318 6.15632 5.94369
#
# Compressibility (1/GPa) = 0.02377329
#
# Stress axis : x y z
#
# Youngs Moduli (GPa) = 79.79344 94.27953 66.84800
#
# Poissons Ratio (x) = 0.27952 0.27208
# Poissons Ratio (y) = 0.23657 0.00854
# Poissons Ratio (z) = 0.32476 0.01204
#
# Static dielectric constant tensor:
#      x y z
#    x 1.961400 0.000000 -0.017250 
#    y 0.000000 1.957980 0.000000 
#    z -0.017250 0.000000 1.985380 
# 
# From -- ./inp_files/84317.got.cif
#   From: 2010.05.17/outbox.cif.g08.bks.cpg/sg13_43_cif.got.tgz:84317.got - 2010.06.03 16:44:36.
