data_PCOD9228875
_publ_section_title
;
Structure prediction by ZEFSAII (Michael W. Deem and Ramdas Pophale) SiO2 
 PCOD9228875
Probable space group: P 2/C
;
_chemical_formula_sum "Si O2"
_cell_formula_units_Z 28
_cell_length_a 5.076350
_cell_length_b 18.605970
_cell_length_c 15.512224
_cell_angle_alpha 90.000000
_cell_angle_beta 59.509705
_cell_angle_gamma 90.000000
_cell_volume 1262.529846
_symmetry_space_group_name_H-M "P 2/C"
_symmetry_group_IT_number 13
_symmetry_cell_setting 'monoclinic'
loop_
_space_group_symop_operation_xyz
x,y,z
-x,y,1/2-z
-x,-y,-z
x,-y,1/2+z
loop_
_atom_site_type_symbol
_atom_site_label
_atom_site_fract_x
_atom_site_fract_y
_atom_site_fract_z
Si Si1 0.465794 0.128237 0.456516
Si Si2 0.664992 0.291178 0.562389
Si Si3 0.363584 0.278579 0.429171
Si Si4 0.684423 0.422904 0.352221
Si Si5 0.243748 0.858398 0.412992
Si Si6 0.704618 0.550951 0.055397
Si Si7 0.364445 0.001724 0.687049
O O1 0.486253 0.198355 0.391371
O O2 0.709453 0.138925 0.491633
O O3 0.113106 0.130090 0.549258
O O4 0.535143 0.051674 0.404642
O O5 0.422905 0.286482 0.523693
O O6 0.639368 0.221776 0.628022
O O7 0.685670 0.370226 0.600166
O O8 0.006986 0.281897 0.467185
O O9 0.513914 0.348136 0.361416
O O10 0.528272 0.498741 0.357321
O O11 0.670020 0.429066 0.459363
O O12 0.000000 0.419830 0.250000
O O13 0.459409 0.922686 0.347522
O O14 0.000000 0.500000 0.000000
O O15 0.500000 0.965692 0.750000
O O16 0.000000 0.010317 0.750000
#
# Coordination Sequence:
#
# PCOD9228875 Si02
#       7
#     4   4   4   4   4   4   4
#     4  10  20  37  61  83 110 149 197 231 285 352
#     4   9  18  34  59  82 105 148 192 237 282 338
#     4   9  18  34  55  84 110 144 186 237 289 345
#     4  10  21  35  55  85 117 153 193 240 294 352
#     4  10  20  38  61  82 108 152 203 232 277 356
#     4  10  19  36  59  79 116 154 194 240 292 342
#     4  12  24  37  56  85 121 150 185 242 301 335
#
# _framework density 22.177693000000001
#
# number of rings (size 3 to 8) (size 9 to 14) (size 15 to 20)
#    0.000    2.000    1.429    2.571    0.000    1.143 
#    0.000    3.571    3.143    0.000    0.000    0.000 
#    0.000    0.000    0.000    0.000    0.000    0.000 
#
# Total GULP energy -156014.503339 kJ/mol
# GULP energy per Si atom -5571.946548 kJ/mol
# Density = 2.212722 g / cm^3
# Si number density = 22.177693 Si / 1000 Ang^3
#
#
#
# Elastic Constant Matrix: (Units=GPa)
#
#
# Indices 1 2 3 4 5 6 
#
# 1 85.3564 15.1732 14.5622 0.0000 -13.9261 0.0000
# 2 15.1732 202.1083 38.8748 0.0000 -19.5383 0.0000
# 3 14.5622 38.8748 43.2752 0.0000 -9.4959 0.0000
# 4 0.0000 0.0000 0.0000 40.6328 0.0000 -76.3295
# 5 -13.9261 -19.5383 -9.4959 0.0000 17.4789 0.0000
# 6 0.0000 0.0000 0.0000 -76.3295 0.0000 151.0341
#
#
#
# Elastic Compliance Matrix: (Units=1/GPa)
#
#
# Indices 1 2 3 4 5 6 
#
# 1 0.013740 0.000481 -0.002879 0.000000 0.009921 0.000000
# 2 0.000481 0.006294 -0.004755 0.000000 0.004836 0.000000
# 3 -0.002879 -0.004755 0.030289 0.000000 0.008847 0.000000
# 4 0.000000 0.000000 0.000000 0.486035 0.000000 0.245632
# 5 0.009921 0.004836 0.008847 0.000000 0.075328 0.000000
# 6 0.000000 0.000000 0.000000 0.245632 0.000000 0.130758
#
#
# Mechanical properties :
#
#
# Convention : Reuss Voigt Hill
#
# Bulk Modulus (GPa) = 27.76376 51.99561 39.87969
# Shear Modulus (GPa) = 6.50403 59.30448 32.90426
#
# Velocity S-wave (km/s) = 1.71437 5.17674 3.85602
# Velocity P-wave (km/s) = 4.05767 7.69594 6.15192
#
# Compressibility (1/GPa) = 0.03601817
#
# Stress axis : x y z
#
# Youngs Moduli (GPa) = 72.78121 158.88863 33.01525
#
# Poissons Ratio (x) = -0.07648 0.09505
# Poissons Ratio (y) = -0.03503 0.15697
# Poissons Ratio (z) = 0.20953 0.75545
#
# Static dielectric constant tensor:
#      x y z
#    x 1.877040 0.000000 0.061480 
#    y 0.000000 1.950670 0.000000 
#    z 0.061480 0.000000 1.772430 
# 
# From -- ./inp_files/44390.got.cif
#   From: 2010.05.17/outbox.cif.g08.bks.cpg/sg13_23_cif.got.tgz:44390.got - 2010.06.03 16:44:36.
