data_PCOD9228645
_publ_section_title
;
Structure prediction by ZEFSAII (Michael W. Deem and Ramdas Pophale) SiO2 
 PCOD9228645
Probable space group: P 2/C
;
_chemical_formula_sum "Si O2"
_cell_formula_units_Z 24
_cell_length_a 18.291142
_cell_length_b 5.009179
_cell_length_c 15.118429
_cell_angle_alpha 90.000000
_cell_angle_beta 133.018506
_cell_angle_gamma 90.000000
_cell_volume 1012.769589
_symmetry_space_group_name_H-M "P 2/C"
_symmetry_group_IT_number 13
_symmetry_cell_setting 'monoclinic'
loop_
_space_group_symop_operation_xyz
x,y,z
-x,y,1/2-z
-x,-y,-z
x,-y,1/2+z
loop_
_atom_site_type_symbol
_atom_site_label
_atom_site_fract_x
_atom_site_fract_y
_atom_site_fract_z
Si Si1 0.929887 0.646415 0.115365
Si Si2 0.352876 0.341274 0.530812
Si Si3 0.187946 0.178760 0.513527
Si Si4 0.462825 0.748824 0.412729
Si Si5 0.921095 0.779216 0.398949
Si Si6 0.720406 0.846662 0.138145
O O1 0.699829 0.247351 0.922460
O O2 0.836907 0.853797 0.256750
O O3 0.000000 0.756527 0.250000
O O4 0.005076 0.589131 0.095294
O O5 0.152616 0.872785 0.475603
O O6 0.472213 0.290358 0.622145
O O7 0.317366 0.632870 0.467230
O O8 0.308150 0.136519 0.421407
O O9 0.150973 0.281933 0.578034
O O10 0.121988 0.373913 0.396712
O O11 0.500000 0.500000 0.500000
O O12 0.344317 0.773791 0.327421
O O13 0.500000 0.000000 0.500000
O O14 0.000000 0.000000 0.500000
#
# Coordination Sequence:
#
# PCOD9228645 Si02
#       6
#     4   4   4   4   4   4
#     4  11  22  37  55  75 101 141 184 218 256 311
#     4  10  19  35  58  82 104 135 180 225 266 316
#     4  11  22  35  52  78 108 137 171 221 269 310
#     4   8  16  31  54  80 103 130 174 224 265 308
#     4  10  23  38  53  78 113 146 178 218 267 319
#     4  10  20  36  57  79 106 143 180 218 264 318
#
# _framework density 23.697396000000001
#
# number of rings (size 3 to 8) (size 9 to 14) (size 15 to 20)
#    0.000    2.000    0.000    4.000    0.000    6.667 
#    0.000    0.833    0.000    0.000    0.000   18.667 
#    0.000    0.000    0.000    0.000    0.000    0.000 
#
# Total GULP energy -133710.104808 kJ/mol
# GULP energy per Si atom -5571.254367 kJ/mol
# Density = 2.364346 g / cm^3
# Si number density = 23.697396 Si / 1000 Ang^3
#
#
#
# Elastic Constant Matrix: (Units=GPa)
#
#
# Indices 1 2 3 4 5 6 
#
# 1 221.0528 0.8837 24.1367 0.0000 -4.0767 0.0000
# 2 0.8837 96.1727 1.0127 0.0000 11.2284 0.0000
# 3 24.1367 1.0127 39.5165 0.0000 11.2955 0.0000
# 4 0.0000 0.0000 0.0000 0.9387 0.0000 0.7698
# 5 -4.0767 11.2284 11.2955 0.0000 41.7039 0.0000
# 6 0.0000 0.0000 0.0000 0.7698 0.0000 32.5131
#
#
#
# Elastic Compliance Matrix: (Units=1/GPa)
#
#
# Indices 1 2 3 4 5 6 
#
# 1 0.004925 -0.000179 -0.003420 0.000000 0.001456 0.000000
# 2 -0.000179 0.010755 0.000723 0.000000 -0.003109 0.000000
# 3 -0.003420 0.000723 0.029837 0.000000 -0.008610 0.000000
# 4 0.000000 0.000000 0.000000 1.086371 0.000000 -0.025722
# 5 0.001456 -0.003109 -0.008610 0.000000 0.027290 0.000000
# 6 0.000000 0.000000 0.000000 -0.025722 0.000000 0.031366
#
#
# Mechanical properties :
#
#
# Convention : Reuss Voigt Hill
#
# Bulk Modulus (GPa) = 25.14814 45.42312 35.28563
# Shear Modulus (GPa) = 4.13376 37.07841 20.60609
#
# Velocity S-wave (km/s) = 1.32219 3.95987 2.95201
# Velocity P-wave (km/s) = 3.60085 6.33380 5.15185
#
# Compressibility (1/GPa) = 0.03976437
#
# Stress axis : x y z
#
# Youngs Moduli (GPa) = 203.05576 92.98028 33.51515
#
# Poissons Ratio (x) = 0.01666 0.11461
# Poissons Ratio (y) = 0.03639 -0.02422
# Poissons Ratio (z) = 0.69437 -0.06718
#
# Static dielectric constant tensor:
#      x y z
#    x 2.002610 0.000000 0.001180 
#    y 0.000000 1.843350 0.000000 
#    z 0.001180 0.000000 1.885080 
# 
# From -- ./inp_files/67237.got.cif
#   From: 2010.05.17/outbox.cif.g08.bks.cpg/sg13_34_cif.got.tgz:67237.got - 2010.06.03 16:44:36.
