data_PCOD9228950
_publ_section_title
;
Structure prediction by ZEFSAII (Michael W. Deem and Ramdas Pophale) SiO2 
 PCOD9228950
Probable space group: P 2/C
;
_chemical_formula_sum "Si O2"
_cell_formula_units_Z 32
_cell_length_a 14.447980
_cell_length_b 13.480736
_cell_length_c 12.956725
_cell_angle_alpha 90.000000
_cell_angle_beta 39.033940
_cell_angle_gamma 90.000000
_cell_volume 1589.297788
_symmetry_space_group_name_H-M "P 2/C"
_symmetry_group_IT_number 13
_symmetry_cell_setting 'monoclinic'
loop_
_space_group_symop_operation_xyz
x,y,z
-x,y,1/2-z
-x,-y,-z
x,-y,1/2+z
loop_
_atom_site_type_symbol
_atom_site_label
_atom_site_fract_x
_atom_site_fract_y
_atom_site_fract_z
Si Si1 0.125465 0.546428 0.819357
Si Si2 0.669789 0.966190 0.081040
Si Si3 0.431684 0.389867 0.074465
Si Si4 0.249682 0.348111 0.653901
Si Si5 0.103761 0.295611 0.005466
Si Si6 0.888557 0.087607 0.572191
Si Si7 0.839070 0.148268 0.844507
Si Si8 0.355074 0.249190 0.947167
O O1 0.267454 0.588022 0.759089
O O2 0.190395 0.460314 0.689217
O O3 0.000000 0.500000 0.000000
O O4 0.033381 0.635122 0.849984
O O5 0.500000 0.977451 0.250000
O O6 0.759481 0.942454 0.107187
O O7 0.685424 0.866854 0.995940
O O8 0.731029 0.070399 0.989527
O O9 0.500000 0.500000 0.000000
O O10 0.573152 0.339801 0.004950
O O11 0.394269 0.321535 0.007584
O O12 0.189364 0.326075 0.823851
O O13 0.189228 0.265863 0.628098
O O14 0.041592 0.185223 0.039766
O O15 0.224898 0.292405 0.989504
O O16 0.828902 0.122228 0.733226
O O17 0.000000 0.000000 0.500000
O O18 0.000000 0.127668 0.750000
O O19 0.500000 0.244375 0.750000
#
# Coordination Sequence:
#
# PCOD9228950 Si02
#       8
#     4   4   4   4   4   4   4   4
#     4   9  19  37  58  84 117 153 199 254 300 370
#     4  10  23  41  61  95 127 164 220 265 312 386
#     4  10  20  37  59  87 118 157 200 251 313 381
#     4   9  19  38  59  82 117 157 198 244 314 378
#     4   9  18  34  60  86 112 153 203 248 308 358
#     4  10  20  38  63  89 128 168 204 256 324 380
#     4  11  22  40  63  90 126 171 206 258 325 386
#     4  10  19  36  62  86 121 156 204 265 308 367
#
# _framework density 20.134678999999998
#
# number of rings (size 3 to 8) (size 9 to 14) (size 15 to 20)
#    0.000    2.250    2.500    0.000    1.750    2.000 
#    6.750    0.000    0.000    3.000    0.000    0.000 
#    0.000    0.000    0.000    0.000    0.000    0.000 
#
# Total GULP energy -178199.015304 kJ/mol
# GULP energy per Si atom -5568.719228 kJ/mol
# Density = 2.008885 g / cm^3
# Si number density = 20.134679 Si / 1000 Ang^3
#
#
#
# Elastic Constant Matrix: (Units=GPa)
#
#
# Indices 1 2 3 4 5 6 
#
# 1 74.7187 67.9856 34.8006 0.0000 -22.7090 0.0000
# 2 67.9856 134.2556 42.8940 0.0000 -24.8094 0.0000
# 3 34.8006 42.8940 77.4364 0.0000 -34.5448 0.0000
# 4 0.0000 0.0000 0.0000 38.0609 0.0000 -12.2667
# 5 -22.7090 -24.8094 -34.5448 0.0000 35.7779 0.0000
# 6 0.0000 0.0000 0.0000 -12.2667 0.0000 36.1933
#
#
#
# Elastic Compliance Matrix: (Units=1/GPa)
#
#
# Indices 1 2 3 4 5 6 
#
# 1 0.027386 -0.011744 -0.002952 0.000000 0.006388 0.000000
# 2 -0.011744 0.014218 -0.002679 0.000000 -0.000182 0.000000
# 3 -0.002952 -0.002679 0.024698 0.000000 0.020115 0.000000
# 4 0.000000 0.000000 0.000000 0.029496 0.000000 0.009997
# 5 0.006388 -0.000182 0.020115 0.000000 0.051301 0.000000
# 6 0.000000 0.000000 0.000000 0.009997 0.000000 0.031018
#
#
# Mechanical properties :
#
#
# Convention : Reuss Voigt Hill
#
# Bulk Modulus (GPa) = 31.69418 64.19677 47.94548
# Shear Modulus (GPa) = 22.38297 31.38846 26.88571
#
# Velocity S-wave (km/s) = 3.33778 3.95261 3.65813
# Velocity P-wave (km/s) = 5.53440 7.26524 6.45807
#
# Compressibility (1/GPa) = 0.03155153
#
# Stress axis : x y z
#
# Youngs Moduli (GPa) = 36.51484 70.33370 40.48902
#
# Poissons Ratio (x) = 0.82602 0.11953
# Poissons Ratio (y) = 0.42884 0.10846
# Poissons Ratio (z) = 0.10780 0.18840
#
# Static dielectric constant tensor:
#      x y z
#    x 1.710160 0.000000 0.026570 
#    y 0.000000 1.820530 0.000000 
#    z 0.026570 0.000000 1.738440 
# 
# From -- ./inp_files/53680.got.cif
#   From: 2010.05.17/outbox.cif.g08.bks.cpg/sg13_27_cif.got.tgz:53680.got - 2010.06.03 16:44:36.
