data_PCOD9228346
_publ_section_title
;
Structure prediction by ZEFSAII (Michael W. Deem and Ramdas Pophale) SiO2 
 PCOD9228346
Probable space group: P 2/C
;
_chemical_formula_sum "Si O2"
_cell_formula_units_Z 28
_cell_length_a 18.611950
_cell_length_b 8.097682
_cell_length_c 21.024093
_cell_angle_alpha 90.000000
_cell_angle_beta 155.847142
_cell_angle_gamma 90.000000
_cell_volume 1296.511026
_symmetry_space_group_name_H-M "P 2/C"
_symmetry_group_IT_number 13
_symmetry_cell_setting 'monoclinic'
loop_
_space_group_symop_operation_xyz
x,y,z
-x,y,1/2-z
-x,-y,-z
x,-y,1/2+z
loop_
_atom_site_type_symbol
_atom_site_label
_atom_site_fract_x
_atom_site_fract_y
_atom_site_fract_z
Si Si1 0.766841 0.373815 0.840300
Si Si2 0.682901 0.860404 0.387732
Si Si3 0.520575 0.264407 0.974794
Si Si4 0.188888 0.231537 0.381262
Si Si5 0.669437 0.922869 0.702015
Si Si6 0.940277 0.034043 0.810726
Si Si7 0.910501 0.723867 0.984089
O O1 0.691348 0.256606 0.833730
O O2 0.629985 0.385720 0.671104
O O3 0.816669 0.548452 0.910556
O O4 0.942468 0.294229 0.952257
O O5 0.500000 0.957059 0.250000
O O6 0.693636 0.757670 0.461755
O O7 0.867416 0.953941 0.536820
O O8 0.451482 0.085446 0.891407
O O9 0.704337 0.311179 0.090313
O O10 0.555152 0.220910 0.076007
O O11 0.000000 0.298401 0.250000
O O12 0.154813 0.042243 0.328033
O O13 0.768399 0.858010 0.844147
O O14 0.820783 0.970416 0.772983
O O15 0.987750 0.219804 0.870024
#
# Coordination Sequence:
#
# PCOD9228346 Si02
#       7
#     4   4   4   4   4   4   4
#     4  11  22  36  56  88 121 161 188 238 303 372
#     4  11  20  35  61  84 110 151 207 246 288 356
#     4  10  19  34  58  86 114 149 199 242 298 339
#     4   9  20  34  58  83 109 150 199 246 286 347
#     4  10  19  33  59  88 115 147 191 258 291 339
#     4  10  19  36  58  86 113 148 197 252 293 340
#     4  11  22  36  57  87 125 151 191 242 313 356
#
# _framework density 21.596422
#
# number of rings (size 3 to 8) (size 9 to 14) (size 15 to 20)
#    0.000    1.714    4.286    1.286    0.000    0.571 
#    0.000    0.714    0.000    7.714    0.000    0.000 
#    0.000    0.000    0.000    0.000    0.000    0.000 
#
# Total GULP energy -155952.816379 kJ/mol
# GULP energy per Si atom -5569.743442 kJ/mol
# Density = 2.154727 g / cm^3
# Si number density = 21.596422 Si / 1000 Ang^3
#
#
#
# Elastic Constant Matrix: (Units=GPa)
#
#
# Indices 1 2 3 4 5 6 
#
# 1 56.6991 5.1203 10.8845 0.0000 6.4457 0.0000
# 2 5.1203 44.9631 7.5357 0.0000 4.6626 0.0000
# 3 10.8845 7.5357 83.7695 0.0000 14.8368 0.0000
# 4 0.0000 0.0000 0.0000 27.3128 0.0000 -4.5186
# 5 6.4457 4.6626 14.8368 0.0000 47.7715 0.0000
# 6 0.0000 0.0000 0.0000 -4.5186 0.0000 10.9768
#
#
#
# Elastic Compliance Matrix: (Units=1/GPa)
#
#
# Indices 1 2 3 4 5 6 
#
# 1 0.018347 -0.001586 -0.001937 0.000000 -0.001719 0.000000
# 2 -0.001586 0.022844 -0.001579 0.000000 -0.001525 0.000000
# 3 -0.001937 -0.001579 0.012971 0.000000 -0.003613 0.000000
# 4 0.000000 0.000000 0.000000 0.039288 0.000000 0.016173
# 5 -0.001719 -0.001525 -0.003613 0.000000 0.022436 0.000000
# 6 0.000000 0.000000 0.000000 0.016173 0.000000 0.097759
#
#
# Mechanical properties :
#
#
# Convention : Reuss Voigt Hill
#
# Bulk Modulus (GPa) = 22.74866 25.83474 24.29170
# Shear Modulus (GPa) = 20.96414 28.00498 24.48456
#
# Velocity S-wave (km/s) = 3.11902 3.60494 3.37075
# Velocity P-wave (km/s) = 4.85051 5.41442 5.14020
#
# Compressibility (1/GPa) = 0.04395863
#
# Stress axis : x y z
#
# Youngs Moduli (GPa) = 54.50339 43.77545 77.09430
#
# Poissons Ratio (x) = 0.06945 0.14931
# Poissons Ratio (y) = 0.08647 0.12171
# Poissons Ratio (z) = 0.10556 0.06911
#
# Static dielectric constant tensor:
#      x y z
#    x 1.817970 0.000000 -0.035210 
#    y 0.000000 1.826880 0.000000 
#    z -0.035210 0.000000 1.860090 
# 
# From -- ./inp_files/88529.got.cif
#   From: 2010.05.17/outbox.cif.g08.bks.cpg/sg13_45_cif.got.tgz:88529.got - 2010.06.03 16:44:36.
