data_PCOD9228483
_publ_section_title
;
Structure prediction by ZEFSAII (Michael W. Deem and Ramdas Pophale) SiO2 
 PCOD9228483
Probable space group: P 2/C
;
_chemical_formula_sum "Si O2"
_cell_formula_units_Z 20
_cell_length_a 10.604336
_cell_length_b 19.998396
_cell_length_c 13.448001
_cell_angle_alpha 90.000000
_cell_angle_beta 20.310149
_cell_angle_gamma 90.000000
_cell_volume 989.904308
_symmetry_space_group_name_H-M "P 2/C"
_symmetry_group_IT_number 13
_symmetry_cell_setting 'monoclinic'
loop_
_space_group_symop_operation_xyz
x,y,z
-x,y,1/2-z
-x,-y,-z
x,-y,1/2+z
loop_
_atom_site_type_symbol
_atom_site_label
_atom_site_fract_x
_atom_site_fract_y
_atom_site_fract_z
Si Si1 0.707332 0.848696 0.877222
Si Si2 0.990248 0.614130 0.971043
Si Si3 0.930738 0.485563 0.690776
Si Si4 0.379349 0.697903 0.530797
Si Si5 0.791246 0.066941 0.624914
O O1 0.547646 0.774252 0.991706
O O2 0.000000 0.845712 0.750000
O O3 0.928383 0.876387 0.620345
O O4 0.418108 0.903244 0.126005
O O5 0.068749 0.567691 0.008501
O O6 0.683437 0.665377 0.235389
O O7 0.890127 0.557587 0.963555
O O8 0.310866 0.654802 0.680824
O O9 0.000000 0.462550 0.750000
O O10 0.500000 0.500000 0.000000
O O11 0.000000 0.696301 0.750000
O O12 0.500000 0.055878 0.750000
O O13 0.000000 0.000000 0.500000
#
# Coordination Sequence:
#
# PCOD9228483 Si02
#       5
#     4   4   4   4   4
#     4   9  19  34  54  86 120 149 189 241 287 331
#     4  11  23  37  59  86 114 154 194 241 302 354
#     4  11  25  42  61  89 119 151 196 252 298 351
#     4  11  21  35  59  88 120 152 194 247 296 349
#     4  10  19  34  57  87 118 153 190 233 284 335
#
# _framework density 20.203972
#
# number of rings (size 3 to 8) (size 9 to 14) (size 15 to 20)
#    0.000    1.600    2.000    3.000    2.800    5.600 
#    0.000    0.000    0.000    4.800    0.000    0.000 
#    0.000    0.000    0.000    0.000    0.000    0.000 
#
# Total GULP energy -111703.680127 kJ/mol
# GULP energy per Si atom -5585.184006 kJ/mol
# Density = 2.015799 g / cm^3
# Si number density = 20.203972 Si / 1000 Ang^3
#
#
#
# Elastic Constant Matrix: (Units=GPa)
#
#
# Indices 1 2 3 4 5 6 
#
# 1 41.3932 3.8782 8.5568 0.0000 11.1842 0.0000
# 2 3.8782 124.9449 24.8573 0.0000 -6.6535 0.0000
# 3 8.5568 24.8573 96.9336 0.0000 9.7533 0.0000
# 4 0.0000 0.0000 0.0000 32.0854 0.0000 5.3224
# 5 11.1842 -6.6535 9.7533 0.0000 24.1573 0.0000
# 6 0.0000 0.0000 0.0000 5.3224 0.0000 12.8744
#
#
#
# Elastic Compliance Matrix: (Units=1/GPa)
#
#
# Indices 1 2 3 4 5 6 
#
# 1 0.027971 -0.001402 -0.000800 0.000000 -0.013013 0.000000
# 2 -0.001402 0.008769 -0.002536 0.000000 0.004088 0.000000
# 3 -0.000800 -0.002536 0.011539 0.000000 -0.004987 0.000000
# 4 0.000000 0.000000 0.000000 0.033462 0.000000 -0.013833
# 5 -0.013013 0.004088 -0.004987 0.000000 0.050559 0.000000
# 6 0.000000 0.000000 0.000000 -0.013833 0.000000 0.083393
#
#
# Mechanical properties :
#
#
# Convention : Reuss Voigt Hill
#
# Bulk Modulus (GPa) = 25.77145 37.53960 31.65553
# Shear Modulus (GPa) = 20.99912 28.88873 24.94392
#
# Velocity S-wave (km/s) = 3.22740 3.78544 3.51751
# Velocity P-wave (km/s) = 5.16444 6.14221 5.67443
#
# Compressibility (1/GPa) = 0.03880263
#
# Stress axis : x y z
#
# Youngs Moduli (GPa) = 35.75078 114.03337 86.66123
#
# Poissons Ratio (x) = 0.15987 0.06936
# Poissons Ratio (y) = 0.05012 0.21981
# Poissons Ratio (z) = 0.02861 0.28923
#
# Static dielectric constant tensor:
#      x y z
#    x 1.719820 0.000000 -0.015420 
#    y 0.000000 1.718520 0.000000 
#    z -0.015420 0.000000 1.755770 
# 
# From -- ./inp_files/51592.got.cif
#   From: 2010.05.17/outbox.cif.g08.bks.cpg/sg13_26_cif.got.tgz:51592.got - 2010.06.03 16:44:36.
