data_PCOD9228223
_publ_section_title
;
Structure prediction by ZEFSAII (Michael W. Deem and Ramdas Pophale) SiO2 
 PCOD9228223
Probable space group: P 2/C
;
_chemical_formula_sum "Si O2"
_cell_formula_units_Z 32
_cell_length_a 13.388652
_cell_length_b 12.637594
_cell_length_c 17.396608
_cell_angle_alpha 90.000000
_cell_angle_beta 28.104994
_cell_angle_gamma 90.000000
_cell_volume 1386.655501
_symmetry_space_group_name_H-M "P 2/C"
_symmetry_group_IT_number 13
_symmetry_cell_setting 'monoclinic'
loop_
_space_group_symop_operation_xyz
x,y,z
-x,y,1/2-z
-x,-y,-z
x,-y,1/2+z
loop_
_atom_site_type_symbol
_atom_site_label
_atom_site_fract_x
_atom_site_fract_y
_atom_site_fract_z
Si Si1 0.877271 0.479709 0.407394
Si Si2 0.122729 0.979709 0.592606
Si Si3 0.164951 0.250000 0.028152
Si Si4 0.363692 0.750000 0.224373
Si Si5 0.423452 0.475791 0.637463
Si Si6 0.732586 0.628818 0.633863
Si Si7 0.732586 0.128818 0.133863
Si Si8 0.423452 0.024209 0.637463
O O1 0.951804 0.359945 0.374595
O O2 0.633092 0.470113 0.548009
O O3 0.875309 0.556839 0.481160
O O4 0.000000 0.522143 0.250000
O O5 0.048196 0.859945 0.625405
O O6 0.366908 0.970113 0.451991
O O7 0.000000 0.022143 0.750000
O O8 0.124691 0.056839 0.518840
O O9 0.383598 0.250000 0.928656
O O10 0.243518 0.250000 0.887122
O O11 0.320269 0.640164 0.211319
O O12 0.320269 0.859836 0.211319
O O13 0.500000 0.500000 0.500000
O O14 0.291222 0.567692 0.769257
O O15 0.500000 0.633306 0.750000
O O16 0.804202 0.750000 0.593809
O O17 0.500000 0.133306 0.250000
O O18 0.708778 0.067692 0.230743
O O19 0.500000 0.000000 0.500000
#
# Coordination Sequence:
#
# PCOD9228223 Si02
#       8
#     4   4   4   4   4   4   4   4
#     4  10  19  33  54  77 101 130 166 207 249 294
#     4  10  19  33  54  77 101 130 166 207 249 294
#     4   9  15  30  54  78  98 124 169 207 240 296
#     4   9  16  30  54  76  96 130 168 205 245 288
#     4  10  20  33  53  77 101 130 167 208 247 294
#     4   9  18  33  52  72  98 136 174 202 236 294
#     4   9  18  33  52  72  98 136 174 202 236 294
#     4  10  20  33  53  77 101 130 167 208 247 294
#
# _framework density 23.077109
#
# number of rings (size 3 to 8) (size 9 to 14) (size 15 to 20)
#    0.000    2.500    2.500    0.375    1.750    0.500 
#    0.000    1.250    0.000    0.000    0.000    0.000 
#    0.000    0.000    0.000    0.000    0.000    0.000 
#
# Total GULP energy -178870.242703 kJ/mol
# GULP energy per Si atom -5589.695084 kJ/mol
# Density = 2.302458 g / cm^3
# Si number density = 23.077109 Si / 1000 Ang^3
#
#
#
# Elastic Constant Matrix: (Units=GPa)
#
#
# Indices 1 2 3 4 5 6 
#
# 1 74.2903 68.4150 28.0555 0.0000 7.5699 0.0000
# 2 68.4150 227.9736 80.7299 0.0000 60.3687 0.0000
# 3 28.0555 80.7299 87.4227 0.0000 45.8406 0.0000
# 4 0.0000 0.0000 0.0000 20.0092 0.0000 6.9615
# 5 7.5699 60.3687 45.8406 0.0000 67.0795 0.0000
# 6 0.0000 0.0000 0.0000 6.9615 0.0000 12.3176
#
#
#
# Elastic Compliance Matrix: (Units=1/GPa)
#
#
# Indices 1 2 3 4 5 6 
#
# 1 0.020036 -0.006250 -0.003775 0.000000 0.005943 0.000000
# 2 -0.006250 0.008805 -0.003647 0.000000 -0.004727 0.000000
# 3 -0.003775 -0.003647 0.021933 0.000000 -0.011280 0.000000
# 4 0.000000 0.000000 0.000000 0.062209 0.000000 -0.035159
# 5 0.005943 -0.004727 -0.011280 0.000000 0.026200 0.000000
# 6 0.000000 0.000000 0.000000 -0.035159 0.000000 0.101056
#
#
# Mechanical properties :
#
#
# Convention : Reuss Voigt Hill
#
# Bulk Modulus (GPa) = 42.67896 82.67637 62.67767
# Shear Modulus (GPa) = 18.15590 34.04700 26.10145
#
# Velocity S-wave (km/s) = 2.80795 3.84521 3.36676
# Velocity P-wave (km/s) = 5.38953 7.45775 6.50634
#
# Compressibility (1/GPa) = 0.02343075
#
# Stress axis : x y z
#
# Youngs Moduli (GPa) = 49.90924 113.56922 45.59406
#
# Poissons Ratio (x) = 0.70980 0.17211
# Poissons Ratio (y) = 0.31193 0.16627
# Poissons Ratio (z) = 0.18840 0.41417
#
# Static dielectric constant tensor:
#      x y z
#    x 1.870610 0.000000 -0.057020 
#    y 0.000000 1.854840 0.000000 
#    z -0.057020 0.000000 1.846590 
# 
# From -- ./inp_files/64281.got.cif
#   From: 2010.05.17/outbox.cif.g08.bks.cpg/sg13_33_cif.got.tgz:64281.got - 2010.06.03 16:44:36.
