data_PCOD9228169
_publ_section_title
;
Structure prediction by ZEFSAII (Michael W. Deem and Ramdas Pophale) SiO2 
 PCOD9228169
Probable space group: P 2/C
;
_chemical_formula_sum "Si O2"
_cell_formula_units_Z 22
_cell_length_a 31.168383
_cell_length_b 5.308289
_cell_length_c 5.042498
_cell_angle_alpha 90.000000
_cell_angle_beta 81.823757
_cell_angle_gamma 90.000000
_cell_volume 825.804979
_symmetry_space_group_name_H-M "P 2/C"
_symmetry_group_IT_number 13
_symmetry_cell_setting 'monoclinic'
loop_
_space_group_symop_operation_xyz
x,y,z
-x,y,1/2-z
-x,-y,-z
x,-y,1/2+z
loop_
_atom_site_type_symbol
_atom_site_label
_atom_site_fract_x
_atom_site_fract_y
_atom_site_fract_z
Si Si1 0.912014 0.156910 0.462734
Si Si2 0.183616 0.657540 0.586216
Si Si3 0.272132 0.679465 0.359101
Si Si4 0.544411 0.842568 0.290470
Si Si5 0.639570 0.345716 0.566857
Si Si6 0.000000 0.185792 0.250000
O O1 0.863970 0.246491 0.439494
O O2 0.953555 0.319105 0.326860
O O3 0.915277 0.089568 0.768788
O O4 0.186372 0.412801 0.391151
O O5 0.226381 0.811987 0.460635
O O6 0.272013 0.551916 0.072557
O O7 0.318071 0.810748 0.379019
O O8 0.500000 0.700299 0.250000
O O9 0.591450 0.741211 0.177278
O O10 0.542617 0.912899 0.599114
O O11 0.642910 0.409056 0.255353
O O12 0.000000 0.000000 0.500000
#
# Coordination Sequence:
#
# PCOD9228169 Si02
#       6
#     4   4   4   4   4   2
#     4  10  19  33  51  72  96 126 164 201 237 283
#     4  10  19  33  51  72  99 130 159 194 244 292
#     4   8  16  30  48  69  96 127 156 191 241 289
#     4  10  21  36  51  71 103 135 157 191 250 299
#     4  10  19  33  54  76  95 124 169 207 230 274
#     4   8  16  30  48  66  92 128 158 190 240 290
#
# _framework density 26.640675999999999
#
# number of rings (size 3 to 8) (size 9 to 14) (size 15 to 20)
#    0.000    2.545    0.000    2.182    0.000    0.727 
#    0.000    2.727    0.000    0.000    0.000    0.000 
#    0.000    0.000    0.000    0.000    0.000    0.000 
#
# Total GULP energy -122798.467623 kJ/mol
# GULP energy per Si atom -5581.748528 kJ/mol
# Density = 2.658004 g / cm^3
# Si number density = 26.640676 Si / 1000 Ang^3
#
#
#
# Elastic Constant Matrix: (Units=GPa)
#
#
# Indices 1 2 3 4 5 6 
#
# 1 288.5403 22.3467 23.2287 0.0000 -47.4557 0.0000
# 2 22.3467 34.9913 25.6906 0.0000 -2.6926 0.0000
# 3 23.2287 25.6906 127.3560 0.0000 -4.8653 0.0000
# 4 0.0000 0.0000 0.0000 35.5755 0.0000 5.0575
# 5 -47.4557 -2.6926 -4.8653 0.0000 62.3794 0.0000
# 6 0.0000 0.0000 0.0000 5.0575 0.0000 18.2362
#
#
#
# Elastic Compliance Matrix: (Units=1/GPa)
#
#
# Indices 1 2 3 4 5 6 
#
# 1 0.004159 -0.002289 -0.000180 0.000000 0.003051 0.000000
# 2 -0.002289 0.034860 -0.006643 0.000000 -0.000755 0.000000
# 3 -0.000180 -0.006643 0.009236 0.000000 0.000296 0.000000
# 4 0.000000 0.000000 0.000000 0.029263 0.000000 -0.008116
# 5 0.003051 -0.000755 0.000296 0.000000 0.018343 0.000000
# 6 0.000000 0.000000 0.000000 -0.008116 0.000000 0.057087
#
#
# Mechanical properties :
#
#
# Convention : Reuss Voigt Hill
#
# Bulk Modulus (GPa) = 33.30001 65.93552 49.61776
# Shear Modulus (GPa) = 27.59630 48.54633 38.07131
#
# Velocity S-wave (km/s) = 3.22199 4.27343 3.78440
# Velocity P-wave (km/s) = 5.13502 7.01094 6.14498
#
# Compressibility (1/GPa) = 0.03003002
#
# Stress axis : x y z
#
# Youngs Moduli (GPa) = 240.42012 28.68626 108.26815
#
# Poissons Ratio (x) = 0.06567 0.01952
# Poissons Ratio (y) = 0.55036 0.71926
# Poissons Ratio (z) = 0.04335 0.19057
#
# Static dielectric constant tensor:
#      x y z
#    x 2.273500 0.000000 -0.035600 
#    y 0.000000 2.197890 0.000000 
#    z -0.035600 0.000000 1.964630 
# 
# From -- ./inp_files/7329.got.cif
#   From: 2010.05.17/outbox.cif.g08.bks.cpg/sg13_4_cif.got.tgz:7329.got - 2010.06.03 16:44:36.
