data_PCOD9228788
_publ_section_title
;
Structure prediction by ZEFSAII (Michael W. Deem and Ramdas Pophale) SiO2 
 PCOD9228788
Probable space group: P 2/C
;
_chemical_formula_sum "Si O2"
_cell_formula_units_Z 24
_cell_length_a 22.021635
_cell_length_b 6.374379
_cell_length_c 15.610225
_cell_angle_alpha 90.000000
_cell_angle_beta 29.666146
_cell_angle_gamma 90.000000
_cell_volume 1084.560650
_symmetry_space_group_name_H-M "P 2/C"
_symmetry_group_IT_number 13
_symmetry_cell_setting 'monoclinic'
loop_
_space_group_symop_operation_xyz
x,y,z
-x,y,1/2-z
-x,-y,-z
x,-y,1/2+z
loop_
_atom_site_type_symbol
_atom_site_label
_atom_site_fract_x
_atom_site_fract_y
_atom_site_fract_z
Si Si1 0.371000 0.952977 0.076495
Si Si2 0.239698 0.438550 0.764037
Si Si3 0.968726 0.904179 0.945001
Si Si4 0.400928 0.017792 0.802355
Si Si5 0.775899 0.814949 0.596996
Si Si6 0.231695 0.231226 0.118698
O O1 0.359937 0.704942 0.103511
O O2 0.310927 0.061366 0.230786
O O3 0.279598 0.026396 0.112196
O O4 0.502457 0.047993 0.892875
O O5 0.234021 0.581085 0.855722
O O6 0.228514 0.584675 0.693238
O O7 0.127606 0.278844 0.915366
O O8 0.094873 0.809493 0.753999
O O9 0.906638 0.076892 0.958533
O O10 0.000000 0.000000 0.000000
O O11 0.500000 0.932250 0.750000
O O12 0.289423 0.864746 0.912606
O O13 0.334398 0.228536 0.918388
#
# Coordination Sequence:
#
# PCOD9228788 Si02
#       6
#     4   4   4   4   4   4
#     4   9  19  38  60  87 120 157 213 254 303 367
#     4  10  19  35  66  97 114 161 218 250 306 378
#     4  11  19  36  66  94 124 155 203 263 302 375
#     4  10  22  41  58  81 126 167 201 257 318 363
#     4  10  21  36  62  89 117 164 210 254 308 373
#     4  10  20  36  61  92 125 162 198 255 321 368
#
# _framework density 22.128774
#
# number of rings (size 3 to 8) (size 9 to 14) (size 15 to 20)
#    0.000    2.000    5.000    1.000    0.000    1.333 
#    0.000   22.500    0.000    4.000    0.000    0.000 
#    0.000    0.000    0.000    0.000    0.000    0.000 
#
# Total GULP energy -133658.117635 kJ/mol
# GULP energy per Si atom -5569.088235 kJ/mol
# Density = 2.207841 g / cm^3
# Si number density = 22.128774 Si / 1000 Ang^3
#
#
#
# Elastic Constant Matrix: (Units=GPa)
#
#
# Indices 1 2 3 4 5 6 
#
# 1 81.3492 21.6064 13.1011 0.0000 -20.2422 0.0000
# 2 21.6064 89.6214 19.5090 0.0000 0.9522 0.0000
# 3 13.1011 19.5090 109.2525 0.0000 -13.1252 0.0000
# 4 0.0000 0.0000 0.0000 16.5828 0.0000 0.6534
# 5 -20.2422 0.9522 -13.1252 0.0000 18.9875 0.0000
# 6 0.0000 0.0000 0.0000 0.6534 0.0000 7.0162
#
#
#
# Elastic Compliance Matrix: (Units=1/GPa)
#
#
# Indices 1 2 3 4 5 6 
#
# 1 0.018628 -0.004967 0.001166 0.000000 0.020914 0.000000
# 2 -0.004967 0.013018 -0.002665 0.000000 -0.007790 0.000000
# 3 0.001166 -0.002665 0.010529 0.000000 0.008655 0.000000
# 4 0.000000 0.000000 0.000000 0.060526 0.000000 -0.005636
# 5 0.020914 -0.007790 0.008655 0.000000 0.081335 0.000000
# 6 0.000000 0.000000 0.000000 -0.005636 0.000000 0.143052
#
#
# Mechanical properties :
#
#
# Convention : Reuss Voigt Hill
#
# Bulk Modulus (GPa) = 34.19606 43.18399 38.69003
# Shear Modulus (GPa) = 14.29515 23.58440 18.93977
#
# Velocity S-wave (km/s) = 2.54441 3.26817 2.92873
# Velocity P-wave (km/s) = 4.91109 5.81365 5.38132
#
# Compressibility (1/GPa) = 0.02924313
#
# Stress axis : x y z
#
# Youngs Moduli (GPa) = 53.68188 76.81445 94.97643
#
# Poissons Ratio (x) = 0.38153 -0.11071
# Poissons Ratio (y) = 0.26663 0.25311
# Poissons Ratio (z) = -0.06257 0.20471
#
# Static dielectric constant tensor:
#      x y z
#    x 2.009780 0.000000 0.058880 
#    y 0.000000 1.827090 0.000000 
#    z 0.058880 0.000000 1.912040 
# 
# From -- ./inp_files/70870.got.cif
#   From: 2010.05.17/outbox.cif.g08.bks.cpg/sg13_36_cif.got.tgz:70870.got - 2010.06.03 16:44:36.
