data_PCOD9228834
_publ_section_title
;
Structure prediction by ZEFSAII (Michael W. Deem and Ramdas Pophale) SiO2 
 PCOD9228834
Probable space group: P 2/C
;
_chemical_formula_sum "Si O2"
_cell_formula_units_Z 28
_cell_length_a 5.512821
_cell_length_b 14.028548
_cell_length_c 18.721125
_cell_angle_alpha 90.000000
_cell_angle_beta 109.677454
_cell_angle_gamma 90.000000
_cell_volume 1363.284338
_symmetry_space_group_name_H-M "P 2/C"
_symmetry_group_IT_number 13
_symmetry_cell_setting 'monoclinic'
loop_
_space_group_symop_operation_xyz
x,y,z
-x,y,1/2-z
-x,-y,-z
x,-y,1/2+z
loop_
_atom_site_type_symbol
_atom_site_label
_atom_site_fract_x
_atom_site_fract_y
_atom_site_fract_z
Si Si1 0.971159 0.532157 0.166971
Si Si2 0.573018 0.141944 0.489507
Si Si3 0.306214 0.864485 0.663928
Si Si4 0.884045 0.973045 0.564407
Si Si5 0.018195 0.308709 0.331802
Si Si6 0.646870 0.459667 0.921819
Si Si7 0.517508 0.344819 0.464827
O O1 0.163569 0.568856 0.123874
O O2 0.000000 0.571628 0.250000
O O3 0.052028 0.420166 0.176856
O O4 0.663669 0.539993 0.123351
O O5 0.595134 0.117171 0.406961
O O6 0.271783 0.123139 0.469711
O O7 0.655197 0.250730 0.507768
O O8 0.704697 0.065823 0.555772
O O9 0.500000 0.868991 0.750000
O O10 0.080074 0.944038 0.645681
O O11 0.176612 0.759668 0.646718
O O12 0.000000 0.000000 0.500000
O O13 0.312651 0.308155 0.386317
O O14 0.000000 0.270358 0.250000
O O15 0.691344 0.569149 0.952110
O O16 0.661851 0.391124 0.991412
#
# Coordination Sequence:
#
# PCOD9228834 Si02
#       7
#     4   4   4   4   4   4   4
#     4  10  21  38  58  82 122 163 205 253 302 368
#     4  10  19  36  57  80 114 155 193 239 289 358
#     4  11  21  31  55  86 120 151 185 237 296 368
#     4   9  20  36  53  81 110 148 195 232 289 355
#     4  10  20  33  52  84 123 155 187 227 302 378
#     4  10  22  36  57  93 120 163 205 254 310 353
#     4  10  20  35  58  85 124 153 202 250 295 362
#
# _framework density 20.538633000000001
#
# number of rings (size 3 to 8) (size 9 to 14) (size 15 to 20)
#    0.000    2.000    1.429    2.143    0.000    8.571 
#    0.000    0.000    0.000    0.000   11.143    0.000 
#    0.000    0.000    0.000    0.000    0.000    0.000 
#
# Total GULP energy -155897.059723 kJ/mol
# GULP energy per Si atom -5567.752133 kJ/mol
# Density = 2.049189 g / cm^3
# Si number density = 20.538633 Si / 1000 Ang^3
#
#
#
# Elastic Constant Matrix: (Units=GPa)
#
#
# Indices 1 2 3 4 5 6 
#
# 1 78.7506 6.3626 33.4860 0.0000 -9.6348 0.0000
# 2 6.3626 67.9138 19.8631 0.0000 12.9214 0.0000
# 3 33.4860 19.8631 70.9765 0.0000 7.8589 0.0000
# 4 0.0000 0.0000 0.0000 8.7573 0.0000 -6.3096
# 5 -9.6348 12.9214 7.8589 0.0000 39.7850 0.0000
# 6 0.0000 0.0000 0.0000 -6.3096 0.0000 20.0280
#
#
#
# Elastic Compliance Matrix: (Units=1/GPa)
#
#
# Indices 1 2 3 4 5 6 
#
# 1 0.017132 -0.000193 -0.008685 0.000000 0.005927 0.000000
# 2 -0.000193 0.016837 -0.004100 0.000000 -0.004705 0.000000
# 3 -0.008685 -0.004100 0.019854 0.000000 -0.004693 0.000000
# 4 0.000000 0.000000 0.000000 0.147721 0.000000 0.046538
# 5 0.005927 -0.004705 -0.004693 0.000000 0.029026 0.000000
# 6 0.000000 0.000000 0.000000 0.046538 0.000000 0.064591
#
#
# Mechanical properties :
#
#
# Convention : Reuss Voigt Hill
#
# Bulk Modulus (GPa) = 35.88430 37.45158 36.66794
# Shear Modulus (GPa) = 15.13293 24.24266 19.68780
#
# Velocity S-wave (km/s) = 2.71736 3.43934 3.09944
# Velocity P-wave (km/s) = 5.23019 5.83493 5.54082
#
# Compressibility (1/GPa) = 0.02786734
#
# Stress axis : x y z
#
# Youngs Moduli (GPa) = 58.37000 59.39323 50.36805
#
# Poissons Ratio (x) = 0.01144 0.43745
# Poissons Ratio (y) = 0.01124 0.20651
# Poissons Ratio (z) = 0.50695 0.24352
#
# Static dielectric constant tensor:
#      x y z
#    x 1.901780 0.000000 -0.003680 
#    y 0.000000 1.797370 0.000000 
#    z -0.003680 0.000000 1.786120 
# 
# From -- ./inp_files/61349.got.cif
#   From: 2010.05.17/outbox.cif.g08.bks.cpg/sg13_31_cif.got.tgz:61349.got - 2010.06.03 16:44:36.
