data_PCOD9228743
_publ_section_title
;
Structure prediction by ZEFSAII (Michael W. Deem and Ramdas Pophale) SiO2 
 PCOD9228743
Probable space group: P 2/C
;
_chemical_formula_sum "Si O2"
_cell_formula_units_Z 32
_cell_length_a 20.267351
_cell_length_b 7.545289
_cell_length_c 26.746590
_cell_angle_alpha 90.000000
_cell_angle_beta 21.334149
_cell_angle_gamma 90.000000
_cell_volume 1488.030048
_symmetry_space_group_name_H-M "P 2/C"
_symmetry_group_IT_number 13
_symmetry_cell_setting 'monoclinic'
loop_
_space_group_symop_operation_xyz
x,y,z
-x,y,1/2-z
-x,-y,-z
x,-y,1/2+z
loop_
_atom_site_type_symbol
_atom_site_label
_atom_site_fract_x
_atom_site_fract_y
_atom_site_fract_z
Si Si1 0.643357 0.652223 0.912819
Si Si2 0.740286 0.813023 0.744796
Si Si3 0.683484 0.326858 0.113069
Si Si4 0.722182 0.485584 0.188606
Si Si5 0.369376 0.691037 0.464908
Si Si6 0.523085 0.031594 0.306710
Si Si7 0.938938 0.582010 0.881771
Si Si8 0.134436 0.178461 0.969741
O O1 0.659185 0.795868 0.857216
O O2 0.846736 0.574293 0.773346
O O3 0.500000 0.500000 0.000000
O O4 0.600687 0.726360 0.997807
O O5 0.784114 0.611431 0.695302
O O6 0.599027 0.886655 0.804646
O O7 0.935664 0.907334 0.602883
O O8 0.500000 0.448575 0.250000
O O9 0.748006 0.342605 0.125384
O O10 0.403531 0.169318 0.359034
O O11 0.847308 0.403404 0.966183
O O12 0.514489 0.541710 0.345993
O O13 0.820826 0.665640 0.101977
O O14 0.168234 0.630878 0.592700
O O15 0.410120 0.862214 0.403077
O O16 0.698245 0.956096 0.152950
O O17 0.883815 0.724641 0.963809
#
# Coordination Sequence:
#
# PCOD9228743 Si02
#       8
#     4   4   4   4   4   4   4   4
#     4  11  24  43  68  87 120 170 223 270 298 354
#     4  11  20  38  59  88 125 167 211 250 309 372
#     4  11  20  37  62  99 124 151 198 264 316 377
#     4  10  19  35  61  91 121 158 210 259 309 370
#     4  11  22  40  63  90 125 170 213 257 316 367
#     4  11  24  36  63  92 136 167 192 255 333 387
#     4  10  22  40  68  95 119 162 221 262 307 370
#     4   9  22  35  57  96 128 162 198 252 321 388
#
# _framework density 21.504940999999999
#
# number of rings (size 3 to 8) (size 9 to 14) (size 15 to 20)
#    0.000    1.500    3.750    1.125    1.750    0.500 
#    0.000    0.000    5.500    1.500    0.000    0.000 
#    0.000    0.000    0.000    0.000    0.000    0.000 
#
# Total GULP energy -178452.623536 kJ/mol
# GULP energy per Si atom -5576.644486 kJ/mol
# Density = 2.145599 g / cm^3
# Si number density = 21.504941 Si / 1000 Ang^3
#
#
#
# Elastic Constant Matrix: (Units=GPa)
#
#
# Indices 1 2 3 4 5 6 
#
# 1 120.4577 28.1714 38.6746 0.0000 12.4791 0.0000
# 2 28.1714 65.9491 38.1764 0.0000 -1.6876 0.0000
# 3 38.6746 38.1764 115.7420 0.0000 -7.6417 0.0000
# 4 0.0000 0.0000 0.0000 16.8235 0.0000 -3.1127
# 5 12.4791 -1.6876 -7.6417 0.0000 35.2614 0.0000
# 6 0.0000 0.0000 0.0000 -3.1127 0.0000 31.7484
#
#
#
# Elastic Compliance Matrix: (Units=1/GPa)
#
#
# Indices 1 2 3 4 5 6 
#
# 1 0.010332 -0.002916 -0.002781 0.000000 -0.004399 0.000000
# 2 -0.002916 0.019572 -0.005429 0.000000 0.000792 0.000000
# 3 -0.002781 -0.005429 0.011573 0.000000 0.003232 0.000000
# 4 0.000000 0.000000 0.000000 0.060539 0.000000 0.005935
# 5 -0.004399 0.000792 0.003232 0.000000 0.030655 0.000000
# 6 0.000000 0.000000 0.000000 0.005935 0.000000 0.032080
#
#
# Mechanical properties :
#
#
# Convention : Reuss Voigt Hill
#
# Bulk Modulus (GPa) = 52.01531 56.91040 54.46286
# Shear Modulus (GPa) = 25.85164 29.90842 27.88003
#
# Velocity S-wave (km/s) = 3.47093 3.73335 3.60453
# Velocity P-wave (km/s) = 6.34848 6.71604 6.53485
#
# Compressibility (1/GPa) = 0.01922511
#
# Stress axis : x y z
#
# Youngs Moduli (GPa) = 96.78385 51.09374 86.40635
#
# Poissons Ratio (x) = 0.14901 0.24030
# Poissons Ratio (y) = 0.28226 0.46908
# Poissons Ratio (z) = 0.26915 0.27738
#
# Static dielectric constant tensor:
#      x y z
#    x 1.831620 0.000000 -0.015150 
#    y 0.000000 1.846050 0.000000 
#    z -0.015150 0.000000 1.794010 
# 
# From -- ./inp_files/93579.got.cif
#   From: 2010.05.17/outbox.cif.g08.bks.cpg/sg13_47_cif.got.tgz:93579.got - 2010.06.03 16:44:36.
