data_PCOD9228942
_publ_section_title
;
Structure prediction by ZEFSAII (Michael W. Deem and Ramdas Pophale) SiO2 
 PCOD9228942
Probable space group: P 2/C
;
_chemical_formula_sum "Si O2"
_cell_formula_units_Z 26
_cell_length_a 15.154094
_cell_length_b 9.332002
_cell_length_c 15.777033
_cell_angle_alpha 90.000000
_cell_angle_beta 35.267844
_cell_angle_gamma 90.000000
_cell_volume 1288.268931
_symmetry_space_group_name_H-M "P 2/C"
_symmetry_group_IT_number 13
_symmetry_cell_setting 'monoclinic'
loop_
_space_group_symop_operation_xyz
x,y,z
-x,y,1/2-z
-x,-y,-z
x,-y,1/2+z
loop_
_atom_site_type_symbol
_atom_site_label
_atom_site_fract_x
_atom_site_fract_y
_atom_site_fract_z
Si Si1 0.276299 0.613479 0.927884
Si Si2 0.000000 0.691727 0.250000
Si Si3 0.664098 0.124814 0.712734
Si Si4 0.017953 0.828399 0.635431
Si Si5 0.500000 0.133246 0.250000
Si Si6 0.116230 0.133260 0.809093
Si Si7 0.089423 0.351353 0.421903
Si Si8 0.500000 0.359768 0.750000
O O1 0.370310 0.754470 0.882421
O O2 0.246526 0.628807 0.849936
O O3 0.364693 0.468654 0.877329
O O4 0.113184 0.606573 0.100864
O O5 0.108136 0.787340 0.225615
O O6 0.806848 0.159639 0.536574
O O7 0.731679 0.126156 0.754075
O O8 0.546993 0.253864 0.788625
O O9 0.583316 0.975826 0.749864
O O10 0.000000 0.819937 0.750000
O O11 0.925113 0.700693 0.662684
O O12 0.943344 0.975293 0.661112
O O13 0.997916 0.224226 0.959267
O O14 0.000000 0.500000 0.500000
#
# Coordination Sequence:
#
# PCOD9228942 Si02
#       8
#     4   2   4   4   2   4   4   2
#     4  10  20  38  62  87 116 164 206 248 302 371
#     4  10  20  36  62  94 118 146 212 274 294 336
#     4  10  20  38  60  85 122 166 198 245 307 376
#     4  11  21  36  63  97 123 151 211 270 306 347
#     4  10  20  34  62  82 118 166 202 228 308 388
#     4  10  19  36  61  91 123 157 201 257 311 358
#     4  10  20  37  60  89 122 161 205 252 312 366
#     4  10  22  40  62  80 124 168 208 234 304 396
#
# _framework density 20.182123000000001
#
# number of rings (size 3 to 8) (size 9 to 14) (size 15 to 20)
#    0.000    1.846    0.769    6.462    0.000    0.000 
#   12.462    1.538   13.538    0.000    0.000    0.000 
#    0.000    0.000    0.000    0.000    0.000    0.000 
#
# Total GULP energy -145016.880632 kJ/mol
# GULP energy per Si atom -5577.572332 kJ/mol
# Density = 2.013619 g / cm^3
# Si number density = 20.182123 Si / 1000 Ang^3
#
#
#
# Elastic Constant Matrix: (Units=GPa)
#
#
# Indices 1 2 3 4 5 6 
#
# 1 165.1003 60.4841 36.8501 0.0000 8.2536 0.0000
# 2 60.4841 126.9820 37.0128 0.0000 2.4401 0.0000
# 3 36.8501 37.0128 42.3354 0.0000 0.1976 0.0000
# 4 0.0000 0.0000 0.0000 19.3628 0.0000 -5.1731
# 5 8.2536 2.4401 0.1976 0.0000 30.2945 0.0000
# 6 0.0000 0.0000 0.0000 -5.1731 0.0000 42.2171
#
#
#
# Elastic Compliance Matrix: (Units=1/GPa)
#
#
# Indices 1 2 3 4 5 6 
#
# 1 0.008145 -0.002386 -0.004995 0.000000 -0.001994 0.000000
# 2 -0.002386 0.011286 -0.007790 0.000000 -0.000208 0.000000
# 3 -0.004995 -0.007790 0.034771 0.000000 0.001761 0.000000
# 4 0.000000 0.000000 0.000000 0.053393 0.000000 0.006543
# 5 -0.001994 -0.000208 0.001761 0.000000 0.033558 0.000000
# 6 0.000000 0.000000 0.000000 0.006543 0.000000 0.024489
#
#
# Mechanical properties :
#
#
# Convention : Reuss Voigt Hill
#
# Bulk Modulus (GPa) = 41.90816 67.01240 54.46028
# Shear Modulus (GPa) = 24.51740 31.71293 28.11516
#
# Velocity S-wave (km/s) = 3.48919 3.96831 3.73644
# Velocity P-wave (km/s) = 6.08627 7.36699 6.75704
#
# Compressibility (1/GPa) = 0.02386170
#
# Stress axis : x y z
#
# Youngs Moduli (GPa) = 122.76755 88.60588 28.75970
#
# Poissons Ratio (x) = 0.21137 0.14366
# Poissons Ratio (y) = 0.29287 0.22403
# Poissons Ratio (z) = 0.61324 0.69021
#
# Static dielectric constant tensor:
#      x y z
#    x 1.903940 0.000000 0.034280 
#    y 0.000000 1.706740 0.000000 
#    z 0.034280 0.000000 1.742960 
# 
# From -- ./inp_files/53338.got.cif
#   From: 2010.05.17/outbox.cif.g08.bks.cpg/sg13_27_cif.got.tgz:53338.got - 2010.06.03 16:44:36.
