data_PCOD9228437
_publ_section_title
;
Structure prediction by ZEFSAII (Michael W. Deem and Ramdas Pophale) SiO2 
 PCOD9228437
Probable space group: P 2/C
;
_chemical_formula_sum "Si O2"
_cell_formula_units_Z 28
_cell_length_a 21.915378
_cell_length_b 11.606638
_cell_length_c 9.572256
_cell_angle_alpha 90.000000
_cell_angle_beta 33.642750
_cell_angle_gamma 90.000000
_cell_volume 1348.930446
_symmetry_space_group_name_H-M "P 2/C"
_symmetry_group_IT_number 13
_symmetry_cell_setting 'monoclinic'
loop_
_space_group_symop_operation_xyz
x,y,z
-x,y,1/2-z
-x,-y,-z
x,-y,1/2+z
loop_
_atom_site_type_symbol
_atom_site_label
_atom_site_fract_x
_atom_site_fract_y
_atom_site_fract_z
Si Si1 0.926164 0.551888 0.762881
Si Si2 0.374562 0.258096 0.977327
Si Si3 0.748418 0.738855 0.056612
Si Si4 0.380545 0.537833 0.272094
Si Si5 0.100057 0.917696 0.665848
Si Si6 0.780791 0.651041 0.503324
Si Si7 0.952965 0.170140 0.691451
O O1 0.853514 0.654695 0.838856
O O2 0.000000 0.592616 0.750000
O O3 0.000000 0.500000 0.500000
O O4 0.847756 0.446594 0.963052
O O5 0.500000 0.214429 0.750000
O O6 0.616934 0.391657 0.589069
O O7 0.302227 0.206598 0.988479
O O8 0.301472 0.267186 0.253895
O O9 0.792515 0.841080 0.069006
O O10 0.658836 0.639493 0.260979
O O11 0.296007 0.431827 0.442686
O O12 0.500000 0.500000 0.000000
O O13 0.000000 0.898319 0.750000
O O14 0.116539 0.054356 0.642737
O O15 0.052006 0.874447 0.906026
O O16 0.876202 0.734690 0.265251
O O17 0.000000 0.214346 0.750000
#
# Coordination Sequence:
#
# PCOD9228437 Si02
#       7
#     4   4   4   4   4   4   4
#     4  11  21  31  47  75 115 144 174 223 273 334
#     4  10  19  34  56  78 107 147 187 238 277 341
#     4   9  19  31  51  77 104 143 188 221 279 332
#     4   9  19  34  51  79 107 138 185 233 286 333
#     4  10  20  38  55  83 117 152 192 229 282 331
#     4  11  19  33  53  77 110 146 192 220 284 336
#     4  10  21  35  58  81 115 154 191 235 268 341
#
# _framework density 20.757186999999998
#
# number of rings (size 3 to 8) (size 9 to 14) (size 15 to 20)
#    0.857    1.143    1.429    3.429    0.000    0.000 
#    2.571    0.000    0.000    3.429    0.000    1.000 
#    0.000    0.000    0.000    0.000    0.000    0.000 
#
# Total GULP energy -155880.155642 kJ/mol
# GULP energy per Si atom -5567.148416 kJ/mol
# Density = 2.070994 g / cm^3
# Si number density = 20.757187 Si / 1000 Ang^3
#
#
#
# Elastic Constant Matrix: (Units=GPa)
#
#
# Indices 1 2 3 4 5 6 
#
# 1 68.0400 6.4666 13.3036 0.0000 -20.7402 0.0000
# 2 6.4666 88.4927 20.0165 0.0000 -26.0674 0.0000
# 3 13.3036 20.0165 67.9331 0.0000 -20.1960 0.0000
# 4 0.0000 0.0000 0.0000 22.2862 0.0000 -7.9818
# 5 -20.7402 -26.0674 -20.1960 0.0000 34.5375 0.0000
# 6 0.0000 0.0000 0.0000 -7.9818 0.0000 19.8721
#
#
#
# Elastic Compliance Matrix: (Units=1/GPa)
#
#
# Indices 1 2 3 4 5 6 
#
# 1 0.018416 0.002500 -0.000598 0.000000 0.012596 0.000000
# 2 0.002500 0.014957 -0.001324 0.000000 0.012015 0.000000
# 3 -0.000598 -0.001324 0.017943 0.000000 0.009133 0.000000
# 4 0.000000 0.000000 0.000000 0.052410 0.000000 0.021051
# 5 0.012596 0.012015 0.009133 0.000000 0.050928 0.000000
# 6 0.000000 0.000000 0.000000 0.021051 0.000000 0.058777
#
#
# Mechanical properties :
#
#
# Convention : Reuss Voigt Hill
#
# Bulk Modulus (GPa) = 19.05837 33.78213 26.42025
# Shear Modulus (GPa) = 21.76118 27.65111 24.70615
#
# Velocity S-wave (km/s) = 3.24136 3.65378 3.45374
# Velocity P-wave (km/s) = 4.81769 5.84041 5.35353
#
# Compressibility (1/GPa) = 0.05247037
#
# Stress axis : x y z
#
# Youngs Moduli (GPa) = 54.29982 66.85980 55.73188
#
# Poissons Ratio (x) = -0.16715 0.03335
# Poissons Ratio (y) = -0.13575 0.07382
# Poissons Ratio (z) = 0.03249 0.08855
#
# Static dielectric constant tensor:
#      x y z
#    x 1.809480 0.000000 -0.002310 
#    y 0.000000 1.786480 0.000000 
#    z -0.002310 0.000000 1.802160 
# 
# From -- ./inp_files/40771.got.cif
#   From: 2010.05.17/outbox.cif.g08.bks.cpg/sg13_21_cif.got.tgz:40771.got - 2010.06.03 16:44:36.
