data_PCOD9228715
_publ_section_title
;
Structure prediction by ZEFSAII (Michael W. Deem and Ramdas Pophale) SiO2 
 PCOD9228715
Probable space group: P 2/C
;
_chemical_formula_sum "Si O2"
_cell_formula_units_Z 22
_cell_length_a 6.833196
_cell_length_b 9.315114
_cell_length_c 12.995498
_cell_angle_alpha 90.000000
_cell_angle_beta 88.597610
_cell_angle_gamma 90.000000
_cell_volume 826.941667
_symmetry_space_group_name_H-M "P 2/C"
_symmetry_group_IT_number 13
_symmetry_cell_setting 'monoclinic'
loop_
_space_group_symop_operation_xyz
x,y,z
-x,y,1/2-z
-x,-y,-z
x,-y,1/2+z
loop_
_atom_site_type_symbol
_atom_site_label
_atom_site_fract_x
_atom_site_fract_y
_atom_site_fract_z
Si Si1 0.500000 0.343318 0.750000
Si Si2 0.208167 0.072425 0.423822
Si Si3 0.118397 0.714551 0.658580
Si Si4 0.500000 0.850300 0.750000
Si Si5 0.000000 0.500000 0.000000
Si Si6 0.889886 0.216023 0.649369
Si Si7 0.734079 0.666962 0.443327
O O1 0.685454 0.265160 0.696299
O O2 0.398541 0.393443 0.644321
O O3 0.386223 0.064785 0.340325
O O4 0.282428 0.166786 0.520935
O O5 0.028404 0.155111 0.370285
O O6 0.139883 0.908035 0.434151
O O7 0.328791 0.762867 0.696086
O O8 0.000000 0.635239 0.750000
O O9 0.138706 0.610164 0.564185
O O10 0.785841 0.417599 0.045007
O O11 0.000000 0.158554 0.750000
O O12 0.033792 0.341878 0.602241
#
# Coordination Sequence:
#
# PCOD9228715 Si02
#       7
#     2   4   4   2   2   4   4
#     4  10  23  39  58  92 122 153 197 240 300 356
#     4  10  20  37  61  90 122 156 193 237 293 354
#     4   9  20  37  57  84 114 151 196 243 294 345
#     4  10  19  35  60  90 118 147 193 246 296 350
#     4  10  22  42  60  78 114 158 200 244 292 348
#     4  10  20  37  60  88 125 158 189 238 294 352
#     4  10  23  40  60  87 119 158 201 244 293 348
#
# _framework density 26.604050000000001
#
# number of rings (size 3 to 8) (size 9 to 14) (size 15 to 20)
#    0.000    2.182    0.000    2.727    0.000    8.000 
#    0.000   12.727    0.000    0.000    0.000    1.273 
#    0.000    0.000    0.000    0.000    0.000    0.000 
#
# Total GULP energy -122467.818956 kJ/mol
# GULP energy per Si atom -5566.719043 kJ/mol
# Density = 2.654350 g / cm^3
# Si number density = 26.604050 Si / 1000 Ang^3
#
#
#
# Elastic Constant Matrix: (Units=GPa)
#
#
# Indices 1 2 3 4 5 6 
#
# 1 149.0689 33.8267 41.2844 0.0000 18.5895 0.0000
# 2 33.8267 83.6364 11.5465 0.0000 4.7415 0.0000
# 3 41.2844 11.5465 115.6642 0.0000 29.3127 0.0000
# 4 0.0000 0.0000 0.0000 35.7487 0.0000 -4.2310
# 5 18.5895 4.7415 29.3127 0.0000 62.3914 0.0000
# 6 0.0000 0.0000 0.0000 -4.2310 0.0000 7.7502
#
#
#
# Elastic Compliance Matrix: (Units=1/GPa)
#
#
# Indices 1 2 3 4 5 6 
#
# 1 0.008155 -0.002913 -0.002339 0.000000 -0.001110 0.000000
# 2 -0.002913 0.013173 -0.000274 0.000000 -0.000004 0.000000
# 3 -0.002339 -0.000274 0.010587 0.000000 -0.004256 0.000000
# 4 0.000000 0.000000 0.000000 0.029905 0.000000 0.016326
# 5 -0.001110 -0.000004 -0.004256 0.000000 0.018358 0.000000
# 6 0.000000 0.000000 0.000000 0.016326 0.000000 0.137942
#
#
# Mechanical properties :
#
#
# Convention : Reuss Voigt Hill
#
# Bulk Modulus (GPa) = 47.93197 57.96494 52.94845
# Shear Modulus (GPa) = 21.17511 38.62554 29.90032
#
# Velocity S-wave (km/s) = 2.82429 3.81447 3.35610
# Velocity P-wave (km/s) = 5.35644 6.42149 5.91299
#
# Compressibility (1/GPa) = 0.02086290
#
# Stress axis : x y z
#
# Youngs Moduli (GPa) = 122.61835 75.91489 94.45957
#
# Poissons Ratio (x) = 0.22111 0.22094
# Poissons Ratio (y) = 0.35714 0.02591
# Poissons Ratio (z) = 0.28680 0.02082
#
# Static dielectric constant tensor:
#      x y z
#    x 2.193630 0.000000 0.335780 
#    y 0.000000 2.902390 0.000000 
#    z 0.335780 0.000000 3.535930 
# 
# From -- ./inp_files/43787.got.cif
#   From: 2010.05.17/outbox.cif.g08.bks.cpg/sg13_22_cif.got.tgz:43787.got - 2010.06.03 16:44:36.
