data_PCOD9228661
_publ_section_title
;
Structure prediction by ZEFSAII (Michael W. Deem and Ramdas Pophale) SiO2 
 PCOD9228661
Probable space group: P 2/C
;
_chemical_formula_sum "Si O2"
_cell_formula_units_Z 24
_cell_length_a 16.074223
_cell_length_b 9.196164
_cell_length_c 8.575402
_cell_angle_alpha 90.000000
_cell_angle_beta 90.001031
_cell_angle_gamma 90.000000
_cell_volume 1267.626136
_symmetry_space_group_name_H-M "P 2/C"
_symmetry_group_IT_number 13
_symmetry_cell_setting 'monoclinic'
loop_
_space_group_symop_operation_xyz
x,y,z
-x,y,1/2-z
-x,-y,-z
x,-y,1/2+z
loop_
_atom_site_type_symbol
_atom_site_label
_atom_site_fract_x
_atom_site_fract_y
_atom_site_fract_z
Si Si1 0.317668 0.334197 0.561806
Si Si2 0.000004 0.336438 0.936410
Si Si3 0.500003 0.335544 0.937421
Si Si4 0.159087 0.163364 0.063739
Si Si5 0.682325 0.334184 0.561784
Si Si6 0.159080 0.836630 0.936269
O O1 0.409776 0.274671 0.515670
O O2 0.311619 0.335917 0.750011
O O3 0.311005 0.500009 0.500017
O O4 0.243917 0.239563 0.491834
O O5 0.000000 0.338178 0.750000
O O6 0.081517 0.253621 0.997114
O O7 0.000000 0.500000 0.000000
O O8 0.918498 0.253611 0.997122
O O9 0.500000 0.339508 0.750000
O O10 0.409787 0.274663 0.984338
O O11 0.500000 0.500000 0.000000
O O12 0.155029 0.162477 0.250004
O O13 0.243930 0.239538 0.008186
O O14 0.155342 0.999997 0.000006
#
# Coordination Sequence:
#
# PCOD9228661 Si02
#       6
#     4   4   4   4   4   4
#     4  10  19  35  58  87 118 154 196 242 289 341
#     4  12  25  44  67  92 118 150 190 236 283 338
#     4   8  16  30  53  82 115 150 192 240 288 336
#     4  12  25  42  61  86 118 155 193 237 289 346
#     4  10  19  35  58  87 118 154 196 242 289 341
#     4  12  25  42  61  86 118 155 193 237 289 346
#
# _framework density 18.933026999999999
#
# number of rings (size 3 to 8) (size 9 to 14) (size 15 to 20)
#    0.000    1.333    0.000    7.000    0.000    1.333 
#    0.000    0.833    0.000    0.000    0.000    0.000 
#    0.000    0.000    0.000    0.000    0.000    0.000 
#
# Total GULP energy -134100.535737 kJ/mol
# GULP energy per Si atom -5587.522322 kJ/mol
# Density = 1.888993 g / cm^3
# Si number density = 18.933027 Si / 1000 Ang^3
#
#
#
# Elastic Constant Matrix: (Units=GPa)
#
#
# Indices 1 2 3 4 5 6 
#
# 1 235.1513 108.0203 88.6300 0.0000 -13.0281 0.0000
# 2 108.0203 137.4061 63.7164 0.0000 -4.1846 0.0000
# 3 88.6300 63.7164 157.7588 0.0000 5.6890 0.0000
# 4 0.0000 0.0000 0.0000 34.3327 0.0000 6.2526
# 5 -13.0281 -4.1846 5.6890 0.0000 5.6475 0.0000
# 6 0.0000 0.0000 0.0000 6.2526 0.0000 -32.6972
#
#
#
# Elastic Compliance Matrix: (Units=1/GPa)
#
#
# Indices 1 2 3 4 5 6 
#
# 1 0.009085 -0.004623 -0.004015 0.000000 0.021577 0.000000
# 2 -0.004623 0.011973 -0.002255 0.000000 0.000478 0.000000
# 3 -0.004015 -0.002255 0.010273 0.000000 -0.021281 0.000000
# 4 0.000000 0.000000 0.000000 0.028146 0.000000 0.005382
# 5 0.021577 0.000478 -0.021281 0.000000 0.248635 0.000000
# 6 0.000000 0.000000 0.000000 0.005382 0.000000 -0.029554
#
#
# Mechanical properties :
#
#
# Convention : Reuss Voigt Hill
#
# Bulk Modulus (GPa) = 104.78545 116.78328 110.78437
# Shear Modulus (GPa) = 16.47311 19.45324 17.96317
#
# Velocity S-wave (km/s) = 2.95290 3.20890 3.08356
# Velocity P-wave (km/s) = 8.19095 8.69170 8.44504
#
# Compressibility (1/GPa) = 0.00954331
#
# Stress axis : x y z
#
# Youngs Moduli (GPa) = 110.07214 83.52383 97.34521
#
# Poissons Ratio (x) = 0.38615 0.39082
# Poissons Ratio (y) = 0.50889 0.21956
# Poissons Ratio (z) = 0.44192 0.18838
#
# Static dielectric constant tensor:
#      x y z
#    x 1.679390 0.000000 -0.004480 
#    y 0.000000 1.603850 0.000000 
#    z -0.004480 0.000000 1.631460 
# 
# From -- ./inp_files/18023.got.cif
#   From: 2010.05.17/outbox.cif.g08.bks.cpg/sg13_10_cif.got.tgz:18023.got - 2010.06.03 16:44:36.
