data_PCOD9228819
_publ_section_title
;
Structure prediction by ZEFSAII (Michael W. Deem and Ramdas Pophale) SiO2 
 PCOD9228819
Probable space group: P 2/C
;
_chemical_formula_sum "Si O2"
_cell_formula_units_Z 28
_cell_length_a 27.319139
_cell_length_b 11.392682
_cell_length_c 27.636419
_cell_angle_alpha 90.000000
_cell_angle_beta 169.480629
_cell_angle_gamma 90.000000
_cell_volume 1570.360166
_symmetry_space_group_name_H-M "P 2/C"
_symmetry_group_IT_number 13
_symmetry_cell_setting 'monoclinic'
loop_
_space_group_symop_operation_xyz
x,y,z
-x,y,1/2-z
-x,-y,-z
x,-y,1/2+z
loop_
_atom_site_type_symbol
_atom_site_label
_atom_site_fract_x
_atom_site_fract_y
_atom_site_fract_z
Si Si1 0.714868 0.185297 0.369107
Si Si2 0.224034 0.079798 0.279944
Si Si3 0.223843 0.411479 0.009383
Si Si4 0.340723 0.673977 0.145606
Si Si5 0.276089 0.909456 0.723196
Si Si6 0.831033 0.059240 0.635132
Si Si7 0.202500 0.196531 0.359898
O O1 0.803893 0.307753 0.478964
O O2 0.686698 0.182424 0.283900
O O3 0.951763 0.095259 0.613435
O O4 0.433536 0.139684 0.118373
O O5 0.266663 0.138453 0.268765
O O6 0.171129 0.166269 0.272884
O O7 0.484297 0.003465 0.546011
O O8 0.988701 0.985678 0.043817
O O9 0.500000 0.390005 0.250000
O O10 0.248400 0.538863 0.057833
O O11 0.000000 0.411667 0.750000
O O12 0.500000 0.688958 0.250000
O O13 0.552797 0.715726 0.391874
O O14 0.074908 0.751890 0.889801
O O15 0.000000 0.071851 0.750000
O O16 0.742153 0.925891 0.558412
#
# Coordination Sequence:
#
# PCOD9228819 Si02
#       7
#     4   4   4   4   4   4   4
#     4  12  21  37  57  82 113 146 185 232 275 332
#     4  10  20  35  56  81 112 146 180 224 275 340
#     4  11  23  40  58  78 108 152 197 227 262 323
#     4  11  23  38  56  77 109 153 195 224 262 326
#     4  10  19  36  56  81 112 144 184 222 276 339
#     4  12  23  33  51  85 119 146 172 223 291 337
#     4  12  21  37  56  82 115 146 183 230 278 333
#
# _framework density 17.830304999999999
#
# number of rings (size 3 to 8) (size 9 to 14) (size 15 to 20)
#    0.000    0.857    2.857    7.286    0.000    0.000 
#    0.000    0.000    0.000    1.714    0.000    0.000 
#    0.000    0.000    0.000    0.000    0.000    0.000 
#
# Total GULP energy -156438.672216 kJ/mol
# GULP energy per Si atom -5587.095436 kJ/mol
# Density = 1.778972 g / cm^3
# Si number density = 17.830305 Si / 1000 Ang^3
#
#
#
# Elastic Constant Matrix: (Units=GPa)
#
#
# Indices 1 2 3 4 5 6 
#
# 1 97.4240 58.3648 15.4614 0.0000 -12.7052 0.0000
# 2 58.3648 97.0179 43.6860 0.0000 -8.0135 0.0000
# 3 15.4614 43.6860 147.0972 0.0000 -8.8543 0.0000
# 4 0.0000 0.0000 0.0000 23.6166 0.0000 -7.3425
# 5 -12.7052 -8.0135 -8.8543 0.0000 26.5362 0.0000
# 6 0.0000 0.0000 0.0000 -7.3425 0.0000 20.4626
#
#
#
# Elastic Compliance Matrix: (Units=1/GPa)
#
#
# Indices 1 2 3 4 5 6 
#
# 1 0.017039 -0.010547 0.001674 0.000000 0.005532 0.000000
# 2 -0.010547 0.018588 -0.004467 0.000000 -0.000927 0.000000
# 3 0.001674 -0.004467 0.008078 0.000000 0.002148 0.000000
# 4 0.000000 0.000000 0.000000 0.047660 0.000000 0.017102
# 5 0.005532 -0.000927 0.002148 0.000000 0.040769 0.000000
# 6 0.000000 0.000000 0.000000 0.017102 0.000000 0.055006
#
#
# Mechanical properties :
#
#
# Convention : Reuss Voigt Hill
#
# Bulk Modulus (GPa) = 58.74110 64.06259 61.40184
# Shear Modulus (GPa) = 22.77945 29.05821 25.91883
#
# Velocity S-wave (km/s) = 3.57819 4.04135 3.81680
# Velocity P-wave (km/s) = 7.07724 7.60156 7.34408
#
# Compressibility (1/GPa) = 0.01702386
#
# Stress axis : x y z
#
# Youngs Moduli (GPa) = 58.68952 53.79922 123.78839
#
# Poissons Ratio (x) = 0.56744 -0.20728
# Poissons Ratio (y) = 0.61902 0.55302
# Poissons Ratio (z) = -0.09827 0.24035
#
# Static dielectric constant tensor:
#      x y z
#    x 1.637810 0.000000 -0.004550 
#    y 0.000000 1.606300 0.000000 
#    z -0.004550 0.000000 1.602620 
# 
# From -- ./inp_files/94130.got.cif
#   From: 2010.05.17/outbox.cif.g08.bks.cpg/sg13_48_cif.got.tgz:94130.got - 2010.06.03 16:44:36.
