data_PCOD9228276
_publ_section_title
;
Structure prediction by ZEFSAII (Michael W. Deem and Ramdas Pophale) SiO2 
 PCOD9228276
Probable space group: P 2/C
;
_chemical_formula_sum "Si O2"
_cell_formula_units_Z 20
_cell_length_a 5.091860
_cell_length_b 9.390939
_cell_length_c 24.592992
_cell_angle_alpha 90.000000
_cell_angle_beta 129.557693
_cell_angle_gamma 90.000000
_cell_volume 906.654959
_symmetry_space_group_name_H-M "P 2/C"
_symmetry_group_IT_number 13
_symmetry_cell_setting 'monoclinic'
loop_
_space_group_symop_operation_xyz
x,y,z
-x,y,1/2-z
-x,-y,-z
x,-y,1/2+z
loop_
_atom_site_type_symbol
_atom_site_label
_atom_site_fract_x
_atom_site_fract_y
_atom_site_fract_z
Si Si1 0.940952 0.759294 0.593320
Si Si2 0.233590 0.952760 0.137169
Si Si3 0.146714 0.227071 0.825673
Si Si4 0.177696 0.549789 0.421679
Si Si5 0.859045 0.209846 0.503005
O O1 0.018853 0.595178 0.618057
O O2 0.549209 0.787624 0.559072
O O3 0.963141 0.771055 0.530919
O O4 0.196645 0.881746 0.647168
O O5 0.571945 0.889891 0.154512
O O6 0.128975 0.859000 0.175052
O O7 0.954403 0.924791 0.052569
O O8 0.259306 0.355917 0.879685
O O9 0.000000 0.284602 0.750000
O O10 0.500000 0.500000 0.500000
O O11 0.013167 0.660457 0.441975
#
# Coordination Sequence:
#
# PCOD9228276 Si02
#       5
#     4   4   4   4   4
#     4  11  20  33  57  91 121 150 192 253 308 359
#     4  11  21  37  59  85 116 159 204 250 300 368
#     4  11  24  42  61  82 118 169 214 252 312 391
#     4   9  20  37  60  91 123 156 198 255 315 375
#     4  10  19  33  55  89 125 156 187 238 310 381
#
# _framework density 22.059106
#
# number of rings (size 3 to 8) (size 9 to 14) (size 15 to 20)
#    0.000    1.600    0.000    7.200    0.000    4.800 
#    0.000    1.000    0.000    7.200    0.000    0.000 
#    0.000    0.000    0.000    0.000    0.000    0.000 
#
# Total GULP energy -111635.580643 kJ/mol
# GULP energy per Si atom -5581.779032 kJ/mol
# Density = 2.200890 g / cm^3
# Si number density = 22.059106 Si / 1000 Ang^3
#
#
#
# Elastic Constant Matrix: (Units=GPa)
#
#
# Indices 1 2 3 4 5 6 
#
# 1 94.7666 40.3003 27.8325 0.0000 -11.3960 0.0000
# 2 40.3003 168.3300 32.2723 0.0000 -1.3724 0.0000
# 3 27.8325 32.2723 73.9904 0.0000 -22.5687 0.0000
# 4 0.0000 0.0000 0.0000 11.0260 0.0000 1.1072
# 5 -11.3960 -1.3724 -22.5687 0.0000 28.1681 0.0000
# 6 0.0000 0.0000 0.0000 1.1072 0.0000 19.6577
#
#
#
# Elastic Compliance Matrix: (Units=1/GPa)
#
#
# Indices 1 2 3 4 5 6 
#
# 1 0.012787 -0.002485 -0.002892 0.000000 0.002735 0.000000
# 2 -0.002485 0.007110 -0.003133 0.000000 -0.003169 0.000000
# 3 -0.002892 -0.003133 0.020601 0.000000 0.015183 0.000000
# 4 0.000000 0.000000 0.000000 0.091211 0.000000 -0.005137
# 5 0.002735 -0.003169 0.015183 0.000000 0.048618 0.000000
# 6 0.000000 0.000000 0.000000 -0.005137 0.000000 0.051160
#
#
# Mechanical properties :
#
#
# Convention : Reuss Voigt Hill
#
# Bulk Modulus (GPa) = 42.59243 59.76635 51.17939
# Shear Modulus (GPa) = 19.50582 27.54917 23.52749
#
# Velocity S-wave (km/s) = 2.97686 3.53778 3.26938
# Velocity P-wave (km/s) = 5.58264 6.62121 6.12398
#
# Compressibility (1/GPa) = 0.02347835
#
# Stress axis : x y z
#
# Youngs Moduli (GPa) = 78.20357 140.63768 48.54123
#
# Poissons Ratio (x) = 0.34943 0.14038
# Poissons Ratio (y) = 0.19431 0.15210
# Poissons Ratio (z) = 0.22617 0.44068
#
# Static dielectric constant tensor:
#      x y z
#    x 1.811480 0.000000 0.041620 
#    y 0.000000 1.939700 0.000000 
#    z 0.041620 0.000000 1.820330 
# 
# From -- ./inp_files/90340.got.cif
#   From: 2010.05.17/outbox.cif.g08.bks.cpg/sg13_46_cif.got.tgz:90340.got - 2010.06.03 16:44:36.
