data_PCOD9228440
_publ_section_title
;
Structure prediction by ZEFSAII (Michael W. Deem and Ramdas Pophale) SiO2 
 PCOD9228440
Probable space group: P 2/C
;
_chemical_formula_sum "Si O2"
_cell_formula_units_Z 30
_cell_length_a 14.892744
_cell_length_b 6.342237
_cell_length_c 14.896487
_cell_angle_alpha 90.000000
_cell_angle_beta 73.687170
_cell_angle_gamma 90.000000
_cell_volume 1350.379212
_symmetry_space_group_name_H-M "P 2/C"
_symmetry_group_IT_number 13
_symmetry_cell_setting 'monoclinic'
loop_
_space_group_symop_operation_xyz
x,y,z
-x,y,1/2-z
-x,-y,-z
x,-y,1/2+z
loop_
_atom_site_type_symbol
_atom_site_label
_atom_site_fract_x
_atom_site_fract_y
_atom_site_fract_z
Si Si1 0.071326 0.194996 0.992960
Si Si2 0.304969 0.445384 0.342439
Si Si3 0.500000 0.682778 0.750000
Si Si4 0.809123 0.678852 0.278812
Si Si5 0.959179 0.556986 0.647352
Si Si6 0.189444 0.065805 0.342178
Si Si7 0.480996 0.792323 0.559797
Si Si8 0.667523 0.518671 0.466303
O O1 0.054534 0.315454 0.092212
O O2 0.048136 0.367819 0.922845
O O3 0.166214 0.080978 0.934569
O O4 0.000000 0.000000 0.000000
O O5 0.413138 0.469369 0.291967
O O6 0.247457 0.577107 0.287787
O O7 0.282860 0.197534 0.333076
O O8 0.285715 0.508440 0.449731
O O9 0.482928 0.816921 0.666033
O O10 0.909602 0.556821 0.248098
O O11 0.744559 0.629989 0.382010
O O12 0.817413 0.921595 0.245099
O O13 0.886375 0.746648 0.646192
O O14 0.572983 0.653515 0.510022
O O15 0.380760 0.688237 0.562770
O O16 0.500000 0.000000 0.500000
#
# Coordination Sequence:
#
# PCOD9228440 Si02
#       8
#     4   4   2   4   4   4   4   4
#     4   8  13  26  48  78 111 143 183 224 281 350
#     4  10  21  36  53  77 112 144 191 242 293 347
#     4  10  20  38  56  74 112 148 192 246 286 354
#     4  10  19  34  56  79 109 145 189 239 293 348
#     4   8  15  27  48  80 111 138 182 236 277 342
#     4   9  18  30  50  82 107 144 185 228 289 343
#     4  10  22  39  56  81 109 149 195 241 298 349
#     4  10  22  38  55  80 110 146 193 244 288 353
#
# _framework density 22.215983000000001
#
# number of rings (size 3 to 8) (size 9 to 14) (size 15 to 20)
#    0.000    2.667    1.333    0.000    1.867    2.133 
#    0.000    0.667    0.000    0.000    0.000  121.333 
#    0.000    0.000    0.000    0.000    0.000    0.000 
#
# Total GULP energy -167031.354393 kJ/mol
# GULP energy per Si atom -5567.711813 kJ/mol
# Density = 2.216542 g / cm^3
# Si number density = 22.215983 Si / 1000 Ang^3
#
#
#
# Elastic Constant Matrix: (Units=GPa)
#
#
# Indices 1 2 3 4 5 6 
#
# 1 41.5700 13.0587 23.1130 0.0000 -20.1278 0.0000
# 2 13.0587 108.0377 35.6534 0.0000 -4.3956 0.0000
# 3 23.1130 35.6534 138.6393 0.0000 -11.5349 0.0000
# 4 0.0000 0.0000 0.0000 15.2052 0.0000 -5.2598
# 5 -20.1278 -4.3956 -11.5349 0.0000 37.2464 0.0000
# 6 0.0000 0.0000 0.0000 -5.2598 0.0000 1.0833
#
#
#
# Elastic Compliance Matrix: (Units=1/GPa)
#
#
# Indices 1 2 3 4 5 6 
#
# 1 0.035500 -0.002298 -0.003853 0.000000 0.017719 0.000000
# 2 -0.002298 0.010269 -0.002320 0.000000 -0.000749 0.000000
# 3 -0.003853 -0.002320 0.008474 0.000000 0.000269 0.000000
# 4 0.000000 0.000000 0.000000 -0.096785 0.000000 -0.469913
# 5 0.017719 -0.000749 0.000269 0.000000 0.036418 0.000000
# 6 0.000000 0.000000 0.000000 -0.469913 0.000000 -1.358443
#
#
# Mechanical properties :
#
#
# Convention : Reuss Voigt Hill
#
# Bulk Modulus (GPa) = 26.80949 47.98856 37.39903
# Shear Modulus (GPa) = -3.74478 25.13512 10.69517
#
# Velocity S-wave (km/s) = -1.29972 3.36728 2.19650
# Velocity P-wave (km/s) = 3.13711 6.06349 4.82739
#
# Compressibility (1/GPa) = 0.03730022
#
# Stress axis : x y z
#
# Youngs Moduli (GPa) = 28.16933 97.38056 118.00465
#
# Poissons Ratio (x) = 0.22383 0.45466
# Poissons Ratio (y) = 0.06475 0.27376
# Poissons Ratio (z) = 0.10853 0.22592
#
# Static dielectric constant tensor:
#      x y z
#    x 1.901400 0.000000 -0.030950 
#    y 0.000000 1.847800 0.000000 
#    z -0.030950 0.000000 1.999530 
# 
# From -- ./inp_files/54652.got.cif
#   From: 2010.05.17/outbox.cif.g08.bks.cpg/sg13_28_cif.got.tgz:54652.got - 2010.06.03 16:44:36.
