data_PCOD9228533
_publ_section_title
;
Structure prediction by ZEFSAII (Michael W. Deem and Ramdas Pophale) SiO2 
 PCOD9228533
Probable space group: P 2/C
;
_chemical_formula_sum "Si O2"
_cell_formula_units_Z 28
_cell_length_a 5.624060
_cell_length_b 7.638707
_cell_length_c 29.439344
_cell_angle_alpha 90.000000
_cell_angle_beta 64.013073
_cell_angle_gamma 90.000000
_cell_volume 1136.858541
_symmetry_space_group_name_H-M "P 2/C"
_symmetry_group_IT_number 13
_symmetry_cell_setting 'monoclinic'
loop_
_space_group_symop_operation_xyz
x,y,z
-x,y,1/2-z
-x,-y,-z
x,-y,1/2+z
loop_
_atom_site_type_symbol
_atom_site_label
_atom_site_fract_x
_atom_site_fract_y
_atom_site_fract_z
Si Si1 0.179809 0.910681 0.539539
Si Si2 0.886914 0.839794 0.807739
Si Si3 0.503413 0.400287 0.047529
Si Si4 0.727490 0.833867 0.641869
Si Si5 0.205275 0.442588 0.659182
Si Si6 0.986205 0.741581 0.471050
Si Si7 0.258761 0.593123 0.358782
O O1 0.345544 0.781816 0.557259
O O2 0.885482 0.899506 0.584993
O O3 0.187190 0.840756 0.487452
O O4 0.221030 0.117513 0.532874
O O5 0.577223 0.891544 0.836171
O O6 0.873776 0.626322 0.811317
O O7 0.000000 0.894852 0.750000
O O8 0.092598 0.891917 0.830272
O O9 0.361708 0.504573 0.099361
O O10 0.500000 0.500000 0.000000
O O11 0.814439 0.364816 0.022402
O O12 0.732057 0.620299 0.642496
O O13 0.435390 0.348878 0.668423
O O14 0.937847 0.350510 0.665108
O O15 0.124353 0.652785 0.417057
#
# Coordination Sequence:
#
# PCOD9228533 Si02
#       7
#     4   4   4   4   4   4   4
#     4  11  23  36  49  79 117 154 192 238 275 327
#     4  10  19  34  59  88 110 135 181 243 296 334
#     4  12  20  34  55  76 112 152 190 234 268 334
#     4  10  20  37  56  82 113 143 183 234 287 337
#     4  10  20  33  57  79 114 136 189 228 283 326
#     4  11  23  34  51  77 114 158 198 226 274 329
#     4  10  19  36  52  79 105 148 188 223 270 334
#
# _framework density 24.629273000000001
#
# number of rings (size 3 to 8) (size 9 to 14) (size 15 to 20)
#    0.000    1.429    4.286    3.429    0.000    1.714 
#    0.000    0.000    0.000    0.000    0.000   24.000 
#    0.000    0.000    0.000    0.000    0.000    0.000 
#
# Total GULP energy -156415.128582 kJ/mol
# GULP energy per Si atom -5586.254592 kJ/mol
# Density = 2.457322 g / cm^3
# Si number density = 24.629273 Si / 1000 Ang^3
#
#
#
# Elastic Constant Matrix: (Units=GPa)
#
#
# Indices 1 2 3 4 5 6 
#
# 1 202.3074 16.6620 28.6736 0.0000 -2.8495 0.0000
# 2 16.6620 38.2153 -6.9267 0.0000 -1.1532 0.0000
# 3 28.6736 -6.9267 52.3780 0.0000 -0.3169 0.0000
# 4 0.0000 0.0000 0.0000 12.7961 0.0000 -3.4094
# 5 -2.8495 -1.1532 -0.3169 0.0000 30.0600 0.0000
# 6 0.0000 0.0000 0.0000 -3.4094 0.0000 9.6106
#
#
#
# Elastic Compliance Matrix: (Units=1/GPa)
#
#
# Indices 1 2 3 4 5 6 
#
# 1 0.005706 -0.003117 -0.003533 0.000000 0.000384 0.000000
# 2 -0.003117 0.028547 0.005487 0.000000 0.000858 0.000000
# 3 -0.003533 0.005487 0.021753 0.000000 0.000105 0.000000
# 4 0.000000 0.000000 0.000000 0.086307 0.000000 0.030618
# 5 0.000384 0.000858 0.000105 0.000000 0.033337 0.000000
# 6 0.000000 0.000000 0.000000 0.030618 0.000000 0.114914
#
#
# Mechanical properties :
#
#
# Convention : Reuss Voigt Hill
#
# Bulk Modulus (GPa) = 18.62960 41.07983 29.85471
# Shear Modulus (GPa) = 16.08837 27.45946 21.77392
#
# Velocity S-wave (km/s) = 2.55859 3.34265 2.97655
# Velocity P-wave (km/s) = 4.03844 5.62256 4.89501
#
# Compressibility (1/GPa) = 0.05367802
#
# Stress axis : x y z
#
# Youngs Moduli (GPa) = 175.25804 35.03025 45.97172
#
# Poissons Ratio (x) = 0.10918 0.16244
# Poissons Ratio (y) = 0.54622 -0.25223
# Poissons Ratio (z) = 0.61926 -0.19219
#
# Static dielectric constant tensor:
#      x y z
#    x 2.150530 0.000000 0.004410 
#    y 0.000000 2.106890 0.000000 
#    z 0.004410 0.000000 1.882880 
# 
# From -- ./inp_files/94981.got.cif
#   From: 2010.05.17/outbox.cif.g08.bks.cpg/sg13_48_cif.got.tgz:94981.got - 2010.06.03 16:44:36.
