data_PCOD9228649
_publ_section_title
;
Structure prediction by ZEFSAII (Michael W. Deem and Ramdas Pophale) SiO2 
 PCOD9228649
Probable space group: P 2/C
;
_chemical_formula_sum "Si O2"
_cell_formula_units_Z 28
_cell_length_a 11.635286
_cell_length_b 5.962047
_cell_length_c 19.342115
_cell_angle_alpha 90.000000
_cell_angle_beta 62.541487
_cell_angle_gamma 90.000000
_cell_volume 1190.608282
_symmetry_space_group_name_H-M "P 2/C"
_symmetry_group_IT_number 13
_symmetry_cell_setting 'monoclinic'
loop_
_space_group_symop_operation_xyz
x,y,z
-x,y,1/2-z
-x,-y,-z
x,-y,1/2+z
loop_
_atom_site_type_symbol
_atom_site_label
_atom_site_fract_x
_atom_site_fract_y
_atom_site_fract_z
Si Si1 0.322439 0.415358 0.870916
Si Si2 0.294970 0.369585 0.074782
Si Si3 0.514646 0.749771 0.428510
Si Si4 0.681410 0.848439 0.264476
Si Si5 0.832683 0.798631 0.633622
Si Si6 0.859489 0.519456 0.758644
Si Si7 0.913193 0.691402 0.986389
O O1 0.435076 0.406046 0.895820
O O2 0.360848 0.333138 0.783415
O O3 0.259991 0.662476 0.892168
O O4 0.204003 0.250729 0.928524
O O5 0.377450 0.600130 0.062325
O O6 0.232064 0.329457 0.166998
O O7 0.173954 0.384213 0.055412
O O8 0.400237 0.193120 0.014668
O O9 0.578237 0.909411 0.352540
O O10 0.795623 0.723653 0.273536
O O11 0.741992 0.042773 0.203031
O O12 0.870003 0.606320 0.678596
O O13 0.975202 0.866483 0.567521
O O14 0.000000 0.512914 0.750000
O O15 0.000000 0.500000 0.000000
#
# Coordination Sequence:
#
# PCOD9228649 Si02
#       7
#     4   4   4   4   4   4   4
#     4   9  19  36  58  83 115 158 194 242 293 351
#     4   9  17  33  59  83 111 153 192 244 291 351
#     4   9  18  35  58  82 115 155 199 235 297 353
#     4  10  21  35  55  88 117 152 194 243 295 354
#     4  10  20  35  57  88 116 154 196 243 297 353
#     4  10  19  35  58  83 117 152 192 242 299 354
#     4   9  17  32  58  85 114 149 194 238 297 356
#
# _framework density 23.517391
#
# number of rings (size 3 to 8) (size 9 to 14) (size 15 to 20)
#    0.000    2.571    1.429    0.429    0.000    1.143 
#    0.000    9.286    0.000    5.143    0.000    0.000 
#    0.000    0.000    0.000    0.000    0.000    0.000 
#
# Total GULP energy -155877.320350 kJ/mol
# GULP energy per Si atom -5567.047155 kJ/mol
# Density = 2.346386 g / cm^3
# Si number density = 23.517391 Si / 1000 Ang^3
#
#
#
# Elastic Constant Matrix: (Units=GPa)
#
#
# Indices 1 2 3 4 5 6 
#
# 1 122.9612 21.8318 26.1704 0.0000 -10.1827 0.0000
# 2 21.8318 21.5810 11.3566 0.0000 -10.2385 0.0000
# 3 26.1704 11.3566 152.3494 0.0000 -25.3323 0.0000
# 4 0.0000 0.0000 0.0000 34.9446 0.0000 -3.6793
# 5 -10.1827 -10.2385 -25.3323 0.0000 36.7934 0.0000
# 6 0.0000 0.0000 0.0000 -3.6793 0.0000 5.8786
#
#
#
# Elastic Compliance Matrix: (Units=1/GPa)
#
#
# Indices 1 2 3 4 5 6 
#
# 1 0.010076 -0.009964 -0.001113 0.000000 -0.000750 0.000000
# 2 -0.009964 0.063632 -0.000617 0.000000 0.014525 0.000000
# 3 -0.001113 -0.000617 0.007590 0.000000 0.004746 0.000000
# 4 0.000000 0.000000 0.000000 0.030636 0.000000 0.019174
# 5 -0.000750 0.014525 0.004746 0.000000 0.034281 0.000000
# 6 0.000000 0.000000 0.000000 0.019174 0.000000 0.182110
#
#
# Mechanical properties :
#
#
# Convention : Reuss Voigt Hill
#
# Bulk Modulus (GPa) = 17.26759 46.17880 31.72320
# Shear Modulus (GPa) = 13.47652 31.35884 22.41768
#
# Velocity S-wave (km/s) = 2.39643 3.65558 3.09081
# Velocity P-wave (km/s) = 3.87500 6.12343 5.12406
#
# Compressibility (1/GPa) = 0.05791196
#
# Stress axis : x y z
#
# Youngs Moduli (GPa) = 99.24108 15.71536 131.74888
#
# Poissons Ratio (x) = 0.15658 0.14663
# Poissons Ratio (y) = 0.98882 0.08124
# Poissons Ratio (z) = 0.11045 0.00969
#
# Static dielectric constant tensor:
#      x y z
#    x 1.898730 0.000000 -0.065450 
#    y 0.000000 1.967180 0.000000 
#    z -0.065450 0.000000 1.987010 
# 
# From -- ./inp_files/77465.got.cif
#   From: 2010.05.17/outbox.cif.g08.bks.cpg/sg13_39_cif.got.tgz:77465.got - 2010.06.03 16:44:36.
