data_PCOD9228458
_publ_section_title
;
Structure prediction by ZEFSAII (Michael W. Deem and Ramdas Pophale) SiO2 
 PCOD9228458
Probable space group: P 2/C
;
_chemical_formula_sum "Si O2"
_cell_formula_units_Z 28
_cell_length_a 16.023374
_cell_length_b 12.961258
_cell_length_c 10.713199
_cell_angle_alpha 90.000000
_cell_angle_beta 41.541608
_cell_angle_gamma 90.000000
_cell_volume 1475.506354
_symmetry_space_group_name_H-M "P 2/C"
_symmetry_group_IT_number 13
_symmetry_cell_setting 'monoclinic'
loop_
_space_group_symop_operation_xyz
x,y,z
-x,y,1/2-z
-x,-y,-z
x,-y,1/2+z
loop_
_atom_site_type_symbol
_atom_site_label
_atom_site_fract_x
_atom_site_fract_y
_atom_site_fract_z
Si Si1 0.851555 0.909198 0.447318
Si Si2 0.382750 0.048152 0.468824
Si Si3 0.948875 0.725984 0.939797
Si Si4 0.370196 0.810572 0.450929
Si Si5 0.246374 0.883385 0.337060
Si Si6 0.082438 0.504066 0.035177
Si Si7 0.192420 0.292026 0.341857
O O1 0.750228 0.929126 0.450760
O O2 0.821756 0.798152 0.540484
O O3 0.000000 0.915297 0.250000
O O4 0.816402 0.004155 0.578731
O O5 0.500000 0.078213 0.250000
O O6 0.369605 0.104981 0.614802
O O7 0.393486 0.925596 0.478453
O O8 0.882215 0.616042 0.987724
O O9 0.000000 0.766721 0.750000
O O10 0.067762 0.713779 0.895745
O O11 0.853650 0.805182 0.107461
O O12 0.500000 0.769159 0.250000
O O13 0.280806 0.835707 0.432728
O O14 0.306747 0.737622 0.623359
O O15 0.000000 0.531398 0.250000
O O16 0.187494 0.592057 0.901703
O O17 0.000000 0.500000 0.000000
#
# Coordination Sequence:
#
# PCOD9228458 Si02
#       7
#     4   4   4   4   4   4   4
#     4  11  23  33  54  87 117 144 182 238 292 333
#     4  10  23  38  54  80 116 160 193 225 282 351
#     4  10  19  34  56  87 111 143 183 226 287 342
#     4  10  22  35  56  82 108 154 196 230 275 336
#     4  11  21  35  57  79 116 146 185 233 280 343
#     4   9  20  36  59  85 114 148 186 230 286 352
#     4  11  20  36  57  84 115 144 185 236 283 339
#
# _framework density 18.976535999999999
#
# number of rings (size 3 to 8) (size 9 to 14) (size 15 to 20)
#    0.000    1.714    2.857    1.714    4.000    4.000 
#    0.000    0.000    0.000    1.714    0.000    0.000 
#    0.000    0.000    0.000    0.000    0.000    0.000 
#
# Total GULP energy -156167.081122 kJ/mol
# GULP energy per Si atom -5577.395754 kJ/mol
# Density = 1.893334 g / cm^3
# Si number density = 18.976536 Si / 1000 Ang^3
#
#
#
# Elastic Constant Matrix: (Units=GPa)
#
#
# Indices 1 2 3 4 5 6 
#
# 1 48.5171 5.0651 19.3362 0.0000 -7.9090 0.0000
# 2 5.0651 89.3844 63.8834 0.0000 -4.9067 0.0000
# 3 19.3362 63.8834 150.1239 0.0000 -3.4080 0.0000
# 4 0.0000 0.0000 0.0000 28.3285 0.0000 5.6426
# 5 -7.9090 -4.9067 -3.4080 0.0000 26.9416 0.0000
# 6 0.0000 0.0000 0.0000 5.6426 0.0000 11.3986
#
#
#
# Elastic Compliance Matrix: (Units=1/GPa)
#
#
# Indices 1 2 3 4 5 6 
#
# 1 0.022897 0.001529 -0.003451 0.000000 0.006564 0.000000
# 2 0.001529 0.016295 -0.007074 0.000000 0.002522 0.000000
# 3 -0.003451 -0.007074 0.010093 0.000000 -0.001025 0.000000
# 4 0.000000 0.000000 0.000000 0.039161 0.000000 -0.019386
# 5 0.006564 0.002522 -0.001025 0.000000 0.039374 0.000000
# 6 0.000000 0.000000 0.000000 -0.019386 0.000000 0.097326
#
#
# Mechanical properties :
#
#
# Convention : Reuss Voigt Hill
#
# Bulk Modulus (GPa) = 31.95557 51.62165 41.78861
# Shear Modulus (GPa) = 19.71852 26.64981 23.18416
#
# Velocity S-wave (km/s) = 3.22700 3.75154 3.49911
# Velocity P-wave (km/s) = 5.54624 6.78434 6.19630
#
# Compressibility (1/GPa) = 0.03129345
#
# Stress axis : x y z
#
# Youngs Moduli (GPa) = 43.67399 61.36780 99.08240
#
# Poissons Ratio (x) = -0.09384 0.34192
# Poissons Ratio (y) = -0.06679 0.70090
# Poissons Ratio (z) = 0.15071 0.43411
#
# Static dielectric constant tensor:
#      x y z
#    x 1.735790 0.000000 0.016400 
#    y 0.000000 1.668960 0.000000 
#    z 0.016400 0.000000 1.665980 
# 
# From -- ./inp_files/33315.got.cif
#   From: 2010.05.17/outbox.cif.g08.bks.cpg/sg13_17_cif.got.tgz:33315.got - 2010.06.03 16:44:36.
