data_PCOD9228406
_publ_section_title
;
Structure prediction by ZEFSAII (Michael W. Deem and Ramdas Pophale) SiO2 
 PCOD9228406
Probable space group: P 2/C
;
_chemical_formula_sum "Si O2"
_cell_formula_units_Z 30
_cell_length_a 11.692078
_cell_length_b 9.466106
_cell_length_c 17.581617
_cell_angle_alpha 90.000000
_cell_angle_beta 43.971599
_cell_angle_gamma 90.000000
_cell_volume 1351.045951
_symmetry_space_group_name_H-M "P 2/C"
_symmetry_group_IT_number 13
_symmetry_cell_setting 'monoclinic'
loop_
_space_group_symop_operation_xyz
x,y,z
-x,y,1/2-z
-x,-y,-z
x,-y,1/2+z
loop_
_atom_site_type_symbol
_atom_site_label
_atom_site_fract_x
_atom_site_fract_y
_atom_site_fract_z
Si Si1 0.969245 0.323695 0.946814
Si Si2 0.226658 0.980216 0.198368
Si Si3 0.127474 0.963720 0.078509
Si Si4 0.521399 0.994330 0.157565
Si Si5 0.249169 0.353801 0.694505
Si Si6 0.095772 0.356745 0.043855
Si Si7 0.470308 0.671859 0.346422
Si Si8 0.000000 0.433572 0.250000
O O1 0.885856 0.204078 0.935372
O O2 0.886652 0.476403 0.984018
O O3 0.144763 0.354580 0.823080
O O4 0.999165 0.284637 0.020360
O O5 0.180471 0.024682 0.135442
O O6 0.393962 0.045074 0.153214
O O7 0.243397 0.810196 0.174006
O O8 0.068549 0.002097 0.329712
O O9 0.285180 0.004355 0.952797
O O10 0.500000 0.064631 0.250000
O O11 0.460294 0.831717 0.193756
O O12 0.430774 0.398492 0.632258
O O13 0.155576 0.460120 0.683703
O O14 0.013515 0.347377 0.165735
O O15 0.281800 0.308273 0.956034
O O16 0.500000 0.602752 0.250000
#
# Coordination Sequence:
#
# PCOD9228406 Si02
#       8
#     4   4   4   4   4   4   4   2
#     4   9  18  33  59  82 105 143 188 229 273 326
#     4   9  18  34  59  86 107 140 190 238 280 319
#     4  10  19  36  61  84 110 145 188 234 282 332
#     4  10  22  36  55  82 115 149 187 232 278 336
#     4   9  16  32  56  81 103 139 187 234 263 326
#     4  10  19  34  54  80 112 143 179 229 273 336
#     4  10  19  34  55  78 105 141 191 231 268 319
#     4  10  20  32  52  82 118 146 178 222 290 336
#
# _framework density 22.205017999999999
#
# number of rings (size 3 to 8) (size 9 to 14) (size 15 to 20)
#    0.000    2.400    1.333    2.800    1.867    1.067 
#    0.000    2.000    5.867    0.000    0.000    0.000 
#    0.000    0.000    0.000    0.000    0.000    0.000 
#
# Total GULP energy -167021.272902 kJ/mol
# GULP energy per Si atom -5567.375763 kJ/mol
# Density = 2.215448 g / cm^3
# Si number density = 22.205018 Si / 1000 Ang^3
#
#
#
# Elastic Constant Matrix: (Units=GPa)
#
#
# Indices 1 2 3 4 5 6 
#
# 1 105.8582 13.1761 14.1597 0.0000 2.6433 0.0000
# 2 13.1761 35.6573 -3.4591 0.0000 -6.9954 0.0000
# 3 14.1597 -3.4591 80.1904 0.0000 7.2205 0.0000
# 4 0.0000 0.0000 0.0000 17.0892 0.0000 -6.5681
# 5 2.6433 -6.9954 7.2205 0.0000 35.0213 0.0000
# 6 0.0000 0.0000 0.0000 -6.5681 0.0000 4.2012
#
#
#
# Elastic Compliance Matrix: (Units=1/GPa)
#
#
# Indices 1 2 3 4 5 6 
#
# 1 0.010253 -0.004212 -0.001882 0.000000 -0.001227 0.000000
# 2 -0.004212 0.030963 0.001522 0.000000 0.006189 0.000000
# 3 -0.001882 0.001522 0.013071 0.000000 -0.002249 0.000000
# 4 0.000000 0.000000 0.000000 0.146612 0.000000 0.229209
# 5 -0.001227 0.006189 -0.002249 0.000000 0.030347 0.000000
# 6 0.000000 0.000000 0.000000 0.229209 0.000000 0.596365
#
#
# Mechanical properties :
#
#
# Convention : Reuss Voigt Hill
#
# Bulk Modulus (GPa) = 22.15147 29.93991 26.04569
# Shear Modulus (GPa) = 5.86992 24.45095 15.16043
#
# Velocity S-wave (km/s) = 1.62765 3.32195 2.61578
# Velocity P-wave (km/s) = 3.67830 5.31286 4.56926
#
# Compressibility (1/GPa) = 0.04514374
#
# Stress axis : x y z
#
# Youngs Moduli (GPa) = 97.53034 32.29658 76.50684
#
# Poissons Ratio (x) = 0.13604 0.14396
# Poissons Ratio (y) = 0.41081 -0.11645
# Poissons Ratio (z) = 0.18352 -0.04916
#
# Static dielectric constant tensor:
#      x y z
#    x 1.941830 0.000000 0.028960 
#    y 0.000000 1.854890 0.000000 
#    z 0.028960 0.000000 1.819060 
# 
# From -- ./inp_files/66644.got.cif
#   From: 2010.05.17/outbox.cif.g08.bks.cpg/sg13_34_cif.got.tgz:66644.got - 2010.06.03 16:44:36.
