data_PCOD9228937
_publ_section_title
;
Structure prediction by ZEFSAII (Michael W. Deem and Ramdas Pophale) SiO2 
 PCOD9228937
Probable space group: P 2/C
;
_chemical_formula_sum "Si O2"
_cell_formula_units_Z 20
_cell_length_a 9.769108
_cell_length_b 12.570189
_cell_length_c 10.331690
_cell_angle_alpha 90.000000
_cell_angle_beta 136.705765
_cell_angle_gamma 90.000000
_cell_volume 870.023157
_symmetry_space_group_name_H-M "P 2/C"
_symmetry_group_IT_number 13
_symmetry_cell_setting 'monoclinic'
loop_
_space_group_symop_operation_xyz
x,y,z
-x,y,1/2-z
-x,-y,-z
x,-y,1/2+z
loop_
_atom_site_type_symbol
_atom_site_label
_atom_site_fract_x
_atom_site_fract_y
_atom_site_fract_z
Si Si1 0.732465 0.921233 0.907028
Si Si2 0.660127 0.299755 0.977213
Si Si3 0.362133 0.532039 0.527518
Si Si4 0.717136 0.752633 0.123937
Si Si5 0.935070 0.148290 0.026321
O O1 0.500000 0.950035 0.750000
O O2 0.853895 0.030393 0.000831
O O3 0.750089 0.839180 0.036443
O O4 0.833103 0.865475 0.851111
O O5 0.500000 0.298681 0.750000
O O6 0.747561 0.419316 0.031425
O O7 0.515655 0.264883 0.995379
O O8 0.833815 0.219090 0.065838
O O9 0.500000 0.553317 0.750000
O O10 0.500000 0.500000 0.500000
O O11 0.236814 0.635355 0.401339
O O12 0.838353 0.797790 0.329902
#
# Coordination Sequence:
#
# PCOD9228937 Si02
#       5
#     4   4   4   4   4
#     4  11  23  38  58  85 118 160 208 258 317 381
#     4   8  16  33  59  89 122 157 198 250 311 373
#     4   9  17  32  60  97 132 169 209 257 320 386
#     4  10  19  36  61  87 120 162 205 253 313 381
#     4  10  22  39  59  86 120 160 206 260 320 382
#
# _framework density 22.987895999999999
#
# number of rings (size 3 to 8) (size 9 to 14) (size 15 to 20)
#    0.000    2.400    0.000    4.200    0.000    3.200 
#    0.000    4.000    0.000    7.200    0.000    0.000 
#    0.000    0.000    0.000    0.000    0.000    0.000 
#
# Total GULP energy -111513.163427 kJ/mol
# GULP energy per Si atom -5575.658171 kJ/mol
# Density = 2.293557 g / cm^3
# Si number density = 22.987896 Si / 1000 Ang^3
#
#
#
# Elastic Constant Matrix: (Units=GPa)
#
#
# Indices 1 2 3 4 5 6 
#
# 1 146.9626 59.8644 44.0320 0.0000 10.2178 0.0000
# 2 59.8644 177.4925 40.7930 0.0000 5.8137 0.0000
# 3 44.0320 40.7930 53.2785 0.0000 6.5031 0.0000
# 4 0.0000 0.0000 0.0000 -5.9294 0.0000 -40.5746
# 5 10.2178 5.8137 6.5031 0.0000 25.0035 0.0000
# 6 0.0000 0.0000 0.0000 -40.5746 0.0000 4.3485
#
#
#
# Elastic Compliance Matrix: (Units=1/GPa)
#
#
# Indices 1 2 3 4 5 6 
#
# 1 0.009525 -0.001693 -0.006351 0.000000 -0.001847 0.000000
# 2 -0.001693 0.007139 -0.004079 0.000000 0.000092 0.000000
# 3 -0.006351 -0.004079 0.027584 0.000000 -0.003631 0.000000
# 4 0.000000 0.000000 0.000000 -0.002601 0.000000 -0.024266
# 5 -0.001847 0.000092 -0.003631 0.000000 0.041672 0.000000
# 6 0.000000 0.000000 0.000000 -0.024266 0.000000 0.003546
#
#
# Mechanical properties :
#
#
# Convention : Reuss Voigt Hill
#
# Bulk Modulus (GPa) = 49.98903 74.12360 62.05631
# Shear Modulus (GPa) = 42.45294 20.22081 31.33688
#
# Velocity S-wave (km/s) = 4.30205 2.96907 3.69615
# Velocity P-wave (km/s) = 6.81688 6.63841 6.72823
#
# Compressibility (1/GPa) = 0.02000439
#
# Stress axis : x y z
#
# Youngs Moduli (GPa) = 104.98629 140.07017 36.25317
#
# Poissons Ratio (x) = 0.23707 0.23023
# Poissons Ratio (y) = 0.17769 0.14787
# Poissons Ratio (z) = 0.66673 0.57131
#
# Static dielectric constant tensor:
#      x y z
#    x 1.762280 0.000000 0.024410 
#    y 0.000000 1.890540 0.000000 
#    z 0.024410 0.000000 1.901050 
# 
# From -- ./inp_files/29128.got.cif
#   From: 2010.05.17/outbox.cif.g08.bks.cpg/sg13_15_cif.got.tgz:29128.got - 2010.06.03 16:44:36.
