data_PCOD9228094
_publ_section_title
;
Structure prediction by ZEFSAII (Michael W. Deem and Ramdas Pophale) SiO2 
 PCOD9228094
Probable space group: P 2/C
;
_chemical_formula_sum "Si O2"
_cell_formula_units_Z 18
_cell_length_a 7.566275
_cell_length_b 13.658745
_cell_length_c 11.450748
_cell_angle_alpha 90.000000
_cell_angle_beta 144.132318
_cell_angle_gamma 90.000000
_cell_volume 693.364586
_symmetry_space_group_name_H-M "P 2/C"
_symmetry_group_IT_number 13
_symmetry_cell_setting 'monoclinic'
loop_
_space_group_symop_operation_xyz
x,y,z
-x,y,1/2-z
-x,-y,-z
x,-y,1/2+z
loop_
_atom_site_type_symbol
_atom_site_label
_atom_site_fract_x
_atom_site_fract_y
_atom_site_fract_z
Si Si1 0.000000 0.834784 0.250000
Si Si2 0.088952 0.601189 0.492266
Si Si3 0.408713 0.657592 0.468106
Si Si4 0.478951 0.938315 0.369610
Si Si5 0.790212 0.743210 0.491687
O O1 0.725535 0.763918 0.066342
O O2 0.852700 0.890236 0.281590
O O3 0.827604 0.619544 0.254851
O O4 0.058410 0.693770 0.563474
O O5 0.000000 0.500000 0.500000
O O6 0.388070 0.593838 0.572635
O O7 0.707742 0.676802 0.558077
O O8 0.500000 0.983250 0.250000
O O9 0.745970 0.855718 0.508190
O O10 0.500000 0.000000 0.500000
O O11 0.500000 0.735370 0.250000
#
# Coordination Sequence:
#
# PCOD9228094 Si02
#       5
#     2   4   4   4   4
#     4   8  16  32  52  72  94 128 172 216 252 298
#     4   9  15  24  43  65  84 110 147 191 235 280
#     4   8  15  28  44  63  85 115 160 200 233 284
#     4  10  19  32  53  77 101 132 172 215 258 307
#     4   8  15  29  46  64  87 117 156 201 241 286
#
# _framework density 25.960367000000002
#
# number of rings (size 3 to 8) (size 9 to 14) (size 15 to 20)
#    0.000    3.556    0.000    4.000    0.000    1.778 
#    0.000    0.000    0.000   18.667    0.000    0.000 
#    0.000    0.000    0.000    0.000    0.000    0.000 
#
# Total GULP energy -100359.237075 kJ/mol
# GULP energy per Si atom -5575.513171 kJ/mol
# Density = 2.590128 g / cm^3
# Si number density = 25.960367 Si / 1000 Ang^3
#
#
#
# Elastic Constant Matrix: (Units=GPa)
#
#
# Indices 1 2 3 4 5 6 
#
# 1 171.3965 58.0581 66.6034 0.0000 -55.0603 0.0000
# 2 58.0581 95.3678 42.8153 0.0000 -33.2997 0.0000
# 3 66.6034 42.8153 94.6274 0.0000 -31.1193 0.0000
# 4 0.0000 0.0000 0.0000 6.6211 0.0000 -20.2508
# 5 -55.0603 -33.2997 -31.1193 0.0000 66.5061 0.0000
# 6 0.0000 0.0000 0.0000 -20.2508 0.0000 39.6881
#
#
#
# Elastic Compliance Matrix: (Units=1/GPa)
#
#
# Indices 1 2 3 4 5 6 
#
# 1 0.009900 -0.002367 -0.004245 0.000000 0.005025 0.000000
# 2 -0.002367 0.014968 -0.003884 0.000000 0.003718 0.000000
# 3 -0.004245 -0.003884 0.015976 0.000000 0.002016 0.000000
# 4 0.000000 0.000000 0.000000 -0.269412 0.000000 -0.137467
# 5 0.005025 0.003718 0.002016 0.000000 0.022001 0.000000
# 6 0.000000 0.000000 0.000000 -0.137467 0.000000 -0.044946
#
#
# Mechanical properties :
#
#
# Convention : Reuss Voigt Hill
#
# Bulk Modulus (GPa) = 50.36975 77.37171 63.87073
# Shear Modulus (GPa) = -22.33104 35.49073 6.57985
#
# Velocity S-wave (km/s) = -2.93609 3.70146 1.59376
# Velocity P-wave (km/s) = 2.81966 6.93803 5.29560
#
# Compressibility (1/GPa) = 0.01985319
#
# Stress axis : x y z
#
# Youngs Moduli (GPa) = 101.01290 66.80699 62.59411
#
# Poissons Ratio (x) = 0.15811 0.26569
# Poissons Ratio (y) = 0.23906 0.24313
# Poissons Ratio (z) = 0.42876 0.25950
#
# Static dielectric constant tensor:
#      x y z
#    x 2.072100 0.000000 0.036140 
#    y 0.000000 2.152200 0.000000 
#    z 0.036140 0.000000 2.178330 
# 
# From -- ./inp_files/29140.got.cif
#   From: 2010.05.17/outbox.cif.g08.bks.cpg/sg13_15_cif.got.tgz:29140.got - 2010.06.03 16:44:36.
