data_PCOD9228108
_publ_section_title
;
Structure prediction by ZEFSAII (Michael W. Deem and Ramdas Pophale) SiO2 
 PCOD9228108
Probable space group: P 2/C
;
_chemical_formula_sum "Si O2"
_cell_formula_units_Z 32
_cell_length_a 12.805730
_cell_length_b 5.603670
_cell_length_c 17.772054
_cell_angle_alpha 90.000000
_cell_angle_beta 106.764815
_cell_angle_gamma 90.000000
_cell_volume 1221.101746
_symmetry_space_group_name_H-M "P 2/C"
_symmetry_group_IT_number 13
_symmetry_cell_setting 'monoclinic'
loop_
_space_group_symop_operation_xyz
x,y,z
-x,y,1/2-z
-x,-y,-z
x,-y,1/2+z
loop_
_atom_site_type_symbol
_atom_site_label
_atom_site_fract_x
_atom_site_fract_y
_atom_site_fract_z
Si Si1 0.653044 0.499191 0.460128
Si Si2 0.541048 0.200317 0.066025
Si Si3 0.628734 0.316586 0.796287
Si Si4 0.853064 0.006199 0.155414
Si Si5 0.063337 0.990036 0.094998
Si Si6 0.930049 0.489148 0.408643
Si Si7 0.836445 0.505874 0.095970
Si Si8 0.297267 0.824895 0.759846
O O1 0.571349 0.290177 0.421281
O O2 0.601507 0.601598 0.526729
O O3 0.644540 0.672768 0.389061
O O4 0.775741 0.424717 0.506047
O O5 0.622481 0.145972 0.150526
O O6 0.500000 0.000000 0.000000
O O7 0.500000 0.334185 0.750000
O O8 0.682603 0.557710 0.769060
O O9 0.669889 0.056982 0.779994
O O10 0.972185 0.981730 0.142083
O O11 0.806064 0.735284 0.141127
O O12 0.806332 0.225579 0.095744
O O13 0.823174 0.119094 0.229619
O O14 0.126498 0.741760 0.111153
O O15 0.127103 0.237307 0.111162
O O16 0.000000 0.000000 0.000000
O O17 0.032840 0.491302 0.372644
O O18 0.000000 0.500000 0.500000
#
# Coordination Sequence:
#
# PCOD9228108 Si02
#       8
#     4   4   4   4   4   4   4   4
#     4  11  24  38  56  84 107 148 190 244 286 340
#     4  11  23  38  61  79 105 145 195 239 293 328
#     4  12  26  42  56  77 111 151 197 237 286 339
#     4  10  19  33  53  80 111 141 177 231 281 332
#     4   8  14  25  44  72 108 137 164 210 274 328
#     4   8  14  25  43  71 108 137 161 207 276 330
#     4  10  19  32  53  80 110 138 178 230 281 323
#     4  12  24  40  58  79 110 151 190 237 285 340
#
# _framework density 26.205843999999999
#
# number of rings (size 3 to 8) (size 9 to 14) (size 15 to 20)
#    0.000    1.750    2.500    2.625    3.500    0.000 
#    0.000    0.000    0.000    0.000    0.000    0.000 
#    0.000   96.000    0.000    0.000    0.000    0.000 
#
# Total GULP energy -178454.896433 kJ/mol
# GULP energy per Si atom -5576.715514 kJ/mol
# Density = 2.614620 g / cm^3
# Si number density = 26.205844 Si / 1000 Ang^3
#
#
#
# Elastic Constant Matrix: (Units=GPa)
#
#
# Indices 1 2 3 4 5 6 
#
# 1 87.7579 17.7004 9.0330 0.0000 1.9337 0.0000
# 2 17.7004 211.6767 17.3894 0.0000 -8.0752 0.0000
# 3 9.0330 17.3894 91.1276 0.0000 -1.8859 0.0000
# 4 0.0000 0.0000 0.0000 54.0238 0.0000 -12.3253
# 5 1.9337 -8.0752 -1.8859 0.0000 39.0846 0.0000
# 6 0.0000 0.0000 0.0000 -12.3253 0.0000 22.0729
#
#
#
# Elastic Compliance Matrix: (Units=1/GPa)
#
#
# Indices 1 2 3 4 5 6 
#
# 1 0.011703 -0.000928 -0.001000 0.000000 -0.000819 0.000000
# 2 -0.000928 0.004908 -0.000824 0.000000 0.001020 0.000000
# 3 -0.001000 -0.000824 0.011239 0.000000 0.000422 0.000000
# 4 0.000000 0.000000 0.000000 0.021213 0.000000 0.011845
# 5 -0.000819 0.001020 0.000422 0.000000 0.025857 0.000000
# 6 0.000000 0.000000 0.000000 0.011845 0.000000 0.051919
#
#
# Mechanical properties :
#
#
# Convention : Reuss Voigt Hill
#
# Bulk Modulus (GPa) = 44.74766 53.20088 48.97427
# Shear Modulus (GPa) = 35.76788 46.13222 40.95005
#
# Velocity S-wave (km/s) = 3.69844 4.20024 3.95730
# Velocity P-wave (km/s) = 5.94562 6.62328 6.29358
#
# Compressibility (1/GPa) = 0.02234754
#
# Stress axis : x y z
#
# Youngs Moduli (GPa) = 85.44764 203.73493 88.97881
#
# Poissons Ratio (x) = 0.18901 0.08898
# Poissons Ratio (y) = 0.07927 0.07328
# Poissons Ratio (z) = 0.08545 0.16779
#
# Static dielectric constant tensor:
#      x y z
#    x 1.891230 0.000000 -0.347830 
#    y 0.000000 2.102160 0.000000 
#    z -0.347830 0.000000 1.720970 
# 
# From -- ./inp_files/69046.got.cif
#   From: 2010.05.17/outbox.cif.g08.bks.cpg/sg13_35_cif.got.tgz:69046.got - 2010.06.03 16:44:36.
