data_PCOD9228035
_publ_section_title
;
Structure prediction by ZEFSAII (Michael W. Deem and Ramdas Pophale) SiO2 
 PCOD9228035
Probable space group: P 2/C
;
_chemical_formula_sum "Si O2"
_cell_formula_units_Z 24
_cell_length_a 12.846029
_cell_length_b 19.260250
_cell_length_c 5.352455
_cell_angle_alpha 90.000000
_cell_angle_beta 104.785908
_cell_angle_gamma 90.000000
_cell_volume 1280.439899
_symmetry_space_group_name_H-M "P 2/C"
_symmetry_group_IT_number 13
_symmetry_cell_setting 'monoclinic'
loop_
_space_group_symop_operation_xyz
x,y,z
-x,y,1/2-z
-x,-y,-z
x,-y,1/2+z
loop_
_atom_site_type_symbol
_atom_site_label
_atom_site_fract_x
_atom_site_fract_y
_atom_site_fract_z
Si Si1 0.869276 0.198172 0.199233
Si Si2 0.703860 0.569214 0.457598
Si Si3 0.121890 0.260349 0.792028
Si Si4 0.869618 0.037202 0.189760
Si Si5 0.064752 0.587366 0.050931
Si Si6 0.379371 0.414502 0.093874
O O1 0.831637 0.245877 0.406476
O O2 0.845546 0.117588 0.228530
O O3 0.000000 0.206419 0.250000
O O4 0.823531 0.221543 0.904352
O O5 0.824417 0.549838 0.451015
O O6 0.637031 0.497938 0.448825
O O7 0.698103 0.604966 0.723486
O O8 0.652593 0.612242 0.198572
O O9 0.103820 0.338785 0.688101
O O10 0.000000 0.230922 0.750000
O O11 0.000000 0.032555 0.250000
O O12 0.831480 0.990220 0.397493
O O13 0.000000 0.555689 0.250000
O O14 0.000000 0.598256 0.750000
O O15 0.500000 0.399086 0.250000
#
# Coordination Sequence:
#
# PCOD9228035 Si02
#       6
#     4   4   4   4   4   4
#     4   9  15  23  35  48  62  89 129 165 204 252
#     4  10  19  32  50  70  88 113 141 169 213 258
#     4   9  16  26  38  49  66  98 137 170 199 234
#     4   9  15  21  29  44  65  84 108 155 216 261
#     4  11  21  33  44  61  89 117 145 179 212 245
#     4  10  19  35  54  72  90 108 135 173 217 258
#
# _framework density 18.743559999999999
#
# number of rings (size 3 to 8) (size 9 to 14) (size 15 to 20)
#    0.000    2.333    0.000    7.000    0.000    4.000 
#    0.000   10.000    0.000    0.000    0.000    0.000 
#    0.000    0.000    0.000    0.000    0.000    0.000 
#
# Total GULP energy -133726.179206 kJ/mol
# GULP energy per Si atom -5571.924134 kJ/mol
# Density = 1.870090 g / cm^3
# Si number density = 18.743560 Si / 1000 Ang^3
#
#
#
# Elastic Constant Matrix: (Units=GPa)
#
#
# Indices 1 2 3 4 5 6 
#
# 1 38.0399 8.3085 14.5869 0.0000 -10.5676 0.0000
# 2 8.3085 57.4604 36.2305 0.0000 -13.0302 0.0000
# 3 14.5869 36.2305 98.3386 0.0000 -38.6696 0.0000
# 4 0.0000 0.0000 0.0000 -5.0194 0.0000 0.2974
# 5 -10.5676 -13.0302 -38.6696 0.0000 36.0588 0.0000
# 6 0.0000 0.0000 0.0000 0.2974 0.0000 3.7833
#
#
#
# Elastic Compliance Matrix: (Units=1/GPa)
#
#
# Indices 1 2 3 4 5 6 
#
# 1 0.028967 -0.002115 -0.000830 0.000000 0.006835 0.000000
# 2 -0.002115 0.022861 -0.008826 0.000000 -0.001824 0.000000
# 3 -0.000830 -0.008826 0.021086 0.000000 0.019180 0.000000
# 4 0.000000 0.000000 0.000000 -0.198302 0.000000 0.015590
# 5 0.006835 -0.001824 0.019180 0.000000 0.049645 0.000000
# 6 0.000000 0.000000 0.000000 0.015590 0.000000 0.263095
#
#
# Mechanical properties :
#
#
# Convention : Reuss Voigt Hill
#
# Bulk Modulus (GPa) = 20.25451 34.67675 27.46563
# Shear Modulus (GPa) = 21.99238 15.94539 18.96888
#
# Velocity S-wave (km/s) = 3.42911 2.91986 3.18468
# Velocity P-wave (km/s) = 5.14859 5.46884 5.31113
#
# Compressibility (1/GPa) = 0.04937171
#
# Stress axis : x y z
#
# Youngs Moduli (GPa) = 34.52184 43.74351 47.42500
#
# Poissons Ratio (x) = 0.09254 0.03935
# Poissons Ratio (y) = 0.07303 0.41857
# Poissons Ratio (z) = 0.02864 0.38608
#
# Static dielectric constant tensor:
#      x y z
#    x 1.675870 0.000000 -0.044210 
#    y 0.000000 1.676720 0.000000 
#    z -0.044210 0.000000 1.760290 
# 
# From -- ./inp_files/4004.got.cif
#   From: 2010.05.17/outbox.cif.g08.bks.cpg/sg13_3_cif.got.tgz:4004.got - 2010.06.03 16:44:36.
