data_PCOD9228592
_publ_section_title
;
Structure prediction by ZEFSAII (Michael W. Deem and Ramdas Pophale) SiO2 
 PCOD9228592
Probable space group: P 2/C
;
_chemical_formula_sum "Si O2"
_cell_formula_units_Z 28
_cell_length_a 5.237212
_cell_length_b 16.260215
_cell_length_c 16.867402
_cell_angle_alpha 90.000000
_cell_angle_beta 101.113215
_cell_angle_gamma 90.000000
_cell_volume 1409.462487
_symmetry_space_group_name_H-M "P 2/C"
_symmetry_group_IT_number 13
_symmetry_cell_setting 'monoclinic'
loop_
_space_group_symop_operation_xyz
x,y,z
-x,y,1/2-z
-x,-y,-z
x,-y,1/2+z
loop_
_atom_site_type_symbol
_atom_site_label
_atom_site_fract_x
_atom_site_fract_y
_atom_site_fract_z
Si Si1 0.933917 0.345025 0.981905
Si Si2 0.000000 0.166427 0.750000
Si Si3 0.781635 0.409325 0.798243
Si Si4 0.266066 0.408219 0.270081
Si Si5 0.500000 0.947539 0.250000
Si Si6 0.058730 0.826776 0.426207
Si Si7 0.441150 0.939862 0.070112
Si Si8 0.515576 0.582808 0.951528
O O1 0.859630 0.384791 0.891712
O O2 0.030582 0.251784 0.979657
O O3 0.666841 0.351197 0.014929
O O4 0.181687 0.392376 0.034530
O O5 0.249234 0.108710 0.751108
O O6 0.011306 0.210183 0.834805
O O7 0.500000 0.379184 0.750000
O O8 0.772585 0.509136 0.785227
O O9 0.000000 0.381008 0.750000
O O10 0.500000 0.356076 0.250000
O O11 0.361960 0.433973 0.361538
O O12 0.000000 0.361335 0.250000
O O13 0.465691 0.984592 0.158808
O O14 0.335964 0.870786 0.431229
O O15 0.838459 0.893337 0.439401
O O16 0.500000 0.000000 0.000000
O O17 0.500000 0.500000 0.000000
#
# Coordination Sequence:
#
# PCOD9228592 Si02
#       8
#     4   2   4   4   2   4   4   4
#     4  12  24  38  57  85 120 157 190 253 309 359
#     4   8  16  32  50  76 120 156 168 224 274 356
#     4  10  20  35  51  76 108 146 191 229 286 362
#     4  10  19  35  55  76 100 136 189 244 288 348
#     4   8  16  30  52  84 120 140 198 220 276 344
#     4  10  21  36  55  89 122 156 193 230 296 364
#     4  10  19  36  61  89 122 162 192 239 290 351
#     4  12  23  38  57  81 113 150 200 253 301 345
#
# _framework density 19.865727
#
# number of rings (size 3 to 8) (size 9 to 14) (size 15 to 20)
#    0.000    1.714    0.000    6.857    1.000    0.000 
#    5.143    0.000    0.000    0.000   18.571    0.000 
#    0.000    0.000    0.000    0.000    0.000    0.000 
#
# Total GULP energy -155909.769926 kJ/mol
# GULP energy per Si atom -5568.206069 kJ/mol
# Density = 1.982051 g / cm^3
# Si number density = 19.865727 Si / 1000 Ang^3
#
#
#
# Elastic Constant Matrix: (Units=GPa)
#
#
# Indices 1 2 3 4 5 6 
#
# 1 151.7946 -6.9428 17.7266 0.0000 5.8279 0.0000
# 2 -6.9428 35.7941 15.5072 0.0000 -3.4868 0.0000
# 3 17.7266 15.5072 96.2513 0.0000 -1.9372 0.0000
# 4 0.0000 0.0000 0.0000 17.9107 0.0000 -4.8716
# 5 5.8279 -3.4868 -1.9372 0.0000 36.8957 0.0000
# 6 0.0000 0.0000 0.0000 -4.8716 0.0000 15.7072
#
#
#
# Elastic Compliance Matrix: (Units=1/GPa)
#
#
# Indices 1 2 3 4 5 6 
#
# 1 0.006902 0.001937 -0.001603 0.000000 -0.000991 0.000000
# 2 0.001937 0.030826 -0.005276 0.000000 0.002330 0.000000
# 3 -0.001603 -0.005276 0.011542 0.000000 0.000361 0.000000
# 4 0.000000 0.000000 0.000000 0.060977 0.000000 0.018912
# 5 -0.000991 0.002330 0.000361 0.000000 0.027499 0.000000
# 6 0.000000 0.000000 0.000000 0.018912 0.000000 0.069530
#
#
# Mechanical properties :
#
#
# Convention : Reuss Voigt Hill
#
# Bulk Modulus (GPa) = 25.39070 37.38022 31.38546
# Shear Modulus (GPa) = 21.71181 31.27264 26.49222
#
# Velocity S-wave (km/s) = 3.30953 3.97192 3.65576
# Velocity P-wave (km/s) = 5.23573 6.31603 5.80108
#
# Compressibility (1/GPa) = 0.03938450
#
# Stress axis : x y z
#
# Youngs Moduli (GPa) = 144.89196 32.44009 86.63997
#
# Poissons Ratio (x) = -0.06282 0.13889
# Poissons Ratio (y) = -0.28060 0.45713
# Poissons Ratio (z) = 0.23227 0.17116
#
# Static dielectric constant tensor:
#      x y z
#    x 1.795800 0.000000 -0.007530 
#    y 0.000000 1.680990 0.000000 
#    z -0.007530 0.000000 1.863310 
# 
# From -- ./inp_files/44333.got.cif
#   From: 2010.05.17/outbox.cif.g08.bks.cpg/sg13_23_cif.got.tgz:44333.got - 2010.06.03 16:44:36.
