data_PCOD9228260
_publ_section_title
;
Structure prediction by ZEFSAII (Michael W. Deem and Ramdas Pophale) SiO2 
 PCOD9228260
Probable space group: P 2/C
;
_chemical_formula_sum "Si O2"
_cell_formula_units_Z 20
_cell_length_a 19.072846
_cell_length_b 8.514426
_cell_length_c 5.395001
_cell_angle_alpha 90.000000
_cell_angle_beta 83.919237
_cell_angle_gamma 90.000000
_cell_volume 871.188187
_symmetry_space_group_name_H-M "P 2/C"
_symmetry_group_IT_number 13
_symmetry_cell_setting 'monoclinic'
loop_
_space_group_symop_operation_xyz
x,y,z
-x,y,1/2-z
-x,-y,-z
x,-y,1/2+z
loop_
_atom_site_type_symbol
_atom_site_label
_atom_site_fract_x
_atom_site_fract_y
_atom_site_fract_z
Si Si1 0.754000 0.048379 0.821195
Si Si2 0.580821 0.440842 0.247044
Si Si3 0.401852 0.080750 0.142489
Si Si4 0.071615 0.598011 0.157376
Si Si5 0.767010 0.397584 0.860948
O O1 0.729895 0.229156 0.846059
O O2 0.792726 0.008578 0.552606
O O3 0.682871 0.942375 0.835343
O O4 0.500000 0.499218 0.250000
O O5 0.614003 0.532246 0.465541
O O6 0.580402 0.260611 0.321549
O O7 0.427224 0.983695 0.370710
O O8 0.068360 0.462600 0.374510
O O9 0.150494 0.659544 0.166429
O O10 0.000000 0.692072 0.250000
O O11 0.756875 0.509387 0.624407
#
# Coordination Sequence:
#
# PCOD9228260 Si02
#       5
#     4   4   4   4   4
#     4  10  21  38  53  74 109 144 177 215 264 314
#     4  10  21  38  60  85 110 137 175 221 262 306
#     4  10  21  38  56  80 110 143 177 211 262 316
#     4   8  14  25  44  72 101 127 163 214 264 306
#     4  10  19  33  55  79 102 135 180 223 260 306
#
# _framework density 22.957149999999999
#
# number of rings (size 3 to 8) (size 9 to 14) (size 15 to 20)
#    0.000    2.400    0.000    2.400    0.000    0.800 
#    0.000   24.000    0.000    1.200    0.000    0.000 
#    0.000    0.000    0.000    0.000    0.000    0.000 
#
# Total GULP energy -111634.674087 kJ/mol
# GULP energy per Si atom -5581.733704 kJ/mol
# Density = 2.290490 g / cm^3
# Si number density = 22.957150 Si / 1000 Ang^3
#
#
#
# Elastic Constant Matrix: (Units=GPa)
#
#
# Indices 1 2 3 4 5 6 
#
# 1 59.9523 -14.3899 5.4486 0.0000 5.2870 0.0000
# 2 -14.3899 110.5450 58.1206 0.0000 8.2752 0.0000
# 3 5.4486 58.1206 211.2118 0.0000 17.8456 0.0000
# 4 0.0000 0.0000 0.0000 40.3207 0.0000 5.6308
# 5 5.2870 8.2752 17.8456 0.0000 28.8307 0.0000
# 6 0.0000 0.0000 0.0000 5.6308 0.0000 8.1745
#
#
#
# Elastic Compliance Matrix: (Units=1/GPa)
#
#
# Indices 1 2 3 4 5 6 
#
# 1 0.017834 0.003123 -0.001021 0.000000 -0.003535 0.000000
# 2 0.003123 0.011170 -0.002991 0.000000 -0.001927 0.000000
# 3 -0.001021 -0.002991 0.005799 0.000000 -0.002544 0.000000
# 4 0.000000 0.000000 0.000000 0.027441 0.000000 -0.018902
# 5 -0.003535 -0.001927 -0.002544 0.000000 0.037461 0.000000
# 6 0.000000 0.000000 0.000000 -0.018902 0.000000 0.135352
#
#
# Mechanical properties :
#
#
# Convention : Reuss Voigt Hill
#
# Bulk Modulus (GPa) = 30.28106 53.34087 41.81096
# Shear Modulus (GPa) = 20.17406 37.63383 28.90395
#
# Velocity S-wave (km/s) = 2.96762 4.05323 3.55214
# Velocity P-wave (km/s) = 4.99612 6.72237 5.92248
#
# Compressibility (1/GPa) = 0.03302394
#
# Stress axis : x y z
#
# Youngs Moduli (GPa) = 56.07278 89.52884 172.44398
#
# Poissons Ratio (x) = -0.27958 0.17601
# Poissons Ratio (y) = -0.17510 0.51584
# Poissons Ratio (z) = 0.05723 0.26781
#
# Static dielectric constant tensor:
#      x y z
#    x 2.048600 0.000000 -0.010590 
#    y 0.000000 1.795900 0.000000 
#    z -0.010590 0.000000 1.956890 
# 
# From -- ./inp_files/6738.got.cif
#   From: 2010.05.17/outbox.cif.g08.bks.cpg/sg13_4_cif.got.tgz:6738.got - 2010.06.03 16:44:36.
