data_PCOD9228497
_publ_section_title
;
Structure prediction by ZEFSAII (Michael W. Deem and Ramdas Pophale) SiO2 
 PCOD9228497
Probable space group: P 2/C
;
_chemical_formula_sum "Si O2"
_cell_formula_units_Z 28
_cell_length_a 14.651470
_cell_length_b 5.061291
_cell_length_c 19.425790
_cell_angle_alpha 90.000000
_cell_angle_beta 48.169503
_cell_angle_gamma 90.000000
_cell_volume 1073.366580
_symmetry_space_group_name_H-M "P 2/C"
_symmetry_group_IT_number 13
_symmetry_cell_setting 'monoclinic'
loop_
_space_group_symop_operation_xyz
x,y,z
-x,y,1/2-z
-x,-y,-z
x,-y,1/2+z
loop_
_atom_site_type_symbol
_atom_site_label
_atom_site_fract_x
_atom_site_fract_y
_atom_site_fract_z
Si Si1 0.688858 0.186757 0.154620
Si Si2 0.049347 0.864318 0.044012
Si Si3 0.782820 0.351334 0.850693
Si Si4 0.288434 0.126289 0.197528
Si Si5 0.462360 0.328951 0.453768
Si Si6 0.367511 0.318945 0.885356
Si Si7 0.905236 0.369322 0.410645
O O1 0.810748 0.184662 0.047694
O O2 0.720783 0.110060 0.215904
O O3 0.641167 0.484086 0.175031
O O4 0.607381 0.973618 0.154232
O O5 0.011524 0.571522 0.086249
O O6 0.039183 0.078558 0.110082
O O7 0.000000 0.000000 0.000000
O O8 0.744580 0.590865 0.819184
O O9 0.883269 0.482226 0.849932
O O10 0.792667 0.095776 0.798198
O O11 0.676139 0.250616 0.957864
O O12 0.435311 0.106215 0.108059
O O13 0.500000 0.500000 0.500000
O O14 0.455643 0.531333 0.393603
O O15 0.232707 0.322936 0.989493
#
# Coordination Sequence:
#
# PCOD9228497 Si02
#       7
#     4   4   4   4   4   4   4
#     4  10  21  36  53  78 107 140 174 212 276 324
#     4  10  19  34  58  82 105 134 174 223 266 320
#     4  10  20  35  55  76 105 141 178 216 257 309
#     4  11  21  34  53  76 106 141 176 218 260 311
#     4   9  20  35  53  77 102 137 184 221 253 299
#     4   9  19  35  53  73 105 138 172 219 261 315
#     4   9  18  33  55  81 103 133 175 216 264 312
#
# _framework density 26.086151999999998
#
# number of rings (size 3 to 8) (size 9 to 14) (size 15 to 20)
#    0.000    2.286    0.000    2.571    0.000    9.714 
#    0.000    1.429    0.000    5.143    0.000    0.000 
#    0.000    0.000    0.000    0.000    0.000    0.000 
#
# Total GULP energy -156555.738798 kJ/mol
# GULP energy per Si atom -5591.276386 kJ/mol
# Density = 2.602678 g / cm^3
# Si number density = 26.086152 Si / 1000 Ang^3
#
#
#
# Elastic Constant Matrix: (Units=GPa)
#
#
# Indices 1 2 3 4 5 6 
#
# 1 42.8800 11.5157 19.6675 0.0000 10.4937 0.0000
# 2 11.5157 120.8479 35.9296 0.0000 0.9948 0.0000
# 3 19.6675 35.9296 97.1177 0.0000 4.8609 0.0000
# 4 0.0000 0.0000 0.0000 19.7827 0.0000 22.4476
# 5 10.4937 0.9948 4.8609 0.0000 45.2439 0.0000
# 6 0.0000 0.0000 0.0000 22.4476 0.0000 29.7694
#
#
#
# Elastic Compliance Matrix: (Units=1/GPa)
#
#
# Indices 1 2 3 4 5 6 
#
# 1 0.027243 -0.001117 -0.004815 0.000000 -0.005777 0.000000
# 2 -0.001117 0.009345 -0.003251 0.000000 0.000403 0.000000
# 3 -0.004815 -0.003251 0.012482 0.000000 -0.000153 0.000000
# 4 0.000000 0.000000 0.000000 0.350130 0.000000 -0.264015
# 5 -0.005777 0.000403 -0.000153 0.000000 0.023450 0.000000
# 6 0.000000 0.000000 0.000000 -0.264015 0.000000 0.232672
#
#
# Mechanical properties :
#
#
# Convention : Reuss Voigt Hill
#
# Bulk Modulus (GPa) = 32.56876 43.89681 38.23278
# Shear Modulus (GPa) = 7.31078 31.87469 19.59273
#
# Velocity S-wave (km/s) = 1.67590 3.49936 2.74355
# Velocity P-wave (km/s) = 4.03200 5.76121 4.97235
#
# Compressibility (1/GPa) = 0.03070427
#
# Stress axis : x y z
#
# Youngs Moduli (GPa) = 36.70683 107.01400 80.11394
#
# Poissons Ratio (x) = 0.11953 0.38572
# Poissons Ratio (y) = 0.04100 0.26046
# Poissons Ratio (z) = 0.17673 0.34791
#
# Static dielectric constant tensor:
#      x y z
#    x 2.127080 0.000000 -0.047780 
#    y 0.000000 1.951360 0.000000 
#    z -0.047780 0.000000 2.117550 
# 
# From -- ./inp_files/67322.got.cif
#   From: 2010.05.17/outbox.cif.g08.bks.cpg/sg13_34_cif.got.tgz:67322.got - 2010.06.03 16:44:36.
