data_PCOD9228683
_publ_section_title
;
Structure prediction by ZEFSAII (Michael W. Deem and Ramdas Pophale) SiO2 
 PCOD9228683
Probable space group: P 2/C
;
_chemical_formula_sum "Si O2"
_cell_formula_units_Z 24
_cell_length_a 10.685572
_cell_length_b 8.285132
_cell_length_c 32.569916
_cell_angle_alpha 90.000000
_cell_angle_beta 153.982302
_cell_angle_gamma 90.000000
_cell_volume 1264.825884
_symmetry_space_group_name_H-M "P 2/C"
_symmetry_group_IT_number 13
_symmetry_cell_setting 'monoclinic'
loop_
_space_group_symop_operation_xyz
x,y,z
-x,y,1/2-z
-x,-y,-z
x,-y,1/2+z
loop_
_atom_site_type_symbol
_atom_site_label
_atom_site_fract_x
_atom_site_fract_y
_atom_site_fract_z
Si Si1 0.923853 0.802510 0.773378
Si Si2 0.769592 0.396714 0.064189
Si Si3 0.297176 0.616245 0.222674
Si Si4 0.818889 0.825943 0.234477
Si Si5 0.730555 0.683078 0.461778
Si Si6 0.357992 0.377564 0.118768
O O1 0.595465 0.756429 0.682949
O O2 0.000000 0.744328 0.750000
O O3 0.111290 0.715043 0.863648
O O4 0.938249 0.995829 0.777589
O O5 0.028893 0.515418 0.127599
O O6 0.500000 0.500000 0.000000
O O7 0.701784 0.303236 0.002194
O O8 0.500000 0.705954 0.250000
O O9 0.167192 0.725888 0.219857
O O10 0.518009 0.490653 0.308513
O O11 0.489175 0.807953 0.123545
O O12 0.000000 0.753534 0.250000
O O13 0.653172 0.501021 0.423160
O O14 0.053750 0.696161 0.540800
#
# Coordination Sequence:
#
# PCOD9228683 Si02
#       6
#     4   4   4   4   4   4
#     4  10  22  40  56  81 121 160 190 233 302 357
#     4  11  21  35  63  91 111 148 204 252 285 341
#     4  10  19  37  58  87 120 153 192 246 301 343
#     4  10  22  40  57  79 122 164 190 231 303 366
#     4  10  19  35  59  87 109 146 198 246 286 346
#     4   9  19  35  60  81 116 148 192 245 294 342
#
# _framework density 18.974943
#
# number of rings (size 3 to 8) (size 9 to 14) (size 15 to 20)
#    0.000    2.000    1.667    2.000    0.000    5.333 
#    3.000    9.167    0.000    0.000    0.000    0.000 
#    0.000    0.000    0.000    0.000    0.000    0.000 
#
# Total GULP energy -133795.818871 kJ/mol
# GULP energy per Si atom -5574.825786 kJ/mol
# Density = 1.893176 g / cm^3
# Si number density = 18.974943 Si / 1000 Ang^3
#
#
#
# Elastic Constant Matrix: (Units=GPa)
#
#
# Indices 1 2 3 4 5 6 
#
# 1 75.8016 15.4799 -1.3103 0.0000 10.1969 0.0000
# 2 15.4799 28.2108 9.8820 0.0000 6.3722 0.0000
# 3 -1.3103 9.8820 68.6971 0.0000 3.5825 0.0000
# 4 0.0000 0.0000 0.0000 20.5978 0.0000 1.8715
# 5 10.1969 6.3722 3.5825 0.0000 30.4807 0.0000
# 6 0.0000 0.0000 0.0000 1.8715 0.0000 20.1747
#
#
#
# Elastic Compliance Matrix: (Units=1/GPa)
#
#
# Indices 1 2 3 4 5 6 
#
# 1 0.015385 -0.008205 0.001663 0.000000 -0.003627 0.000000
# 2 -0.008205 0.043352 -0.006101 0.000000 -0.005601 0.000000
# 3 0.001663 -0.006101 0.015524 0.000000 -0.001105 0.000000
# 4 0.000000 0.000000 0.000000 0.048962 0.000000 -0.004542
# 5 -0.003627 -0.005601 -0.001105 0.000000 0.035322 0.000000
# 6 0.000000 0.000000 0.000000 -0.004542 0.000000 0.049988
#
#
# Mechanical properties :
#
#
# Convention : Reuss Voigt Hill
#
# Bulk Modulus (GPa) = 20.41878 24.53473 22.47676
# Shear Modulus (GPa) = 19.98860 24.16115 22.07488
#
# Velocity S-wave (km/s) = 3.24917 3.57223 3.41452
# Velocity P-wave (km/s) = 4.98602 5.47472 5.23608
#
# Compressibility (1/GPa) = 0.04897452
#
# Stress axis : x y z
#
# Youngs Moduli (GPa) = 65.00009 23.06699 64.41813
#
# Poissons Ratio (x) = 0.18927 -0.10712
# Poissons Ratio (y) = 0.53334 0.39299
# Poissons Ratio (z) = -0.10809 0.14072
#
# Static dielectric constant tensor:
#      x y z
#    x 1.722100 0.000000 -0.031130 
#    y 0.000000 1.646920 0.000000 
#    z -0.031130 0.000000 1.680220 
# 
# From -- ./inp_files/52885.got.cif
#   From: 2010.05.17/outbox.cif.g08.bks.cpg/sg13_27_cif.got.tgz:52885.got - 2010.06.03 16:44:36.
