data_PCOD9228840
_publ_section_title
;
Structure prediction by ZEFSAII (Michael W. Deem and Ramdas Pophale) SiO2 
 PCOD9228840
Probable space group: P 2/C
;
_chemical_formula_sum "Si O2"
_cell_formula_units_Z 20
_cell_length_a 9.169796
_cell_length_b 12.668290
_cell_length_c 7.432936
_cell_angle_alpha 90.000000
_cell_angle_beta 92.766750
_cell_angle_gamma 90.000000
_cell_volume 862.445220
_symmetry_space_group_name_H-M "P 2/C"
_symmetry_group_IT_number 13
_symmetry_cell_setting 'monoclinic'
loop_
_space_group_symop_operation_xyz
x,y,z
-x,y,1/2-z
-x,-y,-z
x,-y,1/2+z
loop_
_atom_site_type_symbol
_atom_site_label
_atom_site_fract_x
_atom_site_fract_y
_atom_site_fract_z
Si Si1 0.670709 0.943016 0.211489
Si Si2 0.884301 0.633981 0.514977
Si Si3 0.201115 0.589919 0.399780
Si Si4 0.740603 0.163555 0.078705
Si Si5 0.557881 0.250740 0.545409
O O1 0.500000 0.965169 0.250000
O O2 0.746515 0.880818 0.375789
O O3 0.655952 0.856233 0.052560
O O4 0.744035 0.054605 0.184429
O O5 0.825046 0.632714 0.304612
O O6 0.800254 0.536984 0.604016
O O7 0.855706 0.744788 0.606765
O O8 0.056395 0.613956 0.507091
O O9 0.342824 0.648286 0.485651
O O10 0.584237 0.223595 0.078704
O O11 0.500000 0.262504 0.750000
#
# Coordination Sequence:
#
# PCOD9228840 Si02
#       5
#     4   4   4   4   4
#     4   9  17  33  56  80 112 147 173 224 267 330
#     4  10  21  38  59  79 106 151 178 226 272 329
#     4  10  20  39  59  76 112 143 183 221 281 318
#     4  10  19  36  57  83 111 144 185 216 277 315
#     4   9  16  33  56  80 105 146 170 224 263 326
#
# _framework density 23.189878
#
# number of rings (size 3 to 8) (size 9 to 14) (size 15 to 20)
#    0.000    2.800    4.000    2.400    0.000    0.800 
#    7.200    1.000    0.000    0.000    0.000    0.000 
#    0.000    0.000    0.000    0.000    0.000    0.000 
#
# Total GULP energy -111690.841492 kJ/mol
# GULP energy per Si atom -5584.542075 kJ/mol
# Density = 2.313710 g / cm^3
# Si number density = 23.189878 Si / 1000 Ang^3
#
#
#
# Elastic Constant Matrix: (Units=GPa)
#
#
# Indices 1 2 3 4 5 6 
#
# 1 48.7472 59.5674 8.0132 0.0000 2.5308 0.0000
# 2 59.5674 186.5640 11.2713 0.0000 -12.3232 0.0000
# 3 8.0132 11.2713 27.2036 0.0000 4.2870 0.0000
# 4 0.0000 0.0000 0.0000 10.7853 0.0000 -15.2050
# 5 2.5308 -12.3232 4.2870 0.0000 17.3475 0.0000
# 6 0.0000 0.0000 0.0000 -15.2050 0.0000 34.3288
#
#
#
# Elastic Compliance Matrix: (Units=1/GPa)
#
#
# Indices 1 2 3 4 5 6 
#
# 1 0.037092 -0.012509 -0.003632 0.000000 -0.013400 0.000000
# 2 -0.012509 0.010102 -0.001997 0.000000 0.009494 0.000000
# 3 -0.003632 -0.001997 0.040369 0.000000 -0.010865 0.000000
# 4 0.000000 0.000000 0.000000 0.246874 0.000000 0.109346
# 5 -0.013400 0.009494 -0.010865 0.000000 0.069030 0.000000
# 6 0.000000 0.000000 0.000000 0.109346 0.000000 0.077562
#
#
# Mechanical properties :
#
#
# Convention : Reuss Voigt Hill
#
# Bulk Modulus (GPa) = 19.49768 46.69097 33.09432
# Shear Modulus (GPa) = 9.35631 24.73651 17.04641
#
# Velocity S-wave (km/s) = 2.01082 3.26957 2.71418
# Velocity P-wave (km/s) = 3.71716 5.86783 4.91165
#
# Compressibility (1/GPa) = 0.05128816
#
# Stress axis : x y z
#
# Youngs Moduli (GPa) = 26.96026 98.99323 24.77137
#
# Poissons Ratio (x) = 1.23826 0.08996
# Poissons Ratio (y) = 0.33723 0.04947
# Poissons Ratio (z) = 0.09791 0.19770
#
# Static dielectric constant tensor:
#      x y z
#    x 1.853880 0.000000 -0.016340 
#    y 0.000000 1.861580 0.000000 
#    z -0.016340 0.000000 1.980640 
# 
# From -- ./inp_files/14932.got.cif
#   From: 2010.05.17/outbox.cif.g08.bks.cpg/sg13_8_cif.got.tgz:14932.got - 2010.06.03 16:44:36.
