data_PCOD9228698
_publ_section_title
;
Structure prediction by ZEFSAII (Michael W. Deem and Ramdas Pophale) SiO2 
 PCOD9228698
Probable space group: P 2/C
;
_chemical_formula_sum "Si O2"
_cell_formula_units_Z 20
_cell_length_a 8.031854
_cell_length_b 11.155091
_cell_length_c 10.030701
_cell_angle_alpha 90.000000
_cell_angle_beta 68.203282
_cell_angle_gamma 90.000000
_cell_volume 834.459832
_symmetry_space_group_name_H-M "P 2/C"
_symmetry_group_IT_number 13
_symmetry_cell_setting 'monoclinic'
loop_
_space_group_symop_operation_xyz
x,y,z
-x,y,1/2-z
-x,-y,-z
x,-y,1/2+z
loop_
_atom_site_type_symbol
_atom_site_label
_atom_site_fract_x
_atom_site_fract_y
_atom_site_fract_z
Si Si1 0.665268 0.745220 0.809173
Si Si2 0.367490 0.483482 0.665915
Si Si3 0.414339 0.126425 0.557163
Si Si4 0.162437 0.755828 0.299008
Si Si5 0.086085 0.130047 0.447818
O O1 0.500000 0.747714 0.750000
O O2 0.734925 0.609828 0.790049
O O3 0.817059 0.839316 0.720221
O O4 0.567633 0.778289 0.975658
O O5 0.500000 0.470707 0.750000
O O6 0.500000 0.500000 0.500000
O O7 0.237309 0.369798 0.720431
O O8 0.322307 0.149752 0.726202
O O9 0.253010 0.141956 0.499769
O O10 0.500000 0.000000 0.500000
O O11 0.000000 0.790498 0.250000
O O12 0.067227 0.772292 0.469407
O O13 0.000000 0.000000 0.500000
#
# Coordination Sequence:
#
# PCOD9228698 Si02
#       5
#     4   4   4   4   4
#     4   9  19  37  60  83 119 161 205 251 314 374
#     4  11  23  43  69  94 125 169 222 261 313 391
#     4  10  19  35  60  82 117 166 208 253 311 380
#     4  10  22  39  60  90 130 162 207 270 329 366
#     4  10  21  37  56  89 126 161 203 263 322 372
#
# _framework density 23.967601999999999
#
# number of rings (size 3 to 8) (size 9 to 14) (size 15 to 20)
#    0.000    2.000    2.000    1.200    2.800    2.400 
#    0.000    0.000    0.000    0.000    0.000    0.000 
#    0.000    0.000    0.000    0.000    0.000    0.000 
#
# Total GULP energy -111635.251079 kJ/mol
# GULP energy per Si atom -5581.762554 kJ/mol
# Density = 2.391305 g / cm^3
# Si number density = 23.967602 Si / 1000 Ang^3
#
#
#
# Elastic Constant Matrix: (Units=GPa)
#
#
# Indices 1 2 3 4 5 6 
#
# 1 75.0639 3.1297 24.0250 0.0000 -17.4046 0.0000
# 2 3.1297 130.9798 47.0415 0.0000 -49.1898 0.0000
# 3 24.0250 47.0415 158.4974 0.0000 -44.7711 0.0000
# 4 0.0000 0.0000 0.0000 41.6599 0.0000 -20.5504
# 5 -17.4046 -49.1898 -44.7711 0.0000 35.2307 0.0000
# 6 0.0000 0.0000 0.0000 -20.5504 0.0000 37.9579
#
#
#
# Elastic Compliance Matrix: (Units=1/GPa)
#
#
# Indices 1 2 3 4 5 6 
#
# 1 0.016904 0.005888 0.000579 0.000000 0.017308 0.000000
# 2 0.005888 0.018733 0.002742 0.000000 0.032548 0.000000
# 3 0.000579 0.002742 0.010249 0.000000 0.017138 0.000000
# 4 0.000000 0.000000 0.000000 0.032750 0.000000 0.017731
# 5 0.017308 0.032548 0.017138 0.000000 0.104159 0.000000
# 6 0.000000 0.000000 0.000000 0.017731 0.000000 0.035945
#
#
# Mechanical properties :
#
#
# Convention : Reuss Voigt Hill
#
# Bulk Modulus (GPa) = 15.55106 56.99263 36.27184
# Shear Modulus (GPa) = 22.54720 42.32602 32.43661
#
# Velocity S-wave (km/s) = 3.07047 4.20690 3.68278
# Velocity P-wave (km/s) = 4.36725 6.88680 5.76632
#
# Compressibility (1/GPa) = 0.06430432
#
# Stress axis : x y z
#
# Youngs Moduli (GPa) = 59.15646 53.38141 97.57228
#
# Poissons Ratio (x) = -0.31433 -0.05651
# Poissons Ratio (y) = -0.34833 -0.26750
# Poissons Ratio (z) = -0.03426 -0.14635
#
# Static dielectric constant tensor:
#      x y z
#    x 1.869300 0.000000 0.042070 
#    y 0.000000 1.993550 0.000000 
#    z 0.042070 0.000000 1.944070 
# 
# From -- ./inp_files/29260.got.cif
#   From: 2010.05.17/outbox.cif.g08.bks.cpg/sg13_15_cif.got.tgz:29260.got - 2010.06.03 16:44:36.
