data_PCOD9228000
_publ_section_title
;
Structure prediction by ZEFSAII (Michael W. Deem and Ramdas Pophale) SiO2 
 PCOD9228000
Probable space group: P 2/C
;
_chemical_formula_sum "Si O2"
_cell_formula_units_Z 24
_cell_length_a 10.509645
_cell_length_b 11.937752
_cell_length_c 9.095961
_cell_angle_alpha 90.000000
_cell_angle_beta 93.764065
_cell_angle_gamma 90.000000
_cell_volume 1138.731496
_symmetry_space_group_name_H-M "P 2/C"
_symmetry_group_IT_number 13
_symmetry_cell_setting 'monoclinic'
loop_
_space_group_symop_operation_xyz
x,y,z
-x,y,1/2-z
-x,-y,-z
x,-y,1/2+z
loop_
_atom_site_type_symbol
_atom_site_label
_atom_site_fract_x
_atom_site_fract_y
_atom_site_fract_z
Si Si1 0.189778 0.288542 0.918949
Si Si2 0.239117 0.559230 0.673430
Si Si3 0.705385 0.301305 0.873911
Si Si4 0.000000 0.983776 0.750000
Si Si5 0.060727 0.843008 0.019967
Si Si6 0.437284 0.606057 0.909278
Si Si7 0.000000 0.534919 0.250000
O O1 0.284181 0.255271 0.792604
O O2 0.085545 0.199198 0.968496
O O3 0.097591 0.383924 0.841095
O O4 0.267689 0.345809 0.056265
O O5 0.289886 0.435570 0.644159
O O6 0.293145 0.584631 0.838144
O O7 0.087175 0.545526 0.660320
O O8 0.835694 0.253329 0.952658
O O9 0.585267 0.292837 0.975917
O O10 0.924372 0.903943 0.633791
O O11 0.079908 0.065352 0.650035
O O12 0.500000 0.620713 0.750000
O O13 0.500000 0.500000 0.000000
#
# Coordination Sequence:
#
# PCOD9228000 Si02
#       7
#     4   4   4   2   4   4   2
#     4  11  20  35  57  92 128 166 200 246 307 396
#     4  11  23  35  58  89 129 170 212 245 304 378
#     4  11  21  39  56  85 123 173 206 251 306 375
#     4  10  23  39  60  88 140 164 203 263 326 394
#     4  11  21  40  60  94 130 170 201 256 329 395
#     4  12  27  42  57  82 129 176 219 261 296 357
#     4  10  19  31  52  88 130 162 197 245 294 376
#
# _framework density 21.076084000000002
#
# number of rings (size 3 to 8) (size 9 to 14) (size 15 to 20)
#    0.000    1.000    6.667    2.500    4.667    0.000 
#    0.000    0.000    0.000    0.000    0.000    1.167 
#    0.000    0.000    0.000    0.000    0.000    0.000 
#
# Total GULP energy -133670.667050 kJ/mol
# GULP energy per Si atom -5569.611127 kJ/mol
# Density = 2.102811 g / cm^3
# Si number density = 21.076084 Si / 1000 Ang^3
#
#
#
# Elastic Constant Matrix: (Units=GPa)
#
#
# Indices 1 2 3 4 5 6 
#
# 1 48.6487 6.5610 20.5981 0.0000 -9.5656 0.0000
# 2 6.5610 51.2070 25.7185 0.0000 1.8020 0.0000
# 3 20.5981 25.7185 126.4990 0.0000 3.9604 0.0000
# 4 0.0000 0.0000 0.0000 30.8912 0.0000 7.0498
# 5 -9.5656 1.8020 3.9604 0.0000 38.3708 0.0000
# 6 0.0000 0.0000 0.0000 7.0498 0.0000 5.1395
#
#
#
# Elastic Compliance Matrix: (Units=1/GPa)
#
#
# Indices 1 2 3 4 5 6 
#
# 1 0.023575 -0.001354 -0.003762 0.000000 0.006329 0.000000
# 2 -0.001354 0.021840 -0.004191 0.000000 -0.000931 0.000000
# 3 -0.003762 -0.004191 0.009423 0.000000 -0.001714 0.000000
# 4 0.000000 0.000000 0.000000 0.047123 0.000000 -0.064637
# 5 0.006329 -0.000931 -0.001714 0.000000 0.027860 0.000000
# 6 0.000000 0.000000 0.000000 -0.064637 0.000000 0.283231
#
#
# Mechanical properties :
#
#
# Convention : Reuss Voigt Hill
#
# Bulk Modulus (GPa) = 27.60483 36.90111 32.25297
# Shear Modulus (GPa) = 11.26786 26.44546 18.85666
#
# Velocity S-wave (km/s) = 2.31471 3.54610 2.99439
# Velocity P-wave (km/s) = 4.50222 5.85773 5.22413
#
# Compressibility (1/GPa) = 0.03622555
#
# Stress axis : x y z
#
# Youngs Moduli (GPa) = 42.41727 45.78854 106.11936
#
# Poissons Ratio (x) = 0.06200 0.39919
# Poissons Ratio (y) = 0.05744 0.44470
# Poissons Ratio (z) = 0.15956 0.19188
#
# Static dielectric constant tensor:
#      x y z
#    x 1.947350 0.000000 -0.103400 
#    y 0.000000 1.728440 0.000000 
#    z -0.103400 0.000000 1.948430 
# 
# From -- ./inp_files/15927.got.cif
#   From: 2010.05.17/outbox.cif.g08.bks.cpg/sg13_8_cif.got.tgz:15927.got - 2010.06.03 16:44:36.
