data_PCOD9228947
_publ_section_title
;
Structure prediction by ZEFSAII (Michael W. Deem and Ramdas Pophale) SiO2 
 PCOD9228947
Probable space group: P 2/C
;
_chemical_formula_sum "Si O2"
_cell_formula_units_Z 26
_cell_length_a 8.519289
_cell_length_b 15.183141
_cell_length_c 14.524127
_cell_angle_alpha 90.000000
_cell_angle_beta 138.794608
_cell_angle_gamma 90.000000
_cell_volume 1237.606011
_symmetry_space_group_name_H-M "P 2/C"
_symmetry_group_IT_number 13
_symmetry_cell_setting 'monoclinic'
loop_
_space_group_symop_operation_xyz
x,y,z
-x,y,1/2-z
-x,-y,-z
x,-y,1/2+z
loop_
_atom_site_type_symbol
_atom_site_label
_atom_site_fract_x
_atom_site_fract_y
_atom_site_fract_z
Si Si1 0.564428 0.703222 0.177814
Si Si2 0.245212 0.579169 0.685284
Si Si3 0.714250 0.893289 0.219333
Si Si4 0.977366 0.398992 0.600828
Si Si5 0.495223 0.666362 0.540714
Si Si6 0.269407 0.859152 0.477908
Si Si7 0.500000 0.040818 0.250000
O O1 0.500000 0.669294 0.250000
O O2 0.551474 0.808705 0.170580
O O3 0.835555 0.672052 0.280368
O O4 0.420736 0.666236 0.027558
O O5 0.500000 0.555793 0.750000
O O6 0.093746 0.622573 0.536283
O O7 0.307937 0.641069 0.798261
O O8 0.108646 0.492383 0.657487
O O9 0.674883 0.910629 0.093173
O O10 0.984035 0.861385 0.354331
O O11 0.664606 0.975770 0.262206
O O12 0.728643 0.399566 0.544997
O O13 0.381585 0.762121 0.513189
O O14 0.366684 0.901034 0.614618
#
# Coordination Sequence:
#
# PCOD9228947 Si02
#       7
#     4   4   4   4   4   4   2
#     4  11  21  37  60  82 116 160 202 241 292 355
#     4   9  20  36  58  90 122 145 195 251 289 347
#     4  10  21  40  57  88 120 157 200 243 297 361
#     4  10  19  36  62  85 115 153 190 244 297 348
#     4  10  21  38  61  87 117 158 204 238 295 359
#     4  10  22  37  62  88 121 159 198 244 295 360
#     4  12  22  36  64  92 118 156 196 254 298 348
#
# _framework density 21.008303000000002
#
# number of rings (size 3 to 8) (size 9 to 14) (size 15 to 20)
#    0.000    1.846    2.308    1.846    3.231    0.615 
#    0.000    3.846    0.000    0.000    0.000    0.000 
#    0.000    0.000    0.000    0.000    0.000    0.000 
#
# Total GULP energy -145177.644640 kJ/mol
# GULP energy per Si atom -5583.755563 kJ/mol
# Density = 2.096049 g / cm^3
# Si number density = 21.008303 Si / 1000 Ang^3
#
#
#
# Elastic Constant Matrix: (Units=GPa)
#
#
# Indices 1 2 3 4 5 6 
#
# 1 73.2916 18.7757 45.2131 0.0000 -42.9388 0.0000
# 2 18.7757 52.6739 44.4786 0.0000 -20.8957 0.0000
# 3 45.2131 44.4786 146.7268 0.0000 -43.6588 0.0000
# 4 0.0000 0.0000 0.0000 36.2441 0.0000 1.7603
# 5 -42.9388 -20.8957 -43.6588 0.0000 38.8929 0.0000
# 6 0.0000 0.0000 0.0000 1.7603 0.0000 -18.5340
#
#
#
# Elastic Compliance Matrix: (Units=1/GPa)
#
#
# Indices 1 2 3 4 5 6 
#
# 1 0.039318 0.003888 0.000366 0.000000 0.045907 0.000000
# 2 0.003888 0.027466 -0.005790 0.000000 0.012549 0.000000
# 3 0.000366 -0.005790 0.011490 0.000000 0.010191 0.000000
# 4 0.000000 0.000000 0.000000 0.027464 0.000000 0.002608
# 5 0.045907 0.012549 0.010191 0.000000 0.094576 0.000000
# 6 0.000000 0.000000 0.000000 0.002608 0.000000 -0.053707
#
#
# Mechanical properties :
#
#
# Convention : Reuss Voigt Hill
#
# Bulk Modulus (GPa) = 13.29768 54.40301 33.85035
# Shear Modulus (GPa) = 28.61252 22.26894 25.44073
#
# Velocity S-wave (km/s) = 3.69448 3.25931 3.48370
# Velocity P-wave (km/s) = 4.95403 6.33374 5.68589
#
# Compressibility (1/GPa) = 0.07520106
#
# Stress axis : x y z
#
# Youngs Moduli (GPa) = 25.43368 36.40806 87.02967
#
# Poissons Ratio (x) = -0.14154 -0.03182
# Poissons Ratio (y) = -0.09888 0.50391
# Poissons Ratio (z) = -0.00930 0.21081
#
# Static dielectric constant tensor:
#      x y z
#    x 1.800280 0.000000 -0.024980 
#    y 0.000000 1.740830 0.000000 
#    z -0.024980 0.000000 1.738290 
# 
# From -- ./inp_files/47961.got.cif
#   From: 2010.05.17/outbox.cif.g08.bks.cpg/sg13_24_cif.got.tgz:47961.got - 2010.06.03 16:44:36.
