data_PCOD9228131
_publ_section_title
;
Structure prediction by ZEFSAII (Michael W. Deem and Ramdas Pophale) SiO2 
 PCOD9228131
Probable space group: P 2/C
;
_chemical_formula_sum "Si O2"
_cell_formula_units_Z 32
_cell_length_a 12.432664
_cell_length_b 7.130837
_cell_length_c 21.554699
_cell_angle_alpha 90.000000
_cell_angle_beta 49.452086
_cell_angle_gamma 90.000000
_cell_volume 1452.050546
_symmetry_space_group_name_H-M "P 2/C"
_symmetry_group_IT_number 13
_symmetry_cell_setting 'monoclinic'
loop_
_space_group_symop_operation_xyz
x,y,z
-x,y,1/2-z
-x,-y,-z
x,-y,1/2+z
loop_
_atom_site_type_symbol
_atom_site_label
_atom_site_fract_x
_atom_site_fract_y
_atom_site_fract_z
Si Si1 0.432800 0.721475 0.602243
Si Si2 0.120299 0.790675 0.486150
Si Si3 0.679351 0.244820 0.482813
Si Si4 0.873551 0.786175 0.497650
Si Si5 0.343268 0.739840 0.301412
Si Si6 0.416446 0.343207 0.335729
Si Si7 0.263224 0.804875 0.067285
Si Si8 0.369807 0.841597 0.153415
O O1 0.333953 0.663351 0.580843
O O2 0.469688 0.614992 0.652201
O O3 0.585527 0.727241 0.511868
O O4 0.389249 0.931829 0.640632
O O5 0.205843 0.688640 0.509429
O O6 0.229432 0.827792 0.389322
O O7 0.984034 0.701533 0.504734
O O8 0.080897 0.996662 0.524977
O O9 0.526410 0.235533 0.574782
O O10 0.718353 0.028173 0.452959
O O11 0.716108 0.763360 0.584906
O O12 0.856784 0.724143 0.432587
O O13 0.500000 0.820251 0.250000
O O14 0.356910 0.528541 0.323868
O O15 0.315689 0.771271 0.239636
O O16 0.500000 0.238132 0.250000
O O17 0.259549 0.781724 0.141699
#
# Coordination Sequence:
#
# PCOD9228131 Si02
#       8
#     4   4   4   4   4   4   4   4
#     4   8  15  28  52  77 100 137 174 212 261 307
#     4  10  19  32  55  82 106 138 176 216 264 313
#     4   8  13  27  50  78 106 128 169 221 257 300
#     4   9  19  35  55  79 105 137 181 219 255 319
#     4  11  22  32  48  80 113 139 169 216 271 316
#     4  10  22  35  50  77 109 137 171 219 270 314
#     4   7  13  27  49  78 104 128 171 220 255 300
#     4   9  15  27  52  79 104 136 170 216 264 303
#
# _framework density 22.037801000000002
#
# number of rings (size 3 to 8) (size 9 to 14) (size 15 to 20)
#    0.000    3.000    1.250    2.250    1.750    0.500 
#    0.000    1.250    2.750    0.750    6.500    0.000 
#    0.000    0.000    0.000    0.000    0.000    0.000 
#
# Total GULP energy -178236.132014 kJ/mol
# GULP energy per Si atom -5569.879125 kJ/mol
# Density = 2.198764 g / cm^3
# Si number density = 22.037801 Si / 1000 Ang^3
#
#
#
# Elastic Constant Matrix: (Units=GPa)
#
#
# Indices 1 2 3 4 5 6 
#
# 1 202.6750 12.3666 55.6536 0.0000 57.3096 0.0000
# 2 12.3666 82.4022 4.2418 0.0000 17.0779 0.0000
# 3 55.6536 4.2418 72.7286 0.0000 45.7125 0.0000
# 4 0.0000 0.0000 0.0000 17.2052 0.0000 7.8225
# 5 57.3096 17.0779 45.7125 0.0000 54.8031 0.0000
# 6 0.0000 0.0000 0.0000 7.8225 0.0000 -6.1206
#
#
#
# Elastic Compliance Matrix: (Units=1/GPa)
#
#
# Indices 1 2 3 4 5 6 
#
# 1 0.007101 0.000308 -0.001522 0.000000 -0.006252 0.000000
# 2 0.000308 0.013493 0.003831 0.000000 -0.007723 0.000000
# 3 -0.001522 0.003831 0.030356 0.000000 -0.024923 0.000000
# 4 0.000000 0.000000 0.000000 0.036761 0.000000 0.046983
# 5 -0.006252 -0.007723 -0.024923 0.000000 0.047981 0.000000
# 6 0.000000 0.000000 0.000000 0.046983 0.000000 -0.103336
#
#
# Mechanical properties :
#
#
# Convention : Reuss Voigt Hill
#
# Bulk Modulus (GPa) = 17.79853 55.81441 36.80647
# Shear Modulus (GPa) = 109.05631 32.21380 70.63506
#
# Velocity S-wave (km/s) = 7.04226 3.82743 5.66757
# Velocity P-wave (km/s) = 8.61502 6.70179 7.71792
#
# Compressibility (1/GPa) = 0.05618442
#
# Stress axis : x y z
#
# Youngs Moduli (GPa) = 140.82301 74.11453 32.94270
#
# Poissons Ratio (x) = -0.02286 0.05014
# Poissons Ratio (y) = -0.04344 -0.12620
# Poissons Ratio (z) = 0.21434 -0.28394
#
# Static dielectric constant tensor:
#      x y z
#    x 1.914890 0.000000 0.068270 
#    y 0.000000 1.899510 0.000000 
#    z 0.068270 0.000000 1.802270 
# 
# From -- ./inp_files/78041.got.cif
#   From: 2010.05.17/outbox.cif.g08.bks.cpg/sg13_40_cif.got.tgz:78041.got - 2010.06.03 16:44:36.
