data_PCOD9228887
_publ_section_title
;
Structure prediction by ZEFSAII (Michael W. Deem and Ramdas Pophale) SiO2 
 PCOD9228887
Probable space group: P 2/C
;
_chemical_formula_sum "Si O2"
_cell_formula_units_Z 28
_cell_length_a 11.699141
_cell_length_b 11.104387
_cell_length_c 14.768526
_cell_angle_alpha 90.000000
_cell_angle_beta 50.612938
_cell_angle_gamma 90.000000
_cell_volume 1482.845944
_symmetry_space_group_name_H-M "P 2/C"
_symmetry_group_IT_number 13
_symmetry_cell_setting 'monoclinic'
loop_
_space_group_symop_operation_xyz
x,y,z
-x,y,1/2-z
-x,-y,-z
x,-y,1/2+z
loop_
_atom_site_type_symbol
_atom_site_label
_atom_site_fract_x
_atom_site_fract_y
_atom_site_fract_z
Si Si1 0.037624 0.340478 0.916173
Si Si2 0.074640 0.600909 0.838370
Si Si3 0.102662 0.097571 0.579766
Si Si4 0.791639 0.716285 0.883303
Si Si5 0.342084 0.277095 0.865024
Si Si6 0.336180 0.004902 0.320740
Si Si7 0.815473 0.018452 0.288854
O O1 0.040810 0.459443 0.853478
O O2 0.200289 0.325166 0.879881
O O3 0.983316 0.221727 0.892622
O O4 0.924594 0.364080 0.056642
O O5 0.211170 0.636511 0.706204
O O6 0.939885 0.677335 0.863216
O O7 0.210633 0.071448 0.442201
O O8 0.189849 0.083383 0.630628
O O9 0.973946 0.997351 0.658691
O O10 0.798638 0.853610 0.846261
O O11 0.671090 0.697538 0.021422
O O12 0.500000 0.320596 0.750000
O O13 0.335550 0.132503 0.856152
O O14 0.500000 0.056589 0.250000
O O15 0.300294 0.004572 0.232798
#
# Coordination Sequence:
#
# PCOD9228887 Si02
#       7
#     4   4   4   4   4   4   4
#     4  10  20  36  60  88 120 153 203 255 304 342
#     4   9  19  34  59  86 112 154 200 249 295 355
#     4  11  21  35  59  90 119 148 194 258 297 358
#     4  10  19  36  59  84 117 153 199 241 299 366
#     4  10  21  39  58  84 124 167 197 241 305 370
#     4  11  23  39  57  86 128 164 194 240 305 368
#     4  11  22  34  60  90 114 154 200 243 306 363
#
# _framework density 18.882608999999999
#
# number of rings (size 3 to 8) (size 9 to 14) (size 15 to 20)
#    0.000    1.714    2.857    3.000    2.000    2.857 
#    0.000    0.714    0.000   13.714    0.000    0.000 
#    0.000    0.000    0.000    0.000    0.000    0.000 
#
# Total GULP energy -156099.857627 kJ/mol
# GULP energy per Si atom -5574.994915 kJ/mol
# Density = 1.883963 g / cm^3
# Si number density = 18.882609 Si / 1000 Ang^3
#
#
#
# Elastic Constant Matrix: (Units=GPa)
#
#
# Indices 1 2 3 4 5 6 
#
# 1 80.5040 18.0813 40.1513 0.0000 16.3810 0.0000
# 2 18.0813 46.5032 43.6704 0.0000 14.5595 0.0000
# 3 40.1513 43.6704 128.4854 0.0000 15.9753 0.0000
# 4 0.0000 0.0000 0.0000 23.5272 0.0000 12.0689
# 5 16.3810 14.5595 15.9753 0.0000 22.1685 0.0000
# 6 0.0000 0.0000 0.0000 12.0689 0.0000 10.0779
#
#
#
# Elastic Compliance Matrix: (Units=1/GPa)
#
#
# Indices 1 2 3 4 5 6 
#
# 1 0.016257 0.000424 -0.004060 0.000000 -0.009366 0.000000
# 2 0.000424 0.036335 -0.010409 0.000000 -0.016676 0.000000
# 3 -0.004060 -0.010409 0.012485 0.000000 0.000839 0.000000
# 4 0.000000 0.000000 0.000000 0.110207 0.000000 -0.131980
# 5 -0.009366 -0.016676 0.000839 0.000000 0.062377 0.000000
# 6 0.000000 0.000000 0.000000 -0.131980 0.000000 0.257281
#
#
# Mechanical properties :
#
#
# Convention : Reuss Voigt Hill
#
# Bulk Modulus (GPa) = 27.03633 51.03318 39.03475
# Shear Modulus (GPa) = 9.33950 21.39403 15.36676
#
# Velocity S-wave (km/s) = 2.22639 3.36966 2.85582
# Velocity P-wave (km/s) = 4.57802 6.49805 5.62063
#
# Compressibility (1/GPa) = 0.03698727
#
# Stress axis : x y z
#
# Youngs Moduli (GPa) = 61.51148 27.52194 80.09528
#
# Poissons Ratio (x) = -0.01166 0.32517
# Poissons Ratio (y) = -0.02606 0.83368
# Poissons Ratio (z) = 0.24973 0.28647
#
# Static dielectric constant tensor:
#      x y z
#    x 1.677980 0.000000 0.007250 
#    y 0.000000 1.652680 0.000000 
#    z 0.007250 0.000000 1.721680 
# 
# From -- ./inp_files/50838.got.cif
#   From: 2010.05.17/outbox.cif.g08.bks.cpg/sg13_26_cif.got.tgz:50838.got - 2010.06.03 16:44:36.
