data_PCOD9228154
_publ_section_title
;
Structure prediction by ZEFSAII (Michael W. Deem and Ramdas Pophale) SiO2 
 PCOD9228154
Probable space group: P 2/C
;
_chemical_formula_sum "Si O2"
_cell_formula_units_Z 28
_cell_length_a 14.590233
_cell_length_b 7.936557
_cell_length_c 11.429955
_cell_angle_alpha 90.000000
_cell_angle_beta 113.348501
_cell_angle_gamma 90.000000
_cell_volume 1215.162010
_symmetry_space_group_name_H-M "P 2/C"
_symmetry_group_IT_number 13
_symmetry_cell_setting 'monoclinic'
loop_
_space_group_symop_operation_xyz
x,y,z
-x,y,1/2-z
-x,-y,-z
x,-y,1/2+z
loop_
_atom_site_type_symbol
_atom_site_label
_atom_site_fract_x
_atom_site_fract_y
_atom_site_fract_z
Si Si1 0.972527 0.278427 0.600387
Si Si2 0.057669 0.682831 0.893062
Si Si3 0.591235 0.339097 0.163714
Si Si4 0.718382 0.384617 0.006284
Si Si5 0.257094 0.765038 0.563207
Si Si6 0.415340 0.880850 0.506238
Si Si7 0.402730 0.279992 0.763845
O O1 0.970689 0.483409 0.608952
O O2 0.861364 0.216182 0.506561
O O3 0.000000 0.222943 0.750000
O O4 0.038156 0.243042 0.514670
O O5 0.172468 0.681640 0.912257
O O6 0.000000 0.753829 0.750000
O O7 0.633012 0.335720 0.053607
O O8 0.684393 0.268211 0.285938
O O9 0.569370 0.530998 0.184489
O O10 0.485068 0.247507 0.114260
O O11 0.723149 0.587855 0.996171
O O12 0.687144 0.305871 0.868359
O O13 0.320123 0.916664 0.537190
O O14 0.370937 0.812322 0.363563
O O15 0.500000 0.000000 0.500000
O O16 0.500000 0.201572 0.750000
#
# Coordination Sequence:
#
# PCOD9228154 Si02
#       7
#     4   4   4   4   4   4   4
#     4   9  18  30  50  81 122 155 186 234 296 355
#     4   9  17  29  48  84 123 152 185 237 296 349
#     4  11  20  38  58  83 114 153 194 240 294 355
#     4  10  19  32  59  86 116 156 191 238 292 357
#     4  10  21  35  57  84 117 157 194 237 296 356
#     4  12  25  39  56  81 117 154 197 246 296 353
#     4  11  21  35  58  82 115 150 199 240 292 357
#
# _framework density 23.042195
#
# number of rings (size 3 to 8) (size 9 to 14) (size 15 to 20)
#    0.000    1.714    2.857    3.429    2.000    4.571 
#    0.000    0.000    0.000    0.000    0.000    5.000 
#    0.000    0.000    0.000    0.000    0.000    0.000 
#
# Total GULP energy -156169.792015 kJ/mol
# GULP energy per Si atom -5577.492572 kJ/mol
# Density = 2.298975 g / cm^3
# Si number density = 23.042195 Si / 1000 Ang^3
#
#
#
# Elastic Constant Matrix: (Units=GPa)
#
#
# Indices 1 2 3 4 5 6 
#
# 1 82.3821 1.1894 35.7846 0.0000 5.9997 0.0000
# 2 1.1894 16.9263 -6.3201 0.0000 -3.8917 0.0000
# 3 35.7846 -6.3201 112.2058 0.0000 -5.5236 0.0000
# 4 0.0000 0.0000 0.0000 -9.6145 0.0000 -2.3615
# 5 5.9997 -3.8917 -5.5236 0.0000 37.5485 0.0000
# 6 0.0000 0.0000 0.0000 -2.3615 0.0000 21.0843
#
#
#
# Elastic Compliance Matrix: (Units=1/GPa)
#
#
# Indices 1 2 3 4 5 6 
#
# 1 0.014637 -0.003710 -0.005048 0.000000 -0.003466 0.000000
# 2 -0.003710 0.063066 0.005124 0.000000 0.007883 0.000000
# 3 -0.005048 0.005124 0.010956 0.000000 0.002949 0.000000
# 4 0.000000 0.000000 0.000000 -0.101224 0.000000 -0.011338
# 5 -0.003466 0.007883 0.002949 0.000000 0.028437 0.000000
# 6 0.000000 0.000000 0.000000 -0.011338 0.000000 0.046159
#
#
# Mechanical properties :
#
#
# Convention : Reuss Voigt Hill
#
# Bulk Modulus (GPa) = 12.28649 30.31357 21.30003
# Shear Modulus (GPa) = 51.85174 21.86101 36.85637
#
# Velocity S-wave (km/s) = 4.74887 3.08350 4.00373
# Velocity P-wave (km/s) = 5.95087 5.08542 5.53509
#
# Compressibility (1/GPa) = 0.08139019
#
# Stress axis : x y z
#
# Youngs Moduli (GPa) = 68.31956 15.85643 91.27621
#
# Poissons Ratio (x) = 0.05883 0.46073
# Poissons Ratio (y) = 0.25348 -0.46766
# Poissons Ratio (z) = 0.34485 -0.08124
#
# Static dielectric constant tensor:
#      x y z
#    x 1.828050 0.000000 -0.015190 
#    y 0.000000 1.963280 0.000000 
#    z -0.015190 0.000000 1.913350 
# 
# From -- ./inp_files/36521.got.cif
#   From: 2010.05.17/outbox.cif.g08.bks.cpg/sg13_19_cif.got.tgz:36521.got - 2010.06.03 16:44:36.
