data_PCOD9228865
_publ_section_title
;
Structure prediction by ZEFSAII (Michael W. Deem and Ramdas Pophale) SiO2 
 PCOD9228865
Probable space group: P 2/C
;
_chemical_formula_sum "Si O2"
_cell_formula_units_Z 26
_cell_length_a 5.297122
_cell_length_b 10.285982
_cell_length_c 23.131405
_cell_angle_alpha 90.000000
_cell_angle_beta 71.636760
_cell_angle_gamma 90.000000
_cell_volume 1196.161462
_symmetry_space_group_name_H-M "P 2/C"
_symmetry_group_IT_number 13
_symmetry_cell_setting 'monoclinic'
loop_
_space_group_symop_operation_xyz
x,y,z
-x,y,1/2-z
-x,-y,-z
x,-y,1/2+z
loop_
_atom_site_type_symbol
_atom_site_label
_atom_site_fract_x
_atom_site_fract_y
_atom_site_fract_z
Si Si1 0.869688 0.380322 0.443761
Si Si2 0.408926 0.786080 0.921476
Si Si3 0.216881 0.112792 0.551252
Si Si4 0.458172 0.806105 0.152321
Si Si5 0.812956 0.965549 0.647819
Si Si6 0.000000 0.956965 0.250000
Si Si7 0.837100 0.634274 0.077559
O O1 0.144193 0.300732 0.432079
O O2 0.968043 0.520715 0.415469
O O3 0.658532 0.303849 0.419831
O O4 0.754458 0.397334 0.517295
O O5 0.407035 0.872061 0.863668
O O6 0.361422 0.883088 0.979385
O O7 0.411286 0.147843 0.589685
O O8 0.050113 0.986763 0.583891
O O9 0.010129 0.233698 0.562461
O O10 0.686369 0.892770 0.163778
O O11 0.205907 0.856149 0.205478
O O12 0.581218 0.663148 0.135869
O O13 0.912328 0.945467 0.704913
#
# Coordination Sequence:
#
# PCOD9228865 Si02
#       7
#     4   4   4   4   4   2   4
#     4  10  22  34  58  88 131 171 209 232 317 383
#     4  11  22  36  55  92 128 170 202 248 305 404
#     4   9  19  33  55  87 123 165 199 250 320 376
#     4  10  19  36  58  85 118 157 212 262 328 371
#     4  10  22  36  57  83 123 157 211 262 327 377
#     4  10  22  38  58  86 110 160 216 282 334 380
#     4   9  19  35  55  86 128 169 198 258 299 393
#
# _framework density 21.736194000000001
#
# number of rings (size 3 to 8) (size 9 to 14) (size 15 to 20)
#    0.000    2.154    1.538    0.923    6.462    2.462 
#    0.000    0.000    0.000    0.000    0.000   25.846 
#    0.000    0.000    0.000    0.000    0.000    0.000 
#
# Total GULP energy -145031.288706 kJ/mol
# GULP energy per Si atom -5578.126489 kJ/mol
# Density = 2.168672 g / cm^3
# Si number density = 21.736194 Si / 1000 Ang^3
#
#
#
# Elastic Constant Matrix: (Units=GPa)
#
#
# Indices 1 2 3 4 5 6 
#
# 1 125.0210 43.1940 43.3064 0.0000 10.2638 0.0000
# 2 43.1940 79.4096 38.8852 0.0000 7.1569 0.0000
# 3 43.3064 38.8852 91.2028 0.0000 9.2654 0.0000
# 4 0.0000 0.0000 0.0000 8.1914 0.0000 -3.3435
# 5 10.2638 7.1569 9.2654 0.0000 27.0251 0.0000
# 6 0.0000 0.0000 0.0000 -3.3435 0.0000 40.0647
#
#
#
# Elastic Compliance Matrix: (Units=1/GPa)
#
#
# Indices 1 2 3 4 5 6 
#
# 1 0.010649 -0.004095 -0.003119 0.000000 -0.001891 0.000000
# 2 -0.004095 0.017591 -0.005430 0.000000 -0.001242 0.000000
# 3 -0.003119 -0.005430 0.015017 0.000000 -0.002526 0.000000
# 4 0.000000 0.000000 0.000000 0.126384 0.000000 0.010547
# 5 -0.001891 -0.001242 -0.002526 0.000000 0.038916 0.000000
# 6 0.000000 0.000000 0.000000 0.010547 0.000000 0.025840
#
#
# Mechanical properties :
#
#
# Convention : Reuss Voigt Hill
#
# Bulk Modulus (GPa) = 55.64534 60.71164 58.17849
# Shear Modulus (GPa) = 18.82016 26.40610 22.61313
#
# Velocity S-wave (km/s) = 2.94572 3.48924 3.22894
# Velocity P-wave (km/s) = 6.10127 6.65018 6.38163
#
# Compressibility (1/GPa) = 0.01797096
#
# Stress axis : x y z
#
# Youngs Moduli (GPa) = 93.90679 56.84753 66.59155
#
# Poissons Ratio (x) = 0.23278 0.20767
# Poissons Ratio (y) = 0.38454 0.36156
# Poissons Ratio (z) = 0.29285 0.30865
#
# Static dielectric constant tensor:
#      x y z
#    x 1.884250 0.000000 -0.038510 
#    y 0.000000 1.843290 0.000000 
#    z -0.038510 0.000000 1.854420 
# 
# From -- ./inp_files/83491.got.cif
#   From: 2010.05.17/outbox.cif.g08.bks.cpg/sg13_42_cif.got.tgz:83491.got - 2010.06.03 16:44:36.
