data_PCOD9228868
_publ_section_title
;
Structure prediction by ZEFSAII (Michael W. Deem and Ramdas Pophale) SiO2 
 PCOD9228868
Probable space group: P 2/C
;
_chemical_formula_sum "Si O2"
_cell_formula_units_Z 32
_cell_length_a 7.761965
_cell_length_b 15.704389
_cell_length_c 11.618365
_cell_angle_alpha 90.000000
_cell_angle_beta 87.188161
_cell_angle_gamma 90.000000
_cell_volume 1414.537758
_symmetry_space_group_name_H-M "P 2/C"
_symmetry_group_IT_number 13
_symmetry_cell_setting 'monoclinic'
loop_
_space_group_symop_operation_xyz
x,y,z
-x,y,1/2-z
-x,-y,-z
x,-y,1/2+z
loop_
_atom_site_type_symbol
_atom_site_label
_atom_site_fract_x
_atom_site_fract_y
_atom_site_fract_z
Si Si1 0.709867 0.392642 0.225620
Si Si2 0.757747 0.319940 0.465301
Si Si3 0.163298 0.932653 0.320923
Si Si4 0.305262 0.237484 0.703505
Si Si5 0.734001 0.109031 0.207908
Si Si6 0.701720 0.413888 0.700319
Si Si7 0.909619 0.144451 0.436961
Si Si8 0.626381 0.251369 0.058188
O O1 0.500000 0.392586 0.250000
O O2 0.795236 0.356775 0.338242
O O3 0.766811 0.490050 0.211139
O O4 0.730201 0.327705 0.118398
O O5 0.740139 0.388156 0.567301
O O6 0.883218 0.240706 0.482714
O O7 0.563907 0.283795 0.464753
O O8 0.218266 0.842307 0.267428
O O9 0.118311 0.917295 0.454899
O O10 0.000000 0.961625 0.250000
O O11 0.299901 0.008957 0.304985
O O12 0.500000 0.238907 0.750000
O O13 0.229713 0.331391 0.732722
O O14 0.299614 0.224312 0.567240
O O15 0.773336 0.130302 0.338584
O O16 0.610486 0.173938 0.147301
O O17 0.908590 0.128526 0.129214
O O18 0.500000 0.418403 0.750000
#
# Coordination Sequence:
#
# PCOD9228868 Si02
#       8
#     4   4   4   4   4   4   4   4
#     4   9  21  31  58  93 120 159 200 239 292 352
#     4  11  20  39  63  90 126 158 203 245 298 357
#     4  12  24  42  64  89 115 159 208 246 297 369
#     4  11  22  40  58  89 124 159 191 251 310 348
#     4  11  25  40  62  88 117 160 202 251 306 351
#     4  10  19  36  58  89 127 159 193 245 298 352
#     4  11  22  42  61  87 120 158 202 250 297 359
#     4  11  21  39  60  91 125 157 199 250 297 358
#
# _framework density 22.622230999999999
#
# number of rings (size 3 to 8) (size 9 to 14) (size 15 to 20)
#    0.000    1.250    6.250    1.125    3.500    1.500 
#    2.250    1.250    0.000    2.250    0.000    0.000 
#    0.000    0.000    0.000    0.000    0.000    0.000 
#
# Total GULP energy -178833.674331 kJ/mol
# GULP energy per Si atom -5588.552323 kJ/mol
# Density = 2.257074 g / cm^3
# Si number density = 22.622231 Si / 1000 Ang^3
#
#
#
# Elastic Constant Matrix: (Units=GPa)
#
#
# Indices 1 2 3 4 5 6 
#
# 1 32.6907 6.9657 10.6111 0.0000 -2.0810 0.0000
# 2 6.9657 137.0760 33.0666 0.0000 -2.6163 0.0000
# 3 10.6111 33.0666 158.4482 0.0000 -1.0163 0.0000
# 4 0.0000 0.0000 0.0000 63.2374 0.0000 6.4076
# 5 -2.0810 -2.6163 -1.0163 0.0000 20.0133 0.0000
# 6 0.0000 0.0000 0.0000 6.4076 0.0000 22.4055
#
#
#
# Elastic Compliance Matrix: (Units=1/GPa)
#
#
# Indices 1 2 3 4 5 6 
#
# 1 0.031625 -0.001098 -0.001869 0.000000 0.003050 0.000000
# 2 -0.001098 0.007737 -0.001536 0.000000 0.000819 0.000000
# 3 -0.001869 -0.001536 0.006757 0.000000 -0.000052 0.000000
# 4 0.000000 0.000000 0.000000 0.016285 0.000000 -0.004657
# 5 0.003050 0.000819 -0.000052 0.000000 0.050388 0.000000
# 6 0.000000 0.000000 0.000000 -0.004657 0.000000 0.045964
#
#
# Mechanical properties :
#
#
# Convention : Reuss Voigt Hill
#
# Bulk Modulus (GPa) = 26.94525 47.72242 37.33383
# Shear Modulus (GPa) = 27.75736 39.63602 33.69669
#
# Velocity S-wave (km/s) = 3.50665 4.19033 3.86364
# Velocity P-wave (km/s) = 5.32281 6.67480 6.03677
#
# Compressibility (1/GPa) = 0.03711230
#
# Stress axis : x y z
#
# Youngs Moduli (GPa) = 31.62100 129.24654 148.00393
#
# Poissons Ratio (x) = 0.14190 0.27664
# Poissons Ratio (y) = 0.03472 0.22732
# Poissons Ratio (z) = 0.05910 0.19851
#
# Static dielectric constant tensor:
#      x y z
#    x 1.926240 0.000000 -0.023380 
#    y 0.000000 1.846630 0.000000 
#    z -0.023380 0.000000 1.800260 
# 
# From -- ./inp_files/30417.got.cif
#   From: 2010.05.17/outbox.cif.g08.bks.cpg/sg13_16_cif.got.tgz:30417.got - 2010.06.03 16:44:36.
