data_PCOD9228190
_publ_section_title
;
Structure prediction by ZEFSAII (Michael W. Deem and Ramdas Pophale) SiO2 
 PCOD9228190
Probable space group: P 2/C
;
_chemical_formula_sum "Si O2"
_cell_formula_units_Z 20
_cell_length_a 7.921172
_cell_length_b 25.538504
_cell_length_c 9.852244
_cell_angle_alpha 90.000000
_cell_angle_beta 148.883743
_cell_angle_gamma 90.000000
_cell_volume 1029.965348
_symmetry_space_group_name_H-M "P 2/C"
_symmetry_group_IT_number 13
_symmetry_cell_setting 'monoclinic'
loop_
_space_group_symop_operation_xyz
x,y,z
-x,y,1/2-z
-x,-y,-z
x,-y,1/2+z
loop_
_atom_site_type_symbol
_atom_site_label
_atom_site_fract_x
_atom_site_fract_y
_atom_site_fract_z
Si Si1 0.802520 0.465504 0.252611
Si Si2 0.608089 0.275660 0.980182
Si Si3 0.607932 0.838559 0.480490
Si Si4 0.389878 0.047481 0.517875
Si Si5 0.614957 0.636336 0.970963
O O1 0.000000 0.454414 0.250000
O O2 0.000000 0.500000 0.500000
O O3 0.500000 0.500000 0.000000
O O4 0.636120 0.412507 0.192075
O O5 0.508298 0.218117 0.969245
O O6 0.000000 0.279896 0.250000
O O7 0.500000 0.278660 0.750000
O O8 0.453340 0.322559 0.957485
O O9 0.494858 0.895115 0.456944
O O10 0.000000 0.838595 0.750000
O O11 0.500000 0.838268 0.250000
O O12 0.000000 0.048230 0.250000
O O13 0.500000 0.000000 0.500000
O O14 0.500000 0.041218 0.750000
O O15 0.000000 0.620884 0.250000
O O16 0.500000 0.661862 0.750000
#
# Coordination Sequence:
#
# PCOD9228190 Si02
#       5
#     4   4   4   4   4
#     4  12  25  43  65  88 115 149 187 226 271 326
#     4  10  20  38  62  86 110 150 198 237 279 339
#     4   8  16  31  53  77 107 145 190 235 282 338
#     4  10  19  33  52  78 110 149 192 239 288 342
#     4  12  25  41  60  89 123 151 182 231 286 337
#
# _framework density 19.418129
#
# number of rings (size 3 to 8) (size 9 to 14) (size 15 to 20)
#    0.000    1.600    0.000    6.000    0.000    1.600 
#    0.000    2.000    0.000    0.000    0.000    0.000 
#    0.000    0.000    0.000    0.000    0.000    0.000 
#
# Total GULP energy -111509.502541 kJ/mol
# GULP energy per Si atom -5575.475127 kJ/mol
# Density = 1.937393 g / cm^3
# Si number density = 19.418129 Si / 1000 Ang^3
#
#
#
# Elastic Constant Matrix: (Units=GPa)
#
#
# Indices 1 2 3 4 5 6 
#
# 1 73.6536 50.5024 33.4597 0.0000 0.1058 0.0000
# 2 50.5024 172.8685 34.7860 0.0000 -5.8051 0.0000
# 3 33.4597 34.7860 168.9468 0.0000 0.6386 0.0000
# 4 0.0000 0.0000 0.0000 29.1191 0.0000 -5.1580
# 5 0.1058 -5.8051 0.6386 0.0000 25.0935 0.0000
# 6 0.0000 0.0000 0.0000 -5.1580 0.0000 28.6423
#
#
#
# Elastic Compliance Matrix: (Units=1/GPa)
#
#
# Indices 1 2 3 4 5 6 
#
# 1 0.018033 -0.004786 -0.002582 0.000000 -0.001118 0.000000
# 2 -0.004786 0.007357 -0.000573 0.000000 0.001737 0.000000
# 3 -0.002582 -0.000573 0.006549 0.000000 -0.000288 0.000000
# 4 0.000000 0.000000 0.000000 0.035473 0.000000 0.006388
# 5 -0.001118 0.001737 -0.000288 0.000000 0.040265 0.000000
# 6 0.000000 0.000000 0.000000 0.006388 0.000000 0.036064
#
#
# Mechanical properties :
#
#
# Convention : Reuss Voigt Hill
#
# Bulk Modulus (GPa) = 62.27946 72.55165 67.41556
# Shear Modulus (GPa) = 30.30733 36.35238 33.32986
#
# Velocity S-wave (km/s) = 3.95495 4.33145 4.14748
# Velocity P-wave (km/s) = 7.27997 7.90312 7.59794
#
# Compressibility (1/GPa) = 0.01605666
#
# Stress axis : x y z
#
# Youngs Moduli (GPa) = 55.45262 135.92967 152.68375
#
# Poissons Ratio (x) = 0.65061 0.39419
# Poissons Ratio (y) = 0.26542 0.08755
# Poissons Ratio (z) = 0.14317 0.07794
#
# Static dielectric constant tensor:
#      x y z
#    x 1.756040 0.000000 -0.020590 
#    y 0.000000 1.733850 0.000000 
#    z -0.020590 0.000000 1.651180 
# 
# From -- ./inp_files/13832.got.cif
#   From: 2010.05.17/outbox.cif.g08.bks.cpg/sg13_7_cif.got.tgz:13832.got - 2010.06.03 16:44:36.
