data_PCOD9228477
_publ_section_title
;
Structure prediction by ZEFSAII (Michael W. Deem and Ramdas Pophale) SiO2 
 PCOD9228477
Probable space group: P 2/C
;
_chemical_formula_sum "Si O2"
_cell_formula_units_Z 32
_cell_length_a 11.146076
_cell_length_b 9.425601
_cell_length_c 14.614518
_cell_angle_alpha 90.000000
_cell_angle_beta 115.194850
_cell_angle_gamma 90.000000
_cell_volume 1389.311055
_symmetry_space_group_name_H-M "P 2/C"
_symmetry_group_IT_number 13
_symmetry_cell_setting 'monoclinic'
loop_
_space_group_symop_operation_xyz
x,y,z
-x,y,1/2-z
-x,-y,-z
x,-y,1/2+z
loop_
_atom_site_type_symbol
_atom_site_label
_atom_site_fract_x
_atom_site_fract_y
_atom_site_fract_z
Si Si1 0.207408 0.361839 0.079393
Si Si2 0.147120 0.910730 0.680792
Si Si3 0.145362 0.107399 0.396969
Si Si4 0.518134 0.227019 0.398924
Si Si5 0.462852 0.685622 0.082563
Si Si6 0.188256 0.432964 0.429547
Si Si7 0.313418 0.471372 0.286410
Si Si8 0.646692 0.956489 0.383588
O O1 0.149277 0.235265 0.122517
O O2 0.340225 0.295272 0.079115
O O3 0.251376 0.479666 0.167032
O O4 0.129685 0.443389 0.973809
O O5 0.174619 0.892857 0.797978
O O6 0.995610 0.964760 0.628425
O O7 0.256554 0.007371 0.668313
O O8 0.133630 0.274056 0.419954
O O9 0.259776 0.039429 0.495158
O O10 0.500692 0.230621 0.502097
O O11 0.400786 0.325143 0.320094
O O12 0.530753 0.070853 0.361441
O O13 0.583101 0.593496 0.157257
O O14 0.409752 0.799364 0.136322
O O15 0.342534 0.584717 0.011079
O O16 0.200391 0.469265 0.326858
#
# Coordination Sequence:
#
# PCOD9228477 Si02
#       8
#     4   4   4   4   4   4   4   4
#     4  11  20  34  61  90 118 161 210 242 310 371
#     4  10  22  40  66  90 112 166 210 258 318 374
#     4  10  21  42  65  86 121 156 210 269 317 355
#     4  10  19  34  57  84 121 160 202 238 295 364
#     4  10  19  35  56  85 127 162 190 239 309 360
#     4  10  19  35  59  88 120 158 201 253 298 369
#     4  11  19  35  58  86 129 164 197 244 296 373
#     4  10  22  38  61  91 121 156 207 254 300 368
#
# _framework density 23.032997999999999
#
# number of rings (size 3 to 8) (size 9 to 14) (size 15 to 20)
#    0.000    1.750    3.750    1.875    0.000    0.500 
#    0.000    5.000   13.750    0.000    0.000    0.000 
#    0.000    0.000    0.000    0.000    0.000    0.000 
#
# Total GULP energy -179010.247445 kJ/mol
# GULP energy per Si atom -5594.070233 kJ/mol
# Density = 2.298057 g / cm^3
# Si number density = 23.032998 Si / 1000 Ang^3
#
#
#
# Elastic Constant Matrix: (Units=GPa)
#
#
# Indices 1 2 3 4 5 6 
#
# 1 103.2694 21.1637 38.8994 0.0000 -22.8106 0.0000
# 2 21.1637 57.8315 10.0109 0.0000 -13.6317 0.0000
# 3 38.8994 10.0109 84.6512 0.0000 -19.7088 0.0000
# 4 0.0000 0.0000 0.0000 14.9330 0.0000 -5.8893
# 5 -22.8106 -13.6317 -19.7088 0.0000 29.7398 0.0000
# 6 0.0000 0.0000 0.0000 -5.8893 0.0000 12.0279
#
#
#
# Elastic Compliance Matrix: (Units=1/GPa)
#
#
# Indices 1 2 3 4 5 6 
#
# 1 0.013196 -0.002657 -0.004347 0.000000 0.006022 0.000000
# 2 -0.002657 0.019926 0.000611 0.000000 0.007500 0.000000
# 3 -0.004347 0.000611 0.015404 0.000000 0.007154 0.000000
# 4 0.000000 0.000000 0.000000 0.082991 0.000000 0.040635
# 5 0.006022 0.007500 0.007154 0.000000 0.046423 0.000000
# 6 0.000000 0.000000 0.000000 0.040635 0.000000 0.103036
#
#
# Mechanical properties :
#
#
# Convention : Reuss Voigt Hill
#
# Bulk Modulus (GPa) = 27.98077 42.87779 35.42928
# Shear Modulus (GPa) = 16.35712 23.05203 19.70458
#
# Velocity S-wave (km/s) = 2.66777 3.16702 2.92805
# Velocity P-wave (km/s) = 4.65444 5.65946 5.18138
#
# Compressibility (1/GPa) = 0.03573884
#
# Stress axis : x y z
#
# Youngs Moduli (GPa) = 75.78204 50.18536 64.91678
#
# Poissons Ratio (x) = 0.13334 0.28222
# Poissons Ratio (y) = 0.20135 -0.03964
# Poissons Ratio (z) = 0.32946 -0.03065
#
# Static dielectric constant tensor:
#      x y z
#    x 1.875580 0.000000 -0.003250 
#    y 0.000000 1.868240 0.000000 
#    z -0.003250 0.000000 1.864440 
# 
# From -- ./inp_files/67786.got.cif
#   From: 2010.05.17/outbox.cif.g08.bks.cpg/sg13_34_cif.got.tgz:67786.got - 2010.06.03 16:44:36.
