data_PCOD9228979
_publ_section_title
;
Structure prediction by ZEFSAII (Michael W. Deem and Ramdas Pophale) SiO2 
 PCOD9228979
Probable space group: P 2/C
;
_chemical_formula_sum "Si O2"
_cell_formula_units_Z 32
_cell_length_a 14.489030
_cell_length_b 21.452673
_cell_length_c 9.105617
_cell_angle_alpha 90.000000
_cell_angle_beta 147.767333
_cell_angle_gamma 90.000000
_cell_volume 1509.556739
_symmetry_space_group_name_H-M "P 2/C"
_symmetry_group_IT_number 13
_symmetry_cell_setting 'monoclinic'
loop_
_space_group_symop_operation_xyz
x,y,z
-x,y,1/2-z
-x,-y,-z
x,-y,1/2+z
loop_
_atom_site_type_symbol
_atom_site_label
_atom_site_fract_x
_atom_site_fract_y
_atom_site_fract_z
Si Si1 0.679468 0.525169 0.808817
Si Si2 0.103805 0.359738 0.037660
Si Si3 0.857479 0.551631 0.344637
Si Si4 0.905182 0.079730 0.765557
Si Si5 0.631307 0.054605 0.636608
Si Si6 0.389003 0.171535 0.228673
Si Si7 0.329895 0.753125 0.942629
Si Si8 0.152100 0.870629 0.844770
O O1 0.500000 0.500000 0.500000
O O2 0.761476 0.584751 0.830562
O O3 0.796146 0.465162 0.923784
O O4 0.708529 0.542180 0.018672
O O5 0.197941 0.302081 0.236567
O O6 0.000000 0.342431 0.750000
O O7 0.956674 0.385132 0.948701
O O8 0.000000 0.500000 0.500000
O O9 0.766665 0.043585 0.683937
O O10 0.793424 0.140296 0.563861
O O11 0.000000 0.050536 0.750000
O O12 0.060073 0.101081 0.078813
O O13 0.510691 0.112906 0.432634
O O14 0.500000 0.000000 0.500000
O O15 0.738120 0.077660 0.921226
O O16 0.500000 0.203948 0.250000
O O17 0.368607 0.216395 0.337389
O O18 0.261853 0.810752 0.948340
O O19 0.500000 0.727855 0.250000
O O20 0.000000 0.850949 0.750000
#
# Coordination Sequence:
#
# PCOD9228979 Si02
#       8
#     4   4   4   4   4   4   4   4
#     4  10  19  36  63  90 127 166 214 276 333 382
#     4   9  22  39  58  92 127 175 224 264 326 398
#     4   9  18  36  58  86 124 167 209 259 327 382
#     4  10  20  40  69  99 126 167 219 259 329 406
#     4  10  22  45  68  94 134 174 212 273 342 409
#     4  10  22  42  64  94 126 168 212 261 338 398
#     4  12  23  41  66  92 131 172 223 275 329 401
#     4  10  22  42  69  94 128 168 216 271 338 396
#
# _framework density 21.198276
#
# number of rings (size 3 to 8) (size 9 to 14) (size 15 to 20)
#    0.000    2.000    2.500    1.500    1.750    2.000 
#    6.750   10.000    0.000    1.500    0.000    0.000 
#    0.000    0.000    0.000    0.000    0.000    0.000 
#
# Total GULP energy -178637.872088 kJ/mol
# GULP energy per Si atom -5582.433503 kJ/mol
# Density = 2.115003 g / cm^3
# Si number density = 21.198276 Si / 1000 Ang^3
#
#
#
# Elastic Constant Matrix: (Units=GPa)
#
#
# Indices 1 2 3 4 5 6 
#
# 1 108.7165 52.2883 39.0227 0.0000 -5.6761 0.0000
# 2 52.2883 74.5612 45.7448 0.0000 -0.0086 0.0000
# 3 39.0227 45.7448 154.6432 0.0000 1.9096 0.0000
# 4 0.0000 0.0000 0.0000 37.7703 0.0000 4.7945
# 5 -5.6761 -0.0086 1.9096 0.0000 27.9143 0.0000
# 6 0.0000 0.0000 0.0000 4.7945 0.0000 8.1698
#
#
#
# Elastic Compliance Matrix: (Units=1/GPa)
#
#
# Indices 1 2 3 4 5 6 
#
# 1 0.014190 -0.009446 -0.000823 0.000000 0.002939 0.000000
# 2 -0.009446 0.022677 -0.004304 0.000000 -0.001619 0.000000
# 3 -0.000823 -0.004304 0.007956 0.000000 -0.000713 0.000000
# 4 0.000000 0.000000 0.000000 0.028607 0.000000 -0.016788
# 5 0.002939 -0.001619 -0.000713 0.000000 0.036470 0.000000
# 6 0.000000 0.000000 0.000000 -0.016788 0.000000 0.132255
#
#
# Mechanical properties :
#
#
# Convention : Reuss Voigt Hill
#
# Bulk Modulus (GPa) = 63.78937 68.00360 65.89648
# Shear Modulus (GPa) = 18.08140 28.16189 23.12165
#
# Velocity S-wave (km/s) = 2.92373 3.64881 3.30621
# Velocity P-wave (km/s) = 6.44629 7.06408 6.76224
#
# Compressibility (1/GPa) = 0.01567659
#
# Stress axis : x y z
#
# Youngs Moduli (GPa) = 70.47096 44.09786 125.68828
#
# Poissons Ratio (x) = 0.41656 0.10341
# Poissons Ratio (y) = 0.66568 0.54101
# Poissons Ratio (z) = 0.05798 0.18981
#
# Static dielectric constant tensor:
#      x y z
#    x 1.841110 0.000000 0.007010 
#    y 0.000000 1.733950 0.000000 
#    z 0.007010 0.000000 1.806340 
# 
# From -- ./inp_files/20235.got.cif
#   From: 2010.05.17/outbox.cif.g08.bks.cpg/sg13_11_cif.got.tgz:20235.got - 2010.06.03 16:44:36.
