data_PCOD9228235
_publ_section_title
;
Structure prediction by ZEFSAII (Michael W. Deem and Ramdas Pophale) SiO2 
 PCOD9228235
Probable space group: P 2/C
;
_chemical_formula_sum "Si O2"
_cell_formula_units_Z 24
_cell_length_a 23.820860
_cell_length_b 10.720825
_cell_length_c 23.680170
_cell_angle_alpha 90.000000
_cell_angle_beta 168.090746
_cell_angle_gamma 90.000000
_cell_volume 1247.959984
_symmetry_space_group_name_H-M "P 2/C"
_symmetry_group_IT_number 13
_symmetry_cell_setting 'monoclinic'
loop_
_space_group_symop_operation_xyz
x,y,z
-x,y,1/2-z
-x,-y,-z
x,-y,1/2+z
loop_
_atom_site_type_symbol
_atom_site_label
_atom_site_fract_x
_atom_site_fract_y
_atom_site_fract_z
Si Si1 0.401962 0.136958 0.854798
Si Si2 0.905285 0.012916 0.305525
Si Si3 0.930693 0.251280 0.868247
Si Si4 0.553047 0.423101 0.110630
Si Si5 0.620069 0.348144 0.753566
Si Si6 0.123994 0.226107 0.310513
O O1 0.227468 0.188499 0.734824
O O2 0.473537 0.261559 0.890856
O O3 0.195973 0.057109 0.614213
O O4 0.679551 0.057426 0.129994
O O5 0.832744 0.092888 0.178396
O O6 0.932723 0.864433 0.327026
O O7 0.731601 0.360672 0.653259
O O8 0.216113 0.314784 0.166904
O O9 0.636282 0.515901 0.242856
O O10 0.500000 0.500000 0.000000
O O11 0.393402 0.311175 0.576310
O O12 0.907201 0.300522 0.058782
O O13 0.000000 0.206997 0.250000
#
# Coordination Sequence:
#
# PCOD9228235 Si02
#       6
#     4   4   4   4   4   4
#     4  10  19  33  54  79 117 151 187 229 273 341
#     4  10  21  35  54  85 112 144 191 237 287 340
#     4  12  22  34  55  80 123 162 187 220 285 341
#     4  12  24  36  55  82 123 163 195 220 273 353
#     4  10  21  36  57  85 113 145 195 238 275 336
#     4  10  21  39  64  83 105 141 190 255 302 328
#
# _framework density 19.231386000000001
#
# number of rings (size 3 to 8) (size 9 to 14) (size 15 to 20)
#    0.000    1.333    1.667    5.000    4.667    0.000 
#    0.000    0.000    0.000    6.000    0.000    0.000 
#    0.000    0.000    0.000    0.000    0.000    0.000 
#
# Total GULP energy -133864.347967 kJ/mol
# GULP energy per Si atom -5577.681165 kJ/mol
# Density = 1.918761 g / cm^3
# Si number density = 19.231386 Si / 1000 Ang^3
#
#
#
# Elastic Constant Matrix: (Units=GPa)
#
#
# Indices 1 2 3 4 5 6 
#
# 1 64.8573 21.5801 -2.0784 0.0000 9.1626 0.0000
# 2 21.5801 95.9613 23.5007 0.0000 -3.2176 0.0000
# 3 -2.0784 23.5007 89.7851 0.0000 11.4464 0.0000
# 4 0.0000 0.0000 0.0000 33.4023 0.0000 -0.0439
# 5 9.1626 -3.2176 11.4464 0.0000 23.9409 0.0000
# 6 0.0000 0.0000 0.0000 -0.0439 0.0000 11.3208
#
#
#
# Elastic Compliance Matrix: (Units=1/GPa)
#
#
# Indices 1 2 3 4 5 6 
#
# 1 0.018548 -0.005207 0.002967 0.000000 -0.009217 0.000000
# 2 -0.005207 0.012813 -0.004204 0.000000 0.005725 0.000000
# 3 0.002967 -0.004204 0.013337 0.000000 -0.008077 0.000000
# 4 0.000000 0.000000 0.000000 0.029938 0.000000 0.000116
# 5 -0.009217 0.005725 -0.008077 0.000000 0.049928 0.000000
# 6 0.000000 0.000000 0.000000 0.000116 0.000000 0.088334
#
#
# Mechanical properties :
#
#
# Convention : Reuss Voigt Hill
#
# Bulk Modulus (GPa) = 31.43619 37.40095 34.41857
# Shear Modulus (GPa) = 21.15156 27.57289 24.36222
#
# Velocity S-wave (km/s) = 3.31999 3.79059 3.56307
# Velocity P-wave (km/s) = 5.57478 6.21677 5.90451
#
# Compressibility (1/GPa) = 0.03181047
#
# Stress axis : x y z
#
# Youngs Moduli (GPa) = 53.91353 78.04337 74.98202
#
# Poissons Ratio (x) = 0.40637 -0.22250
# Poissons Ratio (y) = 0.28072 0.31524
# Poissons Ratio (z) = -0.15998 0.32811
#
# Static dielectric constant tensor:
#      x y z
#    x 1.706440 0.000000 0.022250 
#    y 0.000000 1.714530 0.000000 
#    z 0.022250 0.000000 1.689280 
# 
# From -- ./inp_files/89085.got.cif
#   From: 2010.05.17/outbox.cif.g08.bks.cpg/sg13_45_cif.got.tgz:89085.got - 2010.06.03 16:44:36.
