data_PCOD9228673
_publ_section_title
;
Structure prediction by ZEFSAII (Michael W. Deem and Ramdas Pophale) SiO2 
 PCOD9228673
Probable space group: P 2/C
;
_chemical_formula_sum "Si O2"
_cell_formula_units_Z 22
_cell_length_a 7.801022
_cell_length_b 9.191451
_cell_length_c 18.183241
_cell_angle_alpha 90.000000
_cell_angle_beta 48.396344
_cell_angle_gamma 90.000000
_cell_volume 974.914703
_symmetry_space_group_name_H-M "P 2/C"
_symmetry_group_IT_number 13
_symmetry_cell_setting 'monoclinic'
loop_
_space_group_symop_operation_xyz
x,y,z
-x,y,1/2-z
-x,-y,-z
x,-y,1/2+z
loop_
_atom_site_type_symbol
_atom_site_label
_atom_site_fract_x
_atom_site_fract_y
_atom_site_fract_z
Si Si1 0.670583 0.946098 0.556974
Si Si2 0.500000 0.348445 0.750000
Si Si3 0.314224 0.218395 0.058999
Si Si4 0.149876 0.904020 0.359010
Si Si5 0.000000 0.153494 0.750000
Si Si6 0.618660 0.597617 0.372970
Si Si7 0.000000 0.648595 0.750000
O O1 0.466119 0.847789 0.583279
O O2 0.915742 0.875086 0.469514
O O3 0.676395 0.095020 0.507018
O O4 0.689093 0.994188 0.636610
O O5 0.720349 0.246022 0.689690
O O6 0.511400 0.420113 0.667662
O O7 0.060681 0.254743 0.161326
O O8 0.435627 0.359120 0.987472
O O9 0.074780 0.942721 0.297864
O O10 0.210544 0.261140 0.670635
O O11 0.785535 0.460035 0.318932
#
# Coordination Sequence:
#
# PCOD9228673 Si02
#       7
#     4   2   4   4   2   4   2
#     4  10  22  37  64  95 136 161 208 262 344 383
#     4  10  20  36  66  90 126 166 230 252 320 388
#     4  11  22  43  62  97 131 174 211 276 324 388
#     4  10  19  35  59 101 124 169 205 259 312 402
#     4   9  18  33  66  90 125 164 221 244 314 389
#     4  10  20  42  63  92 121 174 221 267 314 381
#     4  11  26  41  68  88 127 174 231 264 324 371
#
# _framework density 22.566078000000001
#
# number of rings (size 3 to 8) (size 9 to 14) (size 15 to 20)
#    0.000    1.818    3.636    0.545    0.000    2.182 
#    0.000    4.545    0.000    0.000    0.000    0.000 
#    0.000    0.000    0.000    0.000    0.000    0.000 
#
# Total GULP energy -122607.721923 kJ/mol
# GULP energy per Si atom -5573.078269 kJ/mol
# Density = 2.251472 g / cm^3
# Si number density = 22.566078 Si / 1000 Ang^3
#
#
#
# Elastic Constant Matrix: (Units=GPa)
#
#
# Indices 1 2 3 4 5 6 
#
# 1 106.8632 15.0213 38.5154 0.0000 40.6992 0.0000
# 2 15.0213 73.3849 26.7951 0.0000 4.9411 0.0000
# 3 38.5154 26.7951 144.3753 0.0000 2.7156 0.0000
# 4 0.0000 0.0000 0.0000 4.6545 0.0000 -7.4262
# 5 40.6992 4.9411 2.7156 0.0000 49.1861 0.0000
# 6 0.0000 0.0000 0.0000 -7.4262 0.0000 9.0187
#
#
#
# Elastic Compliance Matrix: (Units=1/GPa)
#
#
# Indices 1 2 3 4 5 6 
#
# 1 0.015674 -0.000983 -0.003761 0.000000 -0.012663 0.000000
# 2 -0.000983 0.014765 -0.002468 0.000000 -0.000534 0.000000
# 3 -0.003761 -0.002468 0.008333 0.000000 0.002900 0.000000
# 4 0.000000 0.000000 0.000000 -0.684746 0.000000 -0.563833
# 5 -0.012663 -0.000534 0.002900 0.000000 0.030703 0.000000
# 6 0.000000 0.000000 0.000000 -0.563833 0.000000 -0.353391
#
#
# Mechanical properties :
#
#
# Convention : Reuss Voigt Hill
#
# Bulk Modulus (GPa) = 41.06882 53.92078 47.49480
# Shear Modulus (GPa) = -5.28473 28.85795 11.78661
#
# Velocity S-wave (km/s) = -1.53198 3.57994 2.28790
# Velocity P-wave (km/s) = 3.88710 6.40581 5.29830
#
# Compressibility (1/GPa) = 0.02434937
#
# Stress axis : x y z
#
# Youngs Moduli (GPa) = 63.79890 67.72749 120.00141
#
# Poissons Ratio (x) = 0.06654 0.45132
# Poissons Ratio (y) = 0.06268 0.29618
# Poissons Ratio (z) = 0.23994 0.16716
#
# Static dielectric constant tensor:
#      x y z
#    x 1.921720 0.000000 0.083970 
#    y 0.000000 1.884800 0.000000 
#    z 0.083970 0.000000 1.953410 
# 
# From -- ./inp_files/63704.got.cif
#   From: 2010.05.17/outbox.cif.g08.bks.cpg/sg13_32_cif.got.tgz:63704.got - 2010.06.03 16:44:36.
