data_PCOD9228416
_publ_section_title
;
Structure prediction by ZEFSAII (Michael W. Deem and Ramdas Pophale) SiO2 
 PCOD9228416
Probable space group: P 2/C
;
_chemical_formula_sum "Si O2"
_cell_formula_units_Z 32
_cell_length_a 20.228692
_cell_length_b 10.705901
_cell_length_c 8.741860
_cell_angle_alpha 90.000000
_cell_angle_beta 55.946178
_cell_angle_gamma 90.000000
_cell_volume 1568.532897
_symmetry_space_group_name_H-M "P 2/C"
_symmetry_group_IT_number 13
_symmetry_cell_setting 'monoclinic'
loop_
_space_group_symop_operation_xyz
x,y,z
-x,y,1/2-z
-x,-y,-z
x,-y,1/2+z
loop_
_atom_site_type_symbol
_atom_site_label
_atom_site_fract_x
_atom_site_fract_y
_atom_site_fract_z
Si Si1 0.402000 0.332521 0.085310
Si Si2 0.302723 0.064906 0.691671
Si Si3 0.086134 0.147688 0.067200
Si Si4 0.460565 0.204619 0.465599
Si Si5 0.239420 0.213801 0.315561
Si Si6 0.619955 0.417200 0.736500
Si Si7 0.152602 0.907939 0.165746
Si Si8 0.227851 0.718381 0.484841
O O1 0.462070 0.216149 0.024964
O O2 0.314077 0.298809 0.258451
O O3 0.419266 0.451581 0.169825
O O4 0.400798 0.372911 0.908839
O O5 0.396013 0.092900 0.542657
O O6 0.239706 0.091525 0.636336
O O7 0.278879 0.162542 0.855962
O O8 0.279887 0.923635 0.757450
O O9 0.000000 0.166157 0.250000
O O10 0.127450 0.033020 0.107934
O O11 0.090258 0.112388 0.883241
O O12 0.143522 0.267429 0.011937
O O13 0.500000 0.218795 0.250000
O O14 0.411006 0.322513 0.593207
O O15 0.165150 0.200145 0.524750
O O16 0.214119 0.257564 0.180853
O O17 0.716413 0.401297 0.616533
#
# Coordination Sequence:
#
# PCOD9228416 Si02
#       8
#     4   4   4   4   4   4   4   4
#     4  11  23  37  58  82 106 142 197 245 283 328
#     4  10  19  34  55  75 110 154 178 222 282 337
#     4  11  20  32  54  86 116 148 183 228 276 328
#     4  11  22  36  54  80 110 144 188 240 288 327
#     4  11  19  35  57  79 109 150 188 229 275 336
#     4  10  22  39  58  78 108 148 189 245 290 331
#     4  11  19  33  53  80 116 154 184 221 266 345
#     4   9  19  36  55  78 112 146 185 226 279 342
#
# _framework density 20.401229000000001
#
# number of rings (size 3 to 8) (size 9 to 14) (size 15 to 20)
#    0.000    1.500    3.750    2.625    0.000    2.500 
#    0.000    2.500    0.000    0.000    0.000    8.750 
#    0.000    0.000    0.000    0.000    0.000    0.000 
#
# Total GULP energy -178295.551860 kJ/mol
# GULP energy per Si atom -5571.735996 kJ/mol
# Density = 2.035480 g / cm^3
# Si number density = 20.401229 Si / 1000 Ang^3
#
#
#
# Elastic Constant Matrix: (Units=GPa)
#
#
# Indices 1 2 3 4 5 6 
#
# 1 29.9588 1.7102 27.2690 0.0000 -10.5412 0.0000
# 2 1.7102 28.5442 11.0795 0.0000 -3.8928 0.0000
# 3 27.2690 11.0795 141.3147 0.0000 -9.8585 0.0000
# 4 0.0000 0.0000 0.0000 12.2562 0.0000 -0.0866
# 5 -10.5412 -3.8928 -9.8585 0.0000 25.3570 0.0000
# 6 0.0000 0.0000 0.0000 -0.0866 0.0000 15.4656
#
#
#
# Elastic Compliance Matrix: (Units=1/GPa)
#
#
# Indices 1 2 3 4 5 6 
#
# 1 0.046324 0.002582 -0.007987 0.000000 0.016549 0.000000
# 2 0.002582 0.036799 -0.002996 0.000000 0.005558 0.000000
# 3 -0.007987 -0.002996 0.008828 0.000000 -0.000348 0.000000
# 4 0.000000 0.000000 0.000000 0.081595 0.000000 0.000457
# 5 0.016549 0.005558 -0.000348 0.000000 0.047034 0.000000
# 6 0.000000 0.000000 0.000000 0.000457 0.000000 0.064662
#
#
# Mechanical properties :
#
#
# Convention : Reuss Voigt Hill
#
# Bulk Modulus (GPa) = 13.30670 31.10390 22.20530
# Shear Modulus (GPa) = 15.28606 21.26636 18.27621
#
# Velocity S-wave (km/s) = 2.74025 3.23213 2.99630
# Velocity P-wave (km/s) = 4.06800 5.40445 4.78313
#
# Compressibility (1/GPa) = 0.07515009
#
# Stress axis : x y z
#
# Youngs Moduli (GPa) = 21.58686 27.17430 113.27322
#
# Poissons Ratio (x) = -0.07015 0.90471
# Poissons Ratio (y) = -0.05573 0.33932
# Poissons Ratio (z) = 0.17241 0.08140
#
# Static dielectric constant tensor:
#      x y z
#    x 1.813300 0.000000 -0.004750 
#    y 0.000000 1.753970 0.000000 
#    z -0.004750 0.000000 1.768580 
# 
# From -- ./inp_files/23359.got.cif
#   From: 2010.05.17/outbox.cif.g08.bks.cpg/sg13_12_cif.got.tgz:23359.got - 2010.06.03 16:44:36.
