data_PCOD9228583
_publ_section_title
;
Structure prediction by ZEFSAII (Michael W. Deem and Ramdas Pophale) SiO2 
 PCOD9228583
Probable space group: P 2/C
;
_chemical_formula_sum "Si O2"
_cell_formula_units_Z 24
_cell_length_a 5.203785
_cell_length_b 7.479733
_cell_length_c 30.779296
_cell_angle_alpha 90.000000
_cell_angle_beta 103.680319
_cell_angle_gamma 90.000000
_cell_volume 1164.032816
_symmetry_space_group_name_H-M "P 2/C"
_symmetry_group_IT_number 13
_symmetry_cell_setting 'monoclinic'
loop_
_space_group_symop_operation_xyz
x,y,z
-x,y,1/2-z
-x,-y,-z
x,-y,1/2+z
loop_
_atom_site_type_symbol
_atom_site_label
_atom_site_fract_x
_atom_site_fract_y
_atom_site_fract_z
Si Si1 0.422571 0.059716 0.435097
Si Si2 0.346820 0.514147 0.652654
Si Si3 0.304424 0.702998 0.063092
Si Si4 0.730608 0.252069 0.513370
Si Si5 0.849318 0.764655 0.653403
Si Si6 0.500000 0.510437 0.750000
Si Si7 0.000000 0.764212 0.750000
O O1 0.581794 0.225693 0.461943
O O2 0.223755 0.109743 0.389321
O O3 0.632397 0.912807 0.427298
O O4 0.268605 0.952484 0.467088
O O5 0.307261 0.391012 0.609424
O O6 0.586864 0.648852 0.652070
O O7 0.424688 0.416916 0.701413
O O8 0.083944 0.630086 0.650047
O O9 0.542420 0.647323 0.040322
O O10 0.026763 0.680150 0.027614
O O11 0.932493 0.860223 0.701976
O O12 0.249733 0.637087 0.750050
#
# Coordination Sequence:
#
# PCOD9228583 Si02
#       7
#     4   4   4   4   4   2   2
#     4   9  21  34  58  71 103 140 180 201 259 315
#     4  10  20  34  54  79 104 133 174 216 261 304
#     4  10  19  35  54  73 105 136 172 212 255 308
#     4   9  20  34  56  70 103 143 176 198 260 320
#     4  10  20  33  56  78 101 134 175 214 258 309
#     4   8  16  32  52  70 100 138 164 194 258 326
#     4   8  16  32  50  74 100 128 164 210 252 302
#
# _framework density 20.617975000000001
#
# number of rings (size 3 to 8) (size 9 to 14) (size 15 to 20)
#    1.000    1.667    0.000    1.500    2.333    0.000 
#    0.000    5.000    3.667    0.000    0.000    0.000 
#    0.000    0.000    0.000    0.000    0.000    0.000 
#
# Total GULP energy -133708.713602 kJ/mol
# GULP energy per Si atom -5571.196400 kJ/mol
# Density = 2.057105 g / cm^3
# Si number density = 20.617975 Si / 1000 Ang^3
#
#
#
# Elastic Constant Matrix: (Units=GPa)
#
#
# Indices 1 2 3 4 5 6 
#
# 1 140.2248 15.1303 6.4614 0.0000 13.1281 0.0000
# 2 15.1303 36.8424 38.3841 0.0000 2.2051 0.0000
# 3 6.4614 38.3841 166.1517 0.0000 16.8512 0.0000
# 4 0.0000 0.0000 0.0000 11.0683 0.0000 0.9058
# 5 13.1281 2.2051 16.8512 0.0000 27.4957 0.0000
# 6 0.0000 0.0000 0.0000 0.9058 0.0000 -3.9284
#
#
#
# Elastic Compliance Matrix: (Units=1/GPa)
#
#
# Indices 1 2 3 4 5 6 
#
# 1 0.007909 -0.004102 0.001055 0.000000 -0.004094 0.000000
# 2 -0.004102 0.038016 -0.009076 0.000000 0.004473 0.000000
# 3 0.001055 -0.009076 0.008585 0.000000 -0.005038 0.000000
# 4 0.000000 0.000000 0.000000 0.088674 0.000000 0.020447
# 5 -0.004094 0.004473 -0.005038 0.000000 0.041053 0.000000
# 6 0.000000 0.000000 0.000000 0.020447 0.000000 -0.249844
#
#
# Mechanical properties :
#
#
# Convention : Reuss Voigt Hill
#
# Bulk Modulus (GPa) = 33.04371 51.46339 42.25355
# Shear Modulus (GPa) = -159.88809 25.81001 -67.03904
#
# Velocity S-wave (km/s) = -8.81568 3.54195 -5.70837
# Velocity P-wave (km/s) = 9.35736 6.46079 4.78636
#
# Compressibility (1/GPa) = 0.03026295
#
# Stress axis : x y z
#
# Youngs Moduli (GPa) = 126.44289 26.30477 116.47826
#
# Poissons Ratio (x) = 0.10791 -0.12293
# Poissons Ratio (y) = 0.51872 1.05721
# Poissons Ratio (z) = -0.13345 0.23875
#
# Static dielectric constant tensor:
#      x y z
#    x 1.722480 0.000000 -0.015190 
#    y 0.000000 1.757760 0.000000 
#    z -0.015190 0.000000 1.801230 
# 
# From -- ./inp_files/94790.got.cif
#   From: 2010.05.17/outbox.cif.g08.bks.cpg/sg13_48_cif.got.tgz:94790.got - 2010.06.03 16:44:36.
