data_PCOD9228389
_publ_section_title
;
Structure prediction by ZEFSAII (Michael W. Deem and Ramdas Pophale) SiO2 
 PCOD9228389
Probable space group: P 2/C
;
_chemical_formula_sum "Si O2"
_cell_formula_units_Z 32
_cell_length_a 15.300888
_cell_length_b 7.607926
_cell_length_c 14.969049
_cell_angle_alpha 90.000000
_cell_angle_beta 121.273789
_cell_angle_gamma 90.000000
_cell_volume 1489.323364
_symmetry_space_group_name_H-M "P 2/C"
_symmetry_group_IT_number 13
_symmetry_cell_setting 'monoclinic'
loop_
_space_group_symop_operation_xyz
x,y,z
-x,y,1/2-z
-x,-y,-z
x,-y,1/2+z
loop_
_atom_site_type_symbol
_atom_site_label
_atom_site_fract_x
_atom_site_fract_y
_atom_site_fract_z
Si Si1 0.181394 0.177354 0.956907
Si Si2 0.200558 0.259426 0.776102
Si Si3 0.229601 0.974710 0.662041
Si Si4 0.087602 0.799471 0.739577
Si Si5 0.368614 0.417372 0.105454
Si Si6 0.285855 0.615413 0.907315
Si Si7 0.000386 0.549471 0.104020
Si Si8 0.599151 0.296544 0.201625
O O1 0.180252 0.035227 0.036554
O O2 0.287119 0.273865 0.033023
O O3 0.183933 0.131855 0.853408
O O4 0.098369 0.333498 0.925205
O O5 0.258198 0.428236 0.846265
O O6 0.093456 0.326899 0.682045
O O7 0.249954 0.159884 0.719531
O O8 0.144863 0.884409 0.683789
O O9 0.337581 0.870590 0.726998
O O10 0.181132 0.724657 0.849186
O O11 0.023171 0.631922 0.667469
O O12 0.000000 0.899958 0.750000
O O13 0.478529 0.329873 0.143696
O O14 0.359749 0.444785 0.206988
O O15 0.338739 0.583722 0.030042
O O16 0.366148 0.696086 0.881312
O O17 0.000000 0.500000 0.000000
#
# Coordination Sequence:
#
# PCOD9228389 Si02
#       8
#     4   4   4   4   4   4   4   4
#     4  10  20  38  58  77 115 149 185 225 285 332
#     4  10  22  37  55  80 114 150 184 229 279 334
#     4  10  21  38  55  80 110 150 189 226 271 338
#     4  10  19  34  53  80 109 140 184 232 269 329
#     4   9  17  31  57  83 104 145 183 231 284 326
#     4   9  18  34  53  76 112 143 178 234 287 327
#     4  11  20  36  57  81 106 144 182 221 282 330
#     4   9  18  33  57  82 106 139 194 231 272 336
#
# _framework density 21.486267000000002
#
# number of rings (size 3 to 8) (size 9 to 14) (size 15 to 20)
#    0.000    2.250    1.250    3.000    1.750    1.500 
#    2.250    3.750    0.000    6.000    0.000    0.000 
#    0.000    0.000    0.000    0.000    0.000    0.000 
#
# Total GULP energy -178257.331262 kJ/mol
# GULP energy per Si atom -5570.541602 kJ/mol
# Density = 2.143736 g / cm^3
# Si number density = 21.486267 Si / 1000 Ang^3
#
#
#
# Elastic Constant Matrix: (Units=GPa)
#
#
# Indices 1 2 3 4 5 6 
#
# 1 100.9625 14.6898 69.1586 0.0000 1.2253 0.0000
# 2 14.6898 43.9226 25.8972 0.0000 0.7003 0.0000
# 3 69.1586 25.8972 160.0196 0.0000 -13.8432 0.0000
# 4 0.0000 0.0000 0.0000 15.9153 0.0000 -10.9817
# 5 1.2253 0.7003 -13.8432 0.0000 34.3381 0.0000
# 6 0.0000 0.0000 0.0000 -10.9817 0.0000 11.8942
#
#
#
# Elastic Compliance Matrix: (Units=1/GPa)
#
#
# Indices 1 2 3 4 5 6 
#
# 1 0.014430 -0.001045 -0.006331 0.000000 -0.003046 0.000000
# 2 -0.001045 0.025411 -0.003836 0.000000 -0.002028 0.000000
# 3 -0.006331 -0.003836 0.009981 0.000000 0.004328 0.000000
# 4 0.000000 0.000000 0.000000 0.173124 0.000000 0.159841
# 5 -0.003046 -0.002028 0.004328 0.000000 0.031017 0.000000
# 6 0.000000 0.000000 0.000000 0.159841 0.000000 0.231652
#
#
# Mechanical properties :
#
#
# Convention : Reuss Voigt Hill
#
# Bulk Modulus (GPa) = 36.49933 58.26621 47.38277
# Shear Modulus (GPa) = 9.66796 25.44013 17.55404
#
# Velocity S-wave (km/s) = 2.12353 3.44469 2.86140
# Velocity P-wave (km/s) = 4.79965 6.55728 5.74607
#
# Compressibility (1/GPa) = 0.02739776
#
# Stress axis : x y z
#
# Youngs Moduli (GPa) = 69.29819 39.35303 100.19334
#
# Poissons Ratio (x) = 0.04112 0.63433
# Poissons Ratio (y) = 0.07240 0.38437
# Poissons Ratio (z) = 0.43873 0.15097
#
# Static dielectric constant tensor:
#      x y z
#    x 1.832780 0.000000 -0.052840 
#    y 0.000000 1.905140 0.000000 
#    z -0.052840 0.000000 1.799950 
# 
# From -- ./inp_files/53097.got.cif
#   From: 2010.05.17/outbox.cif.g08.bks.cpg/sg13_27_cif.got.tgz:53097.got - 2010.06.03 16:44:36.
