data_PCOD9228306
_publ_section_title
;
Structure prediction by ZEFSAII (Michael W. Deem and Ramdas Pophale) SiO2 
 PCOD9228306
Probable space group: P 2/C
;
_chemical_formula_sum "Si O2"
_cell_formula_units_Z 20
_cell_length_a 10.254931
_cell_length_b 10.474604
_cell_length_c 9.563186
_cell_angle_alpha 90.000000
_cell_angle_beta 112.994300
_cell_angle_gamma 90.000000
_cell_volume 945.621588
_symmetry_space_group_name_H-M "P 2/C"
_symmetry_group_IT_number 13
_symmetry_cell_setting 'monoclinic'
loop_
_space_group_symop_operation_xyz
x,y,z
-x,y,1/2-z
-x,-y,-z
x,-y,1/2+z
loop_
_atom_site_type_symbol
_atom_site_label
_atom_site_fract_x
_atom_site_fract_y
_atom_site_fract_z
Si Si1 0.554196 0.118144 0.930938
Si Si2 0.545198 0.331044 0.412029
Si Si3 0.722023 0.507951 0.631397
Si Si4 0.869636 0.772222 0.597810
Si Si5 0.060181 0.616664 0.117364
O O1 0.500000 0.103542 0.750000
O O2 0.475599 0.239184 0.966319
O O3 0.724449 0.145862 0.020706
O O4 0.500000 0.000000 0.000000
O O5 0.500000 0.260908 0.250000
O O6 0.690243 0.409074 0.491558
O O7 0.422570 0.435085 0.372665
O O8 0.817751 0.631662 0.634212
O O9 0.781330 0.423341 0.780829
O O10 0.938498 0.742015 0.475774
O O11 0.000000 0.818332 0.750000
O O12 0.000000 0.625744 0.250000
O O13 0.000000 0.500000 0.000000
#
# Coordination Sequence:
#
# PCOD9228306 Si02
#       5
#     4   4   4   4   4
#     4  11  25  47  69  90 124 171 230 287 335 389
#     4  10  21  34  61  92 125 172 214 265 323 389
#     4  10  19  33  56  92 140 168 206 247 320 401
#     4  11  22  40  64  99 133 170 216 271 330 399
#     4  12  20  32  55  90 139 175 203 242 319 397
#
# _framework density 21.150109
#
# number of rings (size 3 to 8) (size 9 to 14) (size 15 to 20)
#    0.000    1.200    4.000    3.000    0.000    5.600 
#    0.000    3.000    0.000    2.400    0.000    0.000 
#    0.000    0.000    0.000    0.000    0.000    0.000 
#
# Total GULP energy -111431.098635 kJ/mol
# GULP energy per Si atom -5571.554932 kJ/mol
# Density = 2.110197 g / cm^3
# Si number density = 21.150109 Si / 1000 Ang^3
#
#
#
# Elastic Constant Matrix: (Units=GPa)
#
#
# Indices 1 2 3 4 5 6 
#
# 1 85.3366 35.3453 58.4008 0.0000 4.0370 0.0000
# 2 35.3453 53.3258 57.9479 0.0000 13.1140 0.0000
# 3 58.4008 57.9479 193.6594 0.0000 0.7021 0.0000
# 4 0.0000 0.0000 0.0000 24.1889 0.0000 -6.1109
# 5 4.0370 13.1140 0.7021 0.0000 40.0964 0.0000
# 6 0.0000 0.0000 0.0000 -6.1109 0.0000 29.8649
#
#
#
# Elastic Compliance Matrix: (Units=1/GPa)
#
#
# Indices 1 2 3 4 5 6 
#
# 1 0.017047 -0.008910 -0.002479 0.000000 0.001241 0.000000
# 2 -0.008910 0.036071 -0.008067 0.000000 -0.010759 0.000000
# 3 -0.002479 -0.008067 0.008315 0.000000 0.002743 0.000000
# 4 0.000000 0.000000 0.000000 0.043595 0.000000 0.008920
# 5 0.001241 -0.010759 0.002743 0.000000 0.028286 0.000000
# 6 0.000000 0.000000 0.000000 0.008920 0.000000 0.035309
#
#
# Mechanical properties :
#
#
# Convention : Reuss Voigt Hill
#
# Bulk Modulus (GPa) = 44.40535 70.63440 57.51988
# Shear Modulus (GPa) = 23.25122 30.87191 27.06156
#
# Velocity S-wave (km/s) = 3.31923 3.82469 3.58089
# Velocity P-wave (km/s) = 5.97751 7.27829 6.65974
#
# Compressibility (1/GPa) = 0.02251981
#
# Stress axis : x y z
#
# Youngs Moduli (GPa) = 58.66288 27.72310 120.26025
#
# Poissons Ratio (x) = 0.24702 0.29812
# Poissons Ratio (y) = 0.52270 0.97018
# Poissons Ratio (z) = 0.14542 0.22365
#
# Static dielectric constant tensor:
#      x y z
#    x 1.875510 0.000000 0.003590 
#    y 0.000000 1.757190 0.000000 
#    z 0.003590 0.000000 1.930370 
# 
# From -- ./inp_files/11701.got.cif
#   From: 2010.05.17/outbox.cif.g08.bks.cpg/sg13_6_cif.got.tgz:11701.got - 2010.06.03 16:44:36.
