data_PCOD9228682
_publ_section_title
;
Structure prediction by ZEFSAII (Michael W. Deem and Ramdas Pophale) SiO2 
 PCOD9228682
Probable space group: P 2/C
;
_chemical_formula_sum "Si O2"
_cell_formula_units_Z 28
_cell_length_a 8.274682
_cell_length_b 16.796573
_cell_length_c 19.984583
_cell_angle_alpha 90.000000
_cell_angle_beta 149.814409
_cell_angle_gamma 90.000000
_cell_volume 1396.576023
_symmetry_space_group_name_H-M "P 2/C"
_symmetry_group_IT_number 13
_symmetry_cell_setting 'monoclinic'
loop_
_space_group_symop_operation_xyz
x,y,z
-x,y,1/2-z
-x,-y,-z
x,-y,1/2+z
loop_
_atom_site_type_symbol
_atom_site_label
_atom_site_fract_x
_atom_site_fract_y
_atom_site_fract_z
Si Si1 0.569638 0.676609 0.697493
Si Si2 0.186565 0.594026 0.445056
Si Si3 0.620671 0.000389 0.618717
Si Si4 0.900820 0.751788 0.291617
Si Si5 0.313048 0.838128 0.552529
Si Si6 0.360140 0.869935 0.127716
Si Si7 0.869375 0.432665 0.131084
O O1 0.500000 0.669704 0.750000
O O2 0.328328 0.622656 0.566485
O O3 0.520055 0.766044 0.655181
O O4 0.924389 0.644529 0.810738
O O5 0.069099 0.503375 0.399319
O O6 0.497800 0.590279 0.506972
O O7 0.944555 0.661273 0.332410
O O8 0.453554 0.067671 0.604165
O O9 0.000000 0.013948 0.750000
O O10 0.500000 0.000000 0.500000
O O11 0.523799 0.915472 0.614929
O O12 0.548774 0.788169 0.178534
O O13 0.000000 0.757714 0.250000
O O14 0.141001 0.805445 0.423199
O O15 0.017313 0.857351 0.496565
O O16 0.500000 0.897770 0.250000
O O17 0.000000 0.462769 0.250000
#
# Coordination Sequence:
#
# PCOD9228682 Si02
#       7
#     4   4   4   4   4   4   4
#     4  10  22  37  53  82 117 151 193 239 289 356
#     4   9  19  35  58  83 109 151 195 238 298 350
#     4  12  25  42  66  95 122 155 206 256 300 358
#     4  10  19  35  59  86 114 149 199 249 289 344
#     4  10  23  39  58  85 120 158 191 236 305 363
#     4  10  21  40  60  84 121 158 196 241 297 364
#     4   9  18  36  58  82 113 146 190 243 294 352
#
# _framework density 20.049033999999999
#
# number of rings (size 3 to 8) (size 9 to 14) (size 15 to 20)
#    0.000    2.000    0.000    3.857    0.000    6.286 
#    0.000    3.571    0.000    0.000    0.000    0.000 
#    0.000    0.000    0.000    0.000    0.000    0.000 
#
# Total GULP energy -156434.260351 kJ/mol
# GULP energy per Si atom -5586.937870 kJ/mol
# Density = 2.000340 g / cm^3
# Si number density = 20.049034 Si / 1000 Ang^3
#
#
#
# Elastic Constant Matrix: (Units=GPa)
#
#
# Indices 1 2 3 4 5 6 
#
# 1 95.9752 53.4875 39.2602 0.0000 -13.7877 0.0000
# 2 53.4875 138.9445 44.2837 0.0000 2.7542 0.0000
# 3 39.2602 44.2837 47.2510 0.0000 1.4229 0.0000
# 4 0.0000 0.0000 0.0000 16.2075 0.0000 -5.4137
# 5 -13.7877 2.7542 1.4229 0.0000 22.4212 0.0000
# 6 0.0000 0.0000 0.0000 -5.4137 0.0000 -12.2844
#
#
#
# Elastic Compliance Matrix: (Units=1/GPa)
#
#
# Indices 1 2 3 4 5 6 
#
# 1 0.019943 -0.003614 -0.013592 0.000000 0.013570 0.000000
# 2 -0.003614 0.010927 -0.007144 0.000000 -0.003111 0.000000
# 3 -0.013592 -0.007144 0.039453 0.000000 -0.009984 0.000000
# 4 0.000000 0.000000 0.000000 0.053783 0.000000 -0.023702
# 5 0.013570 -0.003111 -0.009984 0.000000 0.053961 0.000000
# 6 0.000000 0.000000 0.000000 -0.023702 0.000000 -0.070959
#
#
# Mechanical properties :
#
#
# Convention : Reuss Voigt Hill
#
# Bulk Modulus (GPa) = 46.24757 61.80371 54.02564
# Shear Modulus (GPa) = 30.67180 14.94480 22.80830
#
# Velocity S-wave (km/s) = 3.91556 2.73319 3.37653
# Velocity P-wave (km/s) = 6.59996 6.39168 6.49666
#
# Compressibility (1/GPa) = 0.02162276
#
# Stress axis : x y z
#
# Youngs Moduli (GPa) = 50.14290 91.51580 25.34674
#
# Poissons Ratio (x) = 0.33077 0.34450
# Poissons Ratio (y) = 0.18123 0.18108
# Poissons Ratio (z) = 0.68153 0.65380
#
# Static dielectric constant tensor:
#      x y z
#    x 1.688730 0.000000 -0.004900 
#    y 0.000000 1.703230 0.000000 
#    z -0.004900 0.000000 1.709360 
# 
# From -- ./inp_files/76743.got.cif
#   From: 2010.05.17/outbox.cif.g08.bks.cpg/sg13_39_cif.got.tgz:76743.got - 2010.06.03 16:44:36.
