data_PCOD9228187
_publ_section_title
;
Structure prediction by ZEFSAII (Michael W. Deem and Ramdas Pophale) SiO2 
 PCOD9228187
Probable space group: P 2/C
;
_chemical_formula_sum "Si O2"
_cell_formula_units_Z 24
_cell_length_a 6.973034
_cell_length_b 28.669965
_cell_length_c 5.351633
_cell_angle_alpha 90.000000
_cell_angle_beta 77.393815
_cell_angle_gamma 90.000000
_cell_volume 1044.089105
_symmetry_space_group_name_H-M "P 2/C"
_symmetry_group_IT_number 13
_symmetry_cell_setting 'monoclinic'
loop_
_space_group_symop_operation_xyz
x,y,z
-x,y,1/2-z
-x,-y,-z
x,-y,1/2+z
loop_
_atom_site_type_symbol
_atom_site_label
_atom_site_fract_x
_atom_site_fract_y
_atom_site_fract_z
Si Si1 0.260350 0.974102 0.326369
Si Si2 0.133197 0.617270 0.962338
Si Si3 0.258922 0.132360 0.828268
Si Si4 0.721203 0.481164 0.972493
Si Si5 0.728649 0.179572 0.174788
Si Si6 0.131450 0.280556 0.462201
O O1 0.500000 0.974362 0.250000
O O2 0.200921 0.920901 0.393497
O O3 0.199724 0.007214 0.572058
O O4 0.269989 0.572283 0.946095
O O5 0.232530 0.668481 0.935489
O O6 0.000000 0.616526 0.250000
O O7 0.000000 0.613165 0.750000
O O8 0.500000 0.133413 0.750000
O O9 0.190066 0.149316 0.576647
O O10 0.196150 0.166583 0.071012
O O11 0.810310 0.488342 0.672011
O O12 0.500000 0.500000 0.000000
O O13 0.500000 0.167316 0.250000
O O14 0.744900 0.233696 0.097747
O O15 0.000000 0.277189 0.750000
O O16 0.000000 0.281063 0.250000
#
# Coordination Sequence:
#
# PCOD9228187 Si02
#       6
#     4   4   4   4   4   4
#     4   9  15  23  37  61  96 138 176 209 263 323
#     4  10  21  37  59  83 109 146 185 223 273 325
#     4   9  17  28  45  69 106 140 174 223 269 325
#     4  10  21  37  56  82 116 144 179 223 272 315
#     4  10  19  33  52  77 105 140 178 216 278 329
#     4  10  21  38  58  80 110 141 180 230 272 318
#
# _framework density 22.986545
#
# number of rings (size 3 to 8) (size 9 to 14) (size 15 to 20)
#    0.000    2.333    0.000    3.000    0.000    6.000 
#    3.000    0.000    7.333    0.000    0.000    0.000 
#    0.000   46.667    0.000    0.000    0.000    0.000 
#
# Total GULP energy -134134.852273 kJ/mol
# GULP energy per Si atom -5588.952178 kJ/mol
# Density = 2.293423 g / cm^3
# Si number density = 22.986545 Si / 1000 Ang^3
#
#
#
# Elastic Constant Matrix: (Units=GPa)
#
#
# Indices 1 2 3 4 5 6 
#
# 1 51.3031 2.1197 25.4408 0.0000 -0.4829 0.0000
# 2 2.1197 160.6756 55.1122 0.0000 -6.3340 0.0000
# 3 25.4408 55.1122 188.7276 0.0000 14.4217 0.0000
# 4 0.0000 0.0000 0.0000 43.5769 0.0000 0.1847
# 5 -0.4829 -6.3340 14.4217 0.0000 33.1566 0.0000
# 6 0.0000 0.0000 0.0000 0.1847 0.0000 24.3901
#
#
#
# Elastic Compliance Matrix: (Units=1/GPa)
#
#
# Indices 1 2 3 4 5 6 
#
# 1 0.021086 0.000913 -0.003254 0.000000 0.001897 0.000000
# 2 0.000913 0.007126 -0.002388 0.000000 0.002413 0.000000
# 3 -0.003254 -0.002388 0.006696 0.000000 -0.003416 0.000000
# 4 0.000000 0.000000 0.000000 0.022949 0.000000 -0.000174
# 5 0.001897 0.002413 -0.003416 0.000000 0.032134 0.000000
# 6 0.000000 0.000000 0.000000 -0.000174 0.000000 0.041002
#
#
# Mechanical properties :
#
#
# Convention : Reuss Voigt Hill
#
# Bulk Modulus (GPa) = 39.29526 62.89463 51.09494
# Shear Modulus (GPa) = 33.57189 41.42695 37.49942
#
# Velocity S-wave (km/s) = 3.82580 4.24987 4.04340
# Velocity P-wave (km/s) = 6.05373 7.17654 6.63892
#
# Compressibility (1/GPa) = 0.02544836
#
# Stress axis : x y z
#
# Youngs Moduli (GPa) = 47.42552 140.33016 149.34809
#
# Poissons Ratio (x) = -0.12808 0.48596
# Poissons Ratio (y) = -0.04328 0.35670
# Poissons Ratio (z) = 0.15432 0.33517
#
# Static dielectric constant tensor:
#      x y z
#    x 1.821780 0.000000 0.031060 
#    y 0.000000 1.829660 0.000000 
#    z 0.031060 0.000000 1.824560 
# 
# From -- ./inp_files/2427.got.cif
#   From: 2010.05.17/outbox.cif.g08.bks.cpg/sg13_2_cif.got.tgz:2427.got - 2010.06.03 16:44:36.
