data_PCOD9228363
_publ_section_title
;
Structure prediction by ZEFSAII (Michael W. Deem and Ramdas Pophale) SiO2 
 PCOD9228363
Probable space group: P 2/C
;
_chemical_formula_sum "Si O2"
_cell_formula_units_Z 28
_cell_length_a 14.848077
_cell_length_b 18.114769
_cell_length_c 5.686938
_cell_angle_alpha 90.000000
_cell_angle_beta 63.140048
_cell_angle_gamma 90.000000
_cell_volume 1364.588291
_symmetry_space_group_name_H-M "P 2/C"
_symmetry_group_IT_number 13
_symmetry_cell_setting 'monoclinic'
loop_
_space_group_symop_operation_xyz
x,y,z
-x,y,1/2-z
-x,-y,-z
x,-y,1/2+z
loop_
_atom_site_type_symbol
_atom_site_label
_atom_site_fract_x
_atom_site_fract_y
_atom_site_fract_z
Si Si1 0.091508 0.654457 0.986906
Si Si2 0.249315 0.269627 0.637129
Si Si3 0.771045 0.542733 0.881434
Si Si4 0.383134 0.973328 0.421184
Si Si5 0.618555 0.669228 0.141587
Si Si6 0.693762 0.822491 0.823116
Si Si7 0.897941 0.200379 0.302125
O O1 0.186450 0.678384 0.035883
O O2 0.000000 0.625336 0.250000
O O3 0.132069 0.596731 0.750459
O O4 0.061808 0.731415 0.902088
O O5 0.337335 0.317474 0.650008
O O6 0.299762 0.197918 0.457594
O O7 0.165776 0.237938 0.913622
O O8 0.772681 0.496803 0.634377
O O9 0.673930 0.596206 0.986796
O O10 0.500000 0.996575 0.250000
O O11 0.374992 0.887848 0.504437
O O12 0.339316 0.013090 0.709187
O O13 0.500000 0.664261 0.250000
O O14 0.657808 0.744312 0.971726
O O15 0.809097 0.839747 0.764296
O O16 0.000000 0.158183 0.250000
#
# Coordination Sequence:
#
# PCOD9228363 Si02
#       7
#     4   4   4   4   4   4   4
#     4  11  21  38  64  90 122 166 211 270 340 397
#     4  10  19  38  62  93 127 158 210 281 314 381
#     4  12  27  45  63  89 131 169 220 277 337 404
#     4  10  23  43  67  99 140 179 213 258 323 389
#     4  11  24  42  64  91 123 170 225 272 328 384
#     4  10  22  38  66  99 128 168 217 271 317 379
#     4  10  19  33  64  95 124 163 214 269 328 383
#
# _framework density 20.519007999999999
#
# number of rings (size 3 to 8) (size 9 to 14) (size 15 to 20)
#    0.000    1.429    5.714    1.286    4.000    1.714 
#    2.571    0.000    0.000    0.857    0.000    0.000 
#    0.000    0.000    0.000    0.000    0.000    0.000 
#
# Total GULP energy -156051.183430 kJ/mol
# GULP energy per Si atom -5573.256551 kJ/mol
# Density = 2.047231 g / cm^3
# Si number density = 20.519008 Si / 1000 Ang^3
#
#
#
# Elastic Constant Matrix: (Units=GPa)
#
#
# Indices 1 2 3 4 5 6 
#
# 1 63.0182 -12.7638 23.5632 0.0000 -2.3791 0.0000
# 2 -12.7638 44.6663 23.3150 0.0000 10.0205 0.0000
# 3 23.5632 23.3150 92.3716 0.0000 14.2790 0.0000
# 4 0.0000 0.0000 0.0000 39.9389 0.0000 -0.9732
# 5 -2.3791 10.0205 14.2790 0.0000 30.6711 0.0000
# 6 0.0000 0.0000 0.0000 -0.9732 0.0000 5.2877
#
#
#
# Elastic Compliance Matrix: (Units=1/GPa)
#
#
# Indices 1 2 3 4 5 6 
#
# 1 0.020979 0.009751 -0.008159 0.000000 0.002240 0.000000
# 2 0.009751 0.031317 -0.009620 0.000000 -0.004997 0.000000
# 3 -0.008159 -0.009620 0.016106 0.000000 -0.004988 0.000000
# 4 0.000000 0.000000 0.000000 0.025151 0.000000 0.004629
# 5 0.002240 -0.004997 -0.004988 0.000000 0.036733 0.000000
# 6 0.000000 0.000000 0.000000 0.004629 0.000000 0.189972
#
#
# Mechanical properties :
#
#
# Convention : Reuss Voigt Hill
#
# Bulk Modulus (GPa) = 19.10319 29.80945 24.45632
# Shear Modulus (GPa) = 14.13383 26.24231 20.18807
#
# Velocity S-wave (km/s) = 2.62738 3.58009 3.14008
# Velocity P-wave (km/s) = 4.30516 5.62571 5.00914
#
# Compressibility (1/GPa) = 0.05234729
#
# Stress axis : x y z
#
# Youngs Moduli (GPa) = 47.66723 31.93154 62.08757
#
# Poissons Ratio (x) = -0.31137 0.50657
# Poissons Ratio (y) = -0.46481 0.59726
# Poissons Ratio (z) = 0.38892 0.30717
#
# Static dielectric constant tensor:
#      x y z
#    x 1.788330 0.000000 0.088030 
#    y 0.000000 1.731410 0.000000 
#    z 0.088030 0.000000 1.827450 
# 
# From -- ./inp_files/5317.got.cif
#   From: 2010.05.17/outbox.cif.g08.bks.cpg/sg13_3_cif.got.tgz:5317.got - 2010.06.03 16:44:36.
