data_PCOD9228761
_publ_section_title
;
Structure prediction by ZEFSAII (Michael W. Deem and Ramdas Pophale) SiO2 
 PCOD9228761
Probable space group: P 2/C
;
_chemical_formula_sum "Si O2"
_cell_formula_units_Z 24
_cell_length_a 11.845925
_cell_length_b 7.296583
_cell_length_c 19.714381
_cell_angle_alpha 90.000000
_cell_angle_beta 142.976481
_cell_angle_gamma 90.000000
_cell_volume 1026.056199
_symmetry_space_group_name_H-M "P 2/C"
_symmetry_group_IT_number 13
_symmetry_cell_setting 'monoclinic'
loop_
_space_group_symop_operation_xyz
x,y,z
-x,y,1/2-z
-x,-y,-z
x,-y,1/2+z
loop_
_atom_site_type_symbol
_atom_site_label
_atom_site_fract_x
_atom_site_fract_y
_atom_site_fract_z
Si Si1 0.458080 0.965017 0.301570
Si Si2 0.704777 0.658582 0.036672
Si Si3 0.327690 0.352378 0.124734
Si Si4 0.247912 0.920723 0.959263
Si Si5 0.257712 0.356061 0.343805
Si Si6 0.899098 0.798736 0.865921
O O1 0.500000 0.868631 0.250000
O O2 0.577011 0.156562 0.351306
O O3 0.244517 0.027973 0.205622
O O4 0.545127 0.879515 0.410821
O O5 0.782826 0.541745 0.135812
O O6 0.773148 0.866583 0.069232
O O7 0.737466 0.567059 0.978091
O O8 0.479547 0.656776 0.936363
O O9 0.500000 0.440916 0.250000
O O10 0.156595 0.306383 0.092365
O O11 0.212835 0.803944 0.875621
O O12 0.106055 0.869242 0.951691
O O13 0.156012 0.327453 0.224244
#
# Coordination Sequence:
#
# PCOD9228761 Si02
#       6
#     4   4   4   4   4   4
#     4   8  17  33  57  89 120 153 208 246 295 364
#     4  10  21  37  64  85 119 166 204 250 315 365
#     4   8  14  33  58  87 117 157 205 248 305 361
#     4  11  21  37  63  88 122 164 200 251 311 367
#     4  11  21  38  59  90 124 160 203 260 302 369
#     4  10  19  35  62  90 124 163 201 256 306 361
#
# _framework density 23.390530999999999
#
# number of rings (size 3 to 8) (size 9 to 14) (size 15 to 20)
#    0.000    2.667    5.000    1.000    0.000    6.000 
#    0.000    5.000    0.000    0.000    0.000    0.000 
#    0.000    0.000    0.000    0.000    0.000    0.000 
#
# Total GULP energy -134083.431658 kJ/mol
# GULP energy per Si atom -5586.809652 kJ/mol
# Density = 2.333729 g / cm^3
# Si number density = 23.390531 Si / 1000 Ang^3
#
#
#
# Elastic Constant Matrix: (Units=GPa)
#
#
# Indices 1 2 3 4 5 6 
#
# 1 141.4853 26.6188 19.1961 0.0000 -4.9561 0.0000
# 2 26.6188 71.8369 2.7295 0.0000 0.5564 0.0000
# 3 19.1961 2.7295 31.7458 0.0000 9.1245 0.0000
# 4 0.0000 0.0000 0.0000 447.8652 0.0000 514.4781
# 5 -4.9561 0.5564 9.1245 0.0000 26.9734 0.0000
# 6 0.0000 0.0000 0.0000 514.4781 0.0000 595.5289
#
#
#
# Elastic Compliance Matrix: (Units=1/GPa)
#
#
# Indices 1 2 3 4 5 6 
#
# 1 0.008566 -0.002976 -0.005975 0.000000 0.003657 0.000000
# 2 -0.002976 0.015000 0.000837 0.000000 -0.001139 0.000000
# 3 -0.005975 0.000837 0.039170 0.000000 -0.014366 0.000000
# 4 0.000000 0.000000 0.000000 0.293522 0.000000 -0.253574
# 5 0.003657 -0.001139 -0.014366 0.000000 0.042628 0.000000
# 6 0.000000 0.000000 0.000000 -0.253574 0.000000 0.220742
#
#
# Mechanical properties :
#
#
# Convention : Reuss Voigt Hill
#
# Bulk Modulus (GPa) = 21.50101 38.01743 29.75922
# Shear Modulus (GPa) = 7.67624 227.17508 117.42566
#
# Velocity S-wave (km/s) = 1.81353 9.86577 7.09304
# Velocity P-wave (km/s) = 3.68746 12.08580 8.93487
#
# Compressibility (1/GPa) = 0.04650945
#
# Stress axis : x y z
#
# Youngs Moduli (GPa) = 116.73443 66.66664 25.52950
#
# Poissons Ratio (x) = 0.19837 0.15254
# Poissons Ratio (y) = 0.34735 -0.02137
# Poissons Ratio (z) = 0.69750 -0.05580
#
# Static dielectric constant tensor:
#      x y z
#    x 1.898440 0.000000 -0.012800 
#    y 0.000000 1.912290 0.000000 
#    z -0.012800 0.000000 1.901990 
# 
# From -- ./inp_files/78150.got.cif
#   From: 2010.05.17/outbox.cif.g08.bks.cpg/sg13_40_cif.got.tgz:78150.got - 2010.06.03 16:44:36.
