data_PCOD9228763
_publ_section_title
;
Structure prediction by ZEFSAII (Michael W. Deem and Ramdas Pophale) SiO2 
 PCOD9228763
Probable space group: P 2/C
;
_chemical_formula_sum "Si O2"
_cell_formula_units_Z 28
_cell_length_a 17.022294
_cell_length_b 14.787279
_cell_length_c 10.136836
_cell_angle_alpha 90.000000
_cell_angle_beta 33.969163
_cell_angle_gamma 90.000000
_cell_volume 1425.685360
_symmetry_space_group_name_H-M "P 2/C"
_symmetry_group_IT_number 13
_symmetry_cell_setting 'monoclinic'
loop_
_space_group_symop_operation_xyz
x,y,z
-x,y,1/2-z
-x,-y,-z
x,-y,1/2+z
loop_
_atom_site_type_symbol
_atom_site_label
_atom_site_fract_x
_atom_site_fract_y
_atom_site_fract_z
Si Si1 0.500000 0.739165 0.750000
Si Si2 0.500000 0.296062 0.750000
Si Si3 0.722691 0.587902 0.365477
Si Si4 0.099174 0.028461 0.240688
Si Si5 0.032717 0.696257 0.353969
Si Si6 0.751464 0.150058 0.024865
Si Si7 0.375801 0.543006 0.260728
Si Si8 0.220687 0.196835 0.211802
O O1 0.608031 0.670402 0.526121
O O2 0.396845 0.803144 0.806951
O O3 0.566604 0.362343 0.766135
O O4 0.625721 0.234892 0.524714
O O5 0.869814 0.624957 0.211089
O O6 0.739270 0.552985 0.193494
O O7 0.667422 0.516480 0.552352
O O8 0.169523 0.123977 0.177313
O O9 0.000000 0.031225 0.250000
O O10 0.000000 0.000000 0.500000
O O11 0.219516 0.952018 0.059344
O O12 0.000000 0.667859 0.250000
O O13 0.890322 0.721183 0.626407
O O14 0.126605 0.787691 0.209882
O O15 0.778806 0.154193 0.142838
O O16 0.500000 0.500000 0.000000
#
# Coordination Sequence:
#
# PCOD9228763 Si02
#       8
#     2   2   4   4   4   4   4   4
#     4  10  19  35  62  96 124 164 226 261 317 390
#     4  12  27  43  68  94 140 170 220 279 333 398
#     4  11  22  38  68  94 126 176 223 263 334 403
#     4  12  22  43  69  97 133 179 220 264 331 392
#     4   9  20  38  66  94 126 170 224 272 326 385
#     4  10  20  39  67  96 130 176 217 271 322 389
#     4  12  22  42  65  93 130 176 214 270 335 399
#     4  11  24  44  66  97 133 174 220 276 334 384
#
# _framework density 19.639679000000001
#
# number of rings (size 3 to 8) (size 9 to 14) (size 15 to 20)
#    0.000    1.143    5.714    1.286    4.000    1.714 
#    2.571    4.286    0.000    0.000    0.000    0.000 
#    0.000    0.000    0.000    0.000    0.000    0.000 
#
# Total GULP energy -156353.261493 kJ/mol
# GULP energy per Si atom -5584.045053 kJ/mol
# Density = 1.959498 g / cm^3
# Si number density = 19.639679 Si / 1000 Ang^3
#
#
#
# Elastic Constant Matrix: (Units=GPa)
#
#
# Indices 1 2 3 4 5 6 
#
# 1 131.6362 46.9264 27.9086 0.0000 -0.3498 0.0000
# 2 46.9264 77.3301 35.3976 0.0000 1.0046 0.0000
# 3 27.9086 35.3976 88.1339 0.0000 -11.4646 0.0000
# 4 0.0000 0.0000 0.0000 8.6924 0.0000 -4.0652
# 5 -0.3498 1.0046 -11.4646 0.0000 34.1587 0.0000
# 6 0.0000 0.0000 0.0000 -4.0652 0.0000 37.6832
#
#
#
# Elastic Compliance Matrix: (Units=1/GPa)
#
#
# Indices 1 2 3 4 5 6 
#
# 1 0.009748 -0.005514 -0.000876 0.000000 -0.000032 0.000000
# 2 -0.005514 0.019209 -0.006326 0.000000 -0.002745 0.000000
# 3 -0.000876 -0.006326 0.014835 0.000000 0.005156 0.000000
# 4 0.000000 0.000000 0.000000 0.121156 0.000000 0.013070
# 5 -0.000032 -0.002745 0.005156 0.000000 0.031086 0.000000
# 6 0.000000 0.000000 0.000000 0.013070 0.000000 0.027947
#
#
# Mechanical properties :
#
#
# Convention : Reuss Voigt Hill
#
# Bulk Modulus (GPa) = 54.46682 57.50728 55.98705
# Shear Modulus (GPa) = 19.56689 28.56468 24.06579
#
# Velocity S-wave (km/s) = 3.15984 3.81785 3.50432
# Velocity P-wave (km/s) = 6.41140 6.98422 6.70393
#
# Compressibility (1/GPa) = 0.01835980
#
# Stress axis : x y z
#
# Youngs Moduli (GPa) = 102.58492 52.05922 67.40647
#
# Poissons Ratio (x) = 0.28704 0.05908
# Poissons Ratio (y) = 0.56563 0.42641
# Poissons Ratio (z) = 0.08991 0.32933
#
# Static dielectric constant tensor:
#      x y z
#    x 1.700760 0.000000 -0.011810 
#    y 0.000000 1.727730 0.000000 
#    z -0.011810 0.000000 1.650340 
# 
# From -- ./inp_files/19869.got.cif
#   From: 2010.05.17/outbox.cif.g08.bks.cpg/sg13_10_cif.got.tgz:19869.got - 2010.06.03 16:44:36.
