data_PCOD9228881
_publ_section_title
;
Structure prediction by ZEFSAII (Michael W. Deem and Ramdas Pophale) SiO2 
 PCOD9228881
Probable space group: P 2/C
;
_chemical_formula_sum "Si O2"
_cell_formula_units_Z 26
_cell_length_a 12.269472
_cell_length_b 19.695157
_cell_length_c 9.964151
_cell_angle_alpha 90.000000
_cell_angle_beta 36.208569
_cell_angle_gamma 90.000000
_cell_volume 1422.367968
_symmetry_space_group_name_H-M "P 2/C"
_symmetry_group_IT_number 13
_symmetry_cell_setting 'monoclinic'
loop_
_space_group_symop_operation_xyz
x,y,z
-x,y,1/2-z
-x,-y,-z
x,-y,1/2+z
loop_
_atom_site_type_symbol
_atom_site_label
_atom_site_fract_x
_atom_site_fract_y
_atom_site_fract_z
Si Si1 0.805835 0.028231 0.138768
Si Si2 0.522247 0.907932 0.374153
Si Si3 0.108128 0.539307 0.275006
Si Si4 0.422775 0.646730 0.976091
Si Si5 0.642209 0.805276 0.486163
Si Si6 0.419210 0.558356 0.474911
Si Si7 0.000000 0.133056 0.750000
O O1 0.672953 0.061345 0.382593
O O2 0.675188 0.968070 0.212587
O O3 0.869075 0.084314 0.968855
O O4 0.000000 0.000000 0.000000
O O5 0.500000 0.876787 0.250000
O O6 0.587691 0.854509 0.419311
O O7 0.238538 0.602290 0.187731
O O8 0.000000 0.561836 0.250000
O O9 0.000000 0.500000 0.500000
O O10 0.237810 0.477889 0.102600
O O11 0.382048 0.726116 0.022981
O O12 0.573867 0.622877 0.934812
O O13 0.500000 0.630005 0.750000
O O14 0.853245 0.821716 0.315295
O O15 0.500000 0.819575 0.750000
O O16 0.500000 0.576984 0.250000
O O17 0.500000 0.500000 0.500000
#
# Coordination Sequence:
#
# PCOD9228881 Si02
#       7
#     4   4   4   4   4   4   2
#     4  11  22  38  63  92 123 163 208 269 323 375
#     4  11  24  39  61  93 129 163 211 263 324 384
#     4  11  20  33  57  91 120 143 196 259 299 345
#     4  10  22  40  61  84 120 170 208 242 310 377
#     4  11  24  43  63  90 128 173 214 258 315 392
#     4  10  19  36  59  83 116 157 198 241 300 367
#     4  12  22  40  66  94 126 162 222 264 318 380
#
# _framework density 18.279378000000001
#
# number of rings (size 3 to 8) (size 9 to 14) (size 15 to 20)
#    0.000    1.231    3.077    5.538    3.231    0.615 
#    0.000    0.000    0.000    1.846    0.000    0.000 
#    0.000    0.000    0.000    0.000    0.000    0.000 
#
# Total GULP energy -144788.724354 kJ/mol
# GULP energy per Si atom -5568.797091 kJ/mol
# Density = 1.823777 g / cm^3
# Si number density = 18.279378 Si / 1000 Ang^3
#
#
#
# Elastic Constant Matrix: (Units=GPa)
#
#
# Indices 1 2 3 4 5 6 
#
# 1 77.8294 31.8594 17.2131 0.0000 3.3161 0.0000
# 2 31.8594 95.9210 33.7328 0.0000 3.9333 0.0000
# 3 17.2131 33.7328 55.8214 0.0000 2.1344 0.0000
# 4 0.0000 0.0000 0.0000 29.8378 0.0000 1.2380
# 5 3.3161 3.9333 2.1344 0.0000 37.4618 0.0000
# 6 0.0000 0.0000 0.0000 1.2380 0.0000 13.6712
#
#
#
# Elastic Compliance Matrix: (Units=1/GPa)
#
#
# Indices 1 2 3 4 5 6 
#
# 1 0.015076 -0.004256 -0.002048 0.000000 -0.000771 0.000000
# 2 -0.004256 0.014473 -0.007406 0.000000 -0.000721 0.000000
# 3 -0.002048 -0.007406 0.023035 0.000000 -0.000354 0.000000
# 4 0.000000 0.000000 0.000000 0.033641 0.000000 -0.003046
# 5 -0.000771 -0.000721 -0.000354 0.000000 0.026858 0.000000
# 6 0.000000 0.000000 0.000000 -0.003046 0.000000 0.073422
#
#
# Mechanical properties :
#
#
# Convention : Reuss Voigt Hill
#
# Bulk Modulus (GPa) = 39.73794 43.90918 41.82356
# Shear Modulus (GPa) = 22.49084 25.97859 24.23471
#
# Velocity S-wave (km/s) = 3.51150 3.77397 3.64510
# Velocity P-wave (km/s) = 6.18282 6.56230 6.37538
#
# Compressibility (1/GPa) = 0.02516487
#
# Stress axis : x y z
#
# Youngs Moduli (GPa) = 66.32857 69.09499 43.41276
#
# Poissons Ratio (x) = 0.29405 0.08890
# Poissons Ratio (y) = 0.28228 0.32152
# Poissons Ratio (z) = 0.13582 0.51172
#
# Static dielectric constant tensor:
#      x y z
#    x 1.671850 0.000000 -0.039540 
#    y 0.000000 1.627230 0.000000 
#    z -0.039540 0.000000 1.626480 
# 
# From -- ./inp_files/17259.got.cif
#   From: 2010.05.17/outbox.cif.g08.bks.cpg/sg13_9_cif.got.tgz:17259.got - 2010.06.03 16:44:36.
