data_PCOD9228600
_publ_section_title
;
Structure prediction by ZEFSAII (Michael W. Deem and Ramdas Pophale) SiO2 
 PCOD9228600
Probable space group: P 2/C
;
_chemical_formula_sum "Si O2"
_cell_formula_units_Z 22
_cell_length_a 16.428620
_cell_length_b 13.973829
_cell_length_c 7.826311
_cell_angle_alpha 90.000000
_cell_angle_beta 34.132522
_cell_angle_gamma 90.000000
_cell_volume 1008.139861
_symmetry_space_group_name_H-M "P 2/C"
_symmetry_group_IT_number 13
_symmetry_cell_setting 'monoclinic'
loop_
_space_group_symop_operation_xyz
x,y,z
-x,y,1/2-z
-x,-y,-z
x,-y,1/2+z
loop_
_atom_site_type_symbol
_atom_site_label
_atom_site_fract_x
_atom_site_fract_y
_atom_site_fract_z
Si Si1 0.824069 0.900105 0.239126
Si Si2 0.485372 0.734853 0.093065
Si Si3 0.220238 0.388156 0.994582
Si Si4 0.500000 0.871656 0.750000
Si Si5 0.000000 0.934578 0.250000
Si Si6 0.000000 0.737995 0.750000
Si Si7 0.650976 0.579955 0.587591
O O1 0.652465 0.918654 0.535527
O O2 0.895030 0.880296 0.301241
O O3 0.876647 0.811147 0.031799
O O4 0.897594 0.995441 0.037613
O O5 0.500000 0.785204 0.250000
O O6 0.343493 0.671797 0.372780
O O7 0.463171 0.807126 0.977846
O O8 0.602515 0.659075 0.810836
O O9 0.254919 0.495908 0.991196
O O10 0.256397 0.380823 0.730176
O O11 0.068859 0.333151 0.272188
O O12 0.500000 0.548263 0.750000
#
# Coordination Sequence:
#
# PCOD9228600 Si02
#       7
#     4   4   4   2   2   2   4
#     4  10  22  44  70  96 131 165 205 258 320 404
#     4  11  20  36  59  89 124 172 214 265 322 366
#     4  11  20  35  54  82 120 172 216 272 308 377
#     4  12  22  42  66 104 136 160 218 274 308 368
#     4   9  22  46  72  93 128 172 196 243 338 404
#     4  11  22  38  60  85 132 166 204 267 334 362
#     4  10  19  35  55  79 120 166 227 272 316 363
#
# _framework density 21.822368000000001
#
# number of rings (size 3 to 8) (size 9 to 14) (size 15 to 20)
#    0.000    1.455    4.545    3.818    0.000    2.909 
#    3.273    1.818    0.000    0.000    0.000    0.000 
#    0.000    0.000    0.000    0.000    0.000    0.000 
#
# Total GULP energy -122611.520850 kJ/mol
# GULP energy per Si atom -5573.250948 kJ/mol
# Density = 2.177270 g / cm^3
# Si number density = 21.822368 Si / 1000 Ang^3
#
#
#
# Elastic Constant Matrix: (Units=GPa)
#
#
# Indices 1 2 3 4 5 6 
#
# 1 96.8176 13.3936 34.0300 0.0000 14.9361 0.0000
# 2 13.3936 27.5239 6.2580 0.0000 -11.1644 0.0000
# 3 34.0300 6.2580 63.4715 0.0000 -24.6741 0.0000
# 4 0.0000 0.0000 0.0000 16.3678 0.0000 -11.4928
# 5 14.9361 -11.1644 -24.6741 0.0000 35.9920 0.0000
# 6 0.0000 0.0000 0.0000 -11.4928 0.0000 22.0911
#
#
#
# Elastic Compliance Matrix: (Units=1/GPa)
#
#
# Indices 1 2 3 4 5 6 
#
# 1 0.030367 -0.024469 -0.029609 0.000000 -0.040490 0.000000
# 2 -0.024469 0.061350 0.025106 0.000000 0.046396 0.000000
# 3 -0.029609 0.025106 0.050387 0.000000 0.054617 0.000000
# 4 0.000000 0.000000 0.000000 0.096259 0.000000 0.050078
# 5 -0.040490 0.046396 0.054617 0.000000 0.096421 0.000000
# 6 0.000000 0.000000 0.000000 0.050078 0.000000 0.071320
#
#
# Mechanical properties :
#
#
# Convention : Reuss Voigt Hill
#
# Bulk Modulus (GPa) = 11.88211 32.79734 22.33973
# Shear Modulus (GPa) = 10.16052 23.83226 16.99639
#
# Velocity S-wave (km/s) = 2.16012 3.30828 2.79382
# Velocity P-wave (km/s) = 3.41734 5.44563 4.54605
#
# Compressibility (1/GPa) = 0.08416013
#
# Stress axis : x y z
#
# Youngs Moduli (GPa) = 32.93010 16.29988 19.84656
#
# Poissons Ratio (x) = 0.39884 0.58764
# Poissons Ratio (y) = 0.80577 -0.49827
# Poissons Ratio (z) = 0.97503 -0.40923
#
# Static dielectric constant tensor:
#      x y z
#    x 1.881340 0.000000 -0.050410 
#    y 0.000000 1.800790 0.000000 
#    z -0.050410 0.000000 1.847470 
# 
# From -- ./inp_files/21929.got.cif
#   From: 2010.05.17/outbox.cif.g08.bks.cpg/sg13_11_cif.got.tgz:21929.got - 2010.06.03 16:44:36.
