data_PCOD9228243
_publ_section_title
;
Structure prediction by ZEFSAII (Michael W. Deem and Ramdas Pophale) SiO2 
 PCOD9228243
Probable space group: P 2/C
;
_chemical_formula_sum "Si O2"
_cell_formula_units_Z 28
_cell_length_a 12.818972
_cell_length_b 7.830936
_cell_length_c 14.786294
_cell_angle_alpha 90.000000
_cell_angle_beta 117.146407
_cell_angle_gamma 90.000000
_cell_volume 1320.808525
_symmetry_space_group_name_H-M "P 2/C"
_symmetry_group_IT_number 13
_symmetry_cell_setting 'monoclinic'
loop_
_space_group_symop_operation_xyz
x,y,z
-x,y,1/2-z
-x,-y,-z
x,-y,1/2+z
loop_
_atom_site_type_symbol
_atom_site_label
_atom_site_fract_x
_atom_site_fract_y
_atom_site_fract_z
Si Si1 0.677650 0.189988 0.634833
Si Si2 0.225656 0.881546 0.138999
Si Si3 0.847437 0.239627 0.432692
Si Si4 0.556571 0.223528 0.869144
Si Si5 0.070874 0.690808 0.934202
Si Si6 0.903232 0.050265 0.640544
Si Si7 0.712208 0.468351 0.500371
O O1 0.737678 0.214038 0.756124
O O2 0.544458 0.143591 0.608326
O O3 0.769407 0.063540 0.622922
O O4 0.674884 0.355407 0.570398
O O5 0.338983 0.901976 0.118874
O O6 0.180511 0.072316 0.137711
O O7 0.135706 0.767883 0.048044
O O8 0.902489 0.157141 0.546580
O O9 0.736781 0.347101 0.423363
O O10 0.940695 0.353226 0.415236
O O11 0.500000 0.276138 0.750000
O O12 0.620345 0.383733 0.941063
O O13 0.158359 0.548795 0.931355
O O14 0.067442 0.854499 0.868155
O O15 0.000000 0.116678 0.750000
#
# Coordination Sequence:
#
# PCOD9228243 Si02
#       7
#     4   4   4   4   4   4   4
#     4  10  19  35  57  81 110 143 181 227 270 312
#     4   9  18  35  58  78 102 144 187 224 266 319
#     4  10  19  34  57  80 108 146 182 222 268 319
#     4   9  19  37  57  78 109 147 183 221 269 322
#     4  10  19  35  54  78 113 146 177 218 271 328
#     4  10  19  33  54  82 110 142 184 227 265 310
#     4  10  21  35  54  83 112 142 179 221 272 324
#
# _framework density 21.199135999999999
#
# number of rings (size 3 to 8) (size 9 to 14) (size 15 to 20)
#    0.000    2.286    0.000    4.286    0.000    0.000 
#    0.000   27.857    0.000    0.000    0.000    0.000 
#    0.000    0.000    0.000    0.000    0.000    0.000 
#
# Total GULP energy -156172.884498 kJ/mol
# GULP energy per Si atom -5577.603018 kJ/mol
# Density = 2.115089 g / cm^3
# Si number density = 21.199136 Si / 1000 Ang^3
#
#
#
# Elastic Constant Matrix: (Units=GPa)
#
#
# Indices 1 2 3 4 5 6 
#
# 1 137.3828 6.8008 8.4169 0.0000 -11.0773 0.0000
# 2 6.8008 36.6422 -2.7283 0.0000 0.6977 0.0000
# 3 8.4169 -2.7283 50.3085 0.0000 1.3255 0.0000
# 4 0.0000 0.0000 0.0000 16.0164 0.0000 2.1816
# 5 -11.0773 0.6977 1.3255 0.0000 18.5645 0.0000
# 6 0.0000 0.0000 0.0000 2.1816 0.0000 16.9283
#
#
#
# Elastic Compliance Matrix: (Units=1/GPa)
#
#
# Indices 1 2 3 4 5 6 
#
# 1 0.007846 -0.001663 -0.001531 0.000000 0.004854 0.000000
# 2 -0.001663 0.027778 0.001842 0.000000 -0.002167 0.000000
# 3 -0.001531 0.001842 0.020297 0.000000 -0.002432 0.000000
# 4 0.000000 0.000000 0.000000 0.063551 0.000000 -0.008190
# 5 0.004854 -0.002167 -0.002432 0.000000 0.057017 0.000000
# 6 0.000000 0.000000 0.000000 -0.008190 0.000000 0.060128
#
#
# Mechanical properties :
#
#
# Convention : Reuss Voigt Hill
#
# Bulk Modulus (GPa) = 18.79053 27.70134 23.24593
# Shear Modulus (GPa) = 19.45059 24.42479 21.93769
#
# Velocity S-wave (km/s) = 3.03234 3.39803 3.22038
# Velocity P-wave (km/s) = 4.59817 5.33770 4.98168
#
# Compressibility (1/GPa) = 0.05321831
#
# Stress axis : x y z
#
# Youngs Moduli (GPa) = 127.44737 35.99976 49.26734
#
# Poissons Ratio (x) = 0.05986 0.07542
# Poissons Ratio (y) = 0.21190 -0.09074
# Poissons Ratio (z) = 0.19510 -0.06630
#
# Static dielectric constant tensor:
#      x y z
#    x 1.818700 0.000000 -0.002380 
#    y 0.000000 1.746270 0.000000 
#    z -0.002380 0.000000 1.774550 
# 
# From -- ./inp_files/50451.got.cif
#   From: 2010.05.17/outbox.cif.g08.bks.cpg/sg13_26_cif.got.tgz:50451.got - 2010.06.03 16:44:36.
