data_PCOD9228215
_publ_section_title
;
Structure prediction by ZEFSAII (Michael W. Deem and Ramdas Pophale) SiO2 
 PCOD9228215
Probable space group: P 2/C
;
_chemical_formula_sum "Si O2"
_cell_formula_units_Z 16
_cell_length_a 7.410853
_cell_length_b 18.170526
_cell_length_c 7.601218
_cell_angle_alpha 90.000000
_cell_angle_beta 38.345679
_cell_angle_gamma 90.000000
_cell_volume 635.029387
_symmetry_space_group_name_H-M "P 2/C"
_symmetry_group_IT_number 13
_symmetry_cell_setting 'monoclinic'
loop_
_space_group_symop_operation_xyz
x,y,z
-x,y,1/2-z
-x,-y,-z
x,-y,1/2+z
loop_
_atom_site_type_symbol
_atom_site_label
_atom_site_fract_x
_atom_site_fract_y
_atom_site_fract_z
Si Si1 0.318202 0.804796 0.563387
Si Si2 0.181317 0.933393 0.941731
Si Si3 0.117989 0.420757 0.356148
Si Si4 0.377219 0.662261 0.141673
O O1 0.241991 0.870502 0.752337
O O2 0.514648 0.741616 0.503076
O O3 0.000000 0.774148 0.750000
O O4 0.500000 0.828464 0.250000
O O5 0.500000 0.961520 0.750000
O O6 0.000000 0.905805 0.250000
O O7 0.000000 0.000000 0.000000
O O8 0.000000 0.411976 0.250000
O O9 0.000000 0.500000 0.500000
O O10 0.957919 0.357789 0.590459
O O11 0.457459 0.403497 0.085274
O O12 0.500000 0.662021 0.250000
#
# Coordination Sequence:
#
# PCOD9228215 Si02
#       4
#     4   4   4   4
#     4  11  22  42  70  97 126 171 224 276 331 399
#     4  12  27  47  70 101 139 179 222 278 339 405
#     4  10  19  33  53  81 115 155 202 253 309 375
#     4   9  18  34  58  83 114 157 205 255 313 383
#
# _framework density 25.195682000000001
#
# number of rings (size 3 to 8) (size 9 to 14) (size 15 to 20)
#    0.000    1.500    0.000    7.500    0.000    2.000 
#    0.000    3.750    0.000    0.000    0.000    0.000 
#    0.000    0.000    0.000    0.000    0.000    0.000 
#
# Total GULP energy -89597.887235 kJ/mol
# GULP energy per Si atom -5599.867952 kJ/mol
# Density = 2.513834 g / cm^3
# Si number density = 25.195682 Si / 1000 Ang^3
#
#
#
# Elastic Constant Matrix: (Units=GPa)
#
#
# Indices 1 2 3 4 5 6 
#
# 1 53.0661 13.2740 30.4483 0.0000 15.2129 0.0000
# 2 13.2740 167.2414 77.4759 0.0000 17.9782 0.0000
# 3 30.4483 77.4759 206.6438 0.0000 7.0900 0.0000
# 4 0.0000 0.0000 0.0000 50.7455 0.0000 -1.3950
# 5 15.2129 17.9782 7.0900 0.0000 51.1322 0.0000
# 6 0.0000 0.0000 0.0000 -1.3950 0.0000 11.8579
#
#
#
# Elastic Compliance Matrix: (Units=1/GPa)
#
#
# Indices 1 2 3 4 5 6 
#
# 1 0.022426 0.000404 -0.003237 0.000000 -0.006365 0.000000
# 2 0.000404 0.007493 -0.002788 0.000000 -0.002368 0.000000
# 3 -0.003237 -0.002788 0.006325 0.000000 0.001066 0.000000
# 4 0.000000 0.000000 0.000000 0.019770 0.000000 0.002326
# 5 -0.006365 -0.002368 0.001066 0.000000 0.022136 0.000000
# 6 0.000000 0.000000 0.000000 0.002326 0.000000 0.084606
#
#
# Mechanical properties :
#
#
# Convention : Reuss Voigt Hill
#
# Bulk Modulus (GPa) = 39.99715 74.37195 57.18455
# Shear Modulus (GPa) = 27.42252 43.13065 35.27658
#
# Velocity S-wave (km/s) = 3.30264 4.14191 3.74586
# Velocity P-wave (km/s) = 5.51836 7.24263 6.43848
#
# Compressibility (1/GPa) = 0.02500178
#
# Stress axis : x y z
#
# Youngs Moduli (GPa) = 44.59162 133.45184 158.10588
#
# Poissons Ratio (x) = -0.05393 0.51186
# Poissons Ratio (y) = -0.01802 0.44076
# Poissons Ratio (z) = 0.14436 0.37203
#
# Static dielectric constant tensor:
#      x y z
#    x 2.018930 0.000000 0.046660 
#    y 0.000000 2.025070 0.000000 
#    z 0.046660 0.000000 1.981910 
# 
# From -- ./inp_files/12972.got.cif
#   From: 2010.05.17/outbox.cif.g08.bks.cpg/sg13_7_cif.got.tgz:12972.got - 2010.06.03 16:44:36.
