data_PCOD9228915
_publ_section_title
;
Structure prediction by ZEFSAII (Michael W. Deem and Ramdas Pophale) SiO2 
 PCOD9228915
Probable space group: P 2/C
;
_chemical_formula_sum "Si O2"
_cell_formula_units_Z 32
_cell_length_a 9.070828
_cell_length_b 11.580534
_cell_length_c 30.507798
_cell_angle_alpha 90.000000
_cell_angle_beta 32.207843
_cell_angle_gamma 90.000000
_cell_volume 1708.075859
_symmetry_space_group_name_H-M "P 2/C"
_symmetry_group_IT_number 13
_symmetry_cell_setting 'monoclinic'
loop_
_space_group_symop_operation_xyz
x,y,z
-x,y,1/2-z
-x,-y,-z
x,-y,1/2+z
loop_
_atom_site_type_symbol
_atom_site_label
_atom_site_fract_x
_atom_site_fract_y
_atom_site_fract_z
Si Si1 0.897191 0.583062 0.919100
Si Si2 0.702556 0.742531 0.737591
Si Si3 0.183212 0.084368 0.014547
Si Si4 0.188378 0.292389 0.420303
Si Si5 0.744282 0.173973 0.008090
Si Si6 0.265181 0.333108 0.570577
Si Si7 0.791580 0.841464 0.343078
Si Si8 0.832508 0.081269 0.376704
O O1 0.874750 0.450602 0.910641
O O2 0.105013 0.647062 0.833674
O O3 0.010601 0.610107 0.939639
O O4 0.593948 0.639501 0.989847
O O5 0.500000 0.784385 0.750000
O O6 0.503857 0.695388 0.825178
O O7 0.897919 0.845916 0.702328
O O8 0.233364 0.087932 0.054666
O O9 0.938296 0.172626 0.066551
O O10 0.461061 0.131266 0.920348
O O11 0.116025 0.951331 0.020103
O O12 0.187775 0.268138 0.471989
O O13 0.422108 0.136576 0.085944
O O14 0.802074 0.234128 0.947536
O O15 0.185274 0.279707 0.637349
O O16 0.000000 0.842783 0.250000
O O17 0.872949 0.949574 0.353147
#
# Coordination Sequence:
#
# PCOD9228915 Si02
#       8
#     4   4   4   4   4   4   4   4
#     4  10  21  39  64  82 111 159 213 247 297 363
#     4  10  19  36  60  87 118 150 200 253 300 345
#     4  11  19  40  60  88 126 164 200 236 311 381
#     4  11  22  36  61  90 124 156 199 257 303 357
#     4  11  21  34  60  93 123 159 197 249 300 373
#     4  11  20  41  64  82 111 165 205 244 307 362
#     4  11  22  36  64  91 124 153 202 260 305 369
#     4  11  19  37  62  91 122 161 202 239 304 384
#
# _framework density 18.734531
#
# number of rings (size 3 to 8) (size 9 to 14) (size 15 to 20)
#    0.000    1.250    7.500    1.125    3.500    0.500 
#    0.000    2.500    8.250    0.000    0.000    0.000 
#    0.000    0.000    0.000    0.000    0.000    0.000 
#
# Total GULP energy -178429.736545 kJ/mol
# GULP energy per Si atom -5575.929267 kJ/mol
# Density = 1.869189 g / cm^3
# Si number density = 18.734531 Si / 1000 Ang^3
#
#
#
# Elastic Constant Matrix: (Units=GPa)
#
#
# Indices 1 2 3 4 5 6 
#
# 1 45.6925 17.2982 24.7278 0.0000 7.1665 0.0000
# 2 17.2982 93.6794 26.1359 0.0000 -5.4474 0.0000
# 3 24.7278 26.1359 90.5908 0.0000 6.3344 0.0000
# 4 0.0000 0.0000 0.0000 15.8784 0.0000 -6.3956
# 5 7.1665 -5.4474 6.3344 0.0000 26.7148 0.0000
# 6 0.0000 0.0000 0.0000 -6.3956 0.0000 33.5206
#
#
#
# Elastic Compliance Matrix: (Units=1/GPa)
#
#
# Indices 1 2 3 4 5 6 
#
# 1 0.027625 -0.003832 -0.005961 0.000000 -0.006779 0.000000
# 2 -0.003832 0.012419 -0.002833 0.000000 0.004232 0.000000
# 3 -0.005961 -0.002833 0.013638 0.000000 -0.002212 0.000000
# 4 0.000000 0.000000 0.000000 0.068222 0.000000 0.013017
# 5 -0.006779 0.004232 -0.002212 0.000000 0.040638 0.000000
# 6 0.000000 0.000000 0.000000 0.013017 0.000000 0.032316
#
#
# Mechanical properties :
#
#
# Convention : Reuss Voigt Hill
#
# Bulk Modulus (GPa) = 35.17429 40.69849 37.93639
# Shear Modulus (GPa) = 21.77829 26.00947 23.89388
#
# Velocity S-wave (km/s) = 3.41320 3.73005 3.57514
# Velocity P-wave (km/s) = 5.86081 6.34996 6.11028
#
# Compressibility (1/GPa) = 0.02842986
#
# Stress axis : x y z
#
# Youngs Moduli (GPa) = 36.19858 80.52350 73.32602
#
# Poissons Ratio (x) = 0.30858 0.43710
# Poissons Ratio (y) = 0.13872 0.20771
# Poissons Ratio (z) = 0.21578 0.22810
#
# Static dielectric constant tensor:
#      x y z
#    x 1.681860 0.000000 0.005830 
#    y 0.000000 1.655080 0.000000 
#    z 0.005830 0.000000 1.651920 
# 
# From -- ./inp_files/96114.got.cif
#   From: 2010.05.17/outbox.cif.g08.bks.cpg/sg13_49_cif.got.tgz:96114.got - 2010.06.03 16:44:36.
