data_PCOD9228366
_publ_section_title
;
Structure prediction by ZEFSAII (Michael W. Deem and Ramdas Pophale) SiO2 
 PCOD9228366
Probable space group: P 2/C
;
_chemical_formula_sum "Si O2"
_cell_formula_units_Z 28
_cell_length_a 15.158555
_cell_length_b 14.701764
_cell_length_c 8.732743
_cell_angle_alpha 90.000000
_cell_angle_beta 130.249575
_cell_angle_gamma 90.000000
_cell_volume 1485.379737
_symmetry_space_group_name_H-M "P 2/C"
_symmetry_group_IT_number 13
_symmetry_cell_setting 'monoclinic'
loop_
_space_group_symop_operation_xyz
x,y,z
-x,y,1/2-z
-x,-y,-z
x,-y,1/2+z
loop_
_atom_site_type_symbol
_atom_site_label
_atom_site_fract_x
_atom_site_fract_y
_atom_site_fract_z
Si Si1 0.880701 0.906991 0.028244
Si Si2 0.624017 0.389024 0.705796
Si Si3 0.351009 0.198080 0.918973
Si Si4 0.651556 0.424839 0.086806
Si Si5 0.272397 0.256528 0.166351
Si Si6 0.564027 0.870543 0.482863
Si Si7 0.242641 0.980371 0.331106
O O1 0.781660 0.956872 0.019505
O O2 0.000000 0.916058 0.250000
O O3 0.845326 0.801404 0.973666
O O4 0.863152 0.960006 0.850687
O O5 0.655107 0.288006 0.689254
O O6 0.484138 0.398875 0.540617
O O7 0.668083 0.469645 0.646052
O O8 0.668646 0.407337 0.926720
O O9 0.469823 0.145725 0.010455
O O10 0.255772 0.120801 0.776988
O O11 0.335480 0.233954 0.075538
O O12 0.725511 0.361186 0.283516
O O13 0.344509 0.208846 0.383237
O O14 0.500000 0.861161 0.250000
O O15 0.640823 0.961677 0.564262
#
# Coordination Sequence:
#
# PCOD9228366 Si02
#       7
#     4   4   4   4   4   4   4
#     4  10  21  39  57  76 100 138 185 239 278 310
#     4  10  20  31  53  72 112 148 175 208 253 308
#     4  11  20  32  48  75 108 148 174 212 258 321
#     4  10  19  34  48  78 105 145 182 210 251 313
#     4  10  21  33  52  77 106 140 185 219 266 319
#     4  11  20  32  48  72 110 145 175 211 255 318
#     4  10  22  35  52  77 104 139 183 221 270 323
#
# _framework density 18.850397999999998
#
# number of rings (size 3 to 8) (size 9 to 14) (size 15 to 20)
#    0.000    1.714    1.429    3.857    0.000    4.571 
#    0.000    0.000    0.000    0.000    0.000   10.000 
#    0.000    0.000    0.000    0.000    0.000    0.000 
#
# Total GULP energy -156088.454721 kJ/mol
# GULP energy per Si atom -5574.587669 kJ/mol
# Density = 1.880749 g / cm^3
# Si number density = 18.850398 Si / 1000 Ang^3
#
#
#
# Elastic Constant Matrix: (Units=GPa)
#
#
# Indices 1 2 3 4 5 6 
#
# 1 31.0044 27.9529 22.1056 0.0000 -9.4873 0.0000
# 2 27.9529 98.5742 25.9371 0.0000 -8.1972 0.0000
# 3 22.1056 25.9371 78.7944 0.0000 -8.9269 0.0000
# 4 0.0000 0.0000 0.0000 21.4341 0.0000 -5.4723
# 5 -9.4873 -8.1972 -8.9269 0.0000 17.6920 0.0000
# 6 0.0000 0.0000 0.0000 -5.4723 0.0000 21.1533
#
#
#
# Elastic Compliance Matrix: (Units=1/GPa)
#
#
# Indices 1 2 3 4 5 6 
#
# 1 0.055501 -0.011602 -0.009534 0.000000 0.019576 0.000000
# 2 -0.011602 0.013740 -0.001328 0.000000 -0.000525 0.000000
# 3 -0.009534 -0.001328 0.016073 0.000000 0.002382 0.000000
# 4 0.000000 0.000000 0.000000 0.049954 0.000000 0.012923
# 5 0.019576 -0.000525 0.002382 0.000000 0.067979 0.000000
# 6 0.000000 0.000000 0.000000 0.012923 0.000000 0.050617
#
#
# Mechanical properties :
#
#
# Convention : Reuss Voigt Hill
#
# Bulk Modulus (GPa) = 24.76003 40.04048 32.40026
# Shear Modulus (GPa) = 16.01260 20.88106 18.44683
#
# Velocity S-wave (km/s) = 2.91771 3.33186 3.13164
# Velocity P-wave (km/s) = 4.95118 6.00742 5.50469
#
# Compressibility (1/GPa) = 0.04038767
#
# Stress axis : x y z
#
# Youngs Moduli (GPa) = 18.01756 72.77851 62.21688
#
# Poissons Ratio (x) = 0.84439 0.59316
# Poissons Ratio (y) = 0.20904 0.08259
# Poissons Ratio (z) = 0.17177 0.09661
#
# Static dielectric constant tensor:
#      x y z
#    x 1.702500 0.000000 -0.017150 
#    y 0.000000 1.680890 0.000000 
#    z -0.017150 0.000000 1.652980 
# 
# From -- ./inp_files/16543.got.cif
#   From: 2010.05.17/outbox.cif.g08.bks.cpg/sg13_9_cif.got.tgz:16543.got - 2010.06.03 16:44:36.
