data_PCOD9228553
_publ_section_title
;
Structure prediction by ZEFSAII (Michael W. Deem and Ramdas Pophale) SiO2 
 PCOD9228553
Probable space group: P 2/C
;
_chemical_formula_sum "Si O2"
_cell_formula_units_Z 16
_cell_length_a 10.413155
_cell_length_b 11.715910
_cell_length_c 7.985100
_cell_angle_alpha 90.000000
_cell_angle_beta 138.838517
_cell_angle_gamma 90.000000
_cell_volume 641.188480
_symmetry_space_group_name_H-M "P 2/C"
_symmetry_group_IT_number 13
_symmetry_cell_setting 'monoclinic'
loop_
_space_group_symop_operation_xyz
x,y,z
-x,y,1/2-z
-x,-y,-z
x,-y,1/2+z
loop_
_atom_site_type_symbol
_atom_site_label
_atom_site_fract_x
_atom_site_fract_y
_atom_site_fract_z
Si Si1 0.271570 0.731367 0.070161
Si Si2 0.712418 0.041680 0.045734
Si Si3 0.281685 0.819005 0.594309
Si Si4 0.032968 0.634696 0.528314
O O1 0.500000 0.726559 0.250000
O O2 0.200597 0.861682 0.988090
O O3 0.165692 0.661341 0.820947
O O4 0.184760 0.684630 0.156431
O O5 0.706438 0.105740 0.218964
O O6 0.500000 0.027742 0.750000
O O7 0.795141 0.914466 0.113709
O O8 0.500000 0.785914 0.750000
O O9 0.154623 0.707127 0.511067
O O10 0.000000 0.500000 0.500000
#
# Coordination Sequence:
#
# PCOD9228553 Si02
#       4
#     4   4   4   4
#     4   9  20  40  62  84 121 164 204 268 326 363
#     4   9  17  33  59  90 123 160 205 252 318 386
#     4  10  19  34  60  93 129 163 203 261 318 376
#     4  10  22  39  59  89 124 167 222 257 302 385
#
# _framework density 24.953662999999999
#
# number of rings (size 3 to 8) (size 9 to 14) (size 15 to 20)
#    0.000    2.500    0.000    3.000    0.000    3.000 
#    0.000   17.500    0.000    0.000    0.000    0.000 
#    0.000    0.000    0.000    0.750    0.000    0.000 
#
# Total GULP energy -89248.651577 kJ/mol
# GULP energy per Si atom -5578.040724 kJ/mol
# Density = 2.489687 g / cm^3
# Si number density = 24.953663 Si / 1000 Ang^3
#
#
#
# Elastic Constant Matrix: (Units=GPa)
#
#
# Indices 1 2 3 4 5 6 
#
# 1 212.9504 108.2485 42.8565 0.0000 24.8238 0.0000
# 2 108.2485 263.5956 25.3515 0.0000 16.6119 0.0000
# 3 42.8565 25.3515 90.0720 0.0000 11.5803 0.0000
# 4 0.0000 0.0000 0.0000 24.4799 0.0000 17.8827
# 5 24.8238 16.6119 11.5803 0.0000 59.9033 0.0000
# 6 0.0000 0.0000 0.0000 17.8827 0.0000 20.1286
#
#
#
# Elastic Compliance Matrix: (Units=1/GPa)
#
#
# Indices 1 2 3 4 5 6 
#
# 1 0.006539 -0.002368 -0.002236 0.000000 -0.001621 0.000000
# 2 -0.002368 0.004804 -0.000185 0.000000 -0.000315 0.000000
# 3 -0.002236 -0.000185 0.012401 0.000000 -0.001419 0.000000
# 4 0.000000 0.000000 0.000000 0.116382 0.000000 -0.103396
# 5 -0.001621 -0.000315 -0.001419 0.000000 0.017727 0.000000
# 6 0.000000 0.000000 0.000000 -0.103396 0.000000 0.141541
#
#
# Mechanical properties :
#
#
# Convention : Reuss Voigt Hill
#
# Bulk Modulus (GPa) = 70.59664 102.17012 86.38338
# Shear Modulus (GPa) = 15.93921 46.91312 31.42617
#
# Velocity S-wave (km/s) = 2.53010 4.34061 3.55263
# Velocity P-wave (km/s) = 6.07352 8.13351 7.17780
#
# Compressibility (1/GPa) = 0.01416498
#
# Stress axis : x y z
#
# Youngs Moduli (GPa) = 152.93847 208.17069 80.64029
#
# Poissons Ratio (x) = 0.49294 0.18033
# Poissons Ratio (y) = 0.36215 0.01491
# Poissons Ratio (z) = 0.34201 0.03848
#
# Static dielectric constant tensor:
#      x y z
#    x 2.252490 0.000000 -0.051230 
#    y 0.000000 2.018370 0.000000 
#    z -0.051230 0.000000 2.117640 
# 
# From -- ./inp_files/15405.got.cif
#   From: 2010.05.17/outbox.cif.g08.bks.cpg/sg13_8_cif.got.tgz:15405.got - 2010.06.03 16:44:36.
