data_PCOD9228093
_publ_section_title
;
Structure prediction by ZEFSAII (Michael W. Deem and Ramdas Pophale) SiO2 
 PCOD9228093
Probable space group: P 2/C
;
_chemical_formula_sum "Si O2"
_cell_formula_units_Z 32
_cell_length_a 20.802932
_cell_length_b 14.920748
_cell_length_c 8.173167
_cell_angle_alpha 90.000000
_cell_angle_beta 41.597252
_cell_angle_gamma 90.000000
_cell_volume 1684.231832
_symmetry_space_group_name_H-M "P 2/C"
_symmetry_group_IT_number 13
_symmetry_cell_setting 'monoclinic'
loop_
_space_group_symop_operation_xyz
x,y,z
-x,y,1/2-z
-x,-y,-z
x,-y,1/2+z
loop_
_atom_site_type_symbol
_atom_site_label
_atom_site_fract_x
_atom_site_fract_y
_atom_site_fract_z
Si Si1 0.889937 0.396735 0.267991
Si Si2 0.308715 0.366641 0.365951
Si Si3 0.104575 0.396155 0.849197
Si Si4 0.609315 0.468367 0.598514
Si Si5 0.606460 0.865855 0.116724
Si Si6 0.386442 0.222073 0.417407
Si Si7 0.392242 0.959567 0.027421
Si Si8 0.312205 0.690882 0.383767
O O1 0.888522 0.392582 0.467707
O O2 0.883098 0.500351 0.228085
O O3 0.796712 0.343575 0.384361
O O4 0.996453 0.365738 0.007722
O O5 0.195542 0.346219 0.598446
O O6 0.340114 0.440790 0.441483
O O7 0.369514 0.277309 0.285423
O O8 0.333649 0.417408 0.152777
O O9 0.500000 0.483867 0.750000
O O10 0.616387 0.394074 0.728219
O O11 0.500000 0.842938 0.250000
O O12 0.601754 0.917441 0.302823
O O13 0.661094 0.773397 0.048781
O O14 0.651451 0.941629 0.911207
O O15 0.500000 0.222757 0.250000
O O16 0.351059 0.119750 0.492068
O O17 0.328390 0.272650 0.670588
O O18 0.500000 0.972372 0.750000
#
# Coordination Sequence:
#
# PCOD9228093 Si02
#       8
#     4   4   4   4   4   4   4   4
#     4  10  20  36  55  77 102 133 178 229 274 317
#     4  12  21  35  51  72 103 142 182 220 258 314
#     4  10  20  35  57  75  99 136 178 226 275 306
#     4  12  24  34  48  72 108 149 179 208 254 316
#     4  10  19  32  53  75 106 140 177 217 265 317
#     4  10  20  34  51  72 104 139 179 220 256 312
#     4   9  18  31  51  74 101 138 177 222 257 306
#     4  11  21  35  50  76 108 138 176 218 269 322
#
# _framework density 18.999759999999998
#
# number of rings (size 3 to 8) (size 9 to 14) (size 15 to 20)
#    0.000    1.500    2.500    4.875    0.000    3.000 
#    0.000    0.000    0.000    0.000    0.000    0.875 
#    0.000    0.000    0.000    0.375    0.000    0.125 
#
# Total GULP energy -178719.608220 kJ/mol
# GULP energy per Si atom -5584.987757 kJ/mol
# Density = 1.895652 g / cm^3
# Si number density = 18.999760 Si / 1000 Ang^3
#
#
#
# Elastic Constant Matrix: (Units=GPa)
#
#
# Indices 1 2 3 4 5 6 
#
# 1 67.5806 27.2570 18.1758 0.0000 -9.5109 0.0000
# 2 27.2570 90.9440 0.8887 0.0000 -9.7232 0.0000
# 3 18.1758 0.8887 66.0040 0.0000 -14.6998 0.0000
# 4 0.0000 0.0000 0.0000 17.1897 0.0000 7.6431
# 5 -9.5109 -9.7232 -14.6998 0.0000 33.7689 0.0000
# 6 0.0000 0.0000 0.0000 7.6431 0.0000 8.1784
#
#
#
# Elastic Compliance Matrix: (Units=1/GPa)
#
#
# Indices 1 2 3 4 5 6 
#
# 1 0.018411 -0.005297 -0.004632 0.000000 0.001644 0.000000
# 2 -0.005297 0.012893 0.001971 0.000000 0.003078 0.000000
# 3 -0.004632 0.001971 0.017978 0.000000 0.007089 0.000000
# 4 0.000000 0.000000 0.000000 0.099533 0.000000 -0.093019
# 5 0.001644 0.003078 0.007089 0.000000 0.034048 0.000000
# 6 0.000000 0.000000 0.000000 -0.093019 0.000000 0.209205
#
#
# Mechanical properties :
#
#
# Convention : Reuss Voigt Hill
#
# Bulk Modulus (GPa) = 29.97164 35.24130 32.60647
# Shear Modulus (GPa) = 11.93010 23.70787 17.81898
#
# Velocity S-wave (km/s) = 2.50853 3.53625 3.06576
# Velocity P-wave (km/s) = 4.91928 5.93818 5.45258
#
# Compressibility (1/GPa) = 0.03336487
#
# Stress axis : x y z
#
# Youngs Moduli (GPa) = 54.31610 77.56034 55.62203
#
# Poissons Ratio (x) = 0.41083 0.25767
# Poissons Ratio (y) = 0.28771 -0.10961
# Poissons Ratio (z) = 0.25162 -0.15284
#
# Static dielectric constant tensor:
#      x y z
#    x 1.742210 0.000000 0.043710 
#    y 0.000000 1.696340 0.000000 
#    z 0.043710 0.000000 1.703590 
# 
# From -- ./inp_files/23535.got.cif
#   From: 2010.05.17/outbox.cif.g08.bks.cpg/sg13_12_cif.got.tgz:23535.got - 2010.06.03 16:44:36.
