data_PCOD9228367
_publ_section_title
;
Structure prediction by ZEFSAII (Michael W. Deem and Ramdas Pophale) SiO2 
 PCOD9228367
Probable space group: P 2/C
;
_chemical_formula_sum "Si O2"
_cell_formula_units_Z 28
_cell_length_a 18.314106
_cell_length_b 14.518364
_cell_length_c 8.865955
_cell_angle_alpha 90.000000
_cell_angle_beta 146.453096
_cell_angle_gamma 90.000000
_cell_volume 1302.732021
_symmetry_space_group_name_H-M "P 2/C"
_symmetry_group_IT_number 13
_symmetry_cell_setting 'monoclinic'
loop_
_space_group_symop_operation_xyz
x,y,z
-x,y,1/2-z
-x,-y,-z
x,-y,1/2+z
loop_
_atom_site_type_symbol
_atom_site_label
_atom_site_fract_x
_atom_site_fract_y
_atom_site_fract_z
Si Si1 0.828482 0.916641 0.283355
Si Si2 0.276929 0.750702 0.554892
Si Si3 0.820085 0.293405 0.282071
Si Si4 0.062153 0.358353 0.514762
Si Si5 0.245965 0.482657 0.263997
Si Si6 0.601681 0.572242 0.744158
Si Si7 0.141412 0.110197 0.311526
O O1 0.726208 0.854378 0.011721
O O2 0.821818 0.906601 0.451678
O O3 0.981256 0.885790 0.511983
O O4 0.815067 0.022439 0.211124
O O5 0.201271 0.743155 0.584982
O O6 0.404617 0.682778 0.788390
O O7 0.189048 0.700710 0.276346
O O8 0.732003 0.384969 0.115260
O O9 0.798460 0.206262 0.139534
O O10 0.960247 0.337317 0.473583
O O11 0.112757 0.461911 0.569418
O O12 0.000000 0.325418 0.250000
O O13 0.361385 0.548474 0.521960
O O14 0.264829 0.456495 0.122274
O O15 0.500000 0.500000 0.500000
#
# Coordination Sequence:
#
# PCOD9228367 Si02
#       7
#     4   4   4   4   4   4   4
#     4  10  19  34  48  78 107 153 194 224 272 325
#     4  10  21  33  52  77 108 145 194 234 274 339
#     4  11  20  32  48  75 109 151 179 217 273 331
#     4  11  20  32  48  72 110 148 184 225 268 336
#     4  10  22  35  52  77 105 141 189 229 282 341
#     4  10  21  39  57  76 102 141 188 247 293 330
#     4  10  20  31  53  72 114 156 187 225 267 332
#
# _framework density 21.493290999999999
#
# number of rings (size 3 to 8) (size 9 to 14) (size 15 to 20)
#    0.000    1.714    1.429    3.857    0.000    4.571 
#    0.000    0.000    0.000    0.000    0.000    1.000 
#    0.000    6.857    0.000    1.571    0.000    0.000 
#
# Total GULP energy -155991.364959 kJ/mol
# GULP energy per Si atom -5571.120177 kJ/mol
# Density = 2.144437 g / cm^3
# Si number density = 21.493291 Si / 1000 Ang^3
#
#
#
# Elastic Constant Matrix: (Units=GPa)
#
#
# Indices 1 2 3 4 5 6 
#
# 1 57.2423 38.9112 11.4743 0.0000 -22.8349 0.0000
# 2 38.9112 140.2284 13.1089 0.0000 -11.0235 0.0000
# 3 11.4743 13.1089 39.0888 0.0000 -10.2696 0.0000
# 4 0.0000 0.0000 0.0000 33.2601 0.0000 -5.7104
# 5 -22.8349 -11.0235 -10.2696 0.0000 22.9602 0.0000
# 6 0.0000 0.0000 0.0000 -5.7104 0.0000 33.7282
#
#
#
# Elastic Compliance Matrix: (Units=1/GPa)
#
#
# Indices 1 2 3 4 5 6 
#
# 1 0.034797 -0.007234 0.000443 0.000000 0.031332 0.000000
# 2 -0.007234 0.009023 -0.001875 0.000000 -0.003701 0.000000
# 3 0.000443 -0.001875 0.029418 0.000000 0.012699 0.000000
# 4 0.000000 0.000000 0.000000 0.030966 0.000000 0.005243
# 5 0.031332 -0.003701 0.012699 0.000000 0.078618 0.000000
# 6 0.000000 0.000000 0.000000 0.005243 0.000000 0.030536
#
#
# Mechanical properties :
#
#
# Convention : Reuss Voigt Hill
#
# Bulk Modulus (GPa) = 17.88703 40.39426 29.14064
# Shear Modulus (GPa) = 20.05420 29.52738 24.79079
#
# Velocity S-wave (km/s) = 3.05789 3.71050 3.39989
# Velocity P-wave (km/s) = 4.56156 6.09850 5.38514
#
# Compressibility (1/GPa) = 0.05590643
#
# Stress axis : x y z
#
# Youngs Moduli (GPa) = 28.73804 110.82956 33.99329
#
# Poissons Ratio (x) = 0.80174 -0.01507
# Poissons Ratio (y) = 0.20789 0.06373
# Poissons Ratio (z) = -0.01274 0.20778
#
# Static dielectric constant tensor:
#      x y z
#    x 1.859940 0.000000 0.043410 
#    y 0.000000 1.812870 0.000000 
#    z 0.043410 0.000000 1.796610 
# 
# From -- ./inp_files/21992.got.cif
#   From: 2010.05.17/outbox.cif.g08.bks.cpg/sg13_11_cif.got.tgz:21992.got - 2010.06.03 16:44:36.
