data_PCOD9228359
_publ_section_title
;
Structure prediction by ZEFSAII (Michael W. Deem and Ramdas Pophale) SiO2 
 PCOD9228359
Probable space group: P 2/C
;
_chemical_formula_sum "Si O2"
_cell_formula_units_Z 20
_cell_length_a 12.570640
_cell_length_b 9.279021
_cell_length_c 19.725327
_cell_angle_alpha 90.000000
_cell_angle_beta 26.329390
_cell_angle_gamma 90.000000
_cell_volume 1020.487585
_symmetry_space_group_name_H-M "P 2/C"
_symmetry_group_IT_number 13
_symmetry_cell_setting 'monoclinic'
loop_
_space_group_symop_operation_xyz
x,y,z
-x,y,1/2-z
-x,-y,-z
x,-y,1/2+z
loop_
_atom_site_type_symbol
_atom_site_label
_atom_site_fract_x
_atom_site_fract_y
_atom_site_fract_z
Si Si1 0.500362 0.299420 0.829241
Si Si2 0.439525 0.565835 0.607500
Si Si3 0.639710 0.051675 0.830784
Si Si4 0.723466 0.830657 0.425421
Si Si5 0.978466 0.792405 0.680700
O O1 0.500000 0.326569 0.750000
O O2 0.572147 0.440685 0.830698
O O3 0.669917 0.164895 0.753589
O O4 0.236293 0.248627 0.003848
O O5 0.500000 0.500000 0.500000
O O6 0.653118 0.679977 0.498661
O O7 0.202152 0.662433 0.735379
O O8 0.602478 0.147082 0.920342
O O9 0.852340 0.937530 0.723396
O O10 0.398915 0.956185 0.961053
O O11 0.000000 0.841058 0.250000
O O12 0.000000 0.804834 0.750000
#
# Coordination Sequence:
#
# PCOD9228359 Si02
#       5
#     4   4   4   4   4
#     4  12  26  42  61  93 133 169 203 258 320 369
#     4  11  22  39  62  93 121 162 214 252 307 375
#     4  10  20  38  59  92 123 159 212 252 305 376
#     4  10  19  33  62  93 118 151 208 265 302 354
#     4  11  22  41  68  92 126 161 211 268 304 364
#
# _framework density 19.598475000000001
#
# number of rings (size 3 to 8) (size 9 to 14) (size 15 to 20)
#    0.000    1.200    4.000    4.200    2.800    1.600 
#    0.000    4.000    0.000    0.000    0.000    0.000 
#    0.000    0.000    0.000    0.000    0.000    0.000 
#
# Total GULP energy -111698.741347 kJ/mol
# GULP energy per Si atom -5584.937067 kJ/mol
# Density = 1.955387 g / cm^3
# Si number density = 19.598475 Si / 1000 Ang^3
#
#
#
# Elastic Constant Matrix: (Units=GPa)
#
#
# Indices 1 2 3 4 5 6 
#
# 1 108.6600 80.5702 38.2858 0.0000 13.7487 0.0000
# 2 80.5702 163.3129 35.3589 0.0000 1.6951 0.0000
# 3 38.2858 35.3589 65.3175 0.0000 -12.6663 0.0000
# 4 0.0000 0.0000 0.0000 15.5368 0.0000 -2.3445
# 5 13.7487 1.6951 -12.6663 0.0000 42.1183 0.0000
# 6 0.0000 0.0000 0.0000 -2.3445 0.0000 33.8664
#
#
#
# Elastic Compliance Matrix: (Units=1/GPa)
#
#
# Indices 1 2 3 4 5 6 
#
# 1 0.018711 -0.007267 -0.008666 0.000000 -0.008421 0.000000
# 2 -0.007267 0.009849 -0.000731 0.000000 0.001756 0.000000
# 3 -0.008666 -0.000731 0.022661 0.000000 0.009673 0.000000
# 4 0.000000 0.000000 0.000000 0.065043 0.000000 0.004503
# 5 -0.008421 0.001756 0.009673 0.000000 0.029330 0.000000
# 6 0.000000 0.000000 0.000000 0.004503 0.000000 0.029840
#
#
# Mechanical properties :
#
#
# Convention : Reuss Voigt Hill
#
# Bulk Modulus (GPa) = 55.89391 71.74670 63.82030
# Shear Modulus (GPa) = 23.28549 30.50932 26.89740
#
# Velocity S-wave (km/s) = 3.45066 3.94981 3.70864
# Velocity P-wave (km/s) = 6.66765 7.58216 7.13956
#
# Compressibility (1/GPa) = 0.01789104
#
# Stress axis : x y z
#
# Youngs Moduli (GPa) = 53.44572 101.53804 44.12807
#
# Poissons Ratio (x) = 0.73789 0.38243
# Poissons Ratio (y) = 0.38839 0.03227
# Poissons Ratio (z) = 0.46318 0.07425
#
# Static dielectric constant tensor:
#      x y z
#    x 1.730030 0.000000 -0.056600 
#    y 0.000000 1.740530 0.000000 
#    z -0.056600 0.000000 1.688860 
# 
# From -- ./inp_files/28276.got.cif
#   From: 2010.05.17/outbox.cif.g08.bks.cpg/sg13_15_cif.got.tgz:28276.got - 2010.06.03 16:44:36.
