data_PCOD9228968
_publ_section_title
;
Structure prediction by ZEFSAII (Michael W. Deem and Ramdas Pophale) SiO2 
 PCOD9228968
Probable space group: P 2/C
;
_chemical_formula_sum "Si O2"
_cell_formula_units_Z 28
_cell_length_a 20.108995
_cell_length_b 8.409961
_cell_length_c 17.962845
_cell_angle_alpha 90.000000
_cell_angle_beta 156.011162
_cell_angle_gamma 90.000000
_cell_volume 1235.044742
_symmetry_space_group_name_H-M "P 2/C"
_symmetry_group_IT_number 13
_symmetry_cell_setting 'monoclinic'
loop_
_space_group_symop_operation_xyz
x,y,z
-x,y,1/2-z
-x,-y,-z
x,-y,1/2+z
loop_
_atom_site_type_symbol
_atom_site_label
_atom_site_fract_x
_atom_site_fract_y
_atom_site_fract_z
Si Si1 0.813095 0.280198 0.084478
Si Si2 0.842402 0.563642 0.035079
Si Si3 0.962869 0.715055 0.390708
Si Si4 0.266845 0.966225 0.413454
Si Si5 0.725839 0.819889 0.721152
Si Si6 0.567166 0.755457 0.711633
Si Si7 0.320653 0.514555 0.912160
O O1 0.756026 0.393058 0.958298
O O2 0.768964 0.397260 0.109198
O O3 0.000000 0.254585 0.250000
O O4 0.753274 0.108842 0.048721
O O5 0.000000 0.575026 0.250000
O O6 0.914365 0.598287 0.027865
O O7 0.710215 0.700112 0.912867
O O8 0.888009 0.849398 0.258885
O O9 0.809484 0.608172 0.256736
O O10 0.078115 0.791150 0.570853
O O11 0.426435 0.868021 0.595777
O O12 0.297210 0.043764 0.362789
O O13 0.652810 0.840728 0.728437
O O14 0.643662 0.659352 0.605833
O O15 0.473335 0.592718 0.592057
#
# Coordination Sequence:
#
# PCOD9228968 Si02
#       7
#     4   4   4   4   4   4   4
#     4  10  20  40  66  87 128 164 214 272 306 362
#     4  10  20  40  69  84 124 172 215 268 302 375
#     4  10  19  36  62  96 122 169 213 256 322 378
#     4  10  22  38  63  96 129 166 208 263 334 379
#     4  10  20  36  64  89 135 162 203 266 316 388
#     4  10  22  38  64  95 127 169 213 257 333 378
#     4  10  19  36  62  95 122 167 214 260 315 373
#
# _framework density 22.671241999999999
#
# number of rings (size 3 to 8) (size 9 to 14) (size 15 to 20)
#    0.000    2.000    2.857    1.714    0.000    1.143 
#    0.000    0.000   50.286    0.000    0.000    0.000 
#    0.000    0.000    0.000    0.000    0.000    0.000 
#
# Total GULP energy -156186.052603 kJ/mol
# GULP energy per Si atom -5578.073307 kJ/mol
# Density = 2.261964 g / cm^3
# Si number density = 22.671242 Si / 1000 Ang^3
#
#
#
# Elastic Constant Matrix: (Units=GPa)
#
#
# Indices 1 2 3 4 5 6 
#
# 1 62.8322 28.5344 0.4152 0.0000 9.7396 0.0000
# 2 28.5344 105.5879 24.7962 0.0000 1.1740 0.0000
# 3 0.4152 24.7962 83.2235 0.0000 -0.0535 0.0000
# 4 0.0000 0.0000 0.0000 14.0370 0.0000 -0.6778
# 5 9.7396 1.1740 -0.0535 0.0000 18.9214 0.0000
# 6 0.0000 0.0000 0.0000 -0.6778 0.0000 27.0565
#
#
#
# Elastic Compliance Matrix: (Units=1/GPa)
#
#
# Indices 1 2 3 4 5 6 
#
# 1 0.020023 -0.005672 0.001584 0.000000 -0.009950 0.000000
# 2 -0.005672 0.011798 -0.003485 0.000000 0.002178 0.000000
# 3 0.001584 -0.003485 0.013046 0.000000 -0.000562 0.000000
# 4 0.000000 0.000000 0.000000 0.071326 0.000000 0.001787
# 5 -0.009950 0.002178 -0.000562 0.000000 0.057835 0.000000
# 6 0.000000 0.000000 0.000000 0.001787 0.000000 0.037004
#
#
# Mechanical properties :
#
#
# Convention : Reuss Voigt Hill
#
# Bulk Modulus (GPa) = 33.64832 39.90391 36.77612
# Shear Modulus (GPa) = 21.17849 25.19616 23.18732
#
# Velocity S-wave (km/s) = 3.05971 3.33734 3.20154
# Velocity P-wave (km/s) = 5.23035 5.69998 5.47021
#
# Compressibility (1/GPa) = 0.02971917
#
# Stress axis : x y z
#
# Youngs Moduli (GPa) = 49.94155 84.75980 76.65144
#
# Poissons Ratio (x) = 0.48080 -0.12140
# Poissons Ratio (y) = 0.28329 0.26717
# Poissons Ratio (z) = -0.07910 0.29543
#
# Static dielectric constant tensor:
#      x y z
#    x 1.898340 0.000000 -0.002910 
#    y 0.000000 1.866700 0.000000 
#    z -0.002910 0.000000 1.862330 
# 
# From -- ./inp_files/82214.got.cif
#   From: 2010.05.17/outbox.cif.g08.bks.cpg/sg13_42_cif.got.tgz:82214.got - 2010.06.03 16:44:36.
