data_PCOD9228334
_publ_section_title
;
Structure prediction by ZEFSAII (Michael W. Deem and Ramdas Pophale) SiO2 
 PCOD9228334
Probable space group: P 2/C
;
_chemical_formula_sum "Si O2"
_cell_formula_units_Z 24
_cell_length_a 12.797568
_cell_length_b 9.660789
_cell_length_c 14.594944
_cell_angle_alpha 90.000000
_cell_angle_beta 49.136972
_cell_angle_gamma 90.000000
_cell_volume 1364.654407
_symmetry_space_group_name_H-M "P 2/C"
_symmetry_group_IT_number 13
_symmetry_cell_setting 'monoclinic'
loop_
_space_group_symop_operation_xyz
x,y,z
-x,y,1/2-z
-x,-y,-z
x,-y,1/2+z
loop_
_atom_site_type_symbol
_atom_site_label
_atom_site_fract_x
_atom_site_fract_y
_atom_site_fract_z
Si Si1 0.650887 0.895336 0.317954
Si Si2 0.050610 0.773969 0.964182
Si Si3 0.138811 0.628357 0.729809
Si Si4 0.106614 0.310772 0.769018
Si Si5 0.343795 0.856959 0.547074
Si Si6 0.795795 0.034415 0.552235
O O1 0.771131 0.799290 0.290411
O O2 0.500386 0.834385 0.424609
O O3 0.686705 0.915089 0.191007
O O4 0.655621 0.044671 0.364325
O O5 0.113671 0.682460 0.847366
O O6 0.159319 0.878624 0.948844
O O7 0.977337 0.688870 0.087111
O O8 0.932895 0.871944 0.986500
O O9 0.162120 0.464111 0.716868
O O10 0.261394 0.717511 0.615724
O O11 0.000000 0.653604 0.750000
O O12 0.000000 0.270761 0.750000
O O13 0.265264 0.941292 0.512459
#
# Coordination Sequence:
#
# PCOD9228334 Si02
#       6
#     4   4   4   4   4   4
#     4  10  22  37  55  84 110 152 187 228 287 326
#     4  10  19  34  57  86 109 142 180 231 285 320
#     4  11  21  36  57  85 113 147 188 230 278 334
#     4  10  22  37  57  82 113 147 184 233 280 336
#     4  11  21  36  58  80 115 148 189 233 273 337
#     4  10  19  33  58  85 110 139 187 235 270 330
#
# _framework density 17.586870000000001
#
# number of rings (size 3 to 8) (size 9 to 14) (size 15 to 20)
#    0.000    1.667    3.333    2.000    0.000    1.333 
#    0.000    0.000    0.000    0.000    4.333    0.000 
#    0.000    0.000    0.000    0.000    0.000    0.000 
#
# Total GULP energy -133998.893377 kJ/mol
# GULP energy per Si atom -5583.287224 kJ/mol
# Density = 1.754684 g / cm^3
# Si number density = 17.586870 Si / 1000 Ang^3
#
#
#
# Elastic Constant Matrix: (Units=GPa)
#
#
# Indices 1 2 3 4 5 6 
#
# 1 40.9343 0.1944 7.8588 0.0000 -0.2514 0.0000
# 2 0.1944 54.0922 16.5381 0.0000 -17.3455 0.0000
# 3 7.8588 16.5381 59.0385 0.0000 -13.8355 0.0000
# 4 0.0000 0.0000 0.0000 21.4740 0.0000 4.6968
# 5 -0.2514 -17.3455 -13.8355 0.0000 28.8512 0.0000
# 6 0.0000 0.0000 0.0000 4.6968 0.0000 23.5743
#
#
#
# Elastic Compliance Matrix: (Units=1/GPa)
#
#
# Indices 1 2 3 4 5 6 
#
# 1 0.025153 0.000695 -0.003823 0.000000 -0.001196 0.000000
# 2 0.000695 0.023618 -0.003807 0.000000 0.012380 0.000000
# 3 -0.003823 -0.003807 0.020244 0.000000 0.007386 0.000000
# 4 0.000000 0.000000 0.000000 0.048690 0.000000 -0.009701
# 5 -0.001196 0.012380 0.007386 0.000000 0.045635 0.000000
# 6 0.000000 0.000000 0.000000 -0.009701 0.000000 0.044352
#
#
# Mechanical properties :
#
#
# Convention : Reuss Voigt Hill
#
# Bulk Modulus (GPa) = 18.13437 22.58307 20.35872
# Shear Modulus (GPa) = 20.83816 23.41149 22.12482
#
# Velocity S-wave (km/s) = 3.44593 3.65251 3.55072
# Velocity P-wave (km/s) = 5.11530 5.53683 5.33023
#
# Compressibility (1/GPa) = 0.05514389
#
# Stress axis : x y z
#
# Youngs Moduli (GPa) = 39.75712 42.34006 49.39641
#
# Poissons Ratio (x) = -0.02942 0.18885
# Poissons Ratio (y) = -0.02763 0.18807
# Poissons Ratio (z) = 0.15200 0.16121
#
# Static dielectric constant tensor:
#      x y z
#    x 1.585070 0.000000 0.001100 
#    y 0.000000 1.577720 0.000000 
#    z 0.001100 0.000000 1.588650 
# 
# From -- ./inp_files/52873.got.cif
#   From: 2010.05.17/outbox.cif.g08.bks.cpg/sg13_27_cif.got.tgz:52873.got - 2010.06.03 16:44:36.
