data_PCOD9228313
_publ_section_title
;
Structure prediction by ZEFSAII (Michael W. Deem and Ramdas Pophale) SiO2 
 PCOD9228313
Probable space group: P 2/C
;
_chemical_formula_sum "Si O2"
_cell_formula_units_Z 22
_cell_length_a 12.299545
_cell_length_b 13.236410
_cell_length_c 16.139864
_cell_angle_alpha 90.000000
_cell_angle_beta 155.246051
_cell_angle_gamma 90.000000
_cell_volume 1100.234473
_symmetry_space_group_name_H-M "P 2/C"
_symmetry_group_IT_number 13
_symmetry_cell_setting 'monoclinic'
loop_
_space_group_symop_operation_xyz
x,y,z
-x,y,1/2-z
-x,-y,-z
x,-y,1/2+z
loop_
_atom_site_type_symbol
_atom_site_label
_atom_site_fract_x
_atom_site_fract_y
_atom_site_fract_z
Si Si1 0.343163 0.933180 0.459425
Si Si2 0.349141 0.874007 0.061233
Si Si3 0.000000 0.284008 0.250000
Si Si4 0.647558 0.244253 0.264748
Si Si5 0.458839 0.618596 0.963357
Si Si6 0.184518 0.783692 0.224007
O O1 0.530472 0.853234 0.635871
O O2 0.142821 0.863693 0.269263
O O3 0.500000 0.000000 0.500000
O O4 0.256846 0.018162 0.464487
O O5 0.500000 0.887532 0.250000
O O6 0.564201 0.826908 0.149012
O O7 0.119177 0.792467 0.901039
O O8 0.224271 0.348510 0.362148
O O9 0.500000 0.259417 0.250000
O O10 0.610523 0.337537 0.175686
O O11 0.943959 0.226363 0.496684
O O12 0.500000 0.500000 0.000000
O O13 0.719373 0.677973 0.171581
#
# Coordination Sequence:
#
# PCOD9228313 Si02
#       6
#     4   4   2   4   4   4
#     4   9  20  35  55  85 121 164 204 245 299 361
#     4  10  19  33  57  85 116 156 198 244 297 356
#     4  10  22  40  62  90 122 154 202 258 308 370
#     4  11  23  39  59  88 125 163 206 255 308 369
#     4  10  23  43  66  90 119 159 205 259 318 372
#     4   9  21  39  55  83 122 155 199 251 300 360
#
# _framework density 19.995736999999998
#
# number of rings (size 3 to 8) (size 9 to 14) (size 15 to 20)
#    0.000    2.182    0.000    2.727    0.000   10.909 
#    0.000    3.636    0.000    0.000    0.000    0.000 
#    0.000    0.000    0.000    0.000    0.000    0.000 
#
# Total GULP energy -122831.570971 kJ/mol
# GULP energy per Si atom -5583.253226 kJ/mol
# Density = 1.995023 g / cm^3
# Si number density = 19.995737 Si / 1000 Ang^3
#
#
#
# Elastic Constant Matrix: (Units=GPa)
#
#
# Indices 1 2 3 4 5 6 
#
# 1 74.0540 55.7241 19.5077 0.0000 -17.5565 0.0000
# 2 55.7241 202.8182 80.7835 0.0000 -17.2675 0.0000
# 3 19.5077 80.7835 146.5670 0.0000 -23.0457 0.0000
# 4 0.0000 0.0000 0.0000 15.6131 0.0000 7.6585
# 5 -17.5565 -17.2675 -23.0457 0.0000 36.9539 0.0000
# 6 0.0000 0.0000 0.0000 7.6585 0.0000 16.4726
#
#
#
# Elastic Compliance Matrix: (Units=1/GPa)
#
#
# Indices 1 2 3 4 5 6 
#
# 1 0.018713 -0.005102 0.001491 0.000000 0.007436 0.000000
# 2 -0.005102 0.007734 -0.003766 0.000000 -0.001159 0.000000
# 3 0.001491 -0.003766 0.009462 0.000000 0.004850 0.000000
# 4 0.000000 0.000000 0.000000 0.082971 0.000000 -0.038575
# 5 0.007436 -0.001159 0.004850 0.000000 0.033077 0.000000
# 6 0.000000 0.000000 0.000000 -0.038575 0.000000 0.078642
#
#
# Mechanical properties :
#
#
# Convention : Reuss Voigt Hill
#
# Bulk Modulus (GPa) = 47.27001 81.71888 64.49444
# Shear Modulus (GPa) = 19.80954 31.63616 25.72285
#
# Velocity S-wave (km/s) = 3.15093 3.98193 3.59056
# Velocity P-wave (km/s) = 6.07694 7.88022 7.03659
#
# Compressibility (1/GPa) = 0.02115506
#
# Stress axis : x y z
#
# Youngs Moduli (GPa) = 53.43854 129.30714 105.68060
#
# Poissons Ratio (x) = 0.65973 -0.15753
# Poissons Ratio (y) = 0.27265 0.39795
# Poissons Ratio (z) = -0.07966 0.48692
#
# Static dielectric constant tensor:
#      x y z
#    x 1.622090 0.000000 0.123780 
#    y 0.000000 1.675800 0.000000 
#    z 0.123780 0.000000 1.661860 
# 
# From -- ./inp_files/68621.got.cif
#   From: 2010.05.17/outbox.cif.g08.bks.cpg/sg13_35_cif.got.tgz:68621.got - 2010.06.03 16:44:36.
