data_PCOD9228805
_publ_section_title
;
Structure prediction by ZEFSAII (Michael W. Deem and Ramdas Pophale) SiO2 
 PCOD9228805
Probable space group: P 2/C
;
_chemical_formula_sum "Si O2"
_cell_formula_units_Z 24
_cell_length_a 9.430847
_cell_length_b 9.800516
_cell_length_c 11.423018
_cell_angle_alpha 90.000000
_cell_angle_beta 125.760303
_cell_angle_gamma 90.000000
_cell_volume 856.746594
_symmetry_space_group_name_H-M "P 2/C"
_symmetry_group_IT_number 13
_symmetry_cell_setting 'monoclinic'
loop_
_space_group_symop_operation_xyz
x,y,z
-x,y,1/2-z
-x,-y,-z
x,-y,1/2+z
loop_
_atom_site_type_symbol
_atom_site_label
_atom_site_fract_x
_atom_site_fract_y
_atom_site_fract_z
Si Si1 0.363787 0.606765 0.083569
Si Si2 0.212249 0.978544 0.573367
Si Si3 0.153543 0.633694 0.178626
Si Si4 0.188926 0.035326 0.306061
Si Si5 0.818288 0.657026 0.722799
Si Si6 0.251863 0.690445 0.477070
O O1 0.500000 0.641172 0.250000
O O2 0.193311 0.671206 0.065102
O O3 0.346857 0.658781 0.944258
O O4 0.358235 0.443485 0.062607
O O5 0.283994 0.024734 0.736166
O O6 0.277613 0.826381 0.564974
O O7 0.262823 0.049975 0.473502
O O8 0.000000 0.000000 0.500000
O O9 0.206978 0.473493 0.208187
O O10 0.253385 0.703150 0.335987
O O11 0.950480 0.653682 0.098522
O O12 0.154298 0.185894 0.236466
O O13 0.000000 0.967989 0.250000
O O14 0.000000 0.614654 0.750000
#
# Coordination Sequence:
#
# PCOD9228805 Si02
#       6
#     4   4   4   4   4   4
#     4  11  23  36  59  92 127 168 208 257 320 386
#     4  10  21  34  54  90 124 160 206 267 316 366
#     4  10  20  34  60  84 124 158 206 257 310 383
#     4   9  20  31  53  81 126 156 202 259 311 368
#     4  10  19  36  54  90 119 162 198 255 324 368
#     4  10  21  35  59  89 122 164 206 264 319 371
#
# _framework density 28.01295
#
# number of rings (size 3 to 8) (size 9 to 14) (size 15 to 20)
#    0.000    2.000    3.333    1.500   14.000    2.667 
#    0.000    0.000    0.000    1.000    0.000    4.667 
#    0.000    0.000    0.000    0.000    0.000    0.000 
#
# Total GULP energy -133790.356616 kJ/mol
# GULP energy per Si atom -5574.598192 kJ/mol
# Density = 2.794919 g / cm^3
# Si number density = 28.012950 Si / 1000 Ang^3
#
#
#
# Elastic Constant Matrix: (Units=GPa)
#
#
# Indices 1 2 3 4 5 6 
#
# 1 54.4018 -6.6985 38.2727 0.0000 -26.6843 0.0000
# 2 -6.6985 95.3758 9.4370 0.0000 -11.2014 0.0000
# 3 38.2727 9.4370 154.1161 0.0000 -41.8204 0.0000
# 4 0.0000 0.0000 0.0000 31.4973 0.0000 -24.7191
# 5 -26.6843 -11.2014 -41.8204 0.0000 70.2364 0.0000
# 6 0.0000 0.0000 0.0000 -24.7191 0.0000 -21.2240
#
#
#
# Elastic Compliance Matrix: (Units=1/GPa)
#
#
# Indices 1 2 3 4 5 6 
#
# 1 0.025649 0.003135 -0.004510 0.000000 0.007559 0.000000
# 2 0.003135 0.011075 -0.000780 0.000000 0.002493 0.000000
# 3 -0.004510 -0.000780 0.008537 0.000000 0.003245 0.000000
# 4 0.000000 0.000000 0.000000 0.016587 0.000000 -0.019319
# 5 0.007559 0.002493 0.003245 0.000000 0.019439 0.000000
# 6 0.000000 0.000000 0.000000 -0.019319 0.000000 -0.024616
#
#
# Mechanical properties :
#
#
# Convention : Reuss Voigt Hill
#
# Bulk Modulus (GPa) = 24.41993 42.87958 33.64976
# Shear Modulus (GPa) = 66.99576 33.62743 50.31160
#
# Velocity S-wave (km/s) = 4.89570 3.46847 4.24254
# Velocity P-wave (km/s) = 6.37915 5.60185 6.00309
#
# Compressibility (1/GPa) = 0.04095016
#
# Stress axis : x y z
#
# Youngs Moduli (GPa) = 38.98851 90.29324 117.13626
#
# Poissons Ratio (x) = -0.28311 0.52832
# Poissons Ratio (y) = -0.12224 0.09141
# Poissons Ratio (z) = 0.17585 0.07046
#
# Static dielectric constant tensor:
#      x y z
#    x 2.322820 0.000000 -0.016120 
#    y 0.000000 2.279130 0.000000 
#    z -0.016120 0.000000 2.308410 
# 
# From -- ./inp_files/33363.got.cif
#   From: 2010.05.17/outbox.cif.g08.bks.cpg/sg13_17_cif.got.tgz:33363.got - 2010.06.03 16:44:36.
