data_PCOD9228236
_publ_section_title
;
Structure prediction by ZEFSAII (Michael W. Deem and Ramdas Pophale) SiO2 
 PCOD9228236
Probable space group: P 2/C
;
_chemical_formula_sum "Si O2"
_cell_formula_units_Z 32
_cell_length_a 5.105051
_cell_length_b 18.597862
_cell_length_c 19.899666
_cell_angle_alpha 90.000000
_cell_angle_beta 61.268561
_cell_angle_gamma 90.000000
_cell_volume 1656.724555
_symmetry_space_group_name_H-M "P 2/C"
_symmetry_group_IT_number 13
_symmetry_cell_setting 'monoclinic'
loop_
_space_group_symop_operation_xyz
x,y,z
-x,y,1/2-z
-x,-y,-z
x,-y,1/2+z
loop_
_atom_site_type_symbol
_atom_site_label
_atom_site_fract_x
_atom_site_fract_y
_atom_site_fract_z
Si Si1 0.677091 0.311983 0.074907
Si Si2 0.848783 0.221401 0.562992
Si Si3 0.861521 0.489985 0.697385
Si Si4 0.993426 0.340547 0.330239
Si Si5 0.820522 0.770140 0.336289
Si Si6 0.160100 0.053268 0.930431
Si Si7 0.816688 0.060175 0.833715
Si Si8 0.197311 0.454629 0.526046
O O1 0.321745 0.305664 0.109084
O O2 0.759446 0.320049 0.144081
O O3 0.743209 0.382246 0.021838
O O4 0.904143 0.254284 0.016530
O O5 0.515028 0.255746 0.604002
O O6 0.829751 0.136570 0.548095
O O7 0.973872 0.231291 0.623230
O O8 0.500000 0.491137 0.750000
O O9 0.000000 0.463516 0.750000
O O10 0.984244 0.571910 0.671547
O O11 0.003642 0.446154 0.617963
O O12 0.000000 0.322059 0.250000
O O13 0.767723 0.854679 0.325236
O O14 0.000000 0.738739 0.250000
O O15 0.495295 0.026479 0.880295
O O16 0.996322 0.053994 0.879680
O O17 0.000000 0.000000 0.000000
O O18 0.000000 0.028622 0.750000
O O19 0.500000 0.500000 0.500000
O O20 0.000000 0.500000 0.500000
#
# Coordination Sequence:
#
# PCOD9228236 Si02
#       8
#     4   4   4   4   4   4   4   4
#     4  12  22  39  58  84 113 144 182 232 277 337
#     4  10  21  34  55  83 111 149 187 227 279 333
#     4  11  21  36  57  82 111 140 180 226 274 327
#     4  11  22  37  61  83 106 141 190 235 275 319
#     4   9  17  33  54  79 108 145 186 226 264 326
#     4  10  19  33  54  80 111 145 186 232 281 327
#     4   9  17  30  52  79 107 138 185 232 271 323
#     4  12  22  38  57  83 110 143 179 226 281 324
#
# _framework density 19.31522
#
# number of rings (size 3 to 8) (size 9 to 14) (size 15 to 20)
#    0.000    1.500    2.500    4.500    0.000    3.000 
#    0.000    1.875    0.000    4.500    0.000    0.000 
#    0.000    0.000    0.000    0.000    0.000    0.000 
#
# Total GULP energy -178440.760773 kJ/mol
# GULP energy per Si atom -5576.273774 kJ/mol
# Density = 1.927126 g / cm^3
# Si number density = 19.315220 Si / 1000 Ang^3
#
#
#
# Elastic Constant Matrix: (Units=GPa)
#
#
# Indices 1 2 3 4 5 6 
#
# 1 108.7471 11.2517 23.7485 0.0000 -26.7652 0.0000
# 2 11.2517 30.7955 19.8120 0.0000 -5.9869 0.0000
# 3 23.7485 19.8120 95.7106 0.0000 -13.8419 0.0000
# 4 0.0000 0.0000 0.0000 23.5335 0.0000 -4.8356
# 5 -26.7652 -5.9869 -13.8419 0.0000 40.9627 0.0000
# 6 0.0000 0.0000 0.0000 -4.8356 0.0000 13.5058
#
#
#
# Elastic Compliance Matrix: (Units=1/GPa)
#
#
# Indices 1 2 3 4 5 6 
#
# 1 0.011347 -0.001917 -0.001458 0.000000 0.006641 0.000000
# 2 -0.001917 0.038139 -0.007143 0.000000 0.001908 0.000000
# 3 -0.001458 -0.007143 0.012616 0.000000 0.002266 0.000000
# 4 0.000000 0.000000 0.000000 0.045867 0.000000 0.016422
# 5 0.006641 0.001908 0.002266 0.000000 0.029797 0.000000
# 6 0.000000 0.000000 0.000000 0.016422 0.000000 0.079922
#
#
# Mechanical properties :
#
#
# Convention : Reuss Voigt Hill
#
# Bulk Modulus (GPa) = 24.35089 38.31974 31.33531
# Shear Modulus (GPa) = 19.80881 27.62980 23.71930
#
# Velocity S-wave (km/s) = 3.20590 3.78626 3.50810
# Velocity P-wave (km/s) = 5.13208 6.24472 5.71554
#
# Compressibility (1/GPa) = 0.04106626
#
# Stress axis : x y z
#
# Youngs Moduli (GPa) = 88.12911 26.21990 79.26181
#
# Poissons Ratio (x) = 0.05025 0.11559
# Poissons Ratio (y) = 0.16890 0.56618
# Poissons Ratio (z) = 0.12852 0.18729
#
# Static dielectric constant tensor:
#      x y z
#    x 1.663990 0.000000 -0.001180 
#    y 0.000000 -2.753550 0.000000 
#    z -0.001180 0.000000 1.600450 
# 
# From -- ./inp_files/61839.got.cif
#   From: 2010.05.17/outbox.cif.g08.bks.cpg/sg13_31_cif.got.tgz:61839.got - 2010.06.03 16:44:36.
