data_PCOD9228407
_publ_section_title
;
Structure prediction by ZEFSAII (Michael W. Deem and Ramdas Pophale) SiO2 
 PCOD9228407
Probable space group: P 2/C
;
_chemical_formula_sum "Si O2"
_cell_formula_units_Z 24
_cell_length_a 13.529380
_cell_length_b 5.024573
_cell_length_c 20.242008
_cell_angle_alpha 90.000000
_cell_angle_beta 61.096746
_cell_angle_gamma 90.000000
_cell_volume 1204.635297
_symmetry_space_group_name_H-M "P 2/C"
_symmetry_group_IT_number 13
_symmetry_cell_setting 'monoclinic'
loop_
_space_group_symop_operation_xyz
x,y,z
-x,y,1/2-z
-x,-y,-z
x,-y,1/2+z
loop_
_atom_site_type_symbol
_atom_site_label
_atom_site_fract_x
_atom_site_fract_y
_atom_site_fract_z
Si Si1 0.096960 0.604640 0.905715
Si Si2 0.126703 0.748609 0.177642
Si Si3 0.190481 0.095219 0.933168
Si Si4 0.133146 0.255465 0.086961
Si Si5 0.285978 0.539502 0.732668
Si Si6 0.381173 0.953816 0.257922
O O1 0.098578 0.307824 0.934648
O O2 0.191109 0.580120 0.819038
O O3 0.991711 0.744583 0.904648
O O4 0.140737 0.800508 0.948201
O O5 0.139492 0.553286 0.111485
O O6 0.217585 0.620168 0.198368
O O7 0.000000 0.730714 0.250000
O O8 0.142827 0.047086 0.144430
O O9 0.292652 0.078915 0.847628
O O10 0.215378 0.184450 0.999742
O O11 0.382387 0.336818 0.725149
O O12 0.339337 0.834292 0.716134
O O13 0.500000 0.035230 0.250000
#
# Coordination Sequence:
#
# PCOD9228407 Si02
#       6
#     4   4   4   4   4   4
#     4  10  19  34  54  80 114 150 185 235 276 338
#     4  12  24  36  55  81 122 162 188 217 266 353
#     4  10  21  35  55  84 113 144 192 239 288 330
#     4  12  22  34  55  80 120 158 187 222 278 341
#     4  10  21  37  57  85 114 145 194 235 279 338
#     4  10  21  39  65  84 106 143 192 254 297 325
#
# _framework density 19.923041000000001
#
# number of rings (size 3 to 8) (size 9 to 14) (size 15 to 20)
#    0.000    1.333    1.667    5.000    4.667    0.000 
#    0.000    0.000    0.000    6.000    0.000    0.000 
#    0.000    0.000    0.000    0.000    0.000    0.000 
#
# Total GULP energy -133704.953513 kJ/mol
# GULP energy per Si atom -5571.039730 kJ/mol
# Density = 1.987770 g / cm^3
# Si number density = 19.923041 Si / 1000 Ang^3
#
#
#
# Elastic Constant Matrix: (Units=GPa)
#
#
# Indices 1 2 3 4 5 6 
#
# 1 41.9247 16.7037 8.0721 0.0000 1.6359 0.0000
# 2 16.7037 93.9441 14.6204 0.0000 -6.3057 0.0000
# 3 8.0721 14.6204 39.4991 0.0000 6.6345 0.0000
# 4 0.0000 0.0000 0.0000 16.1546 0.0000 8.4440
# 5 1.6359 -6.3057 6.6345 0.0000 15.8465 0.0000
# 6 0.0000 0.0000 0.0000 8.4440 0.0000 25.6196
#
#
#
# Elastic Compliance Matrix: (Units=1/GPa)
#
#
# Indices 1 2 3 4 5 6 
#
# 1 0.026346 -0.004390 -0.003237 0.000000 -0.003111 0.000000
# 2 -0.004390 0.012733 -0.005102 0.000000 0.007656 0.000000
# 3 -0.003237 -0.005102 0.030281 0.000000 -0.014374 0.000000
# 4 0.000000 0.000000 0.000000 0.074786 0.000000 -0.024649
# 5 -0.003111 0.007656 -0.014374 0.000000 0.072491 0.000000
# 6 0.000000 0.000000 0.000000 -0.024649 0.000000 0.047156
#
#
# Mechanical properties :
#
#
# Convention : Reuss Voigt Hill
#
# Bulk Modulus (GPa) = 22.77708 28.24001 25.50854
# Shear Modulus (GPa) = 16.45362 20.58892 18.52127
#
# Velocity S-wave (km/s) = 2.87689 3.21818 3.05231
# Velocity P-wave (km/s) = 4.74265 5.29284 5.02528
#
# Compressibility (1/GPa) = 0.04390378
#
# Stress axis : x y z
#
# Youngs Moduli (GPa) = 37.95676 78.53614 33.02364
#
# Poissons Ratio (x) = 0.34474 0.10689
# Poissons Ratio (y) = 0.16661 0.16848
# Poissons Ratio (z) = 0.12285 0.40069
#
# Static dielectric constant tensor:
#      x y z
#    x 1.759490 0.000000 0.034480 
#    y 0.000000 1.707540 0.000000 
#    z 0.034480 0.000000 1.738280 
# 
# From -- ./inp_files/76989.got.cif
#   From: 2010.05.17/outbox.cif.g08.bks.cpg/sg13_39_cif.got.tgz:76989.got - 2010.06.03 16:44:36.
