data_PCOD9228257
_publ_section_title
;
Structure prediction by ZEFSAII (Michael W. Deem and Ramdas Pophale) SiO2 
 PCOD9228257
Probable space group: P 2/C
;
_chemical_formula_sum "Si O2"
_cell_formula_units_Z 32
_cell_length_a 17.341430
_cell_length_b 14.962138
_cell_length_c 16.513709
_cell_angle_alpha 90.000000
_cell_angle_beta 17.665896
_cell_angle_gamma 90.000000
_cell_volume 1300.268883
_symmetry_space_group_name_H-M "P 2/C"
_symmetry_group_IT_number 13
_symmetry_cell_setting 'monoclinic'
loop_
_space_group_symop_operation_xyz
x,y,z
-x,y,1/2-z
-x,-y,-z
x,-y,1/2+z
loop_
_atom_site_type_symbol
_atom_site_label
_atom_site_fract_x
_atom_site_fract_y
_atom_site_fract_z
Si Si1 0.887905 0.318400 0.948967
Si Si2 0.051361 0.029997 0.793264
Si Si3 0.394895 0.527387 0.517830
Si Si4 0.526645 0.239840 0.910539
Si Si5 0.035270 0.185204 0.309970
Si Si6 0.615922 0.325641 0.974079
Si Si7 0.895508 0.534999 0.942663
Si Si8 0.456054 0.080050 0.106919
O O1 0.863471 0.426783 0.977701
O O2 0.000000 0.294165 0.750000
O O3 0.101407 0.287488 0.799276
O O4 0.608795 0.282936 0.248152
O O5 0.000000 0.044704 0.750000
O O6 0.319556 0.070399 0.552223
O O7 0.056363 0.922214 0.802294
O O8 0.819223 0.069763 0.077317
O O9 0.500000 0.500000 0.500000
O O10 0.356662 0.426312 0.519898
O O11 0.109533 0.564103 0.793863
O O12 0.616156 0.571266 0.242517
O O13 0.789705 0.221589 0.602456
O O14 0.531019 0.325019 0.965406
O O15 0.488772 0.165648 0.018155
O O16 0.290920 0.230699 0.086656
O O17 0.000000 0.199928 0.250000
O O18 0.000000 0.559594 0.750000
O O19 0.500000 0.000000 0.000000
#
# Coordination Sequence:
#
# PCOD9228257 Si02
#       8
#     4   4   4   4   4   4   4   4
#     4   9  17  33  54  76 105 143 178 214 252 311
#     4  11  22  38  57  82 111 141 180 223 264 318
#     4  10  19  33  55  78 107 141 178 220 268 311
#     4  12  23  37  58  82 110 140 176 224 268 321
#     4  11  22  38  60  82 102 139 185 226 265 309
#     4  10  21  35  52  82 109 141 180 217 264 317
#     4   9  17  30  52  79 105 133 178 221 257 309
#     4  12  21  37  57  82 108 139 176 221 273 311
#
# _framework density 24.610295000000001
#
# number of rings (size 3 to 8) (size 9 to 14) (size 15 to 20)
#    0.000    1.500    2.500    3.750    0.000    5.000 
#    0.000    3.750    0.000    4.500    0.000    0.000 
#    0.000    0.000    0.000    0.000    0.000    0.000 
#
# Total GULP energy -179089.767750 kJ/mol
# GULP energy per Si atom -5596.555242 kJ/mol
# Density = 2.455428 g / cm^3
# Si number density = 24.610295 Si / 1000 Ang^3
#
#
#
# Elastic Constant Matrix: (Units=GPa)
#
#
# Indices 1 2 3 4 5 6 
#
# 1 90.9749 -0.6543 22.1967 0.0000 -18.0300 0.0000
# 2 -0.6543 66.1087 1.8208 0.0000 0.4481 0.0000
# 3 22.1967 1.8208 134.7041 0.0000 -7.6699 0.0000
# 4 0.0000 0.0000 0.0000 17.8121 0.0000 0.9649
# 5 -18.0300 0.4481 -7.6699 0.0000 55.2037 0.0000
# 6 0.0000 0.0000 0.0000 0.9649 0.0000 26.5686
#
#
#
# Elastic Compliance Matrix: (Units=1/GPa)
#
#
# Indices 1 2 3 4 5 6 
#
# 1 0.012169 0.000145 -0.001795 0.000000 0.003724 0.000000
# 2 0.000145 0.015135 -0.000235 0.000000 -0.000108 0.000000
# 3 -0.001795 -0.000235 0.007751 0.000000 0.000492 0.000000
# 4 0.000000 0.000000 0.000000 0.056252 0.000000 -0.002043
# 5 0.003724 -0.000108 0.000492 0.000000 0.019400 0.000000
# 6 0.000000 0.000000 0.000000 -0.002043 0.000000 0.037713
#
#
# Mechanical properties :
#
#
# Convention : Reuss Voigt Hill
#
# Bulk Modulus (GPa) = 31.96434 37.61267 34.78851
# Shear Modulus (GPa) = 30.74676 37.81184 34.27930
#
# Velocity S-wave (km/s) = 3.53844 3.92398 3.73619
# Velocity P-wave (km/s) = 5.45073 5.98720 5.72526
#
# Compressibility (1/GPa) = 0.03128486
#
# Stress axis : x y z
#
# Youngs Moduli (GPa) = 82.17518 66.07104 129.02062
#
# Poissons Ratio (x) = -0.00956 0.23161
# Poissons Ratio (y) = -0.01189 0.03027
# Poissons Ratio (z) = 0.14752 0.01550
#
# Static dielectric constant tensor:
#      x y z
#    x 1.936200 0.000000 -0.018660 
#    y 0.000000 2.173340 0.000000 
#    z -0.018660 0.000000 1.906710 
# 
# From -- ./inp_files/53990.got.cif
#   From: 2010.05.17/outbox.cif.g08.bks.cpg/sg13_27_cif.got.tgz:53990.got - 2010.06.03 16:44:36.
