data_PCOD9228492
_publ_section_title
;
Structure prediction by ZEFSAII (Michael W. Deem and Ramdas Pophale) SiO2 
 PCOD9228492
Probable space group: P 2/C
;
_chemical_formula_sum "Si O2"
_cell_formula_units_Z 28
_cell_length_a 12.974901
_cell_length_b 15.085137
_cell_length_c 9.119075
_cell_angle_alpha 90.000000
_cell_angle_beta 131.360058
_cell_angle_gamma 90.000000
_cell_volume 1339.665585
_symmetry_space_group_name_H-M "P 2/C"
_symmetry_group_IT_number 13
_symmetry_cell_setting 'monoclinic'
loop_
_space_group_symop_operation_xyz
x,y,z
-x,y,1/2-z
-x,-y,-z
x,-y,1/2+z
loop_
_atom_site_type_symbol
_atom_site_label
_atom_site_fract_x
_atom_site_fract_y
_atom_site_fract_z
Si Si1 0.073714 0.123151 0.666720
Si Si2 0.148612 0.214488 0.463278
Si Si3 0.532896 0.909441 0.610662
Si Si4 0.470622 0.277998 0.050755
Si Si5 0.646248 0.357094 0.972891
Si Si6 0.602466 0.542828 0.979798
Si Si7 0.186148 0.066228 0.270244
O O1 0.139825 0.199745 0.629538
O O2 0.000000 0.147566 0.750000
O O3 0.954230 0.090486 0.444000
O O4 0.175534 0.039396 0.787975
O O5 0.251737 0.290924 0.510734
O O6 0.193973 0.121439 0.428654
O O7 0.000000 0.234318 0.250000
O O8 0.500000 0.921238 0.750000
O O9 0.454476 0.821946 0.477218
O O10 0.693352 0.899954 0.722282
O O11 0.500000 0.000000 0.500000
O O12 0.500000 0.262475 0.250000
O O13 0.359164 0.357886 0.934751
O O14 0.603500 0.317324 0.090726
O O15 0.500000 0.358975 0.750000
O O16 0.698344 0.459248 0.031919
O O17 0.500000 0.559613 0.750000
O O18 0.500000 0.500000 0.000000
#
# Coordination Sequence:
#
# PCOD9228492 Si02
#       7
#     4   4   4   4   4   4   4
#     4  10  21  36  59  74  97 153 216 244 272 339
#     4  10  21  38  56  79 116 154 197 243 293 350
#     4  11  25  36  51  81 125 158 189 232 298 339
#     4   9  18  36  53  80 114 153 193 228 281 348
#     4  10  19  34  57  90 118 144 186 244 299 346
#     4   8  15  29  55  81 108 138 185 229 276 339
#     4  10  20  38  54  73 107 156 203 238 277 344
#
# _framework density 20.900736999999999
#
# number of rings (size 3 to 8) (size 9 to 14) (size 15 to 20)
#    0.000    2.286    1.429    2.143    4.000    1.714 
#    2.571    0.000    0.000    0.000    0.000   36.000 
#    8.571    0.000    0.000    0.000    0.000    0.000 
#
# Total GULP energy -156008.649635 kJ/mol
# GULP energy per Si atom -5571.737487 kJ/mol
# Density = 2.085317 g / cm^3
# Si number density = 20.900737 Si / 1000 Ang^3
#
#
#
# Elastic Constant Matrix: (Units=GPa)
#
#
# Indices 1 2 3 4 5 6 
#
# 1 125.6573 55.4711 28.8815 0.0000 -24.5095 0.0000
# 2 55.4711 210.0399 29.0402 0.0000 -5.9490 0.0000
# 3 28.8815 29.0402 32.1314 0.0000 -13.7844 0.0000
# 4 0.0000 0.0000 0.0000 21.1657 0.0000 -6.3317
# 5 -24.5095 -5.9490 -13.7844 0.0000 40.9732 0.0000
# 6 0.0000 0.0000 0.0000 -6.3317 0.0000 27.0130
#
#
#
# Elastic Compliance Matrix: (Units=1/GPa)
#
#
# Indices 1 2 3 4 5 6 
#
# 1 0.011107 -0.001923 -0.006445 0.000000 0.004197 0.000000
# 2 -0.001923 0.005810 -0.004270 0.000000 -0.001744 0.000000
# 3 -0.006445 -0.004270 0.045408 0.000000 0.010801 0.000000
# 4 0.000000 0.000000 0.000000 0.050809 0.000000 0.011909
# 5 0.004197 -0.001744 0.010801 0.000000 0.030297 0.000000
# 6 0.000000 0.000000 0.000000 0.011909 0.000000 0.039811
#
#
# Mechanical properties :
#
#
# Convention : Reuss Voigt Hill
#
# Bulk Modulus (GPa) = 26.99178 66.06826 46.53002
# Shear Modulus (GPa) = 22.63787 34.79276 28.71532
#
# Velocity S-wave (km/s) = 3.29464 4.08446 3.71062
# Velocity P-wave (km/s) = 5.23595 7.34322 6.37723
#
# Compressibility (1/GPa) = 0.03704832
#
# Stress axis : x y z
#
# Youngs Moduli (GPa) = 90.03230 172.11756 22.02238
#
# Poissons Ratio (x) = 0.33105 0.14193
# Poissons Ratio (y) = 0.17317 0.09404
# Poissons Ratio (z) = 0.58026 0.73497
#
# Static dielectric constant tensor:
#      x y z
#    x 1.785370 0.000000 0.040710 
#    y 0.000000 1.860200 0.000000 
#    z 0.040710 0.000000 1.777540 
# 
# From -- ./inp_files/16873.got.cif
#   From: 2010.05.17/outbox.cif.g08.bks.cpg/sg13_9_cif.got.tgz:16873.got - 2010.06.03 16:44:36.
