data_PCOD9228018
_publ_section_title
;
Structure prediction by ZEFSAII (Michael W. Deem and Ramdas Pophale) SiO2 
 PCOD9228018
Probable space group: P 2/C
;
_chemical_formula_sum "Si O2"
_cell_formula_units_Z 24
_cell_length_a 17.521150
_cell_length_b 9.041884
_cell_length_c 19.619076
_cell_angle_alpha 90.000000
_cell_angle_beta 21.852641
_cell_angle_gamma 90.000000
_cell_volume 1156.912860
_symmetry_space_group_name_H-M "P 2/C"
_symmetry_group_IT_number 13
_symmetry_cell_setting 'monoclinic'
loop_
_space_group_symop_operation_xyz
x,y,z
-x,y,1/2-z
-x,-y,-z
x,-y,1/2+z
loop_
_atom_site_type_symbol
_atom_site_label
_atom_site_fract_x
_atom_site_fract_y
_atom_site_fract_z
Si Si1 0.259090 0.623145 0.140889
Si Si2 0.890185 0.897947 0.663954
Si Si3 0.090111 0.641014 0.964282
Si Si4 0.490679 0.242168 0.338083
Si Si5 0.678139 0.065246 0.724360
Si Si6 0.577066 0.295692 0.498246
O O1 0.430907 0.676793 0.053587
O O2 0.044724 0.652334 0.355979
O O3 0.290074 0.709240 0.045043
O O4 0.307257 0.450433 0.086855
O O5 0.928560 0.773773 0.573991
O O6 0.121835 0.940140 0.490092
O O7 0.765217 0.024427 0.727849
O O8 0.747318 0.826342 0.838527
O O9 0.329603 0.647800 0.783332
O O10 0.000000 0.500000 0.000000
O O11 0.500000 0.253913 0.250000
O O12 0.540736 0.073698 0.317476
O O13 0.562675 0.221229 0.827327
#
# Coordination Sequence:
#
# PCOD9228018 Si02
#       6
#     4   4   4   4   4   4
#     4  11  21  34  61  92 122 157 195 254 309 360
#     4  10  19  31  56  93 117 146 186 247 302 347
#     4  11  19  37  64  95 122 148 200 258 307 361
#     4  11  26  43  58  84 124 170 206 244 309 378
#     4  10  21  34  57  85 122 156 193 245 296 357
#     4  11  19  33  60  95 120 144 199 258 310 350
#
# _framework density 20.744864
#
# number of rings (size 3 to 8) (size 9 to 14) (size 15 to 20)
#    0.000    1.333    6.667    1.500    0.000    0.667 
#    0.000    0.833    0.000    0.000    0.000    0.000 
#    0.000    0.000    0.000    0.000    0.000    0.000 
#
# Total GULP energy -133951.734023 kJ/mol
# GULP energy per Si atom -5581.322251 kJ/mol
# Density = 2.069765 g / cm^3
# Si number density = 20.744864 Si / 1000 Ang^3
#
#
#
# Elastic Constant Matrix: (Units=GPa)
#
#
# Indices 1 2 3 4 5 6 
#
# 1 21.4757 2.9381 1.2158 0.0000 14.7281 0.0000
# 2 2.9381 48.9685 -5.4378 0.0000 -8.2000 0.0000
# 3 1.2158 -5.4378 101.5828 0.0000 7.7417 0.0000
# 4 0.0000 0.0000 0.0000 42.0847 0.0000 3.0249
# 5 14.7281 -8.2000 7.7417 0.0000 16.6480 0.0000
# 6 0.0000 0.0000 0.0000 3.0249 0.0000 4.9696
#
#
#
# Elastic Compliance Matrix: (Units=1/GPa)
#
#
# Indices 1 2 3 4 5 6 
#
# 1 0.170915 -0.038441 0.009189 0.000000 -0.174411 0.000000
# 2 -0.038441 0.030916 -0.001697 0.000000 0.050025 0.000000
# 3 0.009189 -0.001697 0.010706 0.000000 -0.013944 0.000000
# 4 0.000000 0.000000 0.000000 0.024849 0.000000 -0.015125
# 5 -0.174411 0.050025 -0.013944 0.000000 0.245488 0.000000
# 6 0.000000 0.000000 0.000000 -0.015125 0.000000 0.210428
#
#
# Mechanical properties :
#
#
# Convention : Reuss Voigt Hill
#
# Bulk Modulus (GPa) = 6.63839 18.82879 12.73359
# Shear Modulus (GPa) = 6.20799 24.29453 15.25126
#
# Velocity S-wave (km/s) = 1.73177 3.42586 2.71437
# Velocity P-wave (km/s) = 2.68434 4.97441 3.99690
#
# Compressibility (1/GPa) = 0.15063884
#
# Stress axis : x y z
#
# Youngs Moduli (GPa) = 5.85086 32.34562 93.40542
#
# Poissons Ratio (x) = 1.24338 -0.85828
# Poissons Ratio (y) = 0.22491 0.15855
# Poissons Ratio (z) = -0.05376 0.05490
#
# Static dielectric constant tensor:
#      x y z
#    x 1.729020 0.000000 -0.022110 
#    y 0.000000 1.777880 0.000000 
#    z -0.022110 0.000000 1.801750 
# 
# From -- ./inp_files/81644.got.cif
#   From: 2010.05.17/outbox.cif.g08.bks.cpg/sg13_41_cif.got.tgz:81644.got - 2010.06.03 16:44:36.
