data_PCOD9228707
_publ_section_title
;
Structure prediction by ZEFSAII (Michael W. Deem and Ramdas Pophale) SiO2 
 PCOD9228707
Probable space group: P 2/C
;
_chemical_formula_sum "Si O2"
_cell_formula_units_Z 26
_cell_length_a 24.843640
_cell_length_b 8.138200
_cell_length_c 19.787889
_cell_angle_alpha 90.000000
_cell_angle_beta 163.008493
_cell_angle_gamma 90.000000
_cell_volume 1169.143372
_symmetry_space_group_name_H-M "P 2/C"
_symmetry_group_IT_number 13
_symmetry_cell_setting 'monoclinic'
loop_
_space_group_symop_operation_xyz
x,y,z
-x,y,1/2-z
-x,-y,-z
x,-y,1/2+z
loop_
_atom_site_type_symbol
_atom_site_label
_atom_site_fract_x
_atom_site_fract_y
_atom_site_fract_z
Si Si1 0.788878 0.559233 0.863973
Si Si2 0.100232 0.928802 0.011487
Si Si3 0.431456 0.765245 0.441844
Si Si4 0.583027 0.996713 0.951215
Si Si5 0.788673 0.051654 0.557113
Si Si6 0.886648 0.775516 0.869559
Si Si7 0.000000 0.351870 0.750000
O O1 0.643098 0.711083 0.695614
O O2 0.671998 0.397897 0.708145
O O3 0.892665 0.611073 0.920082
O O4 0.908477 0.553528 0.076370
O O5 0.014872 0.787042 0.957487
O O6 0.317740 0.902170 0.262426
O O7 0.977135 0.953032 0.798015
O O8 0.062855 0.086638 0.013961
O O9 0.397048 0.843381 0.474150
O O10 0.369825 0.025710 0.678990
O O11 0.688645 0.945026 0.009846
O O12 0.686751 0.158650 0.103920
O O13 0.848011 0.228743 0.599967
#
# Coordination Sequence:
#
# PCOD9228707 Si02
#       7
#     4   4   4   4   4   4   2
#     4  11  23  38  56  81 119 154 189 231 281 341
#     4   9  18  35  58  86 109 140 191 236 277 329
#     4  10  22  38  56  83 117 154 192 228 282 335
#     4   9  19  37  61  83 112 148 190 239 279 336
#     4  10  19  35  60  86 114 144 188 236 287 330
#     4   9  18  34  58  84 110 141 190 237 273 331
#     4  12  22  36  54  86 110 150 186 238 276 344
#
# _framework density 22.238503000000001
#
# number of rings (size 3 to 8) (size 9 to 14) (size 15 to 20)
#    0.000    2.154    3.077    0.923    0.000    4.308 
#    0.000    3.846    0.000    1.846    0.000    0.000 
#    0.000    0.000    0.000    0.000    0.000    0.000 
#
# Total GULP energy -144939.407494 kJ/mol
# GULP energy per Si atom -5574.592596 kJ/mol
# Density = 2.218789 g / cm^3
# Si number density = 22.238503 Si / 1000 Ang^3
#
#
#
# Elastic Constant Matrix: (Units=GPa)
#
#
# Indices 1 2 3 4 5 6 
#
# 1 103.6907 15.8998 30.8493 0.0000 -32.8238 0.0000
# 2 15.8998 36.4438 5.6446 0.0000 -13.9717 0.0000
# 3 30.8493 5.6446 182.6970 0.0000 -23.8944 0.0000
# 4 0.0000 0.0000 0.0000 33.8477 0.0000 4.5607
# 5 -32.8238 -13.9717 -23.8944 0.0000 35.8101 0.0000
# 6 0.0000 0.0000 0.0000 4.5607 0.0000 21.5708
#
#
#
# Elastic Compliance Matrix: (Units=1/GPa)
#
#
# Indices 1 2 3 4 5 6 
#
# 1 0.013741 -0.001463 -0.000770 0.000000 0.011511 0.000000
# 2 -0.001463 0.032506 0.000795 0.000000 0.011873 0.000000
# 3 -0.000770 0.000795 0.006056 0.000000 0.003646 0.000000
# 4 0.000000 0.000000 0.000000 0.030410 0.000000 -0.006430
# 5 0.011511 0.011873 0.003646 0.000000 0.045541 0.000000
# 6 0.000000 0.000000 0.000000 -0.006430 0.000000 0.047718
#
#
# Mechanical properties :
#
#
# Convention : Reuss Voigt Hill
#
# Bulk Modulus (GPa) = 20.23089 47.51320 33.87204
# Shear Modulus (GPa) = 25.59861 36.27492 30.93677
#
# Velocity S-wave (km/s) = 3.39646 4.04316 3.73384
# Velocity P-wave (km/s) = 4.94957 6.57327 5.81834
#
# Compressibility (1/GPa) = 0.04942936
#
# Stress axis : x y z
#
# Youngs Moduli (GPa) = 72.77383 30.76336 165.13321
#
# Poissons Ratio (x) = 0.04500 0.12708
# Poissons Ratio (y) = 0.10645 -0.13136
# Poissons Ratio (z) = 0.05601 -0.02447
#
# Static dielectric constant tensor:
#      x y z
#    x 1.874900 0.000000 0.047980 
#    y 0.000000 1.851680 0.000000 
#    z 0.047980 0.000000 1.896740 
# 
# From -- ./inp_files/71355.got.cif
#   From: 2010.05.17/outbox.cif.g08.bks.cpg/sg13_36_cif.got.tgz:71355.got - 2010.06.03 16:44:36.
