data_PCOD9228847
_publ_section_title
;
Structure prediction by ZEFSAII (Michael W. Deem and Ramdas Pophale) SiO2 
 PCOD9228847
Probable space group: P 2/C
;
_chemical_formula_sum "Si O2"
_cell_formula_units_Z 32
_cell_length_a 20.853346
_cell_length_b 9.714624
_cell_length_c 27.000261
_cell_angle_alpha 90.000000
_cell_angle_beta 18.031042
_cell_angle_gamma 90.000000
_cell_volume 1693.072541
_symmetry_space_group_name_H-M "P 2/C"
_symmetry_group_IT_number 13
_symmetry_cell_setting 'monoclinic'
loop_
_space_group_symop_operation_xyz
x,y,z
-x,y,1/2-z
-x,-y,-z
x,-y,1/2+z
loop_
_atom_site_type_symbol
_atom_site_label
_atom_site_fract_x
_atom_site_fract_y
_atom_site_fract_z
Si Si1 0.722188 0.865439 0.939759
Si Si2 0.368686 0.658355 0.413298
Si Si3 0.477327 0.354620 0.206877
Si Si4 0.101180 0.217918 0.429368
Si Si5 0.732171 0.048303 0.747184
Si Si6 0.050456 0.032650 0.320762
Si Si7 0.834578 0.845409 0.409683
Si Si8 0.803434 0.252427 0.559112
O O1 0.867005 0.875091 0.785233
O O2 0.765043 0.007845 0.937693
O O3 0.745359 0.733962 0.958075
O O4 0.483599 0.876645 0.100181
O O5 0.457954 0.507705 0.357191
O O6 0.231202 0.652696 0.464008
O O7 0.574486 0.750979 0.250822
O O8 0.500000 0.347515 0.250000
O O9 0.252529 0.314371 0.349987
O O10 0.643024 0.249398 0.062356
O O11 0.919845 0.149618 0.595084
O O12 0.977183 0.284042 0.473169
O O13 0.235693 0.088237 0.310031
O O14 0.761104 0.998252 0.781686
O O15 0.877521 0.109507 0.480391
O O16 0.957668 0.892082 0.367935
O O17 0.000000 0.782373 0.250000
#
# Coordination Sequence:
#
# PCOD9228847 Si02
#       8
#     4   4   4   4   4   4   4   4
#     4  11  20  39  62  88 118 155 199 246 301 362
#     4  11  23  40  60  88 119 159 205 248 293 361
#     4  12  24  41  59  89 121 160 206 246 303 361
#     4  10  21  35  62  90 123 156 196 255 309 350
#     4  10  19  36  57  94 119 152 196 248 309 354
#     4  10  21  35  64  90 116 153 204 249 297 357
#     4  10  22  39  57  86 118 155 194 249 302 350
#     4  10  20  40  59  86 119 154 204 246 293 357
#
# _framework density 18.900548000000001
#
# number of rings (size 3 to 8) (size 9 to 14) (size 15 to 20)
#    0.000    1.500    5.000    1.125    0.000    1.500 
#    2.250    0.000    0.000    3.000    0.000    0.000 
#    0.000    0.000    0.000    0.000    0.000    0.000 
#
# Total GULP energy -178472.266701 kJ/mol
# GULP energy per Si atom -5577.258334 kJ/mol
# Density = 1.885753 g / cm^3
# Si number density = 18.900548 Si / 1000 Ang^3
#
#
#
# Elastic Constant Matrix: (Units=GPa)
#
#
# Indices 1 2 3 4 5 6 
#
# 1 114.4617 45.0603 49.5746 0.0000 -5.4423 0.0000
# 2 45.0603 66.9693 37.1505 0.0000 -0.7460 0.0000
# 3 49.5746 37.1505 87.1979 0.0000 -8.7815 0.0000
# 4 0.0000 0.0000 0.0000 21.9835 0.0000 -4.6291
# 5 -5.4423 -0.7460 -8.7815 0.0000 25.3864 0.0000
# 6 0.0000 0.0000 0.0000 -4.6291 0.0000 19.3076
#
#
#
# Elastic Compliance Matrix: (Units=1/GPa)
#
#
# Indices 1 2 3 4 5 6 
#
# 1 0.013346 -0.006307 -0.004798 0.000000 0.001016 0.000000
# 2 -0.006307 0.022675 -0.006366 0.000000 -0.002888 0.000000
# 3 -0.004798 -0.006366 0.017392 0.000000 0.004800 0.000000
# 4 0.000000 0.000000 0.000000 0.047907 0.000000 0.011486
# 5 0.001016 -0.002888 0.004800 0.000000 0.041185 0.000000
# 6 0.000000 0.000000 0.000000 0.011486 0.000000 0.054547
#
#
# Mechanical properties :
#
#
# Convention : Reuss Voigt Hill
#
# Bulk Modulus (GPa) = 54.13933 59.13329 56.63631
# Shear Modulus (GPa) = 20.99522 22.45841 21.72681
#
# Velocity S-wave (km/s) = 3.33652 3.45083 3.39416
# Velocity P-wave (km/s) = 6.59922 6.87256 6.73727
#
# Compressibility (1/GPa) = 0.01847086
#
# Stress axis : x y z
#
# Youngs Moduli (GPa) = 74.93027 44.10170 57.49872
#
# Poissons Ratio (x) = 0.27813 0.27589
# Poissons Ratio (y) = 0.47256 0.36603
# Poissons Ratio (z) = 0.35953 0.28075
#
# Static dielectric constant tensor:
#      x y z
#    x 1.725580 0.000000 -0.009850 
#    y 0.000000 1.638990 0.000000 
#    z -0.009850 0.000000 1.660910 
# 
# From -- ./inp_files/93548.got.cif
#   From: 2010.05.17/outbox.cif.g08.bks.cpg/sg13_47_cif.got.tgz:93548.got - 2010.06.03 16:44:36.
