data_PCOD9228023
_publ_section_title
;
Structure prediction by ZEFSAII (Michael W. Deem and Ramdas Pophale) SiO2 
 PCOD9228023
Probable space group: P 2/C
;
_chemical_formula_sum "Si O2"
_cell_formula_units_Z 26
_cell_length_a 8.061804
_cell_length_b 9.582565
_cell_length_c 17.761430
_cell_angle_alpha 90.000000
_cell_angle_beta 84.599978
_cell_angle_gamma 90.000000
_cell_volume 1366.029940
_symmetry_space_group_name_H-M "P 2/C"
_symmetry_group_IT_number 13
_symmetry_cell_setting 'monoclinic'
loop_
_space_group_symop_operation_xyz
x,y,z
-x,y,1/2-z
-x,-y,-z
x,-y,1/2+z
loop_
_atom_site_type_symbol
_atom_site_label
_atom_site_fract_x
_atom_site_fract_y
_atom_site_fract_z
Si Si1 0.404699 0.631323 0.102618
Si Si2 0.500000 0.481913 0.250000
Si Si3 0.346746 0.659862 0.531253
Si Si4 0.253438 0.770112 0.783026
Si Si5 0.738619 0.084480 0.933615
Si Si6 0.905306 0.170531 0.370760
Si Si7 0.427791 0.110705 0.406903
O O1 0.439177 0.576955 0.184128
O O2 0.338589 0.499067 0.057860
O O3 0.280601 0.761013 0.098401
O O4 0.580873 0.671092 0.055524
O O5 0.650890 0.376901 0.222163
O O6 0.178546 0.739576 0.559308
O O7 0.488356 0.741255 0.573710
O O8 0.207540 0.811731 0.699979
O O9 0.366806 0.878032 0.824644
O O10 0.082918 0.772215 0.837938
O O11 0.889673 0.990026 0.897530
O O12 0.571023 0.002646 0.914127
O O13 0.717544 0.087678 0.025107
#
# Coordination Sequence:
#
# PCOD9228023 Si02
#       7
#     4   2   4   4   4   4   4
#     4  10  19  31  60  82 113 138 183 232 282 328
#     4  12  20  36  58  90 104 154 202 234 272 344
#     4   9  17  35  57  82 107 149 183 226 277 339
#     4  11  21  35  60  80 106 153 200 230 266 345
#     4   9  19  34  55  84 109 140 176 238 291 326
#     4  10  21  37  57  80 115 149 189 231 286 338
#     4   9  17  34  59  80 106 144 192 221 268 347
#
# _framework density 19.033256000000002
#
# number of rings (size 3 to 8) (size 9 to 14) (size 15 to 20)
#    0.000    2.154    3.077    1.846    0.000    1.846 
#    0.000    0.769   10.154    0.000    0.000    0.000 
#    0.000    0.000    0.000    0.000    0.000    0.000 
#
# Total GULP energy -144970.086948 kJ/mol
# GULP energy per Si atom -5575.772575 kJ/mol
# Density = 1.898994 g / cm^3
# Si number density = 19.033256 Si / 1000 Ang^3
#
#
#
# Elastic Constant Matrix: (Units=GPa)
#
#
# Indices 1 2 3 4 5 6 
#
# 1 54.9246 26.7477 24.9800 0.0000 -22.2050 0.0000
# 2 26.7477 116.5719 21.9424 0.0000 -16.2708 0.0000
# 3 24.9800 21.9424 71.2672 0.0000 -12.9402 0.0000
# 4 0.0000 0.0000 0.0000 32.7689 0.0000 -8.9734
# 5 -22.2050 -16.2708 -12.9402 0.0000 34.3287 0.0000
# 6 0.0000 0.0000 0.0000 -8.9734 0.0000 10.4241
#
#
#
# Elastic Compliance Matrix: (Units=1/GPa)
#
#
# Indices 1 2 3 4 5 6 
#
# 1 0.028593 -0.003338 -0.006359 0.000000 0.014516 0.000000
# 2 -0.003338 0.009905 -0.001524 0.000000 0.001961 0.000000
# 3 -0.006359 -0.001524 0.017016 0.000000 0.001579 0.000000
# 4 0.000000 0.000000 0.000000 0.039929 0.000000 0.034372
# 5 0.014516 0.001961 0.001579 0.000000 0.040044 0.000000
# 6 0.000000 0.000000 0.000000 0.034372 0.000000 0.125521
#
#
# Mechanical properties :
#
#
# Convention : Reuss Voigt Hill
#
# Bulk Modulus (GPa) = 30.23536 43.34486 36.79011
# Shear Modulus (GPa) = 16.97952 26.77725 21.87838
#
# Velocity S-wave (km/s) = 2.99004 3.75489 3.39408
# Velocity P-wave (km/s) = 5.27641 6.45148 5.89330
#
# Compressibility (1/GPa) = 0.03307386
#
# Stress axis : x y z
#
# Youngs Moduli (GPa) = 34.97394 100.96141 58.76709
#
# Poissons Ratio (x) = 0.33698 0.37369
# Poissons Ratio (y) = 0.11673 0.08953
# Poissons Ratio (z) = 0.22239 0.15382
#
# Static dielectric constant tensor:
#      x y z
#    x 1.704270 0.000000 -0.020270 
#    y 0.000000 1.667310 0.000000 
#    z -0.020270 0.000000 1.677920 
# 
# From -- ./inp_files/63423.got.cif
#   From: 2010.05.17/outbox.cif.g08.bks.cpg/sg13_32_cif.got.tgz:63423.got - 2010.06.03 16:44:36.
