data_PCOD9228993
_publ_section_title
;
Structure prediction by ZEFSAII (Michael W. Deem and Ramdas Pophale) SiO2 
 PCOD9228993
Probable space group: P 2/C
;
_chemical_formula_sum "Si O2"
_cell_formula_units_Z 32
_cell_length_a 16.645437
_cell_length_b 11.865131
_cell_length_c 15.036331
_cell_angle_alpha 90.000000
_cell_angle_beta 147.992033
_cell_angle_gamma 90.000000
_cell_volume 1574.040677
_symmetry_space_group_name_H-M "P 2/C"
_symmetry_group_IT_number 13
_symmetry_cell_setting 'monoclinic'
loop_
_space_group_symop_operation_xyz
x,y,z
-x,y,1/2-z
-x,-y,-z
x,-y,1/2+z
loop_
_atom_site_type_symbol
_atom_site_label
_atom_site_fract_x
_atom_site_fract_y
_atom_site_fract_z
Si Si1 0.078296 0.624072 0.061433
Si Si2 0.903388 0.746847 0.748520
Si Si3 0.763228 0.787149 0.149279
Si Si4 0.665730 0.491045 0.767950
Si Si5 0.145618 0.022773 0.201237
Si Si6 0.409572 0.166934 0.370789
Si Si7 0.673680 0.291406 0.380022
Si Si8 0.638576 0.618395 0.553854
O O1 0.155763 0.688512 0.216943
O O2 0.215699 0.608059 0.121574
O O3 0.000000 0.500000 0.000000
O O4 0.965531 0.704557 0.903103
O O5 0.871943 0.876769 0.743697
O O6 0.770307 0.654415 0.611477
O O7 0.000000 0.743100 0.750000
O O8 0.843701 0.904457 0.239730
O O9 0.587966 0.820201 0.011586
O O10 0.766596 0.748356 0.051054
O O11 0.713451 0.586512 0.880390
O O12 0.673741 0.542429 0.674328
O O13 0.497115 0.446061 0.621365
O O14 0.307931 0.058878 0.305721
O O15 0.000000 0.000000 0.000000
O O16 0.322273 0.210462 0.201103
O O17 0.402429 0.260952 0.441396
O O18 0.500000 0.296963 0.250000
#
# Coordination Sequence:
#
# PCOD9228993 Si02
#       8
#     4   4   4   4   4   4   4   4
#     4  12  24  40  64  92 132 172 218 262 334 400
#     4  11  25  43  62  93 132 169 218 276 330 394
#     4  11  22  42  64  96 128 170 218 277 330 397
#     4  10  19  36  65  92 126 172 209 259 318 396
#     4  11  23  42  70  90 124 173 222 270 338 404
#     4   9  19  39  66  95 123 166 217 267 325 396
#     4   9  21  36  62 100 128 153 214 272 319 379
#     4   9  18  36  65  89 125 172 210 251 322 394
#
# _framework density 20.329843
#
# number of rings (size 3 to 8) (size 9 to 14) (size 15 to 20)
#    0.000    1.750    3.750    0.375    1.750    3.000 
#    0.000    1.250    0.000    0.000    0.000    0.000 
#    0.000    0.000    0.000    0.000    0.000    0.000 
#
# Total GULP energy -178139.648537 kJ/mol
# GULP energy per Si atom -5566.864017 kJ/mol
# Density = 2.028357 g / cm^3
# Si number density = 20.329843 Si / 1000 Ang^3
#
#
#
# Elastic Constant Matrix: (Units=GPa)
#
#
# Indices 1 2 3 4 5 6 
#
# 1 80.5901 33.0172 27.7330 0.0000 -7.1680 0.0000
# 2 33.0172 122.3554 54.5460 0.0000 -13.4589 0.0000
# 3 27.7330 54.5460 99.8398 0.0000 -7.4944 0.0000
# 4 0.0000 0.0000 0.0000 25.4185 0.0000 0.2009
# 5 -7.1680 -13.4589 -7.4944 0.0000 28.1879 0.0000
# 6 0.0000 0.0000 0.0000 0.2009 0.0000 26.0047
#
#
#
# Elastic Compliance Matrix: (Units=1/GPa)
#
#
# Indices 1 2 3 4 5 6 
#
# 1 0.014485 -0.002616 -0.002461 0.000000 0.001780 0.000000
# 2 -0.002616 0.011661 -0.005383 0.000000 0.003471 0.000000
# 3 -0.002461 -0.005383 0.013674 0.000000 0.000439 0.000000
# 4 0.000000 0.000000 0.000000 0.039344 0.000000 -0.000304
# 5 0.001780 0.003471 0.000439 0.000000 0.037703 0.000000
# 6 0.000000 0.000000 0.000000 -0.000304 0.000000 0.038457
#
#
# Mechanical properties :
#
#
# Convention : Reuss Voigt Hill
#
# Bulk Modulus (GPa) = 52.91208 59.26417 56.08812
# Shear Modulus (GPa) = 27.39071 28.42148 27.90610
#
# Velocity S-wave (km/s) = 3.67456 3.74306 3.70897
# Velocity P-wave (km/s) = 6.63977 6.92064 6.78166
#
# Compressibility (1/GPa) = 0.01889928
#
# Stress axis : x y z
#
# Youngs Moduli (GPa) = 69.03503 85.75942 73.13304
#
# Poissons Ratio (x) = 0.22434 0.17997
# Poissons Ratio (y) = 0.18059 0.39370
# Poissons Ratio (z) = 0.16989 0.46167
#
# Static dielectric constant tensor:
#      x y z
#    x 1.767380 0.000000 0.059020 
#    y 0.000000 1.708460 0.000000 
#    z 0.059020 0.000000 2.002170 
# 
# From -- ./inp_files/55840.got.cif
#   From: 2010.05.17/outbox.cif.g08.bks.cpg/sg13_28_cif.got.tgz:55840.got - 2010.06.03 16:44:36.
