data_PCOD9228370
_publ_section_title
;
Structure prediction by ZEFSAII (Michael W. Deem and Ramdas Pophale) SiO2 
 PCOD9228370
Probable space group: P 2/C
;
_chemical_formula_sum "Si O2"
_cell_formula_units_Z 28
_cell_length_a 6.883068
_cell_length_b 16.600266
_cell_length_c 13.262531
_cell_angle_alpha 90.000000
_cell_angle_beta 131.769738
_cell_angle_gamma 90.000000
_cell_volume 1130.217864
_symmetry_space_group_name_H-M "P 2/C"
_symmetry_group_IT_number 13
_symmetry_cell_setting 'monoclinic'
loop_
_space_group_symop_operation_xyz
x,y,z
-x,y,1/2-z
-x,-y,-z
x,-y,1/2+z
loop_
_atom_site_type_symbol
_atom_site_label
_atom_site_fract_x
_atom_site_fract_y
_atom_site_fract_z
Si Si1 0.553665 0.355274 0.020974
Si Si2 0.092333 0.696178 0.519777
Si Si3 0.191855 0.614591 0.230889
Si Si4 0.310007 0.130250 0.093750
Si Si5 0.770349 0.560040 0.782355
Si Si6 0.810137 0.008395 0.085979
Si Si7 0.240862 0.185152 0.405161
O O1 0.327198 0.330842 0.024413
O O2 0.723422 0.413035 0.150660
O O3 0.668749 0.270430 0.021047
O O4 0.449809 0.399118 0.885242
O O5 0.155223 0.788116 0.569245
O O6 0.104750 0.635341 0.617042
O O7 0.833046 0.678310 0.366251
O O8 0.095707 0.526944 0.162630
O O9 0.000000 0.647418 0.250000
O O10 0.500000 0.101328 0.250000
O O11 0.516170 0.159286 0.080593
O O12 0.145801 0.059915 0.982904
O O13 0.500000 0.548133 0.750000
O O14 0.836035 0.102394 0.064570
O O15 0.000000 0.997371 0.250000
O O16 0.500000 0.000000 0.000000
O O17 0.000000 0.204262 0.250000
#
# Coordination Sequence:
#
# PCOD9228370 Si02
#       7
#     4   4   4   4   4   4   4
#     4   9  18  32  53  76 102 136 179 223 265 321
#     4   9  18  32  52  76 105 140 178 220 271 327
#     4  10  20  33  51  79 106 138 184 229 269 322
#     4  10  19  35  58  83 109 143 187 232 280 340
#     4  10  19  34  51  73 107 145 180 224 277 328
#     4   9  19  35  58  86 115 149 186 233 291 347
#     4   9  18  35  55  79 109 141 178 223 278 337
#
# _framework density 24.773983000000001
#
# number of rings (size 3 to 8) (size 9 to 14) (size 15 to 20)
#    0.000    2.571    0.000    3.000    0.000    4.571 
#    0.000    9.286    0.000    4.286    0.000    0.000 
#    0.000    0.000    0.000    0.000    0.000    0.000 
#
# Total GULP energy -156397.386391 kJ/mol
# GULP energy per Si atom -5585.620943 kJ/mol
# Density = 2.471760 g / cm^3
# Si number density = 24.773983 Si / 1000 Ang^3
#
#
#
# Elastic Constant Matrix: (Units=GPa)
#
#
# Indices 1 2 3 4 5 6 
#
# 1 62.1237 23.0778 27.6490 0.0000 -12.0853 0.0000
# 2 23.0778 155.6814 79.3448 0.0000 -24.3266 0.0000
# 3 27.6490 79.3448 143.2555 0.0000 -6.3010 0.0000
# 4 0.0000 0.0000 0.0000 39.6177 0.0000 -3.9512
# 5 -12.0853 -24.3266 -6.3010 0.0000 23.6221 0.0000
# 6 0.0000 0.0000 0.0000 -3.9512 0.0000 48.3961
#
#
#
# Elastic Compliance Matrix: (Units=1/GPa)
#
#
# Indices 1 2 3 4 5 6 
#
# 1 0.019347 0.000402 -0.003545 0.000000 0.009367 0.000000
# 2 0.000402 0.010745 -0.005599 0.000000 0.009778 0.000000
# 3 -0.003545 -0.005599 0.010556 0.000000 -0.004764 0.000000
# 4 0.000000 0.000000 0.000000 0.025448 0.000000 0.002078
# 5 0.009367 0.009778 -0.004764 0.000000 0.055925 0.000000
# 6 0.000000 0.000000 0.000000 0.002078 0.000000 0.020832
#
#
# Mechanical properties :
#
#
# Convention : Reuss Voigt Hill
#
# Bulk Modulus (GPa) = 43.16714 69.02265 56.09490
# Shear Modulus (GPa) = 29.75134 37.72645 33.73889
#
# Velocity S-wave (km/s) = 3.46918 3.90657 3.69435
# Velocity P-wave (km/s) = 5.78871 6.94765 6.39449
#
# Compressibility (1/GPa) = 0.02316577
#
# Stress axis : x y z
#
# Youngs Moduli (GPa) = 51.68638 93.06448 94.72971
#
# Poissons Ratio (x) = -0.03746 0.33582
# Poissons Ratio (y) = -0.02080 0.53040
# Poissons Ratio (z) = 0.18323 0.52107
#
# Static dielectric constant tensor:
#      x y z
#    x 2.258920 0.000000 0.116460 
#    y 0.000000 1.912070 0.000000 
#    z 0.116460 0.000000 1.995480 
# 
# From -- ./inp_files/48113.got.cif
#   From: 2010.05.17/outbox.cif.g08.bks.cpg/sg13_25_cif.got.tgz:48113.got - 2010.06.03 16:44:36.
