data_PCOD9228273
_publ_section_title
;
Structure prediction by ZEFSAII (Michael W. Deem and Ramdas Pophale) SiO2 
 PCOD9228273
Probable space group: P 2/C
;
_chemical_formula_sum "Si O2"
_cell_formula_units_Z 28
_cell_length_a 6.312245
_cell_length_b 13.807565
_cell_length_c 18.749953
_cell_angle_alpha 90.000000
_cell_angle_beta 117.157765
_cell_angle_gamma 90.000000
_cell_volume 1454.020820
_symmetry_space_group_name_H-M "P 2/C"
_symmetry_group_IT_number 13
_symmetry_cell_setting 'monoclinic'
loop_
_space_group_symop_operation_xyz
x,y,z
-x,y,1/2-z
-x,-y,-z
x,-y,1/2+z
loop_
_atom_site_type_symbol
_atom_site_label
_atom_site_fract_x
_atom_site_fract_y
_atom_site_fract_z
Si Si1 0.885690 0.789884 0.070669
Si Si2 0.996662 0.295470 0.056946
Si Si3 0.746785 0.051593 0.828750
Si Si4 0.518645 0.364134 0.547127
Si Si5 0.264929 0.464756 0.056896
Si Si6 0.044428 0.864884 0.832699
Si Si7 0.434973 0.942139 0.560602
O O1 0.697808 0.726407 0.088353
O O2 0.078528 0.855905 0.140583
O O3 0.738670 0.860813 0.996084
O O4 0.010617 0.725412 0.029238
O O5 0.025595 0.203017 0.112000
O O6 0.207418 0.374605 0.100573
O O7 0.727195 0.330354 0.027509
O O8 0.500000 0.070973 0.750000
O O9 0.680196 0.011710 0.897662
O O10 0.889109 0.962935 0.814276
O O11 0.647657 0.420968 0.503919
O O12 0.437751 0.442314 0.595154
O O13 0.000000 0.500000 0.000000
O O14 0.320826 0.894088 0.876191
O O15 0.000000 0.815367 0.750000
O O16 0.500000 0.000000 0.500000
#
# Coordination Sequence:
#
# PCOD9228273 Si02
#       7
#     4   4   4   4   4   4   4
#     4  11  21  33  57  82 113 153 207 244 292 358
#     4  10  19  33  55  85 119 148 193 245 299 361
#     4  12  25  39  52  79 124 165 205 253 300 351
#     4   9  17  31  54  85 118 139 184 245 298 353
#     4   8  16  31  53  84 122 136 175 243 309 352
#     4  12  23  37  54  80 121 166 201 245 300 359
#     4  12  22  36  58  78 112 164 207 250 293 346
#
# _framework density 19.256945999999999
#
# number of rings (size 3 to 8) (size 9 to 14) (size 15 to 20)
#    0.000    1.429    5.714    1.286    0.000    0.000 
#    0.000    0.000    0.000    0.000    0.000    0.000 
#  132.857    0.000    0.000    0.000    0.000    0.286 
#
# Total GULP energy -155882.013598 kJ/mol
# GULP energy per Si atom -5567.214771 kJ/mol
# Density = 1.921312 g / cm^3
# Si number density = 19.256946 Si / 1000 Ang^3
#
#
#
# Elastic Constant Matrix: (Units=GPa)
#
#
# Indices 1 2 3 4 5 6 
#
# 1 108.7662 51.7053 19.2392 0.0000 15.9418 0.0000
# 2 51.7053 110.4828 24.7445 0.0000 15.0339 0.0000
# 3 19.2392 24.7445 38.6850 0.0000 20.3450 0.0000
# 4 0.0000 0.0000 0.0000 2.9584 0.0000 6.7391
# 5 15.9418 15.0339 20.3450 0.0000 32.2709 0.0000
# 6 0.0000 0.0000 0.0000 6.7391 0.0000 62.6913
#
#
#
# Elastic Compliance Matrix: (Units=1/GPa)
#
#
# Indices 1 2 3 4 5 6 
#
# 1 0.012248 -0.005038 -0.001378 0.000000 -0.002835 0.000000
# 2 -0.005038 0.012658 -0.005683 0.000000 0.000174 0.000000
# 3 -0.001378 -0.005683 0.042517 0.000000 -0.023476 0.000000
# 4 0.000000 0.000000 0.000000 0.447637 0.000000 -0.048119
# 5 -0.002835 0.000174 -0.023476 0.000000 0.047107 0.000000
# 6 0.000000 0.000000 0.000000 -0.048119 0.000000 0.021124
#
#
# Mechanical properties :
#
#
# Convention : Reuss Voigt Hill
#
# Bulk Modulus (GPa) = 23.13473 49.92357 36.52915
# Shear Modulus (GPa) = 8.03993 30.40046 19.22019
#
# Velocity S-wave (km/s) = 2.04552 3.97756 3.16269
# Velocity P-wave (km/s) = 4.19746 6.86119 5.68747
#
# Compressibility (1/GPa) = 0.04322505
#
# Stress axis : x y z
#
# Youngs Moduli (GPa) = 81.64535 79.00277 23.52027
#
# Poissons Ratio (x) = 0.39799 0.03242
# Poissons Ratio (y) = 0.41130 0.13366
# Poissons Ratio (z) = 0.11253 0.44896
#
# Static dielectric constant tensor:
#      x y z
#    x 1.713470 0.000000 -0.022630 
#    y 0.000000 1.734650 0.000000 
#    z -0.022630 0.000000 1.629950 
# 
# From -- ./inp_files/61672.got.cif
#   From: 2010.05.17/outbox.cif.g08.bks.cpg/sg13_31_cif.got.tgz:61672.got - 2010.06.03 16:44:36.
