data_PCOD9228883
_publ_section_title
;
Structure prediction by ZEFSAII (Michael W. Deem and Ramdas Pophale) SiO2 
 PCOD9228883
Probable space group: P 2/C
;
_chemical_formula_sum "Si O2"
_cell_formula_units_Z 32
_cell_length_a 15.526464
_cell_length_b 21.395804
_cell_length_c 14.514260
_cell_angle_alpha 90.000000
_cell_angle_beta 161.062331
_cell_angle_gamma 90.000000
_cell_volume 1564.816555
_symmetry_space_group_name_H-M "P 2/C"
_symmetry_group_IT_number 13
_symmetry_cell_setting 'monoclinic'
loop_
_space_group_symop_operation_xyz
x,y,z
-x,y,1/2-z
-x,-y,-z
x,-y,1/2+z
loop_
_atom_site_type_symbol
_atom_site_label
_atom_site_fract_x
_atom_site_fract_y
_atom_site_fract_z
Si Si1 0.680748 0.338609 0.341784
Si Si2 0.574576 0.996912 0.183144
Si Si3 0.398186 0.476308 0.248039
Si Si4 0.509394 0.140156 0.364452
Si Si5 0.024625 0.174930 0.999791
Si Si6 0.151445 0.307847 0.704290
Si Si7 0.184490 0.559632 0.172815
Si Si8 0.080249 0.083928 0.230058
O O1 0.500000 0.330765 0.250000
O O2 0.770049 0.412227 0.431021
O O3 0.958433 0.305655 0.599133
O O4 0.461164 0.316609 0.043682
O O5 0.866763 0.969803 0.490839
O O6 0.557906 0.066663 0.204736
O O7 0.365249 0.949476 0.016885
O O8 0.500000 0.000000 0.000000
O O9 0.500000 0.488252 0.250000
O O10 0.300457 0.541403 0.191150
O O11 0.609286 0.450883 0.535757
O O12 0.500000 0.164716 0.250000
O O13 0.294363 0.172753 0.213257
O O14 0.795690 0.147734 0.701196
O O15 0.062505 0.133848 0.129692
O O16 0.920983 0.244058 0.919276
O O17 0.075337 0.370895 0.571926
O O18 0.000000 0.500000 0.000000
O O19 0.000000 0.108552 0.250000
#
# Coordination Sequence:
#
# PCOD9228883 Si02
#       8
#     4   4   4   4   4   4   4   4
#     4  10  20  35  57  87 115 152 198 246 300 373
#     4  12  22  43  68  96 125 159 203 261 307 355
#     4   9  19  34  57  86 117 146 190 250 313 362
#     4  12  25  41  64  95 130 161 199 247 312 366
#     4  12  25  42  60  88 128 170 205 250 297 374
#     4  11  23  37  59  83 119 162 202 245 303 358
#     4  10  19  36  59  84 115 153 197 252 308 353
#     4  12  24  42  68  92 124 165 212 256 305 351
#
# _framework density 20.449680000000001
#
# number of rings (size 3 to 8) (size 9 to 14) (size 15 to 20)
#    0.000    1.000    3.750    3.750    0.000    3.500 
#    0.000    0.000    2.750    0.000    0.000    0.000 
#    0.000    0.000    0.000    0.000    0.000    0.000 
#
# Total GULP energy -178582.567218 kJ/mol
# GULP energy per Si atom -5580.705226 kJ/mol
# Density = 2.040314 g / cm^3
# Si number density = 20.449680 Si / 1000 Ang^3
#
#
#
# Elastic Constant Matrix: (Units=GPa)
#
#
# Indices 1 2 3 4 5 6 
#
# 1 115.2557 20.5822 5.6714 0.0000 -0.6612 0.0000
# 2 20.5822 124.2741 2.5746 0.0000 1.4977 0.0000
# 3 5.6714 2.5746 61.2785 0.0000 6.5821 0.0000
# 4 0.0000 0.0000 0.0000 23.6370 0.0000 6.1609
# 5 -0.6612 1.4977 6.5821 0.0000 22.7035 0.0000
# 6 0.0000 0.0000 0.0000 6.1609 0.0000 8.8881
#
#
#
# Elastic Compliance Matrix: (Units=1/GPa)
#
#
# Indices 1 2 3 4 5 6 
#
# 1 0.008985 -0.001478 -0.000834 0.000000 0.000601 0.000000
# 2 -0.001478 0.008301 -0.000153 0.000000 -0.000546 0.000000
# 3 -0.000834 -0.000153 0.016931 0.000000 -0.004923 0.000000
# 4 0.000000 0.000000 0.000000 0.051636 0.000000 -0.035792
# 5 0.000601 -0.000546 -0.004923 0.000000 0.045527 0.000000
# 6 0.000000 0.000000 0.000000 -0.035792 0.000000 0.137320
#
#
# Mechanical properties :
#
#
# Convention : Reuss Voigt Hill
#
# Bulk Modulus (GPa) = 34.14518 39.82944 36.98731
# Shear Modulus (GPa) = 17.64337 29.17770 23.41053
#
# Velocity S-wave (km/s) = 2.94048 3.78140 3.38714
# Velocity P-wave (km/s) = 5.31620 6.21164 5.78128
#
# Compressibility (1/GPa) = 0.02928671
#
# Stress axis : x y z
#
# Youngs Moduli (GPa) = 111.29924 120.46335 59.06207
#
# Poissons Ratio (x) = 0.17805 0.04926
# Poissons Ratio (y) = 0.16450 0.00906
# Poissons Ratio (z) = 0.09282 0.01847
#
# Static dielectric constant tensor:
#      x y z
#    x 1.536570 0.000000 0.026000 
#    y 0.000000 1.948860 0.000000 
#    z 0.026000 0.000000 1.791260 
# 
# From -- ./inp_files/54022.got.cif
#   From: 2010.05.17/outbox.cif.g08.bks.cpg/sg13_28_cif.got.tgz:54022.got - 2010.06.03 16:44:36.
