data_PCOD9228897
_publ_section_title
;
Structure prediction by ZEFSAII (Michael W. Deem and Ramdas Pophale) SiO2 
 PCOD9228897
Probable space group: P 2/C
;
_chemical_formula_sum "Si O2"
_cell_formula_units_Z 26
_cell_length_a 17.717062
_cell_length_b 9.861200
_cell_length_c 17.751363
_cell_angle_alpha 90.000000
_cell_angle_beta 151.666712
_cell_angle_gamma 90.000000
_cell_volume 1471.907818
_symmetry_space_group_name_H-M "P 2/C"
_symmetry_group_IT_number 13
_symmetry_cell_setting 'monoclinic'
loop_
_space_group_symop_operation_xyz
x,y,z
-x,y,1/2-z
-x,-y,-z
x,-y,1/2+z
loop_
_atom_site_type_symbol
_atom_site_label
_atom_site_fract_x
_atom_site_fract_y
_atom_site_fract_z
Si Si1 0.500000 0.970166 0.250000
Si Si2 0.011645 0.156353 0.848371
Si Si3 0.167255 0.358879 0.096021
Si Si4 0.718375 0.879545 0.195562
Si Si5 0.851229 0.876639 0.559483
Si Si6 0.593364 0.877566 0.677739
Si Si7 0.128247 0.669778 0.056999
O O1 0.661551 0.884754 0.412510
O O2 0.465011 0.060827 0.293719
O O3 0.000000 0.182925 0.750000
O O4 0.848649 0.112937 0.744511
O O5 0.122239 0.024748 0.954376
O O6 0.075673 0.288003 0.946500
O O7 0.321798 0.266618 0.240286
O O8 0.192267 0.517486 0.105014
O O9 0.048741 0.341664 0.063118
O O10 0.766379 0.755575 0.291567
O O11 0.709661 0.013713 0.239326
O O12 0.552454 0.862316 0.007823
O O13 0.873743 0.754923 0.521100
O O14 0.000000 0.868455 0.750000
#
# Coordination Sequence:
#
# PCOD9228897 Si02
#       7
#     2   4   4   4   4   4   4
#     4  12  22  38  62  94 126 152 206 266 286 366
#     4  10  19  36  59  89 113 154 200 251 300 358
#     4  10  21  36  62  81 118 158 195 249 299 360
#     4  10  21  36  62  86 118 155 204 245 306 358
#     4  11  22  38  64  88 121 159 197 252 307 349
#     4  11  21  36  59  90 118 159 200 253 301 348
#     4  10  21  41  56  85 119 156 201 244 297 370
#
# _framework density 17.664149999999999
#
# number of rings (size 3 to 8) (size 9 to 14) (size 15 to 20)
#    0.000    1.538    3.077    2.769    0.000    4.923 
#    0.000    0.769    0.000    0.000    0.000    0.000 
#    0.000    0.000    0.000    0.000    0.000    0.000 
#
# Total GULP energy -144938.755315 kJ/mol
# GULP energy per Si atom -5574.567512 kJ/mol
# Density = 1.762395 g / cm^3
# Si number density = 17.664150 Si / 1000 Ang^3
#
#
#
# Elastic Constant Matrix: (Units=GPa)
#
#
# Indices 1 2 3 4 5 6 
#
# 1 99.2658 50.9786 42.1515 0.0000 -5.8193 0.0000
# 2 50.9786 109.1370 30.6389 0.0000 -1.3739 0.0000
# 3 42.1515 30.6389 102.0944 0.0000 -0.4697 0.0000
# 4 0.0000 0.0000 0.0000 26.1602 0.0000 3.4673
# 5 -5.8193 -1.3739 -0.4697 0.0000 19.6642 0.0000
# 6 0.0000 0.0000 0.0000 3.4673 0.0000 26.2737
#
#
#
# Elastic Compliance Matrix: (Units=1/GPa)
#
#
# Indices 1 2 3 4 5 6 
#
# 1 0.015195 -0.005778 -0.004521 0.000000 0.003985 0.000000
# 2 -0.005778 0.012211 -0.001283 0.000000 -0.000887 0.000000
# 3 -0.004521 -0.001283 0.012041 0.000000 -0.001140 0.000000
# 4 0.000000 0.000000 0.000000 0.038906 0.000000 -0.005134
# 5 0.003985 -0.000887 -0.001140 0.000000 0.051944 0.000000
# 6 0.000000 0.000000 0.000000 -0.005134 0.000000 0.038738
#
#
# Mechanical properties :
#
#
# Convention : Reuss Voigt Hill
#
# Bulk Modulus (GPa) = 61.41590 62.00393 61.70991
# Shear Modulus (GPa) = 25.30009 26.86815 26.08412
#
# Velocity S-wave (km/s) = 3.78866 3.90430 3.84691
# Velocity P-wave (km/s) = 7.34729 7.45000 7.39883
#
# Compressibility (1/GPa) = 0.01628243
#
# Stress axis : x y z
#
# Youngs Moduli (GPa) = 65.81195 81.89447 83.04793
#
# Poissons Ratio (x) = 0.47320 0.37547
# Poissons Ratio (y) = 0.38027 0.10655
# Poissons Ratio (z) = 0.29754 0.10507
#
# Static dielectric constant tensor:
#      x y z
#    x 1.614420 0.000000 0.013430 
#    y 0.000000 1.564810 0.000000 
#    z 0.013430 0.000000 1.641070 
# 
# From -- ./inp_files/69555.got.cif
#   From: 2010.05.17/outbox.cif.g08.bks.cpg/sg13_35_cif.got.tgz:69555.got - 2010.06.03 16:44:36.
