data_PCOD9228319
_publ_section_title
;
Structure prediction by ZEFSAII (Michael W. Deem and Ramdas Pophale) SiO2 
 PCOD9228319
Probable space group: P 2/C
;
_chemical_formula_sum "Si O2"
_cell_formula_units_Z 28
_cell_length_a 18.270377
_cell_length_b 8.747883
_cell_length_c 15.267509
_cell_angle_alpha 90.000000
_cell_angle_beta 145.002800
_cell_angle_gamma 90.000000
_cell_volume 1399.521739
_symmetry_space_group_name_H-M "P 2/C"
_symmetry_group_IT_number 13
_symmetry_cell_setting 'monoclinic'
loop_
_space_group_symop_operation_xyz
x,y,z
-x,y,1/2-z
-x,-y,-z
x,-y,1/2+z
loop_
_atom_site_type_symbol
_atom_site_label
_atom_site_fract_x
_atom_site_fract_y
_atom_site_fract_z
Si Si1 0.732258 0.113531 0.407804
Si Si2 0.837494 0.170866 0.323911
Si Si3 0.838913 0.192746 0.005637
Si Si4 0.764982 0.623314 0.079770
Si Si5 0.000000 0.583068 0.750000
Si Si6 0.675704 0.689395 0.508592
Si Si7 0.500000 0.910092 0.250000
Si Si8 0.871322 0.182775 0.842732
O O1 0.748651 0.162367 0.323310
O O2 0.736692 0.257021 0.475782
O O3 0.845983 0.987648 0.533507
O O4 0.607171 0.017362 0.311402
O O5 0.764692 0.264804 0.177658
O O6 0.978483 0.221805 0.495510
O O7 0.860446 0.997859 0.311113
O O8 0.746341 0.265809 0.986632
O O9 0.962937 0.297327 0.137812
O O10 0.802103 0.203197 0.868503
O O11 0.658419 0.493119 0.991736
O O12 0.804778 0.716480 0.204459
O O13 0.887274 0.525312 0.169839
O O14 0.554285 0.799264 0.379692
#
# Coordination Sequence:
#
# PCOD9228319 Si02
#       8
#     4   4   4   4   2   4   2   4
#     4  10  22  39  62  85 111 155 210 247 276 344
#     4  10  21  36  58  89 119 154 195 234 288 360
#     4   9  19  35  54  79 117 161 195 225 281 352
#     4  11  22  35  58  92 124 151 192 242 295 356
#     4  10  20  32  52  84 128 164 178 230 302 348
#     4  10  22  38  57  83 117 153 196 248 300 343
#     4  10  22  44  64  76 110 162 204 252 296 328
#     4  10  19  33  57  87 123 159 189 229 285 356
#
# _framework density 20.006833
#
# number of rings (size 3 to 8) (size 9 to 14) (size 15 to 20)
#    0.000    2.000    0.000    4.286    0.000    8.571 
#    0.000    1.429    0.000    9.429    0.000    0.000 
#    0.000    0.000    0.000    0.000    0.000    0.000 
#
# Total GULP energy -156079.445280 kJ/mol
# GULP energy per Si atom -5574.265903 kJ/mol
# Density = 1.996130 g / cm^3
# Si number density = 20.006833 Si / 1000 Ang^3
#
#
#
# Elastic Constant Matrix: (Units=GPa)
#
#
# Indices 1 2 3 4 5 6 
#
# 1 84.4595 45.4046 38.5001 0.0000 -13.4803 0.0000
# 2 45.4046 128.4223 56.3461 0.0000 -10.1740 0.0000
# 3 38.5001 56.3461 65.8475 0.0000 -7.1330 0.0000
# 4 0.0000 0.0000 0.0000 124.4621 0.0000 -72.1542
# 5 -13.4803 -10.1740 -7.1330 0.0000 22.4552 0.0000
# 6 0.0000 0.0000 0.0000 -72.1542 0.0000 92.9943
#
#
#
# Elastic Compliance Matrix: (Units=1/GPa)
#
#
# Indices 1 2 3 4 5 6 
#
# 1 0.017697 -0.002386 -0.007531 0.000000 0.007150 0.000000
# 2 -0.002386 0.012909 -0.009500 0.000000 0.001399 0.000000
# 3 -0.007531 -0.009500 0.027717 0.000000 -0.000021 0.000000
# 4 0.000000 0.000000 0.000000 0.014603 0.000000 0.011331
# 5 0.007150 0.001399 -0.000021 0.000000 0.049453 0.000000
# 6 0.000000 0.000000 0.000000 0.011331 0.000000 0.019545
#
#
# Mechanical properties :
#
#
# Convention : Reuss Voigt Hill
#
# Bulk Modulus (GPa) = 51.31030 62.13676 56.72353
# Shear Modulus (GPa) = 26.70174 57.21423 41.95798
#
# Velocity S-wave (km/s) = 3.65722 5.35345 4.58447
# Velocity P-wave (km/s) = 6.59816 8.32693 7.51244
#
# Compressibility (1/GPa) = 0.01948926
#
# Stress axis : x y z
#
# Youngs Moduli (GPa) = 56.50728 77.46235 36.07957
#
# Poissons Ratio (x) = 0.18485 0.27170
# Poissons Ratio (y) = 0.13484 0.34276
# Poissons Ratio (z) = 0.42553 0.73589
#
# Static dielectric constant tensor:
#      x y z
#    x 1.760900 0.000000 0.069930 
#    y 0.000000 1.727130 0.000000 
#    z 0.069930 0.000000 1.770700 
# 
# From -- ./inp_files/55348.got.cif
#   From: 2010.05.17/outbox.cif.g08.bks.cpg/sg13_28_cif.got.tgz:55348.got - 2010.06.03 16:44:36.
