data_PCOD9228622
_publ_section_title
;
Structure prediction by ZEFSAII (Michael W. Deem and Ramdas Pophale) SiO2 
 PCOD9228622
Probable space group: P 2/C
;
_chemical_formula_sum "Si O2"
_cell_formula_units_Z 20
_cell_length_a 8.310346
_cell_length_b 24.207346
_cell_length_c 9.550765
_cell_angle_alpha 90.000000
_cell_angle_beta 32.842812
_cell_angle_gamma 90.000000
_cell_volume 1042.012642
_symmetry_space_group_name_H-M "P 2/C"
_symmetry_group_IT_number 13
_symmetry_cell_setting 'monoclinic'
loop_
_space_group_symop_operation_xyz
x,y,z
-x,y,1/2-z
-x,-y,-z
x,-y,1/2+z
loop_
_atom_site_type_symbol
_atom_site_label
_atom_site_fract_x
_atom_site_fract_y
_atom_site_fract_z
Si Si1 0.820587 0.340538 0.232716
Si Si2 0.668884 0.274095 0.775123
Si Si3 0.356560 0.954308 0.006226
Si Si4 0.648788 0.829862 0.488965
Si Si5 0.806491 0.532888 0.750745
O O1 0.498703 0.317845 0.505034
O O2 0.783211 0.403840 0.215099
O O3 0.000000 0.340726 0.250000
O O4 0.005498 0.298849 0.997621
O O5 0.500000 0.270499 0.750000
O O6 0.617313 0.216884 0.894431
O O7 0.441685 0.891754 0.990499
O O8 0.000000 0.959232 0.250000
O O9 0.500000 0.961266 0.750000
O O10 0.500000 0.000000 0.000000
O O11 0.000000 0.833026 0.250000
O O12 0.500000 0.817773 0.750000
O O13 0.000000 0.535010 0.750000
O O14 0.000000 0.500000 0.500000
O O15 0.500000 0.500000 0.000000
#
# Coordination Sequence:
#
# PCOD9228622 Si02
#       5
#     4   4   4   4   4
#     4   9  19  35  56  79 108 143 181 227 278 326
#     4  10  19  35  57  80 103 141 191 227 264 333
#     4  10  21  38  59  84 116 153 192 234 284 340
#     4  10  21  37  55  80 116 149 177 227 295 337
#     4  11  22  39  60  83 113 148 185 231 283 336
#
# _framework density 19.193624
#
# number of rings (size 3 to 8) (size 9 to 14) (size 15 to 20)
#    0.000    2.000    0.000    3.600    0.000    4.000 
#    0.000   13.000    0.000    0.000    0.000    0.000 
#    0.000    0.000    0.000    0.000    0.000    0.000 
#
# Total GULP energy -111507.209161 kJ/mol
# GULP energy per Si atom -5575.360458 kJ/mol
# Density = 1.914994 g / cm^3
# Si number density = 19.193624 Si / 1000 Ang^3
#
#
#
# Elastic Constant Matrix: (Units=GPa)
#
#
# Indices 1 2 3 4 5 6 
#
# 1 30.2664 49.6475 26.8486 0.0000 2.8019 0.0000
# 2 49.6475 179.9582 71.1448 0.0000 28.1938 0.0000
# 3 26.8486 71.1448 169.5143 0.0000 7.8207 0.0000
# 4 0.0000 0.0000 0.0000 39.6851 0.0000 12.8492
# 5 2.8019 28.1938 7.8207 0.0000 21.9380 0.0000
# 6 0.0000 0.0000 0.0000 12.8492 0.0000 60.0384
#
#
#
# Elastic Compliance Matrix: (Units=1/GPa)
#
#
# Indices 1 2 3 4 5 6 
#
# 1 0.067221 -0.020262 -0.002997 0.000000 0.018523 0.000000
# 2 -0.020262 0.014349 -0.002116 0.000000 -0.015098 0.000000
# 3 -0.002997 -0.002116 0.007238 0.000000 0.000522 0.000000
# 4 0.000000 0.000000 0.000000 0.027074 0.000000 -0.005794
# 5 0.018523 -0.015098 0.000522 0.000000 0.062435 0.000000
# 6 0.000000 0.000000 0.000000 -0.005794 0.000000 0.017896
#
#
# Mechanical properties :
#
#
# Convention : Reuss Voigt Hill
#
# Bulk Modulus (GPa) = 26.27695 75.00230 50.63962
# Shear Modulus (GPa) = 19.25660 39.80549 29.53104
#
# Velocity S-wave (km/s) = 3.17090 4.55894 3.92674
# Velocity P-wave (km/s) = 5.20829 8.17762 6.85564
#
# Compressibility (1/GPa) = 0.03805617
#
# Stress axis : x y z
#
# Youngs Moduli (GPa) = 14.87626 69.69121 138.15752
#
# Poissons Ratio (x) = 1.41210 0.41412
# Poissons Ratio (y) = 0.30143 0.29240
# Poissons Ratio (z) = 0.04459 0.14750
#
# Static dielectric constant tensor:
#      x y z
#    x 1.614470 0.000000 0.000420 
#    y 0.000000 1.718190 0.000000 
#    z 0.000420 0.000000 1.638180 
# 
# From -- ./inp_files/13783.got.cif
#   From: 2010.05.17/outbox.cif.g08.bks.cpg/sg13_7_cif.got.tgz:13783.got - 2010.06.03 16:44:36.
