data_PCOD9228693
_publ_section_title
;
Structure prediction by ZEFSAII (Michael W. Deem and Ramdas Pophale) SiO2 
 PCOD9228693
Probable space group: P 2/C
;
_chemical_formula_sum "Si O2"
_cell_formula_units_Z 28
_cell_length_a 9.253106
_cell_length_b 8.187819
_cell_length_c 30.619976
_cell_angle_alpha 90.000000
_cell_angle_beta 34.132361
_cell_angle_gamma 90.000000
_cell_volume 1301.685277
_symmetry_space_group_name_H-M "P 2/C"
_symmetry_group_IT_number 13
_symmetry_cell_setting 'monoclinic'
loop_
_space_group_symop_operation_xyz
x,y,z
-x,y,1/2-z
-x,-y,-z
x,-y,1/2+z
loop_
_atom_site_type_symbol
_atom_site_label
_atom_site_fract_x
_atom_site_fract_y
_atom_site_fract_z
Si Si1 0.794388 0.829303 0.454161
Si Si2 0.638108 0.147730 0.843240
Si Si3 0.982451 0.974461 0.183607
Si Si4 0.195124 0.642181 0.964261
Si Si5 0.113936 0.831325 0.519213
Si Si6 0.761519 0.516846 0.837621
Si Si7 0.791721 0.281089 0.413576
O O1 0.948559 0.843465 0.370861
O O2 0.868488 0.694690 0.470634
O O3 0.491493 0.802909 0.519702
O O4 0.855758 0.998617 0.463464
O O5 0.778699 0.027201 0.842102
O O6 0.743963 0.325551 0.830862
O O7 0.734367 0.084898 0.772408
O O8 0.338168 0.163877 0.927062
O O9 0.997220 0.152747 0.158033
O O10 0.491827 0.592341 0.889620
O O11 0.141376 0.787468 0.943236
O O12 0.000000 0.500000 0.000000
O O13 0.163360 0.700365 0.545899
O O14 0.790821 0.564005 0.881455
O O15 0.000000 0.585212 0.750000
#
# Coordination Sequence:
#
# PCOD9228693 Si02
#       7
#     4   4   4   4   4   4   4
#     4  10  20  38  61  91 123 162 210 252 308 366
#     4  11  20  34  62  90 124 154 207 253 310 356
#     4  10  19  35  59  95 116 157 207 262 295 355
#     4  11  24  39  62  90 125 164 204 253 313 372
#     4  11  20  40  62  93 122 162 206 257 304 368
#     4  11  24  40  60  92 124 164 205 251 313 371
#     4  10  21  36  63  93 122 158 210 255 300 370
#
# _framework density 21.510573999999998
#
# number of rings (size 3 to 8) (size 9 to 14) (size 15 to 20)
#    0.000    1.429    5.714    1.286    2.000    1.714 
#    0.000    1.429    0.000    3.429    0.000    0.000 
#    0.000    0.000    0.000    0.000    0.000    0.000 
#
# Total GULP energy -156379.522593 kJ/mol
# GULP energy per Si atom -5584.982950 kJ/mol
# Density = 2.146161 g / cm^3
# Si number density = 21.510574 Si / 1000 Ang^3
#
#
#
# Elastic Constant Matrix: (Units=GPa)
#
#
# Indices 1 2 3 4 5 6 
#
# 1 80.6583 13.5245 38.7917 0.0000 12.9169 0.0000
# 2 13.5245 56.1365 23.9134 0.0000 5.0767 0.0000
# 3 38.7917 23.9134 132.1828 0.0000 19.2981 0.0000
# 4 0.0000 0.0000 0.0000 10.7756 0.0000 -0.2634
# 5 12.9169 5.0767 19.2981 0.0000 28.5714 0.0000
# 6 0.0000 0.0000 0.0000 -0.2634 0.0000 25.3212
#
#
#
# Elastic Compliance Matrix: (Units=1/GPa)
#
#
# Indices 1 2 3 4 5 6 
#
# 1 0.015033 -0.001762 -0.003491 0.000000 -0.004126 0.000000
# 2 -0.001762 0.019544 -0.002916 0.000000 -0.000707 0.000000
# 3 -0.003491 -0.002916 0.009775 0.000000 -0.004506 0.000000
# 4 0.000000 0.000000 0.000000 0.092826 0.000000 0.000965
# 5 -0.004126 -0.000707 -0.004506 0.000000 0.040035 0.000000
# 6 0.000000 0.000000 0.000000 0.000965 0.000000 0.039503
#
#
# Mechanical properties :
#
#
# Convention : Reuss Voigt Hill
#
# Bulk Modulus (GPa) = 35.69364 46.82630 41.25997
# Shear Modulus (GPa) = 20.62799 25.78351 23.20575
#
# Velocity S-wave (km/s) = 3.10008 3.46590 3.28808
# Velocity P-wave (km/s) = 5.42619 6.15084 5.79985
#
# Compressibility (1/GPa) = 0.02801620
#
# Stress axis : x y z
#
# Youngs Moduli (GPa) = 66.52105 51.16641 102.30138
#
# Poissons Ratio (x) = 0.09014 0.35710
# Poissons Ratio (y) = 0.11719 0.29826
# Poissons Ratio (z) = 0.23220 0.14918
#
# Static dielectric constant tensor:
#      x y z
#    x 1.771740 0.000000 0.017140 
#    y 0.000000 1.891960 0.000000 
#    z 0.017140 0.000000 1.782530 
# 
# From -- ./inp_files/91384.got.cif
#   From: 2010.05.17/outbox.cif.g08.bks.cpg/sg13_46_cif.got.tgz:91384.got - 2010.06.03 16:44:36.
