data_PCOD9228409
_publ_section_title
;
Structure prediction by ZEFSAII (Michael W. Deem and Ramdas Pophale) SiO2 
 PCOD9228409
Probable space group: P 2/C
;
_chemical_formula_sum "Si O2"
_cell_formula_units_Z 28
_cell_length_a 20.772639
_cell_length_b 5.149138
_cell_length_c 21.663845
_cell_angle_alpha 90.000000
_cell_angle_beta 135.488762
_cell_angle_gamma 90.000000
_cell_volume 1624.464446
_symmetry_space_group_name_H-M "P 2/C"
_symmetry_group_IT_number 13
_symmetry_cell_setting 'monoclinic'
loop_
_space_group_symop_operation_xyz
x,y,z
-x,y,1/2-z
-x,-y,-z
x,-y,1/2+z
loop_
_atom_site_type_symbol
_atom_site_label
_atom_site_fract_x
_atom_site_fract_y
_atom_site_fract_z
Si Si1 0.886978 0.241473 0.454732
Si Si2 0.407850 0.058522 0.473648
Si Si3 0.897826 0.056066 0.155298
Si Si4 0.175133 0.551190 0.460852
Si Si5 0.778371 0.886715 0.184787
Si Si6 0.665740 0.431360 0.521258
Si Si7 0.895710 0.744169 0.383409
O O1 0.829406 0.356712 0.471920
O O2 0.878296 0.450930 0.393716
O O3 0.994127 0.234549 0.548627
O O4 0.866647 0.954098 0.415730
O O5 0.318972 0.024162 0.367985
O O6 0.396827 0.333154 0.499376
O O7 0.500000 0.000000 0.500000
O O8 0.390995 0.835168 0.513279
O O9 0.871257 0.276986 0.087914
O O10 0.830109 0.055013 0.168023
O O11 0.000000 0.089300 0.250000
O O12 0.881163 0.775645 0.113535
O O13 0.277685 0.536755 0.502758
O O14 0.744714 0.624948 0.126865
O O15 0.842793 0.820775 0.285426
#
# Coordination Sequence:
#
# PCOD9228409 Si02
#       7
#     4   4   4   4   4   4   4
#     4  10  22  34  50  71 102 151 188 210 249 289
#     4  10  19  34  54  81 107 130 162 213 283 335
#     4  11  21  31  51  76 106 140 171 214 269 313
#     4  11  19  36  49  73 107 137 181 213 257 314
#     4   9  21  32  54  76 110 131 174 219 267 311
#     4   9  19  33  52  80 103 132 167 215 272 323
#     4  10  21  35  49  73 105 143 187 222 242 301
#
# _framework density 17.236449
#
# number of rings (size 3 to 8) (size 9 to 14) (size 15 to 20)
#    0.857    1.143    1.429    2.571    2.000    3.429 
#    0.000    0.000    0.000    0.000    0.000    6.000 
#    0.000    0.000    0.000    0.000    0.000    0.000 
#
# Total GULP energy -155938.257224 kJ/mol
# GULP energy per Si atom -5569.223472 kJ/mol
# Density = 1.719722 g / cm^3
# Si number density = 17.236449 Si / 1000 Ang^3
#
#
#
# Elastic Constant Matrix: (Units=GPa)
#
#
# Indices 1 2 3 4 5 6 
#
# 1 74.6135 13.3466 10.7899 0.0000 2.4621 0.0000
# 2 13.3466 87.1769 0.0389 0.0000 8.6930 0.0000
# 3 10.7899 0.0389 31.9771 0.0000 -6.6168 0.0000
# 4 0.0000 0.0000 0.0000 13.6462 0.0000 -1.8896
# 5 2.4621 8.6930 -6.6168 0.0000 18.0551 0.0000
# 6 0.0000 0.0000 0.0000 -1.8896 0.0000 23.9174
#
#
#
# Elastic Compliance Matrix: (Units=1/GPa)
#
#
# Indices 1 2 3 4 5 6 
#
# 1 0.014659 -0.001931 -0.005589 0.000000 -0.003118 0.000000
# 2 -0.001931 0.012355 -0.000584 0.000000 -0.005899 0.000000
# 3 -0.005589 -0.000584 0.036113 0.000000 0.014278 0.000000
# 4 0.000000 0.000000 0.000000 0.074091 0.000000 0.005853
# 5 -0.003118 -0.005899 0.014278 0.000000 0.063884 0.000000
# 6 0.000000 0.000000 0.000000 0.005853 0.000000 0.042273
#
#
# Mechanical properties :
#
#
# Convention : Reuss Voigt Hill
#
# Bulk Modulus (GPa) = 21.31328 26.90205 24.10767
# Shear Modulus (GPa) = 18.16704 22.42987 20.29846
#
# Velocity S-wave (km/s) = 3.25004 3.61127 3.43541
# Velocity P-wave (km/s) = 5.14546 5.74717 5.45462
#
# Compressibility (1/GPa) = 0.04691911
#
# Stress axis : x y z
#
# Youngs Moduli (GPa) = 68.21795 80.93846 27.69055
#
# Poissons Ratio (x) = 0.15628 0.15476
# Poissons Ratio (y) = 0.13172 0.01618
# Poissons Ratio (z) = 0.38127 0.04729
#
# Static dielectric constant tensor:
#      x y z
#    x 1.613630 0.000000 -0.002510 
#    y 0.000000 1.609380 0.000000 
#    z -0.002510 0.000000 1.560050 
# 
# From -- ./inp_files/80610.got.cif
#   From: 2010.05.17/outbox.cif.g08.bks.cpg/sg13_41_cif.got.tgz:80610.got - 2010.06.03 16:44:36.
