data_PCOD9228189
_publ_section_title
;
Structure prediction by ZEFSAII (Michael W. Deem and Ramdas Pophale) SiO2 
 PCOD9228189
Probable space group: P 2/C
;
_chemical_formula_sum "Si O2"
_cell_formula_units_Z 24
_cell_length_a 12.944134
_cell_length_b 9.228838
_cell_length_c 13.398559
_cell_angle_alpha 90.000000
_cell_angle_beta 132.281332
_cell_angle_gamma 90.000000
_cell_volume 1184.191640
_symmetry_space_group_name_H-M "P 2/C"
_symmetry_group_IT_number 13
_symmetry_cell_setting 'monoclinic'
loop_
_space_group_symop_operation_xyz
x,y,z
-x,y,1/2-z
-x,-y,-z
x,-y,1/2+z
loop_
_atom_site_type_symbol
_atom_site_label
_atom_site_fract_x
_atom_site_fract_y
_atom_site_fract_z
Si Si1 0.656165 0.176127 0.144361
Si Si2 0.044652 0.026362 0.142719
Si Si3 0.796046 0.441394 0.182261
Si Si4 0.192861 0.251246 0.726579
Si Si5 0.093115 0.310126 0.438265
Si Si6 0.527817 0.080233 0.654008
O O1 0.675036 0.348290 0.157106
O O2 0.811185 0.114262 0.260561
O O3 0.559466 0.090672 0.159346
O O4 0.597357 0.125534 0.999400
O O5 0.084738 0.865101 0.203700
O O6 0.930098 0.140288 0.108318
O O7 0.000000 0.000000 0.000000
O O8 0.781788 0.611228 0.187721
O O9 0.804469 0.387590 0.073118
O O10 0.945675 0.392708 0.326576
O O11 0.137606 0.306855 0.582467
O O12 0.335573 0.165340 0.796223
O O13 0.500000 0.114600 0.750000
#
# Coordination Sequence:
#
# PCOD9228189 Si02
#       6
#     4   4   4   4   4   4
#     4   9  19  35  53  76 105 137 176 226 274 321
#     4   8  16  33  57  80 103 138 181 222 267 328
#     4  10  19  33  52  78 110 137 167 222 283 327
#     4  10  19  33  54  80 106 136 182 227 267 325
#     4   9  18  34  54  76 107 143 172 212 277 336
#     4  10  20  36  55  73 100 144 190 225 264 323
#
# _framework density 20.266991000000001
#
# number of rings (size 3 to 8) (size 9 to 14) (size 15 to 20)
#    0.000    2.667    0.000    1.500    0.000    0.667 
#    0.000   15.833    0.000    2.000    0.000    0.000 
#    0.000    0.000    0.000    0.000    0.000    0.000 
#
# Total GULP energy -133745.564463 kJ/mol
# GULP energy per Si atom -5572.731853 kJ/mol
# Density = 2.022086 g / cm^3
# Si number density = 20.266991 Si / 1000 Ang^3
#
#
#
# Elastic Constant Matrix: (Units=GPa)
#
#
# Indices 1 2 3 4 5 6 
#
# 1 64.3592 45.0584 15.7125 0.0000 -7.6609 0.0000
# 2 45.0584 157.5404 -15.9463 0.0000 -8.0109 0.0000
# 3 15.7125 -15.9463 59.8496 0.0000 -8.2013 0.0000
# 4 0.0000 0.0000 0.0000 21.2969 0.0000 5.5942
# 5 -7.6609 -8.0109 -8.2013 0.0000 20.1183 0.0000
# 6 0.0000 0.0000 0.0000 5.5942 0.0000 7.7351
#
#
#
# Elastic Compliance Matrix: (Units=1/GPa)
#
#
# Indices 1 2 3 4 5 6 
#
# 1 0.022654 -0.007094 -0.007459 0.000000 0.002761 0.000000
# 2 -0.007094 0.008986 0.004636 0.000000 0.002767 0.000000
# 3 -0.007459 0.004636 0.020935 0.000000 0.007540 0.000000
# 4 0.000000 0.000000 0.000000 0.057968 0.000000 -0.041924
# 5 0.002761 0.002767 0.007540 0.000000 0.054933 0.000000
# 6 0.000000 0.000000 0.000000 -0.041924 0.000000 0.159600
#
#
# Mechanical properties :
#
#
# Convention : Reuss Voigt Hill
#
# Bulk Modulus (GPa) = 30.54253 41.26646 35.90449
# Shear Modulus (GPa) = 14.05186 25.62504 19.83845
#
# Velocity S-wave (km/s) = 2.63599 3.55966 3.13206
# Velocity P-wave (km/s) = 4.93633 6.10742 5.55283
#
# Compressibility (1/GPa) = 0.03274123
#
# Stress axis : x y z
#
# Youngs Moduli (GPa) = 44.14226 111.27842 47.76641
#
# Poissons Ratio (x) = 0.78940 0.35630
# Poissons Ratio (y) = 0.31314 -0.22144
# Poissons Ratio (z) = 0.32927 -0.51587
#
# Static dielectric constant tensor:
#      x y z
#    x 1.761250 0.000000 0.002340 
#    y 0.000000 1.759660 0.000000 
#    z 0.002340 0.000000 1.720550 
# 
# From -- ./inp_files/53206.got.cif
#   From: 2010.05.17/outbox.cif.g08.bks.cpg/sg13_27_cif.got.tgz:53206.got - 2010.06.03 16:44:36.
