data_PCOD9228759
_publ_section_title
;
Structure prediction by ZEFSAII (Michael W. Deem and Ramdas Pophale) SiO2 
 PCOD9228759
Probable space group: P 2/C
;
_chemical_formula_sum "Si O2"
_cell_formula_units_Z 30
_cell_length_a 17.540679
_cell_length_b 12.647276
_cell_length_c 14.029268
_cell_angle_alpha 90.000000
_cell_angle_beta 29.264623
_cell_angle_gamma 90.000000
_cell_volume 1521.418217
_symmetry_space_group_name_H-M "P 2/C"
_symmetry_group_IT_number 13
_symmetry_cell_setting 'monoclinic'
loop_
_space_group_symop_operation_xyz
x,y,z
-x,y,1/2-z
-x,-y,-z
x,-y,1/2+z
loop_
_atom_site_type_symbol
_atom_site_label
_atom_site_fract_x
_atom_site_fract_y
_atom_site_fract_z
Si Si1 0.008502 0.730826 0.629732
Si Si2 0.769702 0.132853 0.084136
Si Si3 0.575038 0.658904 0.829926
Si Si4 0.138414 0.939370 0.404744
Si Si5 0.738069 0.397771 0.348016
Si Si6 0.207169 0.625860 0.249566
Si Si7 0.869364 0.177212 0.769016
Si Si8 0.500000 0.502879 0.750000
O O1 0.059737 0.852661 0.559680
O O2 0.128100 0.664501 0.433548
O O3 0.000000 0.703262 0.750000
O O4 0.841743 0.700954 0.766640
O O5 0.639392 0.222660 0.241338
O O6 0.752724 0.021231 0.157479
O O7 0.796143 0.125101 0.941961
O O8 0.942771 0.167520 0.931698
O O9 0.665028 0.621130 0.824862
O O10 0.595290 0.581474 0.716745
O O11 0.392640 0.644437 0.052639
O O12 0.208362 0.873875 0.240259
O O13 0.000000 0.000000 0.500000
O O14 0.833282 0.506184 0.231553
O O15 0.609054 0.429140 0.566658
O O16 0.156767 0.699137 0.216309
#
# Coordination Sequence:
#
# PCOD9228759 Si02
#       8
#     4   4   4   4   4   4   4   2
#     4  11  25  38  61  92 124 163 207 256 311 374
#     4  10  19  35  62  90 110 163 201 252 306 365
#     4  11  22  38  64  88 124 160 211 249 309 372
#     4   9  19  36  58  86 119 150 202 251 308 356
#     4  11  23  39  62  87 129 164 205 246 315 371
#     4  10  21  41  56  88 123 161 196 261 300 366
#     4   9  19  35  57  85 120 150 204 253 296 367
#     4  10  22  38  64  94 124 174 204 254 312 380
#
# _framework density 19.718443000000001
#
# number of rings (size 3 to 8) (size 9 to 14) (size 15 to 20)
#    0.000    1.867    0.000    6.000    7.467    0.000 
#    2.400    2.667    0.000    0.000    0.000    0.000 
#    0.000    0.000    0.000    0.000    0.000    0.000 
#
# Total GULP energy -167211.094595 kJ/mol
# GULP energy per Si atom -5573.703153 kJ/mol
# Density = 1.967356 g / cm^3
# Si number density = 19.718443 Si / 1000 Ang^3
#
#
#
# Elastic Constant Matrix: (Units=GPa)
#
#
# Indices 1 2 3 4 5 6 
#
# 1 96.9819 11.9271 12.3268 0.0000 17.1979 0.0000
# 2 11.9271 68.9610 16.7931 0.0000 2.6598 0.0000
# 3 12.3268 16.7931 58.2641 0.0000 18.8602 0.0000
# 4 0.0000 0.0000 0.0000 20.6032 0.0000 -7.4289
# 5 17.1979 2.6598 18.8602 0.0000 24.6440 0.0000
# 6 0.0000 0.0000 0.0000 -7.4289 0.0000 33.6645
#
#
#
# Elastic Compliance Matrix: (Units=1/GPa)
#
#
# Indices 1 2 3 4 5 6 
#
# 1 0.012007 -0.001951 0.000886 0.000000 -0.008847 0.000000
# 2 -0.001951 0.016014 -0.005429 0.000000 0.003788 0.000000
# 3 0.000886 -0.005429 0.024660 0.000000 -0.018905 0.000000
# 4 0.000000 0.000000 0.000000 0.052732 0.000000 0.011637
# 5 -0.008847 0.003788 -0.018905 0.000000 0.060810 0.000000
# 6 0.000000 0.000000 0.000000 0.011637 0.000000 0.032273
#
#
# Mechanical properties :
#
#
# Convention : Reuss Voigt Hill
#
# Bulk Modulus (GPa) = 25.19364 34.03342 29.61353
# Shear Modulus (GPa) = 22.25018 27.99303 25.12161
#
# Velocity S-wave (km/s) = 3.36280 3.77189 3.57321
# Velocity P-wave (km/s) = 5.28037 6.02219 5.66344
#
# Compressibility (1/GPa) = 0.03969257
#
# Stress axis : x y z
#
# Youngs Moduli (GPa) = 83.28218 62.44382 40.55120
#
# Poissons Ratio (x) = 0.12184 -0.03592
# Poissons Ratio (y) = 0.16250 0.22016
# Poissons Ratio (z) = -0.07376 0.33902
#
# Static dielectric constant tensor:
#      x y z
#    x 1.674530 0.000000 0.029380 
#    y 0.000000 1.706190 0.000000 
#    z 0.029380 0.000000 1.718810 
# 
# From -- ./inp_files/55663.got.cif
#   From: 2010.05.17/outbox.cif.g08.bks.cpg/sg13_28_cif.got.tgz:55663.got - 2010.06.03 16:44:36.
