data_PCOD9228783
_publ_section_title
;
Structure prediction by ZEFSAII (Michael W. Deem and Ramdas Pophale) SiO2 
 PCOD9228783
Probable space group: P 2/C
;
_chemical_formula_sum "Si O2"
_cell_formula_units_Z 28
_cell_length_a 12.119166
_cell_length_b 5.572662
_cell_length_c 18.822779
_cell_angle_alpha 90.000000
_cell_angle_beta 100.390463
_cell_angle_gamma 90.000000
_cell_volume 1250.369480
_symmetry_space_group_name_H-M "P 2/C"
_symmetry_group_IT_number 13
_symmetry_cell_setting 'monoclinic'
loop_
_space_group_symop_operation_xyz
x,y,z
-x,y,1/2-z
-x,-y,-z
x,-y,1/2+z
loop_
_atom_site_type_symbol
_atom_site_label
_atom_site_fract_x
_atom_site_fract_y
_atom_site_fract_z
Si Si1 0.912013 0.722400 0.087882
Si Si2 0.830180 0.751707 0.922504
Si Si3 0.295336 0.257991 0.567542
Si Si4 0.738436 0.464219 0.174536
Si Si5 0.726060 0.074771 0.081920
Si Si6 0.540549 0.679321 0.068893
Si Si7 0.915675 0.524738 0.805431
O O1 0.828329 0.554705 0.125279
O O2 0.850326 0.972562 0.091389
O O3 0.030415 0.680480 0.138559
O O4 0.904553 0.699754 0.001879
O O5 0.749860 0.514297 0.910088
O O6 0.900855 0.740602 0.858735
O O7 0.768278 0.008517 0.921294
O O8 0.427943 0.229459 0.593234
O O9 0.284345 0.269895 0.480680
O O10 0.618661 0.564268 0.138462
O O11 0.796958 0.530112 0.254590
O O12 0.720330 0.181784 0.159670
O O13 0.625955 0.888131 0.052447
O O14 0.500000 0.500000 0.000000
O O15 0.000000 0.574527 0.750000
#
# Coordination Sequence:
#
# PCOD9228783 Si02
#       7
#     4   4   4   4   4   4   4
#     4   9  19  40  65  96 131 170 223 278 342 397
#     4  11  23  44  67 100 134 173 230 286 339 417
#     4  11  22  39  68  99 135 171 221 285 340 391
#     4  10  20  38  62  97 135 172 227 276 337 419
#     4  10  19  35  65 103 128 169 227 282 331 412
#     4  11  20  35  66 101 136 174 229 279 343 402
#     4  10  23  46  65  92 134 181 229 281 359 411
#
# _framework density 22.393381999999999
#
# number of rings (size 3 to 8) (size 9 to 14) (size 15 to 20)
#    0.000    1.714    2.857    2.571    2.000    0.000 
#   12.857    5.714    0.000    0.000    0.000    0.000 
#    0.000    0.000    0.000    0.000    0.000    0.000 
#
# Total GULP energy -155942.824277 kJ/mol
# GULP energy per Si atom -5569.386581 kJ/mol
# Density = 2.234241 g / cm^3
# Si number density = 22.393382 Si / 1000 Ang^3
#
#
#
# Elastic Constant Matrix: (Units=GPa)
#
#
# Indices 1 2 3 4 5 6 
#
# 1 91.3226 41.9227 67.0994 0.0000 29.4064 0.0000
# 2 41.9227 67.1551 23.5753 0.0000 16.0882 0.0000
# 3 67.0994 23.5753 143.7008 0.0000 33.2930 0.0000
# 4 0.0000 0.0000 0.0000 -11.7918 0.0000 11.4380
# 5 29.4064 16.0882 33.2930 0.0000 42.5233 0.0000
# 6 0.0000 0.0000 0.0000 11.4380 0.0000 15.2764
#
#
#
# Elastic Compliance Matrix: (Units=1/GPa)
#
#
# Indices 1 2 3 4 5 6 
#
# 1 0.023466 -0.010428 -0.007819 0.000000 -0.006160 0.000000
# 2 -0.010428 0.021289 0.001920 0.000000 -0.002346 0.000000
# 3 -0.007819 0.001920 0.011251 0.000000 -0.004128 0.000000
# 4 0.000000 0.000000 0.000000 -0.049126 0.000000 0.036782
# 5 -0.006160 -0.002346 -0.004128 0.000000 0.031897 0.000000
# 6 0.000000 0.000000 0.000000 0.036782 0.000000 0.037920
#
#
# Mechanical properties :
#
#
# Convention : Reuss Voigt Hill
#
# Bulk Modulus (GPa) = 42.82230 63.04145 52.93188
# Shear Modulus (GPa) = 42.68540 20.50699 31.59620
#
# Velocity S-wave (km/s) = 4.37070 3.02944 3.76035
# Velocity P-wave (km/s) = 6.68094 6.36000 6.52244
#
# Compressibility (1/GPa) = 0.02335232
#
# Stress axis : x y z
#
# Youngs Moduli (GPa) = 42.61424 46.97270 88.87776
#
# Poissons Ratio (x) = 0.48985 0.69495
# Poissons Ratio (y) = 0.44440 -0.17068
# Poissons Ratio (z) = 0.33321 -0.09021
#
# Static dielectric constant tensor:
#      x y z
#    x 1.897870 0.000000 -0.012020 
#    y 0.000000 1.958150 0.000000 
#    z -0.012020 0.000000 1.823740 
# 
# From -- ./inp_files/77551.got.cif
#   From: 2010.05.17/outbox.cif.g08.bks.cpg/sg13_39_cif.got.tgz:77551.got - 2010.06.03 16:44:36.
