data_PCOD9228861
_publ_section_title
;
Structure prediction by ZEFSAII (Michael W. Deem and Ramdas Pophale) SiO2 
 PCOD9228861
Probable space group: P 2/C
;
_chemical_formula_sum "Si O2"
_cell_formula_units_Z 20
_cell_length_a 9.883234
_cell_length_b 5.082831
_cell_length_c 21.877276
_cell_angle_alpha 90.000000
_cell_angle_beta 138.652164
_cell_angle_gamma 90.000000
_cell_volume 726.031407
_symmetry_space_group_name_H-M "P 2/C"
_symmetry_group_IT_number 13
_symmetry_cell_setting 'monoclinic'
loop_
_space_group_symop_operation_xyz
x,y,z
-x,y,1/2-z
-x,-y,-z
x,-y,1/2+z
loop_
_atom_site_type_symbol
_atom_site_label
_atom_site_fract_x
_atom_site_fract_y
_atom_site_fract_z
Si Si1 0.783578 0.023869 0.308997
Si Si2 0.873121 0.294244 0.649086
Si Si3 0.854133 0.663704 0.533577
Si Si4 0.459708 0.082273 0.879223
Si Si5 0.372347 0.448135 0.654588
O O1 0.631783 0.110628 0.202290
O O2 0.710189 0.815497 0.336140
O O3 0.965689 0.883287 0.332661
O O4 0.907719 0.260699 0.383286
O O5 0.800000 0.514959 0.577482
O O6 0.686491 0.126758 0.613566
O O7 0.000000 0.406786 0.750000
O O8 0.699731 0.914379 0.475981
O O9 0.792754 0.489537 0.454049
O O10 0.453174 0.339840 0.833346
O O11 0.500000 0.601788 0.750000
#
# Coordination Sequence:
#
# PCOD9228861 Si02
#       5
#     4   4   4   4   4
#     4  10  19  36  58  84 114 145 188 237 282 332
#     4  10  21  36  55  83 115 147 193 235 275 339
#     4  10  20  35  63  80 110 156 187 224 291 344
#     4   8  19  36  57  80 117 150 176 238 286 324
#     4   8  17  35  59  79 115 149 180 235 289 331
#
# _framework density 27.547015999999999
#
# number of rings (size 3 to 8) (size 9 to 14) (size 15 to 20)
#    1.200    1.600    0.000    1.200    0.000    4.000 
#    0.000    4.000    0.000    7.200    0.000    0.000 
#    0.000    0.000    0.000    0.000    0.000    0.000 
#
# Total GULP energy -111561.963602 kJ/mol
# GULP energy per Si atom -5578.098180 kJ/mol
# Density = 2.748432 g / cm^3
# Si number density = 27.547016 Si / 1000 Ang^3
#
#
#
# Elastic Constant Matrix: (Units=GPa)
#
#
# Indices 1 2 3 4 5 6 
#
# 1 134.5532 19.1643 42.2625 0.0000 -24.7658 0.0000
# 2 19.1643 71.2651 32.4819 0.0000 -25.6341 0.0000
# 3 42.2625 32.4819 259.2648 0.0000 -20.2640 0.0000
# 4 0.0000 0.0000 0.0000 26.9550 0.0000 -24.7375
# 5 -24.7658 -25.6341 -20.2640 0.0000 54.8902 0.0000
# 6 0.0000 0.0000 0.0000 -24.7375 0.0000 22.2992
#
#
#
# Elastic Compliance Matrix: (Units=1/GPa)
#
#
# Indices 1 2 3 4 5 6 
#
# 1 0.008428 -0.000674 -0.001047 0.000000 0.003101 0.000000
# 2 -0.000674 0.017540 -0.001515 0.000000 0.007328 0.000000
# 3 -0.001047 -0.001515 0.004248 0.000000 0.000388 0.000000
# 4 0.000000 0.000000 0.000000 -2.052452 0.000000 -2.276868
# 5 0.003101 0.007328 0.000388 0.000000 0.023183 0.000000
# 6 0.000000 0.000000 0.000000 -2.276868 0.000000 -2.480979
#
#
# Mechanical properties :
#
#
# Convention : Reuss Voigt Hill
#
# Bulk Modulus (GPa) = 42.11554 72.54451 57.33002
# Shear Modulus (GPa) = -1.11966 45.57384 22.22709
#
# Velocity S-wave (km/s) = -0.63823 4.07185 2.84364
# Velocity P-wave (km/s) = 3.84430 6.96409 5.62482
#
# Compressibility (1/GPa) = 0.02374421
#
# Stress axis : x y z
#
# Youngs Moduli (GPa) = 118.65729 57.01388 235.41172
#
# Poissons Ratio (x) = 0.03840 0.24647
# Poissons Ratio (y) = 0.07992 0.35663
# Poissons Ratio (z) = 0.12423 0.08637
#
# Static dielectric constant tensor:
#      x y z
#    x 2.107950 0.000000 0.058600 
#    y 0.000000 2.245020 0.000000 
#    z 0.058600 0.000000 2.328610 
# 
# From -- ./inp_files/77887.got.cif
#   From: 2010.05.17/outbox.cif.g08.bks.cpg/sg13_39_cif.got.tgz:77887.got - 2010.06.03 16:44:36.
