data_PCOD9228317
_publ_section_title
;
Structure prediction by ZEFSAII (Michael W. Deem and Ramdas Pophale) SiO2 
 PCOD9228317
Probable space group: P 2/C
;
_chemical_formula_sum "Si O2"
_cell_formula_units_Z 32
_cell_length_a 9.760398
_cell_length_b 14.408141
_cell_length_c 27.510161
_cell_angle_alpha 90.000000
_cell_angle_beta 153.272535
_cell_angle_gamma 90.000000
_cell_volume 1739.951195
_symmetry_space_group_name_H-M "P 2/C"
_symmetry_group_IT_number 13
_symmetry_cell_setting 'monoclinic'
loop_
_space_group_symop_operation_xyz
x,y,z
-x,y,1/2-z
-x,-y,-z
x,-y,1/2+z
loop_
_atom_site_type_symbol
_atom_site_label
_atom_site_fract_x
_atom_site_fract_y
_atom_site_fract_z
Si Si1 0.234414 0.418751 0.368308
Si Si2 0.759432 0.734716 0.038699
Si Si3 0.805293 0.412956 0.872470
Si Si4 0.115460 0.159323 0.732688
Si Si5 0.540489 0.987574 0.318089
Si Si6 0.134152 0.140693 0.019394
Si Si7 0.284136 0.716060 0.064404
Si Si8 0.234677 0.563174 0.975954
O O1 0.462858 0.330876 0.446454
O O2 0.442776 0.509712 0.424838
O O3 0.094931 0.434479 0.377538
O O4 0.000000 0.406361 0.250000
O O5 0.032223 0.664881 0.109745
O O6 0.860981 0.788707 0.119426
O O7 0.740822 0.807295 0.988362
O O8 0.500000 0.444018 0.750000
O O9 0.731781 0.362829 0.899372
O O10 0.029641 0.499449 0.945527
O O11 0.255949 0.071710 0.748083
O O12 0.402784 0.228236 0.830370
O O13 0.000000 0.134740 0.750000
O O14 0.500000 0.018866 0.250000
O O15 0.835505 0.919683 0.411032
O O16 0.624788 0.072555 0.379657
O O17 0.998797 0.216097 0.014153
O O18 0.268137 0.664726 0.008228
#
# Coordination Sequence:
#
# PCOD9228317 Si02
#       8
#     4   4   4   4   4   4   4   4
#     4  10  23  39  55  78 121 168 194 234 297 342
#     4  10  19  38  59  84 117 153 194 237 286 351
#     4  10  19  33  57  87 111 152 192 240 290 331
#     4  11  21  34  63  92 115 146 195 245 295 352
#     4  10  19  38  63  87 118 148 185 243 302 357
#     4   9  20  36  62  88 109 151 195 237 295 358
#     4  10  20  35  58  85 120 145 195 249 285 341
#     4  10  22  37  56  82 117 156 203 241 282 346
#
# _framework density 18.391321999999999
#
# number of rings (size 3 to 8) (size 9 to 14) (size 15 to 20)
#    0.000    2.000    2.500    1.125    1.750    1.500 
#    2.250    1.250    0.000    0.000    0.000    0.000 
#    0.000    0.000    0.000    0.000    0.000    0.000 
#
# Total GULP energy -178545.428374 kJ/mol
# GULP energy per Si atom -5579.544637 kJ/mol
# Density = 1.834946 g / cm^3
# Si number density = 18.391322 Si / 1000 Ang^3
#
#
#
# Elastic Constant Matrix: (Units=GPa)
#
#
# Indices 1 2 3 4 5 6 
#
# 1 71.5636 15.6208 20.8515 0.0000 -8.2094 0.0000
# 2 15.6208 62.4267 14.0519 0.0000 -9.4922 0.0000
# 3 20.8515 14.0519 60.9193 0.0000 -14.4778 0.0000
# 4 0.0000 0.0000 0.0000 23.2606 0.0000 -9.2709
# 5 -8.2094 -9.4922 -14.4778 0.0000 16.7358 0.0000
# 6 0.0000 0.0000 0.0000 -9.2709 0.0000 18.0375
#
#
#
# Elastic Compliance Matrix: (Units=1/GPa)
#
#
# Indices 1 2 3 4 5 6 
#
# 1 0.016105 -0.002660 -0.004255 0.000000 0.002711 0.000000
# 2 -0.002660 0.018189 -0.001439 0.000000 0.007767 0.000000
# 3 -0.004255 -0.001439 0.022046 0.000000 0.016168 0.000000
# 4 0.000000 0.000000 0.000000 0.054067 0.000000 0.027789
# 5 0.002711 0.007767 0.016168 0.000000 0.079474 0.000000
# 6 0.000000 0.000000 0.000000 0.027789 0.000000 0.069723
#
#
# Mechanical properties :
#
#
# Convention : Reuss Voigt Hill
#
# Bulk Modulus (GPa) = 25.23211 32.88422 29.05817
# Shear Modulus (GPa) = 17.26979 21.23247 19.25113
#
# Velocity S-wave (km/s) = 3.06767 3.40145 3.23886
# Velocity P-wave (km/s) = 5.12804 5.77457 5.46088
#
# Compressibility (1/GPa) = 0.03963205
#
# Stress axis : x y z
#
# Youngs Moduli (GPa) = 62.09321 54.97724 45.35999
#
# Poissons Ratio (x) = 0.14624 0.19299
# Poissons Ratio (y) = 0.16517 0.06529
# Poissons Ratio (z) = 0.26418 0.07913
#
# Static dielectric constant tensor:
#      x y z
#    x 1.636090 0.000000 -0.000700 
#    y 0.000000 1.628830 0.000000 
#    z -0.000700 0.000000 1.609980 
# 
# From -- ./inp_files/39460.got.cif
#   From: 2010.05.17/outbox.cif.g08.bks.cpg/sg13_20_cif.got.tgz:39460.got - 2010.06.03 16:44:36.
