data_PCOD9228774
_publ_section_title
;
Structure prediction by ZEFSAII (Michael W. Deem and Ramdas Pophale) SiO2 
 PCOD9228774
Probable space group: P 2/C
;
_chemical_formula_sum "Si O2"
_cell_formula_units_Z 28
_cell_length_a 30.545640
_cell_length_b 8.259541
_cell_length_c 30.075263
_cell_angle_alpha 90.000000
_cell_angle_beta 169.997556
_cell_angle_gamma 90.000000
_cell_volume 1317.922446
_symmetry_space_group_name_H-M "P 2/C"
_symmetry_group_IT_number 13
_symmetry_cell_setting 'monoclinic'
loop_
_space_group_symop_operation_xyz
x,y,z
-x,y,1/2-z
-x,-y,-z
x,-y,1/2+z
loop_
_atom_site_type_symbol
_atom_site_label
_atom_site_fract_x
_atom_site_fract_y
_atom_site_fract_z
Si Si1 0.054592 0.901297 0.714695
Si Si2 0.575554 0.409476 0.424708
Si Si3 0.992300 0.171999 0.518306
Si Si4 0.547960 0.230860 0.664818
Si Si5 0.507925 0.806732 0.019539
Si Si6 0.500000 0.492643 0.250000
Si Si7 0.000000 0.705847 0.750000
Si Si8 0.926903 0.770444 0.054119
O O1 0.827064 0.818894 0.459475
O O2 0.059282 0.814586 0.766650
O O3 0.980516 0.088628 0.642999
O O4 0.326624 0.881849 0.963624
O O5 0.516191 0.591445 0.380964
O O6 0.556460 0.398786 0.352088
O O7 0.854243 0.361174 0.719505
O O8 0.353446 0.298240 0.222180
O O9 0.250947 0.259246 0.765079
O O10 0.962883 0.152112 0.541306
O O11 0.000000 0.000000 0.500000
O O12 0.750693 0.263477 0.257688
O O13 0.533377 0.218728 0.597187
O O14 0.500000 0.000000 0.000000
O O15 0.750734 0.599248 0.491969
#
# Coordination Sequence:
#
# PCOD9228774 Si02
#       8
#     4   4   4   4   4   2   2   4
#     4  12  23  41  69  99 133 171 231 295 321 407
#     4  12  26  45  68  99 142 185 219 282 348 423
#     4  10  20  39  63  91 129 176 218 270 334 401
#     4  12  23  43  69 101 132 188 234 272 342 411
#     4  10  19  35  63  93 123 169 226 276 327 385
#     4  12  24  48  70  96 140 184 226 262 358 416
#     4  12  22  42  70 104 124 168 242 280 328 410
#     4  12  26  44  68 105 139 174 230 286 351 395
#
# _framework density 21.245562
#
# number of rings (size 3 to 8) (size 9 to 14) (size 15 to 20)
#    0.000    0.571    2.857    7.714    0.000    1.143 
#    0.000    4.286    0.000    0.000    0.000    0.000 
#    0.000    0.000    0.000    0.000    0.000    0.000 
#
# Total GULP energy -156604.458578 kJ/mol
# GULP energy per Si atom -5593.016378 kJ/mol
# Density = 2.119721 g / cm^3
# Si number density = 21.245562 Si / 1000 Ang^3
#
#
#
# Elastic Constant Matrix: (Units=GPa)
#
#
# Indices 1 2 3 4 5 6 
#
# 1 116.5049 -11.5322 11.6382 0.0000 -6.6346 0.0000
# 2 -11.5322 33.1078 -17.1169 0.0000 -0.6220 0.0000
# 3 11.6382 -17.1169 97.2434 0.0000 4.0928 0.0000
# 4 0.0000 0.0000 0.0000 29.2300 0.0000 -6.7670
# 5 -6.6346 -0.6220 4.0928 0.0000 37.7598 0.0000
# 6 0.0000 0.0000 0.0000 -6.7670 0.0000 23.3696
#
#
#
# Elastic Compliance Matrix: (Units=1/GPa)
#
#
# Indices 1 2 3 4 5 6 
#
# 1 0.009027 0.002839 -0.000652 0.000000 0.001703 0.000000
# 2 0.002839 0.034121 0.005647 0.000000 0.000449 0.000000
# 3 -0.000652 0.005647 0.011409 0.000000 -0.001258 0.000000
# 4 0.000000 0.000000 0.000000 0.036670 0.000000 0.010618
# 5 0.001703 0.000449 -0.001258 0.000000 0.026926 0.000000
# 6 0.000000 0.000000 0.000000 0.010618 0.000000 0.045865
#
#
# Mechanical properties :
#
#
# Convention : Reuss Voigt Hill
#
# Bulk Modulus (GPa) = 14.24003 23.64824 18.94413
# Shear Modulus (GPa) = 29.11076 35.66303 32.38689
#
# Velocity S-wave (km/s) = 3.70564 4.10153 3.90860
# Velocity P-wave (km/s) = 5.00262 5.79527 5.41347
#
# Compressibility (1/GPa) = 0.07022458
#
# Stress axis : x y z
#
# Youngs Moduli (GPa) = 110.78484 29.30714 87.65345
#
# Poissons Ratio (x) = -0.08320 0.05718
# Poissons Ratio (y) = -0.31451 -0.49502
# Poissons Ratio (z) = 0.07226 -0.16551
#
# Static dielectric constant tensor:
#      x y z
#    x 1.763140 0.000000 0.021310 
#    y 0.000000 1.812070 0.000000 
#    z 0.021310 0.000000 1.800850 
# 
# From -- ./inp_files/98137.got.cif
#   From: 2010.05.17/outbox.cif.g08.bks.cpg/sg13_50_cif.got.tgz:98137.got - 2010.06.03 16:44:36.
