data_PCOD9228614
_publ_section_title
;
Structure prediction by ZEFSAII (Michael W. Deem and Ramdas Pophale) SiO2 
 PCOD9228614
Probable space group: P 2/C
;
_chemical_formula_sum "Si O2"
_cell_formula_units_Z 26
_cell_length_a 12.055224
_cell_length_b 24.882913
_cell_length_c 5.264499
_cell_angle_alpha 90.000000
_cell_angle_beta 62.709358
_cell_angle_gamma 90.000000
_cell_volume 1403.411038
_symmetry_space_group_name_H-M "P 2/C"
_symmetry_group_IT_number 13
_symmetry_cell_setting 'monoclinic'
loop_
_space_group_symop_operation_xyz
x,y,z
-x,y,1/2-z
-x,-y,-z
x,-y,1/2+z
loop_
_atom_site_type_symbol
_atom_site_label
_atom_site_fract_x
_atom_site_fract_y
_atom_site_fract_z
Si Si1 0.642894 0.811275 0.097299
Si Si2 0.724806 0.619659 0.538788
Si Si3 0.000000 0.617429 0.250000
Si Si4 0.272499 0.694379 0.463689
Si Si5 0.859106 0.036158 0.927371
Si Si6 0.500000 0.463497 0.250000
Si Si7 0.000000 0.690820 0.750000
Si Si8 0.654062 0.872180 0.585428
O O1 0.500000 0.828267 0.250000
O O2 0.695359 0.841672 0.285877
O O3 0.645215 0.747152 0.119417
O O4 0.689902 0.832755 0.779984
O O5 0.711284 0.656189 0.806980
O O6 0.619650 0.575067 0.634154
O O7 0.862510 0.591789 0.396217
O O8 0.714049 0.658426 0.303578
O O9 0.000966 0.653809 0.499923
O O10 0.132219 0.719159 0.615382
O O11 0.000000 0.060810 0.750000
O O12 0.852148 0.992210 0.709164
O O13 0.740771 0.075565 0.022103
O O14 0.500000 0.500000 0.500000
O O15 0.500000 0.881235 0.750000
#
# Coordination Sequence:
#
# PCOD9228614 Si02
#       8
#     4   4   2   4   4   2   2   4
#     4  10  21  34  53  79 117 146 180 230 272 331
#     4  10  21  36  61  79 109 148 183 230 272 327
#     4   8  16  34  54  79 102 136 176 217 268 312
#     4  10  19  35  56  84 107 145 193 220 268 331
#     4  10  21  38  60  83 108 144 194 241 279 331
#     4  12  26  42  56  86 120 142 182 242 286 324
#     4   8  16  30  50  77 110 130 172 235 254 302
#     4  10  21  38  53  79 114 149 179 231 288 323
#
# _framework density 18.526289999999999
#
# number of rings (size 3 to 8) (size 9 to 14) (size 15 to 20)
#    0.000    2.154    0.000    2.769    2.154    0.615 
#    2.769    0.769    0.000    0.000    0.000    0.000 
#    0.000    0.000    0.000    0.000    0.000    0.000 
#
# Total GULP energy -144740.004738 kJ/mol
# GULP energy per Si atom -5566.923259 kJ/mol
# Density = 1.848412 g / cm^3
# Si number density = 18.526290 Si / 1000 Ang^3
#
#
#
# Elastic Constant Matrix: (Units=GPa)
#
#
# Indices 1 2 3 4 5 6 
#
# 1 100.2169 42.1368 48.4417 0.0000 -0.0639 0.0000
# 2 42.1368 54.3466 12.0254 0.0000 -3.5398 0.0000
# 3 48.4417 12.0254 59.0251 0.0000 25.4194 0.0000
# 4 0.0000 0.0000 0.0000 14.6345 0.0000 26.8121
# 5 -0.0639 -3.5398 25.4194 0.0000 39.0676 0.0000
# 6 0.0000 0.0000 0.0000 26.8121 0.0000 -22.5320
#
#
#
# Elastic Compliance Matrix: (Units=1/GPa)
#
#
# Indices 1 2 3 4 5 6 
#
# 1 0.031868 -0.016700 -0.030734 0.000000 0.018536 0.000000
# 2 -0.016700 0.029080 0.009250 0.000000 -0.003411 0.000000
# 3 -0.030734 0.009250 0.055490 0.000000 -0.035317 0.000000
# 4 0.000000 0.000000 0.000000 0.021487 0.000000 0.025569
# 5 0.018536 -0.003411 -0.035317 0.000000 0.048297 0.000000
# 6 0.000000 0.000000 0.000000 0.025569 0.000000 -0.013956
#
#
# Mechanical properties :
#
#
# Convention : Reuss Voigt Hill
#
# Bulk Modulus (GPa) = 24.95653 46.53295 35.74474
# Shear Modulus (GPa) = 19.08471 13.63297 16.35884
#
# Velocity S-wave (km/s) = 3.21306 2.71564 2.97477
# Velocity P-wave (km/s) = 5.22161 5.91648 5.57987
#
# Compressibility (1/GPa) = 0.04006967
#
# Stress axis : x y z
#
# Youngs Moduli (GPa) = 31.37962 34.38830 18.02127
#
# Poissons Ratio (x) = 0.57429 0.55387
# Poissons Ratio (y) = 0.52405 -0.16671
# Poissons Ratio (z) = 0.96442 -0.31811
#
# Static dielectric constant tensor:
#      x y z
#    x 1.709980 0.000000 -0.020210 
#    y 0.000000 1.574120 0.000000 
#    z -0.020210 0.000000 1.666300 
# 
# From -- ./inp_files/4082.got.cif
#   From: 2010.05.17/outbox.cif.g08.bks.cpg/sg13_3_cif.got.tgz:4082.got - 2010.06.03 16:44:36.
