data_PCOD9228391
_publ_section_title
;
Structure prediction by ZEFSAII (Michael W. Deem and Ramdas Pophale) SiO2 
 PCOD9228391
Probable space group: P 2/C
;
_chemical_formula_sum "Si O2"
_cell_formula_units_Z 28
_cell_length_a 12.053877
_cell_length_b 9.169333
_cell_length_c 15.050226
_cell_angle_alpha 90.000000
_cell_angle_beta 113.778217
_cell_angle_gamma 90.000000
_cell_volume 1522.236946
_symmetry_space_group_name_H-M "P 2/C"
_symmetry_group_IT_number 13
_symmetry_cell_setting 'monoclinic'
loop_
_space_group_symop_operation_xyz
x,y,z
-x,y,1/2-z
-x,-y,-z
x,-y,1/2+z
loop_
_atom_site_type_symbol
_atom_site_label
_atom_site_fract_x
_atom_site_fract_y
_atom_site_fract_z
Si Si1 0.829511 0.617432 0.936233
Si Si2 0.562519 0.220214 0.580220
Si Si3 0.288917 0.115775 0.190897
Si Si4 0.505378 0.888644 0.622633
Si Si5 0.396268 0.410514 0.649846
Si Si6 0.016888 0.420530 0.651311
Si Si7 0.234208 0.791960 0.223416
O O1 0.801713 0.775285 0.886335
O O2 0.702349 0.531732 0.904855
O O3 0.908981 0.536411 0.885502
O O4 0.898957 0.612225 0.052820
O O5 0.545825 0.213912 0.470487
O O6 0.468629 0.332361 0.594066
O O7 0.696395 0.244570 0.662228
O O8 0.533359 0.054040 0.601256
O O9 0.367956 0.175619 0.299496
O O10 0.398466 0.090070 0.157994
O O11 0.232027 0.963108 0.202373
O O12 0.500000 0.469150 0.750000
O O13 0.320853 0.285396 0.678214
O O14 0.103089 0.278962 0.680368
O O15 0.000000 0.463747 0.750000
#
# Coordination Sequence:
#
# PCOD9228391 Si02
#       7
#     4   4   4   4   4   4   4
#     4  10  23  38  58  80 111 150 181 231 287 316
#     4   9  16  31  54  85 111 143 177 214 273 335
#     4  10  19  34  53  81 115 141 174 224 280 324
#     4   9  18  29  52  84 119 140 166 223 280 323
#     4   9  17  33  54  81 110 146 177 210 270 342
#     4  10  23  43  58  75 105 148 197 232 269 327
#     4   9  18  35  58  77 106 145 184 225 267 322
#
# _framework density 18.393982000000001
#
# number of rings (size 3 to 8) (size 9 to 14) (size 15 to 20)
#    0.000    2.571    1.429    0.000    4.000    1.714 
#    0.000    1.429    0.000    0.000    0.000    0.000 
#    0.000    0.000    0.000    0.000    0.000    0.000 
#
# Total GULP energy -156002.096303 kJ/mol
# GULP energy per Si atom -5571.503439 kJ/mol
# Density = 1.835212 g / cm^3
# Si number density = 18.393982 Si / 1000 Ang^3
#
#
#
# Elastic Constant Matrix: (Units=GPa)
#
#
# Indices 1 2 3 4 5 6 
#
# 1 57.9386 24.3717 46.5141 0.0000 16.9396 0.0000
# 2 24.3717 45.9587 37.1442 0.0000 19.0728 0.0000
# 3 46.5141 37.1442 130.0976 0.0000 15.2820 0.0000
# 4 0.0000 0.0000 0.0000 23.0290 0.0000 2.4537
# 5 16.9396 19.0728 15.2820 0.0000 31.0183 0.0000
# 6 0.0000 0.0000 0.0000 2.4537 0.0000 13.4622
#
#
#
# Elastic Compliance Matrix: (Units=1/GPa)
#
#
# Indices 1 2 3 4 5 6 
#
# 1 0.027940 -0.005313 -0.007498 0.000000 -0.008297 0.000000
# 2 -0.005313 0.036789 -0.006674 0.000000 -0.016432 0.000000
# 3 -0.007498 -0.006674 0.012004 0.000000 0.002284 0.000000
# 4 0.000000 0.000000 0.000000 0.044284 0.000000 -0.008071
# 5 -0.008297 -0.016432 0.002284 0.000000 0.045749 0.000000
# 6 0.000000 0.000000 0.000000 -0.008071 0.000000 0.075753
#
#
# Mechanical properties :
#
#
# Convention : Reuss Voigt Hill
#
# Bulk Modulus (GPa) = 26.48041 50.00606 38.24324
# Shear Modulus (GPa) = 17.00238 21.89956 19.45097
#
# Velocity S-wave (km/s) = 3.04360 3.45423 3.25539
# Velocity P-wave (km/s) = 5.17483 6.56917 5.91324
#
# Compressibility (1/GPa) = 0.03776377
#
# Stress axis : x y z
#
# Youngs Moduli (GPa) = 35.79109 27.18185 83.30280
#
# Poissons Ratio (x) = 0.14442 0.62459
# Poissons Ratio (y) = 0.19017 0.55595
# Poissons Ratio (z) = 0.26835 0.18141
#
# Static dielectric constant tensor:
#      x y z
#    x 1.616170 0.000000 -0.005360 
#    y 0.000000 1.628570 0.000000 
#    z -0.005360 0.000000 1.688920 
# 
# From -- ./inp_files/50091.got.cif
#   From: 2010.05.17/outbox.cif.g08.bks.cpg/sg13_26_cif.got.tgz:50091.got - 2010.06.03 16:44:36.
