data_PCOD9228127
_publ_section_title
;
Structure prediction by ZEFSAII (Michael W. Deem and Ramdas Pophale) SiO2 
 PCOD9228127
Probable space group: P 2/C
;
_chemical_formula_sum "Si O2"
_cell_formula_units_Z 32
_cell_length_a 19.422775
_cell_length_b 14.924220
_cell_length_c 16.335066
_cell_angle_alpha 90.000000
_cell_angle_beta 159.169798
_cell_angle_gamma 90.000000
_cell_volume 1683.779352
_symmetry_space_group_name_H-M "P 2/C"
_symmetry_group_IT_number 13
_symmetry_cell_setting 'monoclinic'
loop_
_space_group_symop_operation_xyz
x,y,z
-x,y,1/2-z
-x,-y,-z
x,-y,1/2+z
loop_
_atom_site_type_symbol
_atom_site_label
_atom_site_fract_x
_atom_site_fract_y
_atom_site_fract_z
Si Si1 0.687289 0.022698 0.654878
Si Si2 0.093471 0.334721 0.164906
Si Si3 0.291554 0.636168 0.370808
Si Si4 0.965562 0.856892 0.946030
Si Si5 0.883633 0.214747 0.534831
Si Si6 0.949617 0.495816 0.788024
Si Si7 0.709573 0.394262 0.272458
Si Si8 0.466618 0.827597 0.618134
O O1 0.632531 0.079050 0.513605
O O2 0.500000 0.000000 0.500000
O O3 0.802029 0.932524 0.763671
O O4 0.838380 0.093157 0.863517
O O5 0.088803 0.228231 0.169400
O O6 0.111734 0.402784 0.259868
O O7 0.263491 0.359715 0.289801
O O8 0.889853 0.354624 0.891786
O O9 0.208558 0.574728 0.352445
O O10 0.488711 0.594413 0.553319
O O11 0.358647 0.737076 0.468789
O O12 0.977765 0.821282 0.054851
O O13 0.818367 0.317655 0.447772
O O14 0.677714 0.166474 0.312193
O O15 0.000000 0.205738 0.750000
O O16 0.000000 0.482829 0.750000
O O17 0.150039 0.477913 0.059509
O O18 0.500000 0.815375 0.750000
#
# Coordination Sequence:
#
# PCOD9228127 Si02
#       8
#     4   4   4   4   4   4   4   4
#     4  11  21  39  59  88 115 151 196 238 297 358
#     4  10  21  39  59  86 114 160 204 240 284 355
#     4  10  21  38  60  89 124 150 193 246 300 357
#     4  10  21  37  62  81 116 161 195 247 290 345
#     4  10  19  32  54  91 123 147 185 236 304 355
#     4  11  24  37  56  85 123 159 201 241 287 351
#     4   9  20  34  58  85 116 158 188 242 298 348
#     4  11  22  34  60  92 122 147 181 248 311 356
#
# _framework density 19.004864999999999
#
# number of rings (size 3 to 8) (size 9 to 14) (size 15 to 20)
#    0.000    1.750    2.500    2.625    7.000    2.000 
#    0.000    0.000    2.750    0.000    0.000    0.000 
#    0.000    0.000    0.000    0.000    0.000    0.000 
#
# Total GULP energy -178430.023919 kJ/mol
# GULP energy per Si atom -5575.938247 kJ/mol
# Density = 1.896161 g / cm^3
# Si number density = 19.004865 Si / 1000 Ang^3
#
#
#
# Elastic Constant Matrix: (Units=GPa)
#
#
# Indices 1 2 3 4 5 6 
#
# 1 53.9001 29.1092 37.1464 0.0000 31.4637 0.0000
# 2 29.1092 91.2324 21.2842 0.0000 11.4102 0.0000
# 3 37.1464 21.2842 68.8492 0.0000 31.1777 0.0000
# 4 0.0000 0.0000 0.0000 11.1748 0.0000 9.5885
# 5 31.4637 11.4102 31.1777 0.0000 38.1615 0.0000
# 6 0.0000 0.0000 0.0000 9.5885 0.0000 17.8298
#
#
#
# Elastic Compliance Matrix: (Units=1/GPa)
#
#
# Indices 1 2 3 4 5 6 
#
# 1 0.046079 -0.009021 -0.009666 0.000000 -0.027397 0.000000
# 2 -0.009021 0.013597 -0.001370 0.000000 0.004492 0.000000
# 3 -0.009666 -0.001370 0.025981 0.000000 -0.012847 0.000000
# 4 0.000000 0.000000 0.000000 0.166160 0.000000 -0.089357
# 5 -0.027397 0.004492 -0.012847 0.000000 0.057946 0.000000
# 6 0.000000 0.000000 0.000000 -0.089357 0.000000 0.104140
#
#
# Mechanical properties :
#
#
# Convention : Reuss Voigt Hill
#
# Bulk Modulus (GPa) = 21.95719 43.22903 32.59311
# Shear Modulus (GPa) = 10.65647 21.86268 16.25958
#
# Velocity S-wave (km/s) = 2.37053 3.39539 2.92815
# Velocity P-wave (km/s) = 4.36704 6.17797 5.34969
#
# Compressibility (1/GPa) = 0.04554317
#
# Stress axis : x y z
#
# Youngs Moduli (GPa) = 21.70191 73.54457 38.48989
#
# Poissons Ratio (x) = 0.66342 0.37203
# Poissons Ratio (y) = 0.19577 0.05275
# Poissons Ratio (z) = 0.20976 0.10079
#
# Static dielectric constant tensor:
#      x y z
#    x 1.693940 0.000000 0.039210 
#    y 0.000000 1.686080 0.000000 
#    z 0.039210 0.000000 1.709820 
# 
# From -- ./inp_files/70779.got.cif
#   From: 2010.05.17/outbox.cif.g08.bks.cpg/sg13_36_cif.got.tgz:70779.got - 2010.06.03 16:44:36.
