data_PCOD9228292
_publ_section_title
;
Structure prediction by ZEFSAII (Michael W. Deem and Ramdas Pophale) SiO2 
 PCOD9228292
Probable space group: P 2/C
;
_chemical_formula_sum "Si O2"
_cell_formula_units_Z 24
_cell_length_a 8.408086
_cell_length_b 19.571679
_cell_length_c 11.465987
_cell_angle_alpha 90.000000
_cell_angle_beta 137.164395
_cell_angle_gamma 90.000000
_cell_volume 1282.861828
_symmetry_space_group_name_H-M "P 2/C"
_symmetry_group_IT_number 13
_symmetry_cell_setting 'monoclinic'
loop_
_space_group_symop_operation_xyz
x,y,z
-x,y,1/2-z
-x,-y,-z
x,-y,1/2+z
loop_
_atom_site_type_symbol
_atom_site_label
_atom_site_fract_x
_atom_site_fract_y
_atom_site_fract_z
Si Si1 0.613313 0.425188 0.555616
Si Si2 0.305677 0.673194 0.750000
Si Si3 0.886353 0.074993 0.945596
Si Si4 0.495161 0.074993 0.554404
Si Si5 0.309346 0.829830 0.750000
Si Si6 0.002082 0.574811 0.444384
O O1 0.500000 0.500000 0.500000
O O2 0.421930 0.369049 0.417720
O O3 0.754923 0.410842 0.750000
O O4 0.803664 0.425771 0.553664
O O5 0.500000 0.673668 0.750000
O O6 0.252563 0.751478 0.750000
O O7 0.086489 0.630951 0.582279
O O8 0.084372 0.129648 0.082287
O O9 0.743003 0.089114 0.750000
O O10 0.699574 0.074578 0.949574
O O11 0.000000 0.000000 0.000000
O O12 0.419800 0.129648 0.417714
O O13 0.500000 0.000000 0.500000
O O14 0.500000 0.829938 0.750000
O O15 0.000000 0.500000 0.500000
#
# Coordination Sequence:
#
# PCOD9228292 Si02
#       6
#     4   4   4   4   4   4
#     4  10  19  33  56  83 110 146 191 236 284 338
#     4   9  20  37  55  81 118 151 188 235 287 346
#     4  11  23  39  62  89 118 154 197 243 293 351
#     4  11  23  39  62  89 118 154 197 243 293 351
#     4  11  23  39  61  89 120 157 196 243 297 348
#     4  10  19  33  56  83 110 146 191 236 284 338
#
# _framework density 18.708172000000001
#
# number of rings (size 3 to 8) (size 9 to 14) (size 15 to 20)
#    0.000    1.667    3.333    1.500    0.000    3.333 
#    0.000    6.667    0.000    0.000    0.000    0.000 
#    0.000    0.000    0.000    0.000    0.000    0.000 
#
# Total GULP energy -134069.118664 kJ/mol
# GULP energy per Si atom -5586.213278 kJ/mol
# Density = 1.866559 g / cm^3
# Si number density = 18.708172 Si / 1000 Ang^3
#
#
#
# Elastic Constant Matrix: (Units=GPa)
#
#
# Indices 1 2 3 4 5 6 
#
# 1 25.4379 22.5424 33.2508 0.0000 -0.7343 0.0000
# 2 22.5424 201.4502 128.4657 0.0000 -1.2704 0.0000
# 3 33.2508 128.4657 235.6248 0.0000 -1.7867 0.0000
# 4 0.0000 0.0000 0.0000 34.5446 0.0000 -0.0812
# 5 -0.7343 -1.2704 -1.7867 0.0000 26.7137 0.0000
# 6 0.0000 0.0000 0.0000 -0.0812 0.0000 27.7780
#
#
#
# Elastic Compliance Matrix: (Units=1/GPa)
#
#
# Indices 1 2 3 4 5 6 
#
# 1 0.048570 -0.001629 -0.005959 0.000000 0.000859 0.000000
# 2 -0.001629 0.007665 -0.003949 0.000000 0.000056 0.000000
# 3 -0.005959 -0.003949 0.007239 0.000000 0.000133 0.000000
# 4 0.000000 0.000000 0.000000 0.028948 0.000000 0.000085
# 5 0.000859 0.000056 0.000133 0.000000 0.037469 0.000000
# 6 0.000000 0.000000 0.000000 0.000085 0.000000 0.036000
#
#
# Mechanical properties :
#
#
# Convention : Reuss Voigt Hill
#
# Bulk Modulus (GPa) = 24.75316 92.33674 58.54495
# Shear Modulus (GPa) = 24.69982 36.35754 30.52868
#
# Velocity S-wave (km/s) = 3.63749 4.41319 4.04398
# Velocity P-wave (km/s) = 5.55893 8.68515 7.29155
#
# Compressibility (1/GPa) = 0.04039889
#
# Stress axis : x y z
#
# Youngs Moduli (GPa) = 20.58904 130.46860 138.14496
#
# Poissons Ratio (x) = 0.21258 0.82323
# Poissons Ratio (y) = 0.03355 0.54547
# Poissons Ratio (z) = 0.12269 0.51516
#
# Static dielectric constant tensor:
#      x y z
#    x 1.649930 0.000000 0.000030 
#    y 0.000000 1.604220 0.000000 
#    z 0.000030 0.000000 1.647510 
# 
# From -- ./inp_files/30766.got.cif
#   From: 2010.05.17/outbox.cif.g08.bks.cpg/sg13_16_cif.got.tgz:30766.got - 2010.06.03 16:44:36.
