data_PCOD9228973
_publ_section_title
;
Structure prediction by ZEFSAII (Michael W. Deem and Ramdas Pophale) SiO2 
 PCOD9228973
Probable space group: P 2/C
;
_chemical_formula_sum "Si O2"
_cell_formula_units_Z 24
_cell_length_a 9.180290
_cell_length_b 16.960972
_cell_length_c 16.805284
_cell_angle_alpha 90.000000
_cell_angle_beta 149.176026
_cell_angle_gamma 90.000000
_cell_volume 1340.800013
_symmetry_space_group_name_H-M "P 2/C"
_symmetry_group_IT_number 13
_symmetry_cell_setting 'monoclinic'
loop_
_space_group_symop_operation_xyz
x,y,z
-x,y,1/2-z
-x,-y,-z
x,-y,1/2+z
loop_
_atom_site_type_symbol
_atom_site_label
_atom_site_fract_x
_atom_site_fract_y
_atom_site_fract_z
Si Si1 0.728014 0.346687 0.924914
Si Si2 0.347384 0.165477 0.593243
Si Si3 0.813144 0.940481 0.858864
Si Si4 0.195791 0.426737 0.064585
Si Si5 0.295209 0.047197 0.844876
Si Si6 0.768729 0.515145 0.573355
O O1 0.500000 0.369852 0.750000
O O2 0.657884 0.259245 0.920819
O O3 0.734709 0.409123 0.999901
O O4 0.029599 0.351492 0.020431
O O5 0.500000 0.149787 0.750000
O O6 0.530221 0.119079 0.612970
O O7 0.024595 0.133136 0.445656
O O8 0.500000 0.925229 0.750000
O O9 0.772227 0.986100 0.757262
O O10 0.000000 0.000000 0.000000
O O11 0.500000 0.432250 0.250000
O O12 0.200263 0.440660 0.972243
O O13 0.000000 0.500000 0.000000
O O14 0.000000 0.070058 0.750000
O O15 0.500000 0.000000 0.000000
O O16 0.500000 0.500000 0.500000
O O17 0.000000 0.526645 0.750000
#
# Coordination Sequence:
#
# PCOD9228973 Si02
#       6
#     4   4   4   4   4   4
#     4  10  22  41  59  83 121 161 201 244 296 352
#     4  11  23  41  62  87 121 162 205 257 302 356
#     4  12  20  38  64  86 115 153 209 245 290 366
#     4  10  19  36  63  88 115 160 205 237 285 360
#     4  12  22  37  62  91 115 154 198 253 311 367
#     4  11  20  35  61  90 118 150 193 241 291 349
#
# _framework density 17.899761000000002
#
# number of rings (size 3 to 8) (size 9 to 14) (size 15 to 20)
#    0.000    1.000    5.000    5.000    0.000    0.667 
#    3.000    4.167    0.000    0.000    0.000    0.000 
#    0.000    0.000    0.000    0.000    0.000    0.000 
#
# Total GULP energy -133825.009880 kJ/mol
# GULP energy per Si atom -5576.042078 kJ/mol
# Density = 1.785902 g / cm^3
# Si number density = 17.899761 Si / 1000 Ang^3
#
#
#
# Elastic Constant Matrix: (Units=GPa)
#
#
# Indices 1 2 3 4 5 6 
#
# 1 162.3548 58.3627 68.1874 0.0000 9.2673 0.0000
# 2 58.3627 91.2611 55.6316 0.0000 -3.9248 0.0000
# 3 68.1874 55.6316 167.8789 0.0000 -2.2247 0.0000
# 4 0.0000 0.0000 0.0000 64.8922 0.0000 3.8222
# 5 9.2673 -3.9248 -2.2247 0.0000 47.8556 0.0000
# 6 0.0000 0.0000 0.0000 3.8222 0.0000 27.6017
#
#
#
# Elastic Compliance Matrix: (Units=1/GPa)
#
#
# Indices 1 2 3 4 5 6 
#
# 1 0.008756 -0.004395 -0.002129 0.000000 -0.002155 0.000000
# 2 -0.004395 0.015977 -0.003483 0.000000 0.001999 0.000000
# 3 -0.002129 -0.003483 0.007982 0.000000 0.000498 0.000000
# 4 0.000000 0.000000 0.000000 0.015537 0.000000 -0.002152
# 5 -0.002155 0.001999 0.000498 0.000000 0.021501 0.000000
# 6 0.000000 0.000000 0.000000 -0.002152 0.000000 0.036528
#
#
# Mechanical properties :
#
#
# Convention : Reuss Voigt Hill
#
# Bulk Modulus (GPa) = 78.72426 87.31757 83.02092
# Shear Modulus (GPa) = 38.30595 44.02409 41.16502
#
# Velocity S-wave (km/s) = 4.63106 4.96469 4.80078
# Velocity P-wave (km/s) = 8.52477 9.04166 8.78702
#
# Compressibility (1/GPa) = 0.01270256
#
# Stress axis : x y z
#
# Youngs Moduli (GPa) = 114.20447 62.58891 125.28027
#
# Poissons Ratio (x) = 0.27506 0.26669
# Poissons Ratio (y) = 0.50190 0.43635
# Poissons Ratio (z) = 0.24311 0.21800
#
# Static dielectric constant tensor:
#      x y z
#    x 1.621750 0.000000 0.057470 
#    y 0.000000 1.625010 0.000000 
#    z 0.057470 0.000000 1.521880 
# 
# From -- ./inp_files/48131.got.cif
#   From: 2010.05.17/outbox.cif.g08.bks.cpg/sg13_25_cif.got.tgz:48131.got - 2010.06.03 16:44:36.
