data_PCOD9228877
_publ_section_title
;
Structure prediction by ZEFSAII (Michael W. Deem and Ramdas Pophale) SiO2 
 PCOD9228877
Probable space group: P 2/C
;
_chemical_formula_sum "Si O2"
_cell_formula_units_Z 28
_cell_length_a 17.755912
_cell_length_b 8.931842
_cell_length_c 21.953044
_cell_angle_alpha 90.000000
_cell_angle_beta 26.454324
_cell_angle_gamma 90.000000
_cell_volume 1550.997512
_symmetry_space_group_name_H-M "P 2/C"
_symmetry_group_IT_number 13
_symmetry_cell_setting 'monoclinic'
loop_
_space_group_symop_operation_xyz
x,y,z
-x,y,1/2-z
-x,-y,-z
x,-y,1/2+z
loop_
_atom_site_type_symbol
_atom_site_label
_atom_site_fract_x
_atom_site_fract_y
_atom_site_fract_z
Si Si1 0.613620 0.019404 0.612892
Si Si2 0.803168 0.738352 0.523963
Si Si3 0.349534 0.585758 0.976817
Si Si4 0.310646 0.931259 0.641472
Si Si5 0.647067 0.213674 0.262724
Si Si6 0.794489 0.257774 0.395359
Si Si7 0.892358 0.198408 0.770612
O O1 0.500000 0.084307 0.750000
O O2 0.711383 0.140300 0.502696
O O3 0.749391 0.905822 0.543053
O O4 0.487691 0.910059 0.665870
O O5 0.683067 0.631579 0.570360
O O6 0.773288 0.739042 0.617309
O O7 0.987418 0.712566 0.362814
O O8 0.286330 0.419157 0.032832
O O9 0.236542 0.692247 0.101994
O O10 0.538667 0.637381 0.855622
O O11 0.278894 0.864565 0.731331
O O12 0.271208 0.800322 0.622194
O O13 0.500000 0.000000 0.500000
O O14 0.193172 0.067228 0.704987
O O15 0.000000 0.261819 0.250000
O O16 0.000000 0.135362 0.750000
#
# Coordination Sequence:
#
# PCOD9228877 Si02
#       7
#     4   4   4   4   4   4   4
#     4   9  18  33  54  80 109 139 184 236 280 326
#     4   9  18  35  59  82 109 146 190 231 279 340
#     4  10  20  36  58  81 110 151 190 229 279 339
#     4  12  21  36  59  85 116 150 189 237 287 337
#     4  10  20  36  56  85 112 148 186 228 289 341
#     4  12  23  36  58  86 115 147 194 237 278 336
#     4  10  19  36  59  82 112 152 194 236 279 336
#
# _framework density 18.052897999999999
#
# number of rings (size 3 to 8) (size 9 to 14) (size 15 to 20)
#    0.000    1.714    2.857    5.571    0.000    2.286 
#    0.000    0.000    0.000    3.429    0.000    0.000 
#    0.000    0.000    0.000    0.000    0.000    0.000 
#
# Total GULP energy -156099.768843 kJ/mol
# GULP energy per Si atom -5574.991744 kJ/mol
# Density = 1.801181 g / cm^3
# Si number density = 18.052898 Si / 1000 Ang^3
#
#
#
# Elastic Constant Matrix: (Units=GPa)
#
#
# Indices 1 2 3 4 5 6 
#
# 1 84.2112 27.5955 35.6160 0.0000 16.0076 0.0000
# 2 27.5955 73.3487 17.4613 0.0000 11.9387 0.0000
# 3 35.6160 17.4613 97.8337 0.0000 24.7545 0.0000
# 4 0.0000 0.0000 0.0000 11.2877 0.0000 -5.9399
# 5 16.0076 11.9387 24.7545 0.0000 28.8460 0.0000
# 6 0.0000 0.0000 0.0000 -5.9399 0.0000 7.1615
#
#
#
# Elastic Compliance Matrix: (Units=1/GPa)
#
#
# Indices 1 2 3 4 5 6 
#
# 1 0.015674 -0.004376 -0.004065 0.000000 -0.003398 0.000000
# 2 -0.004376 0.015987 -0.000256 0.000000 -0.003968 0.000000
# 3 -0.004065 -0.000256 0.014242 0.000000 -0.009860 0.000000
# 4 0.000000 0.000000 0.000000 0.157208 0.000000 0.130392
# 5 -0.003398 -0.003968 -0.009860 0.000000 0.046656 0.000000
# 6 0.000000 0.000000 0.000000 0.130392 0.000000 0.247787
#
#
# Mechanical properties :
#
#
# Convention : Reuss Voigt Hill
#
# Bulk Modulus (GPa) = 35.07792 46.30436 40.69114
# Shear Modulus (GPa) = 9.53376 21.10707 15.32042
#
# Velocity S-wave (km/s) = 2.30054 3.42304 2.91630
# Velocity P-wave (km/s) = 5.15067 6.42867 5.82483
#
# Compressibility (1/GPa) = 0.02850797
#
# Stress axis : x y z
#
# Youngs Moduli (GPa) = 63.79885 62.55163 70.21540
#
# Poissons Ratio (x) = 0.27373 0.28544
# Poissons Ratio (y) = 0.27919 0.01798
# Poissons Ratio (z) = 0.25936 0.01602
#
# Static dielectric constant tensor:
#      x y z
#    x 1.634690 0.000000 -0.002190 
#    y 0.000000 1.605990 0.000000 
#    z -0.002190 0.000000 1.668650 
# 
# From -- ./inp_files/80823.got.cif
#   From: 2010.05.17/outbox.cif.g08.bks.cpg/sg13_41_cif.got.tgz:80823.got - 2010.06.03 16:44:36.
