data_PCOD9228639
_publ_section_title
;
Structure prediction by ZEFSAII (Michael W. Deem and Ramdas Pophale) SiO2 
 PCOD9228639
Probable space group: P 2/C
;
_chemical_formula_sum "Si O2"
_cell_formula_units_Z 30
_cell_length_a 10.996382
_cell_length_b 9.671786
_cell_length_c 15.264131
_cell_angle_alpha 90.000000
_cell_angle_beta 71.362794
_cell_angle_gamma 90.000000
_cell_volume 1538.281438
_symmetry_space_group_name_H-M "P 2/C"
_symmetry_group_IT_number 13
_symmetry_cell_setting 'monoclinic'
loop_
_space_group_symop_operation_xyz
x,y,z
-x,y,1/2-z
-x,-y,-z
x,-y,1/2+z
loop_
_atom_site_type_symbol
_atom_site_label
_atom_site_fract_x
_atom_site_fract_y
_atom_site_fract_z
Si Si1 0.289332 0.397700 0.963861
Si Si2 0.041328 0.375593 0.924934
Si Si3 0.265155 0.362472 0.245132
Si Si4 0.637154 0.142150 0.940152
Si Si5 0.000000 0.484675 0.250000
Si Si6 0.649100 0.167206 0.417455
Si Si7 0.206702 0.700167 0.961441
Si Si8 0.434565 0.364379 0.677320
O O1 0.246362 0.553155 0.998434
O O2 0.439097 0.409609 0.906209
O O3 0.191550 0.355089 0.908202
O O4 0.276340 0.276508 0.037849
O O5 0.009598 0.421157 0.834331
O O6 0.940574 0.263659 0.982089
O O7 0.000000 0.500000 0.000000
O O8 0.129105 0.393426 0.228728
O O9 0.343700 0.242773 0.177622
O O10 0.234227 0.323962 0.352819
O O11 0.350483 0.501424 0.219571
O O12 0.645519 0.253436 0.859731
O O13 0.688678 0.992243 0.900486
O O14 0.488439 0.150327 0.003680
O O15 0.708850 0.186943 0.011268
O O16 0.500000 0.303790 0.750000
#
# Coordination Sequence:
#
# PCOD9228639 Si02
#       8
#     4   4   4   4   2   4   4   4
#     4  10  19  37  61  89 118 152 203 259 302 355
#     4  10  19  35  57  94 123 157 196 259 313 367
#     4  12  23  36  64  96 118 160 203 261 311 375
#     4  10  23  42  58  85 123 169 198 255 311 366
#     4  12  20  36  64  92 130 158 202 260 326 368
#     4  10  23  40  60  84 123 166 206 246 316 374
#     4  11  21  38  62  91 125 153 205 255 313 367
#     4  11  20  38  61  93 120 147 206 257 305 363
#
# _framework density 19.502282999999998
#
# number of rings (size 3 to 8) (size 9 to 14) (size 15 to 20)
#    0.000    1.333    4.000    4.000    0.000    2.133 
#    7.200    0.667    0.000    0.800    0.000    0.000 
#    0.000    0.000    0.000    0.000    0.000    0.000 
#
# Total GULP energy -167150.742758 kJ/mol
# GULP energy per Si atom -5571.691425 kJ/mol
# Density = 1.945789 g / cm^3
# Si number density = 19.502283 Si / 1000 Ang^3
#
#
#
# Elastic Constant Matrix: (Units=GPa)
#
#
# Indices 1 2 3 4 5 6 
#
# 1 40.3112 16.6350 23.5715 0.0000 9.1734 0.0000
# 2 16.6350 91.2065 54.3720 0.0000 2.1838 0.0000
# 3 23.5715 54.3720 117.4819 0.0000 7.9412 0.0000
# 4 0.0000 0.0000 0.0000 12.3249 0.0000 -5.4649
# 5 9.1734 2.1838 7.9412 0.0000 27.0761 0.0000
# 6 0.0000 0.0000 0.0000 -5.4649 0.0000 0.0799
#
#
#
# Elastic Compliance Matrix: (Units=1/GPa)
#
#
# Indices 1 2 3 4 5 6 
#
# 1 0.030448 -0.002840 -0.004196 0.000000 -0.008856 0.000000
# 2 -0.002840 0.015426 -0.006683 0.000000 0.001678 0.000000
# 3 -0.004196 -0.006683 0.012563 0.000000 -0.001724 0.000000
# 4 0.000000 0.000000 0.000000 -0.002766 0.000000 -0.189225
# 5 -0.008856 0.001678 -0.001724 0.000000 0.040304 0.000000
# 6 0.000000 0.000000 0.000000 -0.189225 0.000000 -0.426758
#
#
# Mechanical properties :
#
#
# Convention : Reuss Voigt Hill
#
# Bulk Modulus (GPa) = 32.25875 48.68409 40.47142
# Shear Modulus (GPa) = -17.06411 18.19091 0.56340
#
# Velocity S-wave (km/s) = -2.96122 3.05742 0.53807
# Velocity P-wave (km/s) = 2.21025 6.12219 4.60252
#
# Compressibility (1/GPa) = 0.03099934
#
# Stress axis : x y z
#
# Youngs Moduli (GPa) = 32.84300 64.82613 79.59666
#
# Poissons Ratio (x) = 0.18409 0.33400
# Poissons Ratio (y) = 0.09327 0.53194
# Poissons Ratio (z) = 0.13781 0.43323
#
# Static dielectric constant tensor:
#      x y z
#    x 1.885720 0.000000 -0.011850 
#    y 0.000000 1.726980 0.000000 
#    z -0.011850 0.000000 1.725470 
# 
# From -- ./inp_files/50058.got.cif
#   From: 2010.05.17/outbox.cif.g08.bks.cpg/sg13_26_cif.got.tgz:50058.got - 2010.06.03 16:44:36.
