data_PCOD9228962
_publ_section_title
;
Structure prediction by ZEFSAII (Michael W. Deem and Ramdas Pophale) SiO2 
 PCOD9228962
Probable space group: P 2/C
;
_chemical_formula_sum "Si O2"
_cell_formula_units_Z 30
_cell_length_a 10.779951
_cell_length_b 11.173504
_cell_length_c 15.603822
_cell_angle_alpha 90.000000
_cell_angle_beta 49.968476
_cell_angle_gamma 90.000000
_cell_volume 1439.098487
_symmetry_space_group_name_H-M "P 2/C"
_symmetry_group_IT_number 13
_symmetry_cell_setting 'monoclinic'
loop_
_space_group_symop_operation_xyz
x,y,z
-x,y,1/2-z
-x,-y,-z
x,-y,1/2+z
loop_
_atom_site_type_symbol
_atom_site_label
_atom_site_fract_x
_atom_site_fract_y
_atom_site_fract_z
Si Si1 0.500000 0.511262 0.250000
Si Si2 0.832079 0.533469 0.358302
Si Si3 0.482346 0.931083 0.160482
Si Si4 0.326796 0.339066 0.195096
Si Si5 0.269729 0.366479 0.963697
Si Si6 0.446996 0.716029 0.048892
Si Si7 0.823924 0.899705 0.938943
Si Si8 0.815299 0.103257 0.234073
O O1 0.435464 0.421042 0.206538
O O2 0.655304 0.594343 0.159378
O O3 0.776736 0.426549 0.319369
O O4 0.839974 0.470108 0.447308
O O5 0.706258 0.640402 0.409342
O O6 0.000000 0.580146 0.250000
O O7 0.500000 0.883764 0.250000
O O8 0.424505 0.831312 0.117788
O O9 0.339726 0.027842 0.226293
O O10 0.663474 0.966788 0.046378
O O11 0.209810 0.239597 0.286784
O O12 0.449720 0.261604 0.081938
O O13 0.434803 0.367995 0.947361
O O14 0.199118 0.234875 0.011661
O O15 0.816763 0.894853 0.838157
O O16 0.007568 0.941851 0.875534
#
# Coordination Sequence:
#
# PCOD9228962 Si02
#       8
#     2   4   4   4   4   4   4   4
#     4  12  22  34  64  98 132 164 220 274 326 384
#     4  11  19  36  59  89 125 164 213 262 325 396
#     4  11  25  42  67  94 129 170 222 278 337 379
#     4  11  21  37  64  90 125 169 216 264 324 393
#     4  10  19  36  62  91 123 167 213 259 318 393
#     4  10  20  39  61  85 120 174 215 254 316 399
#     4  10  22  40  71  92 121 177 224 265 327 402
#     4  11  22  43  65  96 123 172 231 270 320 398
#
# _framework density 20.846384
#
# number of rings (size 3 to 8) (size 9 to 14) (size 15 to 20)
#    0.000    1.333    6.667    2.000    4.667    0.533 
#    2.400    4.000    0.000    0.000    0.000    0.000 
#    0.000    0.000    0.000    0.000    0.000    0.000 
#
# Total GULP energy -167236.473122 kJ/mol
# GULP energy per Si atom -5574.549104 kJ/mol
# Density = 2.079894 g / cm^3
# Si number density = 20.846384 Si / 1000 Ang^3
#
#
#
# Elastic Constant Matrix: (Units=GPa)
#
#
# Indices 1 2 3 4 5 6 
#
# 1 32.1375 24.6677 28.5488 0.0000 -15.6303 0.0000
# 2 24.6677 34.0713 16.2233 0.0000 -6.4389 0.0000
# 3 28.5488 16.2233 102.3036 0.0000 -27.8932 0.0000
# 4 0.0000 0.0000 0.0000 23.9109 0.0000 -4.0640
# 5 -15.6303 -6.4389 -27.8932 0.0000 43.5773 0.0000
# 6 0.0000 0.0000 0.0000 -4.0640 0.0000 20.7830
#
#
#
# Elastic Compliance Matrix: (Units=1/GPa)
#
#
# Indices 1 2 3 4 5 6 
#
# 1 0.099079 -0.062192 -0.012844 0.000000 0.018127 0.000000
# 2 -0.062192 0.070899 0.003496 0.000000 -0.009593 0.000000
# 3 -0.012844 0.003496 0.014161 0.000000 0.004974 0.000000
# 4 0.000000 0.000000 0.000000 0.043260 0.000000 0.008459
# 5 0.018127 -0.009593 0.004974 0.000000 0.031216 0.000000
# 6 0.000000 0.000000 0.000000 0.008459 0.000000 0.049770
#
#
# Mechanical properties :
#
#
# Convention : Reuss Voigt Hill
#
# Bulk Modulus (GPa) = 24.35464 34.15465 29.25465
# Shear Modulus (GPa) = 10.74921 24.25908 17.50414
#
# Velocity S-wave (km/s) = 2.27323 3.41502 2.90085
# Velocity P-wave (km/s) = 4.31258 5.65414 5.02830
#
# Compressibility (1/GPa) = 0.04105993
#
# Stress axis : x y z
#
# Youngs Moduli (GPa) = 10.09298 14.10447 70.61771
#
# Poissons Ratio (x) = 0.87718 0.90703
# Poissons Ratio (y) = 0.62770 -0.24691
# Poissons Ratio (z) = 0.12964 -0.04932
#
# Static dielectric constant tensor:
#      x y z
#    x 1.782480 0.000000 0.004730 
#    y 0.000000 1.736540 0.000000 
#    z 0.004730 0.000000 1.866380 
# 
# From -- ./inp_files/66630.got.cif
#   From: 2010.05.17/outbox.cif.g08.bks.cpg/sg13_34_cif.got.tgz:66630.got - 2010.06.03 16:44:36.
