data_PCOD9228589
_publ_section_title
;
Structure prediction by ZEFSAII (Michael W. Deem and Ramdas Pophale) SiO2 
 PCOD9228589
Probable space group: P 2/C
;
_chemical_formula_sum "Si O2"
_cell_formula_units_Z 28
_cell_length_a 11.109640
_cell_length_b 13.074554
_cell_length_c 10.918954
_cell_angle_alpha 90.000000
_cell_angle_beta 104.585677
_cell_angle_gamma 90.000000
_cell_volume 1534.903326
_symmetry_space_group_name_H-M "P 2/C"
_symmetry_group_IT_number 13
_symmetry_cell_setting 'monoclinic'
loop_
_space_group_symop_operation_xyz
x,y,z
-x,y,1/2-z
-x,-y,-z
x,-y,1/2+z
loop_
_atom_site_type_symbol
_atom_site_label
_atom_site_fract_x
_atom_site_fract_y
_atom_site_fract_z
Si Si1 0.652254 0.080807 0.294282
Si Si2 0.390062 0.580803 0.496984
Si Si3 0.010696 0.417955 0.111591
Si Si4 0.742301 0.612837 0.547243
Si Si5 0.634024 0.051404 0.018879
Si Si6 0.720048 0.314880 0.307375
Si Si7 0.455916 0.263626 0.606925
O O1 0.500000 0.084399 0.250000
O O2 0.700621 0.195595 0.328216
O O3 0.690990 0.006592 0.415863
O O4 0.695193 0.045924 0.169135
O O5 0.500000 0.500000 0.500000
O O6 0.270164 0.509718 0.439028
O O7 0.369712 0.620048 0.628514
O O8 0.428107 0.679895 0.428499
O O9 0.883513 0.353758 0.065662
O O10 0.000000 0.458468 0.250000
O O11 0.138777 0.355012 0.135903
O O12 0.000000 0.500000 0.000000
O O13 0.690940 0.661509 0.658843
O O14 0.653461 0.651342 0.416216
O O15 0.603295 0.168381 0.978403
O O16 0.500000 0.000000 0.000000
O O17 0.500000 0.227831 0.750000
#
# Coordination Sequence:
#
# PCOD9228589 Si02
#       7
#     4   4   4   4   4   4   4
#     4  10  20  34  60  83 118 153 193 249 297 363
#     4  10  22  30  51  81 119 149 187 226 292 349
#     4  10  21  39  61  82 113 155 207 239 282 342
#     4  10  22  37  55  81 114 157 194 242 282 351
#     4  10  19  35  54  82 114 152 191 234 299 357
#     4  11  21  37  59  83 113 157 202 239 294 351
#     4  11  22  34  52  85 119 150 185 238 300 355
#
# _framework density 18.242190000000001
#
# number of rings (size 3 to 8) (size 9 to 14) (size 15 to 20)
#    0.000    1.714    2.857    3.000    6.000    0.000 
#    0.000    0.000    0.000    0.857    0.000    0.000 
#    0.000    0.000    0.000    0.000    0.000    0.000 
#
# Total GULP energy -155927.984470 kJ/mol
# GULP energy per Si atom -5568.856588 kJ/mol
# Density = 1.820067 g / cm^3
# Si number density = 18.242190 Si / 1000 Ang^3
#
#
#
# Elastic Constant Matrix: (Units=GPa)
#
#
# Indices 1 2 3 4 5 6 
#
# 1 63.4964 12.4604 29.5447 0.0000 -4.7451 0.0000
# 2 12.4604 101.7234 46.1542 0.0000 -15.3522 0.0000
# 3 29.5447 46.1542 112.2895 0.0000 -16.0309 0.0000
# 4 0.0000 0.0000 0.0000 34.9664 0.0000 -0.2481
# 5 -4.7451 -15.3522 -16.0309 0.0000 26.6342 0.0000
# 6 0.0000 0.0000 0.0000 -0.2481 0.0000 13.6810
#
#
#
# Elastic Compliance Matrix: (Units=1/GPa)
#
#
# Indices 1 2 3 4 5 6 
#
# 1 0.017950 -0.000029 -0.004657 0.000000 0.000378 0.000000
# 2 -0.000029 0.012563 -0.004511 0.000000 0.004521 0.000000
# 3 -0.004657 -0.004511 0.012576 0.000000 0.004140 0.000000
# 4 0.000000 0.000000 0.000000 0.028603 0.000000 0.000519
# 5 0.000378 0.004521 0.004140 0.000000 0.042711 0.000000
# 6 0.000000 0.000000 0.000000 0.000519 0.000000 0.073103
#
#
# Mechanical properties :
#
#
# Convention : Reuss Voigt Hill
#
# Bulk Modulus (GPa) = 40.49251 50.42532 45.45892
# Shear Modulus (GPa) = 23.35027 27.67965 25.51496
#
# Velocity S-wave (km/s) = 3.58161 3.89953 3.74395
# Velocity P-wave (km/s) = 6.27290 6.92656 6.60782
#
# Compressibility (1/GPa) = 0.02469592
#
# Stress axis : x y z
#
# Youngs Moduli (GPa) = 55.71127 79.59819 79.51718
#
# Poissons Ratio (x) = 0.00228 0.37031
# Poissons Ratio (y) = 0.00160 0.35868
# Poissons Ratio (z) = 0.25945 0.35905
#
# Static dielectric constant tensor:
#      x y z
#    x 1.661270 0.000000 -0.011530 
#    y 0.000000 1.480030 0.000000 
#    z -0.011530 0.000000 1.674260 
# 
# From -- ./inp_files/33290.got.cif
#   From: 2010.05.17/outbox.cif.g08.bks.cpg/sg13_17_cif.got.tgz:33290.got - 2010.06.03 16:44:36.
