data_PCOD9228378
_publ_section_title
;
Structure prediction by ZEFSAII (Michael W. Deem and Ramdas Pophale) SiO2 
 PCOD9228378
Probable space group: P 2/C
;
_chemical_formula_sum "Si O2"
_cell_formula_units_Z 28
_cell_length_a 23.010052
_cell_length_b 11.090688
_cell_length_c 9.967727
_cell_angle_alpha 90.000000
_cell_angle_beta 140.556185
_cell_angle_gamma 90.000000
_cell_volume 1616.090228
_symmetry_space_group_name_H-M "P 2/C"
_symmetry_group_IT_number 13
_symmetry_cell_setting 'monoclinic'
loop_
_space_group_symop_operation_xyz
x,y,z
-x,y,1/2-z
-x,-y,-z
x,-y,1/2+z
loop_
_atom_site_type_symbol
_atom_site_label
_atom_site_fract_x
_atom_site_fract_y
_atom_site_fract_z
Si Si1 0.000000 0.825114 0.750000
Si Si2 0.813674 0.138108 0.523476
Si Si3 0.293101 0.396204 0.516828
Si Si4 0.153691 0.006342 0.658172
Si Si5 0.000000 0.759486 0.250000
Si Si6 0.493199 0.383146 0.894763
Si Si7 0.105408 0.744864 0.688041
Si Si8 0.307392 0.629043 0.729826
O O1 0.952596 0.745425 0.780168
O O2 0.925620 0.911224 0.546361
O O3 0.786737 0.044593 0.358535
O O4 0.763306 0.263807 0.416774
O O5 0.921743 0.162696 0.686454
O O6 0.798841 0.084114 0.642741
O O7 0.390477 0.332782 0.728050
O O8 0.203564 0.316345 0.382761
O O9 0.291458 0.520343 0.597511
O O10 0.296190 0.418525 0.362182
O O11 0.117471 0.885837 0.668349
O O12 0.052529 0.691097 0.463713
O O13 0.500000 0.417053 0.750000
O O14 0.500000 0.500000 0.000000
O O15 0.588977 0.317999 0.097045
#
# Coordination Sequence:
#
# PCOD9228378 Si02
#       8
#     2   4   4   4   2   4   4   4
#     4  12  21  32  55  84 100 147 196 237 260 306
#     4  11  21  34  55  79 109 145 184 228 270 312
#     4  10  20  37  57  82 111 141 178 225 277 330
#     4  11  20  32  54  77 108 137 188 232 264 306
#     4  10  19  34  53  70 110 141 178 221 268 314
#     4   8  16  32  58  82 100 134 178 224 266 324
#     4  11  21  34  53  78 107 141 183 229 271 314
#     4  10  20  37  58  83 111 141 178 222 281 332
#
# _framework density 17.325766000000002
#
# number of rings (size 3 to 8) (size 9 to 14) (size 15 to 20)
#    0.000    1.714    5.714    2.143    0.000    1.143 
#    0.000    1.429    0.000    0.857    3.714    0.000 
#    0.000    0.000    0.000    0.000    0.000    0.000 
#
# Total GULP energy -155882.989941 kJ/mol
# GULP energy per Si atom -5567.249641 kJ/mol
# Density = 1.728633 g / cm^3
# Si number density = 17.325766 Si / 1000 Ang^3
#
#
#
# Elastic Constant Matrix: (Units=GPa)
#
#
# Indices 1 2 3 4 5 6 
#
# 1 87.5414 40.7897 56.8849 0.0000 0.5893 0.0000
# 2 40.7897 46.3857 47.9641 0.0000 2.5730 0.0000
# 3 56.8849 47.9641 101.9457 0.0000 -0.0178 0.0000
# 4 0.0000 0.0000 0.0000 1.9530 0.0000 -15.1937
# 5 0.5893 2.5730 -0.0178 0.0000 31.3625 0.0000
# 6 0.0000 0.0000 0.0000 -15.1937 0.0000 7.4450
#
#
#
# Elastic Compliance Matrix: (Units=1/GPa)
#
#
# Indices 1 2 3 4 5 6 
#
# 1 0.021047 -0.012461 -0.005881 0.000000 0.000624 0.000000
# 2 -0.012461 0.049739 -0.016449 0.000000 -0.003856 0.000000
# 3 -0.005881 -0.016449 0.020830 0.000000 0.001472 0.000000
# 4 0.000000 0.000000 0.000000 -0.034418 0.000000 -0.070241
# 5 0.000624 -0.003856 0.001472 0.000000 0.032191 0.000000
# 6 0.000000 0.000000 0.000000 -0.070241 0.000000 -0.009029
#
#
# Mechanical properties :
#
#
# Convention : Reuss Voigt Hill
#
# Bulk Modulus (GPa) = 45.38570 58.57224 51.97897
# Shear Modulus (GPa) = 31.78938 14.16771 22.97854
#
# Velocity S-wave (km/s) = 4.28811 2.86269 3.64574
# Velocity P-wave (km/s) = 7.12527 6.69377 6.91289
#
# Compressibility (1/GPa) = 0.02203337
#
# Stress axis : x y z
#
# Youngs Moduli (GPa) = 47.51347 20.10505 48.00774
#
# Poissons Ratio (x) = 0.25053 0.28233
# Poissons Ratio (y) = 0.59207 0.78968
# Poissons Ratio (z) = 0.27943 0.33071
#
# Static dielectric constant tensor:
#      x y z
#    x 1.625350 0.000000 0.000170 
#    y 0.000000 1.554740 0.000000 
#    z 0.000170 0.000000 1.638940 
# 
# From -- ./inp_files/23425.got.cif
#   From: 2010.05.17/outbox.cif.g08.bks.cpg/sg13_12_cif.got.tgz:23425.got - 2010.06.03 16:44:36.
