data_PCOD9228445
_publ_section_title
;
Structure prediction by ZEFSAII (Michael W. Deem and Ramdas Pophale) SiO2 
 PCOD9228445
Probable space group: P 2/C
;
_chemical_formula_sum "Si O2"
_cell_formula_units_Z 18
_cell_length_a 8.588909
_cell_length_b 19.908883
_cell_length_c 5.389423
_cell_angle_alpha 90.000000
_cell_angle_beta 117.251938
_cell_angle_gamma 90.000000
_cell_volume 819.275063
_symmetry_space_group_name_H-M "P 2/C"
_symmetry_group_IT_number 13
_symmetry_cell_setting 'monoclinic'
loop_
_space_group_symop_operation_xyz
x,y,z
-x,y,1/2-z
-x,-y,-z
x,-y,1/2+z
loop_
_atom_site_type_symbol
_atom_site_label
_atom_site_fract_x
_atom_site_fract_y
_atom_site_fract_z
Si Si1 0.000000 0.727603 0.750000
Si Si2 0.854047 0.847950 0.951155
Si Si3 0.350866 0.333715 0.463277
Si Si4 0.500000 0.785650 0.750000
Si Si5 0.000000 0.954646 0.750000
Si Si6 0.301677 0.526100 0.797660
O O1 0.070452 0.777249 0.590504
O O2 0.167712 0.685471 0.955798
O O3 0.666269 0.832185 0.931167
O O4 0.847893 0.900465 0.716206
O O5 0.000000 0.872711 0.250000
O O6 0.434869 0.266044 0.412675
O O7 0.308503 0.394378 0.245606
O O8 0.500000 0.361695 0.750000
O O9 0.000000 0.000000 0.500000
O O10 0.218302 0.487194 0.506549
O O11 0.500000 0.500000 0.000000
#
# Coordination Sequence:
#
# PCOD9228445 Si02
#       6
#     2   4   4   2   2   4
#     4   9  22  36  54  94 116 161 202 256 310 371
#     4  10  20  40  65  91 133 159 205 255 303 359
#     4  11  20  35  60  80 121 156 207 256 315 373
#     4  10  22  36  62  98 116 166 206 254 312 364
#     4  11  22  42  72  96 128 177 206 242 306 355
#     4  10  19  34  56  80 111 157 203 251 313 370
#
# _framework density 21.970642999999999
#
# number of rings (size 3 to 8) (size 9 to 14) (size 15 to 20)
#    0.000    1.778    3.333    2.667    0.000    0.000 
#    0.000    2.222    0.000    0.000    0.000    0.000 
#    0.000    0.000    0.000    0.000    0.000    0.000 
#
# Total GULP energy -100228.974889 kJ/mol
# GULP energy per Si atom -5568.276383 kJ/mol
# Density = 2.192064 g / cm^3
# Si number density = 21.970643 Si / 1000 Ang^3
#
#
#
# Elastic Constant Matrix: (Units=GPa)
#
#
# Indices 1 2 3 4 5 6 
#
# 1 119.9867 45.3717 39.4560 0.0000 16.4756 0.0000
# 2 45.3717 112.2394 22.9647 0.0000 6.1005 0.0000
# 3 39.4560 22.9647 85.1469 0.0000 -9.2591 0.0000
# 4 0.0000 0.0000 0.0000 26.2221 0.0000 -19.7723
# 5 16.4756 6.1005 -9.2591 0.0000 31.4826 0.0000
# 6 0.0000 0.0000 0.0000 -19.7723 0.0000 -5.2014
#
#
#
# Elastic Compliance Matrix: (Units=1/GPa)
#
#
# Indices 1 2 3 4 5 6 
#
# 1 0.012577 -0.003504 -0.005707 0.000000 -0.007581 0.000000
# 2 -0.003504 0.010627 -0.001309 0.000000 -0.000610 0.000000
# 3 -0.005707 -0.001309 0.015593 0.000000 0.007826 0.000000
# 4 0.000000 0.000000 0.000000 0.009864 0.000000 -0.037495
# 5 -0.007581 -0.000610 0.007826 0.000000 0.038151 0.000000
# 6 0.000000 0.000000 0.000000 -0.037495 0.000000 -0.049726
#
#
# Mechanical properties :
#
#
# Convention : Reuss Voigt Hill
#
# Bulk Modulus (GPa) = 56.31721 59.21754 57.76738
# Shear Modulus (GPa) = 78.06843 24.47270 51.27056
#
# Velocity S-wave (km/s) = 5.96743 3.34111 4.83597
# Velocity P-wave (km/s) = 8.55388 6.47268 7.58500
#
# Compressibility (1/GPa) = 0.01775656
#
# Stress axis : x y z
#
# Youngs Moduli (GPa) = 79.50874 94.09937 64.13069
#
# Poissons Ratio (x) = 0.32976 0.36602
# Poissons Ratio (y) = 0.27863 0.08392
# Poissons Ratio (z) = 0.45379 0.12314
#
# Static dielectric constant tensor:
#      x y z
#    x 1.812990 0.000000 -0.046850 
#    y 0.000000 1.829950 0.000000 
#    z -0.046850 0.000000 1.865500 
# 
# From -- ./inp_files/1819.got.cif
#   From: 2010.05.17/outbox.cif.g08.bks.cpg/sg13_1_cif.got.tgz:1819.got - 2010.06.03 16:44:36.
