data_PCOD9228665
_publ_section_title
;
Structure prediction by ZEFSAII (Michael W. Deem and Ramdas Pophale) SiO2 
 PCOD9228665
Probable space group: P 2/C
;
_chemical_formula_sum "Si O2"
_cell_formula_units_Z 24
_cell_length_a 20.042716
_cell_length_b 8.361720
_cell_length_c 26.232339
_cell_angle_alpha 90.000000
_cell_angle_beta 17.768178
_cell_angle_gamma 90.000000
_cell_volume 1341.609083
_symmetry_space_group_name_H-M "P 2/C"
_symmetry_group_IT_number 13
_symmetry_cell_setting 'monoclinic'
loop_
_space_group_symop_operation_xyz
x,y,z
-x,y,1/2-z
-x,-y,-z
x,-y,1/2+z
loop_
_atom_site_type_symbol
_atom_site_label
_atom_site_fract_x
_atom_site_fract_y
_atom_site_fract_z
Si Si1 0.411764 0.388859 0.016473
Si Si2 0.970773 0.207026 0.688622
Si Si3 0.886487 0.359465 0.644971
Si Si4 0.679532 0.327638 0.984766
Si Si5 0.819684 0.279677 0.159033
Si Si6 0.739669 0.914467 0.817328
O O1 0.296907 0.494337 0.056295
O O2 0.271100 0.248217 0.142291
O O3 0.500000 0.500000 0.000000
O O4 0.630895 0.316317 0.832386
O O5 0.972817 0.319036 0.637965
O O6 0.754333 0.228972 0.880732
O O7 0.167150 0.264055 0.581900
O O8 0.935140 0.028894 0.693924
O O9 0.893110 0.550145 0.630327
O O10 0.016729 0.262720 0.507208
O O11 0.426779 0.307236 0.181527
O O12 0.793546 0.142988 0.220560
O O13 0.500000 0.000000 0.000000
#
# Coordination Sequence:
#
# PCOD9228665 Si02
#       6
#     4   4   4   4   4   4
#     4  11  17  37  63  84 113 156 200 248 285 354
#     4  11  21  34  55  85 121 148 194 245 301 347
#     4  10  19  35  58  88 112 153 204 235 290 361
#     4  10  20  37  56  81 118 155 196 235 294 359
#     4  10  20  35  60  83 113 157 203 238 286 361
#     4  12  19  34  60  89 117 152 196 257 296 347
#
# _framework density 17.888967000000001
#
# number of rings (size 3 to 8) (size 9 to 14) (size 15 to 20)
#    0.000    1.333    8.333    0.000    0.000    1.333 
#    0.000    6.667    0.000    0.000    0.000    7.000 
#    0.000    0.000    0.000    0.000    0.000    0.000 
#
# Total GULP energy -133621.398786 kJ/mol
# GULP energy per Si atom -5567.558283 kJ/mol
# Density = 1.784825 g / cm^3
# Si number density = 17.888967 Si / 1000 Ang^3
#
#
#
# Elastic Constant Matrix: (Units=GPa)
#
#
# Indices 1 2 3 4 5 6 
#
# 1 120.3811 59.2738 50.8949 0.0000 -0.0921 0.0000
# 2 59.2738 73.1875 32.2304 0.0000 -17.9665 0.0000
# 3 50.8949 32.2304 90.0673 0.0000 13.5347 0.0000
# 4 0.0000 0.0000 0.0000 24.9048 0.0000 4.2778
# 5 -0.0921 -17.9665 13.5347 0.0000 25.0354 0.0000
# 6 0.0000 0.0000 0.0000 4.2778 0.0000 29.8102
#
#
#
# Elastic Compliance Matrix: (Units=1/GPa)
#
#
# Indices 1 2 3 4 5 6 
#
# 1 0.016539 -0.014146 -0.003012 0.000000 -0.008462 0.000000
# 2 -0.014146 0.037717 -0.010409 0.000000 0.032643 0.000000
# 3 -0.003012 -0.010409 0.019215 0.000000 -0.017869 0.000000
# 4 0.000000 0.000000 0.000000 0.041168 0.000000 -0.005908
# 5 -0.008462 0.032643 -0.017869 0.000000 0.072999 0.000000
# 6 0.000000 0.000000 0.000000 -0.005908 0.000000 0.034393
#
#
# Mechanical properties :
#
#
# Convention : Reuss Voigt Hill
#
# Bulk Modulus (GPa) = 54.53271 63.15935 58.84603
# Shear Modulus (GPa) = 17.65052 25.36585 21.50819
#
# Velocity S-wave (km/s) = 3.14454 3.76967 3.47120
# Velocity P-wave (km/s) = 6.61319 7.37090 7.00230
#
# Compressibility (1/GPa) = 0.01833762
#
# Stress axis : x y z
#
# Youngs Moduli (GPa) = 60.46269 26.51297 52.04268
#
# Poissons Ratio (x) = 0.37505 0.15676
# Poissons Ratio (y) = 0.85529 0.54171
# Poissons Ratio (z) = 0.18212 0.27597
#
# Static dielectric constant tensor:
#      x y z
#    x 1.611610 0.000000 0.005850 
#    y 0.000000 1.670180 0.000000 
#    z 0.005850 0.000000 1.630910 
# 
# From -- ./inp_files/87996.got.cif
#   From: 2010.05.17/outbox.cif.g08.bks.cpg/sg13_44_cif.got.tgz:87996.got - 2010.06.03 16:44:36.
