data_PCOD9228569
_publ_section_title
;
Structure prediction by ZEFSAII (Michael W. Deem and Ramdas Pophale) SiO2 
 PCOD9228569
Probable space group: P 2/C
;
_chemical_formula_sum "Si O2"
_cell_formula_units_Z 28
_cell_length_a 14.618093
_cell_length_b 18.319330
_cell_length_c 5.795893
_cell_angle_alpha 90.000000
_cell_angle_beta 65.965946
_cell_angle_gamma 90.000000
_cell_volume 1417.541597
_symmetry_space_group_name_H-M "P 2/C"
_symmetry_group_IT_number 13
_symmetry_cell_setting 'monoclinic'
loop_
_space_group_symop_operation_xyz
x,y,z
-x,y,1/2-z
-x,-y,-z
x,-y,1/2+z
loop_
_atom_site_type_symbol
_atom_site_label
_atom_site_fract_x
_atom_site_fract_y
_atom_site_fract_z
Si Si1 0.091097 0.644224 0.001442
Si Si2 0.241789 0.279105 0.683561
Si Si3 0.756476 0.540465 0.830198
Si Si4 0.384666 0.973278 0.614767
Si Si5 0.617076 0.667695 0.093940
Si Si6 0.693376 0.815170 0.768404
Si Si7 0.898274 0.211214 0.285414
O O1 0.138868 0.585684 0.781858
O O2 0.063659 0.719527 0.902870
O O3 0.182381 0.670084 0.069033
O O4 0.000000 0.617172 0.250000
O O5 0.324308 0.326510 0.725854
O O6 0.294949 0.211122 0.505314
O O7 0.160435 0.245981 0.939857
O O8 0.752902 0.498666 0.585848
O O9 0.665591 0.598616 0.919037
O O10 0.372549 0.886140 0.628054
O O11 0.500000 0.000000 0.500000
O O12 0.341951 0.000464 0.409438
O O13 0.500000 0.661882 0.250000
O O14 0.647415 0.743984 0.940606
O O15 0.807727 0.827495 0.740921
O O16 0.000000 0.169787 0.250000
#
# Coordination Sequence:
#
# PCOD9228569 Si02
#       7
#     4   4   4   4   4   4   4
#     4  11  21  38  65  96 128 175 220 282 358 411
#     4  10  19  39  63  95 135 160 228 285 327 393
#     4  12  27  46  64  90 137 179 231 290 351 413
#     4  10  24  42  66  99 144 179 211 264 341 402
#     4  11  25  41  66  93 125 178 236 287 334 400
#     4  10  23  39  67 101 132 177 224 277 331 407
#     4  10  19  34  67  98 129 170 222 283 333 399
#
# _framework density 19.752506
#
# number of rings (size 3 to 8) (size 9 to 14) (size 15 to 20)
#    0.000    1.429    5.714    0.857    6.000    2.857 
#    0.000    0.000    0.000    0.857    0.000    0.000 
#    0.000    0.000    0.000    0.000    0.000    0.000 
#
# Total GULP energy -156099.253076 kJ/mol
# GULP energy per Si atom -5574.973324 kJ/mol
# Density = 1.970755 g / cm^3
# Si number density = 19.752506 Si / 1000 Ang^3
#
#
#
# Elastic Constant Matrix: (Units=GPa)
#
#
# Indices 1 2 3 4 5 6 
#
# 1 61.9465 22.2562 37.9714 0.0000 -16.7699 0.0000
# 2 22.2562 87.2858 24.3926 0.0000 -2.5661 0.0000
# 3 37.9714 24.3926 79.8036 0.0000 7.9054 0.0000
# 4 0.0000 0.0000 0.0000 29.1442 0.0000 -2.2295
# 5 -16.7699 -2.5661 7.9054 0.0000 41.9888 0.0000
# 6 0.0000 0.0000 0.0000 -2.2295 0.0000 -4.5539
#
#
#
# Elastic Compliance Matrix: (Units=1/GPa)
#
#
# Indices 1 2 3 4 5 6 
#
# 1 0.030481 -0.003142 -0.015010 0.000000 0.014808 0.000000
# 2 -0.003142 0.012946 -0.002462 0.000000 0.000000 0.000000
# 3 -0.015010 -0.002462 0.021433 0.000000 -0.010181 0.000000
# 4 0.000000 0.000000 0.000000 0.033074 0.000000 -0.016192
# 5 0.014808 0.000000 -0.010181 0.000000 0.031647 0.000000
# 6 0.000000 0.000000 0.000000 -0.016192 0.000000 -0.211663
#
#
# Mechanical properties :
#
#
# Convention : Reuss Voigt Hill
#
# Bulk Modulus (GPa) = 42.31385 44.25293 43.28339
# Shear Modulus (GPa) = -151.61753 22.94353 -64.33700
#
# Velocity S-wave (km/s) = -8.77070 3.41185 -5.71334
# Velocity P-wave (km/s) = 9.00547 6.16225 4.64355
#
# Compressibility (1/GPa) = 0.02363292
#
# Stress axis : x y z
#
# Youngs Moduli (GPa) = 32.80728 77.24516 46.65598
#
# Poissons Ratio (x) = 0.24272 0.70029
# Poissons Ratio (y) = 0.10309 0.11486
# Poissons Ratio (z) = 0.49243 0.19017
#
# Static dielectric constant tensor:
#      x y z
#    x 1.764220 0.000000 0.097660 
#    y 0.000000 1.702070 0.000000 
#    z 0.097660 0.000000 1.793660 
# 
# From -- ./inp_files/5313.got.cif
#   From: 2010.05.17/outbox.cif.g08.bks.cpg/sg13_3_cif.got.tgz:5313.got - 2010.06.03 16:44:36.
