data_PCOD9228631
_publ_section_title
;
Structure prediction by ZEFSAII (Michael W. Deem and Ramdas Pophale) SiO2 
 PCOD9228631
Probable space group: P 2/C
;
_chemical_formula_sum "Si O2"
_cell_formula_units_Z 32
_cell_length_a 14.176021
_cell_length_b 4.997798
_cell_length_c 23.493611
_cell_angle_alpha 90.000000
_cell_angle_beta 111.123177
_cell_angle_gamma 90.000000
_cell_volume 1552.655140
_symmetry_space_group_name_H-M "P 2/C"
_symmetry_group_IT_number 13
_symmetry_cell_setting 'monoclinic'
loop_
_space_group_symop_operation_xyz
x,y,z
-x,y,1/2-z
-x,-y,-z
x,-y,1/2+z
loop_
_atom_site_type_symbol
_atom_site_label
_atom_site_fract_x
_atom_site_fract_y
_atom_site_fract_z
Si Si1 0.777230 0.716710 0.789762
Si Si2 0.073695 0.190211 0.480676
Si Si3 0.142055 0.352349 0.855706
Si Si4 0.989980 0.167106 0.160468
Si Si5 0.704422 0.212086 0.709833
Si Si6 0.521705 0.746943 0.320328
Si Si7 0.800518 0.680632 0.002326
Si Si8 0.654614 0.754922 0.874203
O O1 0.748715 0.414273 0.767263
O O2 0.745967 0.772721 0.848183
O O3 0.893196 0.787581 0.801643
O O4 0.712582 0.913567 0.735865
O O5 0.021579 0.232539 0.408774
O O6 0.117380 0.477345 0.508766
O O7 0.168796 0.991721 0.493918
O O8 0.000000 0.000000 0.500000
O O9 0.086249 0.625782 0.826288
O O10 0.225410 0.258748 0.829315
O O11 0.053519 0.129300 0.840150
O O12 0.193075 0.387052 0.929201
O O13 0.587186 0.271942 0.673820
O O14 0.500000 0.824195 0.250000
O O15 0.577433 0.464288 0.333661
O O16 0.595807 0.966000 0.363392
O O17 0.699014 0.659638 0.944119
#
# Coordination Sequence:
#
# PCOD9228631 Si02
#       8
#     4   4   4   4   4   4   4   4
#     4  12  23  37  61  94 118 154 204 245 301 355
#     4  10  19  35  57  85 123 162 202 239 296 354
#     4  10  23  43  58  85 125 164 202 236 293 361
#     4  10  22  37  59  87 124 163 197 244 289 353
#     4  12  25  40  63  85 119 163 200 250 301 361
#     4  12  23  43  63  90 122 153 196 252 322 359
#     4  10  22  38  60  86 120 161 196 249 300 352
#     4  12  23  40  65  93 122 148 200 259 305 362
#
# _framework density 20.609859
#
# number of rings (size 3 to 8) (size 9 to 14) (size 15 to 20)
#    0.000    1.000    2.500    4.500    0.000    6.000 
#    0.000    1.250    0.000    0.000    0.000    0.000 
#    0.000    0.000    0.000    0.000    0.000    0.000 
#
# Total GULP energy -178853.568112 kJ/mol
# GULP energy per Si atom -5589.174004 kJ/mol
# Density = 2.056295 g / cm^3
# Si number density = 20.609859 Si / 1000 Ang^3
#
#
#
# Elastic Constant Matrix: (Units=GPa)
#
#
# Indices 1 2 3 4 5 6 
#
# 1 87.7292 -5.5527 21.1120 0.0000 -2.5614 0.0000
# 2 -5.5527 68.6187 3.2593 0.0000 -1.2650 0.0000
# 3 21.1120 3.2593 44.9492 0.0000 9.1746 0.0000
# 4 0.0000 0.0000 0.0000 16.9376 0.0000 4.4105
# 5 -2.5614 -1.2650 9.1746 0.0000 19.9059 0.0000
# 6 0.0000 0.0000 0.0000 4.4105 0.0000 25.9743
#
#
#
# Elastic Compliance Matrix: (Units=1/GPa)
#
#
# Indices 1 2 3 4 5 6 
#
# 1 0.013459 0.001544 -0.007514 0.000000 0.005293 0.000000
# 2 0.001544 0.014845 -0.002246 0.000000 0.002177 0.000000
# 3 -0.007514 -0.002246 0.028883 0.000000 -0.014422 0.000000
# 4 0.000000 0.000000 0.000000 0.061772 0.000000 -0.010489
# 5 0.005293 0.002177 -0.014422 0.000000 0.057703 0.000000
# 6 0.000000 0.000000 0.000000 -0.010489 0.000000 0.040281
#
#
# Mechanical properties :
#
#
# Convention : Reuss Voigt Hill
#
# Bulk Modulus (GPa) = 24.53689 26.54826 25.54258
# Shear Modulus (GPa) = 20.24628 24.72880 22.48754
#
# Velocity S-wave (km/s) = 3.13766 3.46765 3.30677
# Velocity P-wave (km/s) = 5.00578 5.37978 5.19615
#
# Compressibility (1/GPa) = 0.04075497
#
# Stress axis : x y z
#
# Youngs Moduli (GPa) = 74.29883 67.36273 34.62255
#
# Poissons Ratio (x) = -0.10398 0.26015
# Poissons Ratio (y) = -0.11469 0.07776
# Poissons Ratio (z) = 0.55827 0.15128
#
# Static dielectric constant tensor:
#      x y z
#    x 1.758510 0.000000 -0.015700 
#    y 0.000000 1.723100 0.000000 
#    z -0.015700 0.000000 1.739730 
# 
# From -- ./inp_files/85865.got.cif
#   From: 2010.05.17/outbox.cif.g08.bks.cpg/sg13_43_cif.got.tgz:85865.got - 2010.06.03 16:44:36.
