data_PCOD9228115
_publ_section_title
;
Structure prediction by ZEFSAII (Michael W. Deem and Ramdas Pophale) SiO2 
 PCOD9228115
Probable space group: P 2/C
;
_chemical_formula_sum "Si O2"
_cell_formula_units_Z 26
_cell_length_a 15.383801
_cell_length_b 14.356927
_cell_length_c 10.721549
_cell_angle_alpha 90.000000
_cell_angle_beta 144.006982
_cell_angle_gamma 90.000000
_cell_volume 1391.645163
_symmetry_space_group_name_H-M "P 2/C"
_symmetry_group_IT_number 13
_symmetry_cell_setting 'monoclinic'
loop_
_space_group_symop_operation_xyz
x,y,z
-x,y,1/2-z
-x,-y,-z
x,-y,1/2+z
loop_
_atom_site_type_symbol
_atom_site_label
_atom_site_fract_x
_atom_site_fract_y
_atom_site_fract_z
Si Si1 0.151755 0.989565 0.101729
Si Si2 0.130631 0.312774 0.799015
Si Si3 0.446720 0.937342 0.553232
Si Si4 0.098677 0.514560 0.739196
Si Si5 0.000000 0.149261 0.250000
Si Si6 0.290742 0.815607 0.668854
Si Si7 0.122855 0.715319 0.689139
O O1 0.206110 0.086884 0.103069
O O2 0.272186 0.946140 0.335568
O O3 0.117180 0.916289 0.954576
O O4 0.000000 0.000000 0.000000
O O5 0.191189 0.418576 0.859316
O O6 0.000000 0.318377 0.750000
O O7 0.037973 0.289918 0.567212
O O8 0.237779 0.234861 0.980362
O O9 0.500000 0.972695 0.750000
O O10 0.536680 0.841449 0.639356
O O11 0.500000 0.000000 0.500000
O O12 0.169045 0.615063 0.796640
O O13 0.000000 0.522785 0.750000
O O14 0.000000 0.500000 0.500000
O O15 0.906925 0.212094 0.236615
O O16 0.241012 0.750090 0.724979
#
# Coordination Sequence:
#
# PCOD9228115 Si02
#       7
#     4   4   4   4   2   4   4
#     4  11  25  37  57  87 125 166 210 259 302 370
#     4   8  17  30  54  83 117 154 199 257 317 379
#     4  10  25  42  62  86 125 168 209 254 312 372
#     4   9  16  30  50  83 125 154 196 265 329 374
#     4  12  24  32  56  88 122 156 212 256 318 352
#     4  10  21  38  58  83 120 161 210 250 318 378
#     4  10  19  32  53  87 123 157 201 263 317 380
#
# _framework density 18.682924
#
# number of rings (size 3 to 8) (size 9 to 14) (size 15 to 20)
#    0.000    2.154    2.308    0.923    9.692    0.000 
#    0.000    0.000    0.000    0.000    0.000    4.308 
#    0.000    0.000    0.000    0.000    0.000    0.000 
#
# Total GULP energy -144848.377972 kJ/mol
# GULP energy per Si atom -5571.091460 kJ/mol
# Density = 1.864040 g / cm^3
# Si number density = 18.682924 Si / 1000 Ang^3
#
#
#
# Elastic Constant Matrix: (Units=GPa)
#
#
# Indices 1 2 3 4 5 6 
#
# 1 83.8817 34.7269 39.7278 0.0000 -12.1223 0.0000
# 2 34.7269 141.6935 57.1622 0.0000 -6.1231 0.0000
# 3 39.7278 57.1622 115.7481 0.0000 -3.1113 0.0000
# 4 0.0000 0.0000 0.0000 24.5628 0.0000 -9.9479
# 5 -12.1223 -6.1231 -3.1113 0.0000 36.1734 0.0000
# 6 0.0000 0.0000 0.0000 -9.9479 0.0000 37.5778
#
#
#
# Elastic Compliance Matrix: (Units=1/GPa)
#
#
# Indices 1 2 3 4 5 6 
#
# 1 0.015338 -0.001862 -0.004225 0.000000 0.004462 0.000000
# 2 -0.001862 0.009085 -0.003832 0.000000 0.000584 0.000000
# 3 -0.004225 -0.003832 0.011954 0.000000 -0.001036 0.000000
# 4 0.000000 0.000000 0.000000 0.045601 0.000000 0.012072
# 5 0.004462 0.000584 -0.001036 0.000000 0.029150 0.000000
# 6 0.000000 0.000000 0.000000 0.012072 0.000000 0.029807
#
#
# Mechanical properties :
#
#
# Convention : Reuss Voigt Hill
#
# Bulk Modulus (GPa) = 60.46075 67.17300 63.81688
# Shear Modulus (GPa) = 30.06873 33.64323 31.85598
#
# Velocity S-wave (km/s) = 4.01611 4.24813 4.13375
# Velocity P-wave (km/s) = 7.34420 7.75206 7.55088
#
# Compressibility (1/GPa) = 0.01653965
#
# Stress axis : x y z
#
# Youngs Moduli (GPa) = 65.19678 110.07287 83.65333
#
# Poissons Ratio (x) = 0.20494 0.35344
# Poissons Ratio (y) = 0.12139 0.32054
# Poissons Ratio (z) = 0.27546 0.42178
#
# Static dielectric constant tensor:
#      x y z
#    x 1.647880 0.000000 0.010510 
#    y 0.000000 1.704750 0.000000 
#    z 0.010510 0.000000 1.642400 
# 
# From -- ./inp_files/39345.got.cif
#   From: 2010.05.17/outbox.cif.g08.bks.cpg/sg13_20_cif.got.tgz:39345.got - 2010.06.03 16:44:36.
