data_PCOD9228338
_publ_section_title
;
Structure prediction by ZEFSAII (Michael W. Deem and Ramdas Pophale) SiO2 
 PCOD9228338
Probable space group: P 2/C
;
_chemical_formula_sum "Si O2"
_cell_formula_units_Z 28
_cell_length_a 7.833223
_cell_length_b 16.786513
_cell_length_c 17.307652
_cell_angle_alpha 90.000000
_cell_angle_beta 35.860932
_cell_angle_gamma 90.000000
_cell_volume 1333.224366
_symmetry_space_group_name_H-M "P 2/C"
_symmetry_group_IT_number 13
_symmetry_cell_setting 'monoclinic'
loop_
_space_group_symop_operation_xyz
x,y,z
-x,y,1/2-z
-x,-y,-z
x,-y,1/2+z
loop_
_atom_site_type_symbol
_atom_site_label
_atom_site_fract_x
_atom_site_fract_y
_atom_site_fract_z
Si Si1 0.813874 0.174222 0.481741
Si Si2 0.577047 0.347770 0.349555
Si Si3 0.203580 0.344739 0.057557
Si Si4 0.335644 0.481125 0.889186
Si Si5 0.182931 0.188772 0.505116
Si Si6 0.692426 0.096005 0.758826
Si Si7 0.673956 0.084897 0.268801
O O1 0.685845 0.259741 0.510277
O O2 0.544281 0.115925 0.589937
O O3 0.995362 0.180987 0.495045
O O4 0.050028 0.142881 0.334898
O O5 0.698940 0.357249 0.390968
O O6 0.460769 0.434181 0.369429
O O7 0.344953 0.274779 0.439543
O O8 0.849825 0.334843 0.190934
O O9 0.330005 0.412905 0.956223
O O10 0.500000 0.456114 0.750000
O O11 0.000000 0.500000 0.000000
O O12 0.436122 0.121954 0.413090
O O13 0.948450 0.161126 0.655586
O O14 0.500000 0.097608 0.750000
O O15 0.785639 0.004931 0.736651
O O16 0.500000 0.086715 0.250000
#
# Coordination Sequence:
#
# PCOD9228338 Si02
#       7
#     4   4   4   4   4   4   4
#     4  10  19  33  58  87 120 159 207 259 302 359
#     4  11  24  43  65  92 128 167 204 247 310 377
#     4  11  24  43  65  92 129 165 204 249 309 376
#     4  12  25  44  71  98 124 155 204 257 306 365
#     4  10  19  33  60  88 116 164 211 253 303 365
#     4   9  18  31  50  88 126 153 201 265 315 347
#     4   9  16  29  54  84 119 160 204 257 310 358
#
# _framework density 21.001716999999999
#
# number of rings (size 3 to 8) (size 9 to 14) (size 15 to 20)
#    0.000    1.714    2.857    2.143    0.000    6.286 
#    0.000    2.143    0.000    5.143    0.000    0.000 
#    0.000    0.000    0.000    0.000    0.000    0.000 
#
# Total GULP energy -156211.784472 kJ/mol
# GULP energy per Si atom -5578.992303 kJ/mol
# Density = 2.095392 g / cm^3
# Si number density = 21.001717 Si / 1000 Ang^3
#
#
#
# Elastic Constant Matrix: (Units=GPa)
#
#
# Indices 1 2 3 4 5 6 
#
# 1 24.1263 9.5163 19.7362 0.0000 2.2400 0.0000
# 2 9.5163 122.6444 30.9231 0.0000 1.2580 0.0000
# 3 19.7362 30.9231 110.7081 0.0000 1.2768 0.0000
# 4 0.0000 0.0000 0.0000 46.4839 0.0000 -48.7407
# 5 2.2400 1.2580 1.2768 0.0000 11.3542 0.0000
# 6 0.0000 0.0000 0.0000 -48.7407 0.0000 194.6429
#
#
#
# Elastic Compliance Matrix: (Units=1/GPa)
#
#
# Indices 1 2 3 4 5 6 
#
# 1 0.049699 -0.001677 -0.008292 0.000000 -0.008687 0.000000
# 2 -0.001677 0.008833 -0.002164 0.000000 -0.000405 0.000000
# 3 -0.008292 -0.002164 0.011108 0.000000 0.000626 0.000000
# 4 0.000000 0.000000 0.000000 0.029173 0.000000 0.007305
# 5 -0.008687 -0.000405 0.000626 0.000000 0.089761 0.000000
# 6 0.000000 0.000000 0.000000 0.007305 0.000000 0.006967
#
#
# Mechanical properties :
#
#
# Convention : Reuss Voigt Hill
#
# Bulk Modulus (GPa) = 22.03765 41.98112 32.00938
# Shear Modulus (GPa) = 21.28287 63.64976 42.46631
#
# Velocity S-wave (km/s) = 3.18683 5.51115 4.50159
# Velocity P-wave (km/s) = 4.90481 7.78009 6.50334
#
# Compressibility (1/GPa) = 0.04537689
#
# Stress axis : x y z
#
# Youngs Moduli (GPa) = 20.12105 113.20581 90.02450
#
# Poissons Ratio (x) = 0.18980 0.74644
# Poissons Ratio (y) = 0.03373 0.19480
# Poissons Ratio (z) = 0.16683 0.24496
#
# Static dielectric constant tensor:
#      x y z
#    x 1.828420 0.000000 -0.008070 
#    y 0.000000 1.944060 0.000000 
#    z -0.008070 0.000000 1.761410 
# 
# From -- ./inp_files/76715.got.cif
#   From: 2010.05.17/outbox.cif.g08.bks.cpg/sg13_39_cif.got.tgz:76715.got - 2010.06.03 16:44:36.
