data_PCOD9228821
_publ_section_title
;
Structure prediction by ZEFSAII (Michael W. Deem and Ramdas Pophale) SiO2 
 PCOD9228821
Probable space group: P 2/C
;
_chemical_formula_sum "Si O2"
_cell_formula_units_Z 20
_cell_length_a 6.211976
_cell_length_b 8.515709
_cell_length_c 18.150843
_cell_angle_alpha 90.000000
_cell_angle_beta 82.172955
_cell_angle_gamma 90.000000
_cell_volume 951.223094
_symmetry_space_group_name_H-M "P 2/C"
_symmetry_group_IT_number 13
_symmetry_cell_setting 'monoclinic'
loop_
_space_group_symop_operation_xyz
x,y,z
-x,y,1/2-z
-x,-y,-z
x,-y,1/2+z
loop_
_atom_site_type_symbol
_atom_site_label
_atom_site_fract_x
_atom_site_fract_y
_atom_site_fract_z
Si Si1 0.025376 0.948917 0.083240
Si Si2 0.937040 0.568345 0.678158
Si Si3 0.130467 0.629222 0.447442
Si Si4 0.683822 0.762378 0.917805
Si Si5 0.659710 0.137393 0.177883
O O1 0.031905 0.762484 0.076706
O O2 0.219368 0.061837 0.098964
O O3 0.816620 0.002988 0.139698
O O4 0.000000 0.000000 0.000000
O O5 0.797731 0.463522 0.628414
O O6 0.801801 0.722701 0.705590
O O7 0.000000 0.481652 0.750000
O O8 0.152678 0.638793 0.628607
O O9 0.299678 0.711743 0.496463
O O10 0.000000 0.500000 0.500000
O O11 0.457007 0.779759 0.886953
O O12 0.500000 0.083528 0.250000
#
# Coordination Sequence:
#
# PCOD9228821 Si02
#       5
#     4   4   4   4   4
#     4   9  20  38  59  86 111 147 196 240 285 343
#     4  10  19  36  56  81 117 153 192 239 297 352
#     4   9  19  37  59  85 114 156 190 235 296 346
#     4   9  19  37  61  81 114 150 200 241 285 346
#     4  11  21  36  61  85 114 156 198 242 294 341
#
# _framework density 21.025561
#
# number of rings (size 3 to 8) (size 9 to 14) (size 15 to 20)
#    0.000    2.400    2.000    1.200    0.000    4.000 
#    3.600    5.000    0.000    0.000    0.000    0.000 
#    0.000    0.000    0.000    0.000    0.000    0.000 
#
# Total GULP energy -111345.115210 kJ/mol
# GULP energy per Si atom -5567.255760 kJ/mol
# Density = 2.097771 g / cm^3
# Si number density = 21.025561 Si / 1000 Ang^3
#
#
#
# Elastic Constant Matrix: (Units=GPa)
#
#
# Indices 1 2 3 4 5 6 
#
# 1 36.2852 10.4858 16.3700 0.0000 15.0862 0.0000
# 2 10.4858 103.6306 25.1140 0.0000 -0.6507 0.0000
# 3 16.3700 25.1140 115.0002 0.0000 7.5124 0.0000
# 4 0.0000 0.0000 0.0000 29.3920 0.0000 4.2147
# 5 15.0862 -0.6507 7.5124 0.0000 36.7507 0.0000
# 6 0.0000 0.0000 0.0000 4.2147 0.0000 4.8968
#
#
#
# Elastic Compliance Matrix: (Units=1/GPa)
#
#
# Indices 1 2 3 4 5 6 
#
# 1 0.035821 -0.002850 -0.003560 0.000000 -0.014027 0.000000
# 2 -0.002850 0.010431 -0.001987 0.000000 0.001761 0.000000
# 3 -0.003560 -0.001987 0.009672 0.000000 -0.000551 0.000000
# 4 0.000000 0.000000 0.000000 0.038813 0.000000 -0.033407
# 5 -0.014027 0.001761 -0.000551 0.000000 0.033112 0.000000
# 6 0.000000 0.000000 0.000000 -0.033407 0.000000 0.232970
#
#
# Mechanical properties :
#
#
# Convention : Reuss Voigt Hill
#
# Bulk Modulus (GPa) = 25.55610 39.87283 32.71446
# Shear Modulus (GPa) = 12.79890 27.73765 20.26827
#
# Velocity S-wave (km/s) = 2.46992 3.63607 3.10818
# Velocity P-wave (km/s) = 4.50724 6.05253 5.33612
#
# Compressibility (1/GPa) = 0.03912960
#
# Stress axis : x y z
#
# Youngs Moduli (GPa) = 27.91630 95.87126 103.38693
#
# Poissons Ratio (x) = 0.27321 0.36810
# Poissons Ratio (y) = 0.07956 0.20545
# Poissons Ratio (z) = 0.09939 0.19052
#
# Static dielectric constant tensor:
#      x y z
#    x 18.644800 0.000000 -0.426720 
#    y 0.000000 1.831070 0.000000 
#    z -0.426720 0.000000 1.836200 
# 
# From -- ./inp_files/60660.got.cif
#   From: 2010.05.17/outbox.cif.g08.bks.cpg/sg13_31_cif.got.tgz:60660.got - 2010.06.03 16:44:36.
