data_PCOD9228523
_publ_section_title
;
Structure prediction by ZEFSAII (Michael W. Deem and Ramdas Pophale) SiO2 
 PCOD9228523
Probable space group: P 2/C
;
_chemical_formula_sum "Si O2"
_cell_formula_units_Z 20
_cell_length_a 9.843420
_cell_length_b 6.355351
_cell_length_c 16.997671
_cell_angle_alpha 90.000000
_cell_angle_beta 117.310980
_cell_angle_gamma 90.000000
_cell_volume 944.814915
_symmetry_space_group_name_H-M "P 2/C"
_symmetry_group_IT_number 13
_symmetry_cell_setting 'monoclinic'
loop_
_space_group_symop_operation_xyz
x,y,z
-x,y,1/2-z
-x,-y,-z
x,-y,1/2+z
loop_
_atom_site_type_symbol
_atom_site_label
_atom_site_fract_x
_atom_site_fract_y
_atom_site_fract_z
Si Si1 0.884554 0.659423 0.791356
Si Si2 0.353964 0.718380 0.895048
Si Si3 0.146969 0.382171 0.574158
Si Si4 0.691244 0.654510 0.003139
Si Si5 0.118272 0.949644 0.945348
O O1 0.727929 0.735842 0.710487
O O2 0.851699 0.454699 0.835752
O O3 0.000000 0.610540 0.750000
O O4 0.970625 0.840729 0.865193
O O5 0.330820 0.481383 0.923507
O O6 0.256062 0.855616 0.929306
O O7 0.532095 0.770792 0.944361
O O8 0.283987 0.492853 0.562379
O O9 0.135003 0.145381 0.538029
O O10 0.000000 0.500000 0.500000
O O11 0.838482 0.805870 0.046324
#
# Coordination Sequence:
#
# PCOD9228523 Si02
#       5
#     4   4   4   4   4
#     4   9  18  35  53  75 110 143 181 234 280 322
#     4   9  19  35  55  83 113 144 181 228 277 330
#     4   9  19  34  53  77 106 142 182 227 275 329
#     4  10  19  34  59  80 108 150 183 221 280 337
#     4   9  18  35  57  80 106 143 186 224 271 337
#
# _framework density 21.168167
#
# number of rings (size 3 to 8) (size 9 to 14) (size 15 to 20)
#    0.000    2.800    0.000    1.800    0.000    4.000 
#    0.000   25.000    0.000    9.600    0.000    0.000 
#    0.000    0.000    0.000    0.000    0.000    0.000 
#
# Total GULP energy -111476.057834 kJ/mol
# GULP energy per Si atom -5573.802892 kJ/mol
# Density = 2.111999 g / cm^3
# Si number density = 21.168167 Si / 1000 Ang^3
#
#
#
# Elastic Constant Matrix: (Units=GPa)
#
#
# Indices 1 2 3 4 5 6 
#
# 1 57.9630 12.5429 39.8020 0.0000 9.4423 0.0000
# 2 12.5429 77.8524 36.6253 0.0000 -1.3080 0.0000
# 3 39.8020 36.6253 107.8823 0.0000 -4.8234 0.0000
# 4 0.0000 0.0000 0.0000 16.2185 0.0000 -0.8885
# 5 9.4423 -1.3080 -4.8234 0.0000 37.6297 0.0000
# 6 0.0000 0.0000 0.0000 -0.8885 0.0000 34.9573
#
#
#
# Elastic Compliance Matrix: (Units=1/GPa)
#
#
# Indices 1 2 3 4 5 6 
#
# 1 0.025066 0.000409 -0.009723 0.000000 -0.007522 0.000000
# 2 0.000409 0.015294 -0.005355 0.000000 -0.000257 0.000000
# 3 -0.009723 -0.005355 0.014860 0.000000 0.004158 0.000000
# 4 0.000000 0.000000 0.000000 0.061744 0.000000 0.001569
# 5 -0.007522 -0.000257 0.004158 0.000000 0.028986 0.000000
# 6 0.000000 0.000000 0.000000 0.001569 0.000000 0.028646
#
#
# Mechanical properties :
#
#
# Convention : Reuss Voigt Hill
#
# Bulk Modulus (GPa) = 38.63516 46.84867 42.74192
# Shear Modulus (GPa) = 23.52277 28.07628 25.79952
#
# Velocity S-wave (km/s) = 3.33713 3.64585 3.49490
# Velocity P-wave (km/s) = 5.75672 6.31686 6.04328
#
# Compressibility (1/GPa) = 0.02588316
#
# Stress axis : x y z
#
# Youngs Moduli (GPa) = 39.89520 65.38692 67.29329
#
# Poissons Ratio (x) = -0.02677 0.65429
# Poissons Ratio (y) = -0.01633 0.36033
# Poissons Ratio (z) = 0.38790 0.35012
#
# Static dielectric constant tensor:
#      x y z
#    x 1.818400 0.000000 -0.020640 
#    y 0.000000 1.846060 0.000000 
#    z -0.020640 0.000000 1.772880 
# 
# From -- ./inp_files/65161.got.cif
#   From: 2010.05.17/outbox.cif.g08.bks.cpg/sg13_33_cif.got.tgz:65161.got - 2010.06.03 16:44:36.
