data_PCOD9228906
_publ_section_title
;
Structure prediction by ZEFSAII (Michael W. Deem and Ramdas Pophale) SiO2 
 PCOD9228906
Probable space group: P 2/C
;
_chemical_formula_sum "Si O2"
_cell_formula_units_Z 20
_cell_length_a 11.031809
_cell_length_b 8.732035
_cell_length_c 16.647291
_cell_angle_alpha 90.000000
_cell_angle_beta 135.289949
_cell_angle_gamma 90.000000
_cell_volume 1128.188946
_symmetry_space_group_name_H-M "P 2/C"
_symmetry_group_IT_number 13
_symmetry_cell_setting 'monoclinic'
loop_
_space_group_symop_operation_xyz
x,y,z
-x,y,1/2-z
-x,-y,-z
x,-y,1/2+z
loop_
_atom_site_type_symbol
_atom_site_label
_atom_site_fract_x
_atom_site_fract_y
_atom_site_fract_z
Si Si1 0.361203 0.415318 0.492732
Si Si2 0.127805 0.634337 0.155186
Si Si3 0.239052 0.384352 0.087597
Si Si4 0.000000 0.542508 0.750000
Si Si5 0.500000 0.122199 0.250000
Si Si6 0.443787 0.172980 0.811703
O O1 0.500000 0.500000 0.500000
O O2 0.315923 0.530339 0.545346
O O3 0.447604 0.263364 0.570837
O O4 0.176761 0.377371 0.363868
O O5 0.237362 0.505807 0.159447
O O6 0.245434 0.780357 0.226485
O O7 0.064468 0.562104 0.207719
O O8 0.958505 0.661398 0.022629
O O9 0.342754 0.234198 0.159198
O O10 0.527902 0.007737 0.187539
O O11 0.500000 0.233546 0.750000
#
# Coordination Sequence:
#
# PCOD9228906 Si02
#       6
#     4   4   4   2   2   4
#     4  11  20  36  63  86 120 149 206 254 291 342
#     4  10  19  36  60  84 116 146 211 243 288 337
#     4  10  20  35  59  88 109 157 200 249 283 358
#     4  10  22  32  60  96 108 154 194 260 292 336
#     4  10  22  36  60  86 120 152 202 228 318 364
#     4  10  20  37  57  85 116 157 190 243 297 355
#
# _framework density 17.727526000000001
#
# number of rings (size 3 to 8) (size 9 to 14) (size 15 to 20)
#    0.600    1.200    4.000    1.200    0.000    0.800 
#    0.000    1.000    0.000    2.400    0.000    0.000 
#    0.000    0.000    0.000    0.000    0.000    0.000 
#
# Total GULP energy -111390.417044 kJ/mol
# GULP energy per Si atom -5569.520852 kJ/mol
# Density = 1.768718 g / cm^3
# Si number density = 17.727526 Si / 1000 Ang^3
#
#
#
# Elastic Constant Matrix: (Units=GPa)
#
#
# Indices 1 2 3 4 5 6 
#
# 1 88.4991 38.7791 25.4524 0.0000 -1.8214 0.0000
# 2 38.7791 117.8620 53.9181 0.0000 20.5315 0.0000
# 3 25.4524 53.9181 81.5484 0.0000 14.5519 0.0000
# 4 0.0000 0.0000 0.0000 6.1169 0.0000 3.9315
# 5 -1.8214 20.5315 14.5519 0.0000 36.3848 0.0000
# 6 0.0000 0.0000 0.0000 3.9315 0.0000 6.7011
#
#
#
# Elastic Compliance Matrix: (Units=1/GPa)
#
#
# Indices 1 2 3 4 5 6 
#
# 1 0.013882 -0.004235 -0.002243 0.000000 0.003982 0.000000
# 2 -0.004235 0.014000 -0.006986 0.000000 -0.005318 0.000000
# 3 -0.002243 -0.006986 0.018197 0.000000 -0.003448 0.000000
# 4 0.000000 0.000000 0.000000 0.262449 0.000000 -0.153980
# 5 0.003982 -0.005318 -0.003448 0.000000 0.032063 0.000000
# 6 0.000000 0.000000 0.000000 -0.153980 0.000000 0.239571
#
#
# Mechanical properties :
#
#
# Convention : Reuss Voigt Hill
#
# Bulk Modulus (GPa) = 52.21595 58.24542 55.23069
# Shear Modulus (GPa) = 8.15029 21.15788 14.65408
#
# Velocity S-wave (km/s) = 2.14651 3.45846 2.87823
# Velocity P-wave (km/s) = 5.97177 6.99108 6.50143
#
# Compressibility (1/GPa) = 0.01915124
#
# Stress axis : x y z
#
# Youngs Moduli (GPa) = 72.03353 71.42811 54.95413
#
# Poissons Ratio (x) = 0.30250 0.12328
# Poissons Ratio (y) = 0.30506 0.38390
# Poissons Ratio (z) = 0.16160 0.49898
#
# Static dielectric constant tensor:
#      x y z
#    x 1.626950 0.000000 0.021350 
#    y 0.000000 1.568310 0.000000 
#    z 0.021350 0.000000 1.642680 
# 
# From -- ./inp_files/49853.got.cif
#   From: 2010.05.17/outbox.cif.g08.bks.cpg/sg13_25_cif.got.tgz:49853.got - 2010.06.03 16:44:36.
