data_PCOD9228990
_publ_section_title
;
Structure prediction by ZEFSAII (Michael W. Deem and Ramdas Pophale) SiO2 
 PCOD9228990
Probable space group: P 2/C
;
_chemical_formula_sum "Si O2"
_cell_formula_units_Z 30
_cell_length_a 13.373984
_cell_length_b 19.551901
_cell_length_c 10.958242
_cell_angle_alpha 90.000000
_cell_angle_beta 147.788523
_cell_angle_gamma 90.000000
_cell_volume 1527.408402
_symmetry_space_group_name_H-M "P 2/C"
_symmetry_group_IT_number 13
_symmetry_cell_setting 'monoclinic'
loop_
_space_group_symop_operation_xyz
x,y,z
-x,y,1/2-z
-x,-y,-z
x,-y,1/2+z
loop_
_atom_site_type_symbol
_atom_site_label
_atom_site_fract_x
_atom_site_fract_y
_atom_site_fract_z
Si Si1 0.489362 0.572429 0.054172
Si Si2 0.966092 0.167254 0.354390
Si Si3 0.500000 0.825098 0.750000
Si Si4 0.672619 0.373790 0.339327
Si Si5 0.783160 0.531899 0.510785
Si Si6 0.361511 0.056708 0.491587
Si Si7 0.856479 0.238892 0.496106
Si Si8 0.302754 0.089128 0.841166
O O1 0.699175 0.579979 0.318653
O O2 0.500000 0.500000 0.000000
O O3 0.419870 0.627257 0.889398
O O4 0.336583 0.558463 0.999415
O O5 0.912660 0.216328 0.416000
O O6 0.000000 0.196194 0.250000
O O7 0.144607 0.124825 0.593900
O O8 0.794275 0.114831 0.154245
O O9 0.354282 0.785527 0.687211
O O10 0.362210 0.867906 0.520667
O O11 0.500000 0.357020 0.250000
O O12 0.737197 0.451451 0.439196
O O13 0.839180 0.320272 0.500491
O O14 0.000000 0.539538 0.750000
O O15 0.500000 0.044169 0.750000
O O16 0.505780 0.080411 0.536871
O O17 0.257812 0.987262 0.342237
O O18 0.000000 0.212672 0.750000
#
# Coordination Sequence:
#
# PCOD9228990 Si02
#       8
#     4   4   2   4   4   4   4   4
#     4   9  18  36  59  91 128 158 199 253 319 379
#     4  12  25  43  67  96 135 175 222 275 336 400
#     4  12  22  42  68  88 128 176 222 280 326 386
#     4  11  21  40  64  92 128 169 217 265 313 388
#     4  10  19  36  64  95 128 162 197 256 327 383
#     4  11  22  39  64  97 131 170 213 273 344 405
#     4  12  26  44  67  93 128 177 230 273 319 388
#     4  11  23  40  65  98 130 166 221 276 338 401
#
# _framework density 19.641112
#
# number of rings (size 3 to 8) (size 9 to 14) (size 15 to 20)
#    0.000    1.067    8.000    0.800    0.000    2.133 
#    4.800    0.667   11.733    0.000    0.000    0.000 
#    0.000    0.000    0.000    0.000    0.000    0.000 
#
# Total GULP energy -167014.084539 kJ/mol
# GULP energy per Si atom -5567.136151 kJ/mol
# Density = 1.959641 g / cm^3
# Si number density = 19.641112 Si / 1000 Ang^3
#
#
#
# Elastic Constant Matrix: (Units=GPa)
#
#
# Indices 1 2 3 4 5 6 
#
# 1 94.2515 36.5180 54.2521 0.0000 -13.4722 0.0000
# 2 36.5180 50.6664 34.1892 0.0000 -2.2059 0.0000
# 3 54.2521 34.1892 140.5688 0.0000 -3.8981 0.0000
# 4 0.0000 0.0000 0.0000 30.0021 0.0000 -13.5370
# 5 -13.4722 -2.2059 -3.8981 0.0000 33.8779 0.0000
# 6 0.0000 0.0000 0.0000 -13.5370 0.0000 65.0968
#
#
#
# Elastic Compliance Matrix: (Units=1/GPa)
#
#
# Indices 1 2 3 4 5 6 
#
# 1 0.017637 -0.009537 -0.004324 0.000000 0.005895 0.000000
# 2 -0.009537 0.028796 -0.003387 0.000000 -0.002307 0.000000
# 3 -0.004324 -0.003387 0.009583 0.000000 -0.000837 0.000000
# 4 0.000000 0.000000 0.000000 0.036782 0.000000 0.007649
# 5 0.005895 -0.002307 -0.000837 0.000000 0.031615 0.000000
# 6 0.000000 0.000000 0.000000 0.007649 0.000000 0.016952
#
#
# Mechanical properties :
#
#
# Convention : Reuss Voigt Hill
#
# Bulk Modulus (GPa) = 46.46835 59.48947 52.97891
# Shear Modulus (GPa) = 27.31721 36.49719 31.90720
#
# Velocity S-wave (km/s) = 3.73341 4.31537 4.03489
# Velocity P-wave (km/s) = 6.50343 7.42858 6.98135
#
# Compressibility (1/GPa) = 0.02152003
#
# Stress axis : x y z
#
# Youngs Moduli (GPa) = 56.70045 34.72704 104.34969
#
# Poissons Ratio (x) = 0.33121 0.45117
# Poissons Ratio (y) = 0.54078 0.35341
# Poissons Ratio (z) = 0.24515 0.11761
#
# Static dielectric constant tensor:
#      x y z
#    x 1.742260 0.000000 -0.043410 
#    y 0.000000 1.714400 0.000000 
#    z -0.043410 0.000000 1.723290 
# 
# From -- ./inp_files/37675.got.cif
#   From: 2010.05.17/outbox.cif.g08.bks.cpg/sg13_19_cif.got.tgz:37675.got - 2010.06.03 16:44:36.
