data_PCOD9228874
_publ_section_title
;
Structure prediction by ZEFSAII (Michael W. Deem and Ramdas Pophale) SiO2 
 PCOD9228874
Probable space group: P 2/C
;
_chemical_formula_sum "Si O2"
_cell_formula_units_Z 22
_cell_length_a 23.831144
_cell_length_b 8.290468
_cell_length_c 14.047461
_cell_angle_alpha 90.000000
_cell_angle_beta 18.232919
_cell_angle_gamma 90.000000
_cell_volume 868.361388
_symmetry_space_group_name_H-M "P 2/C"
_symmetry_group_IT_number 13
_symmetry_cell_setting 'monoclinic'
loop_
_space_group_symop_operation_xyz
x,y,z
-x,y,1/2-z
-x,-y,-z
x,-y,1/2+z
loop_
_atom_site_type_symbol
_atom_site_label
_atom_site_fract_x
_atom_site_fract_y
_atom_site_fract_z
Si Si1 0.780511 0.904238 0.134839
Si Si2 0.333886 0.547080 0.836995
Si Si3 0.051363 0.715818 0.801251
Si Si4 0.813408 0.851620 0.730195
Si Si5 0.500000 0.379936 0.750000
Si Si6 0.599861 0.129928 0.183847
O O1 0.873458 0.054917 0.039113
O O2 0.571499 0.934643 0.482384
O O3 0.831310 0.846624 0.948105
O O4 0.854321 0.749412 0.077532
O O5 0.500000 0.500000 0.500000
O O6 0.401404 0.477957 0.828479
O O7 0.313160 0.736732 0.888449
O O8 0.147597 0.452142 0.120635
O O9 0.061451 0.756452 0.896884
O O10 0.726593 0.993452 0.935821
O O11 0.653413 0.733281 0.958761
O O12 0.500000 0.199171 0.250000
#
# Coordination Sequence:
#
# PCOD9228874 Si02
#       6
#     4   4   4   4   2   4
#     4  10  19  37  57  82 117 150 183 240 286 335
#     4  11  21  35  56  85 111 150 191 234 277 343
#     4  10  22  34  59  84 115 151 191 230 293 340
#     4  10  20  37  59  84 111 153 192 237 280 341
#     4  10  20  34  58  86 110 142 200 236 272 334
#     4  10  19  36  59  79 114 147 190 234 284 334
#
# _framework density 25.335073999999999
#
# number of rings (size 3 to 8) (size 9 to 14) (size 15 to 20)
#    0.000    1.818    5.455    0.545    0.000    2.182 
#    0.000    3.636    4.000    2.182    0.000    0.000 
#    0.000    0.000    0.000    0.000    0.000    0.000 
#
# Total GULP energy -122838.044502 kJ/mol
# GULP energy per Si atom -5583.547477 kJ/mol
# Density = 2.527741 g / cm^3
# Si number density = 25.335074 Si / 1000 Ang^3
#
#
#
# Elastic Constant Matrix: (Units=GPa)
#
#
# Indices 1 2 3 4 5 6 
#
# 1 77.9378 3.6172 -8.3219 0.0000 1.0524 0.0000
# 2 3.6172 43.8043 -3.6486 0.0000 -0.2586 0.0000
# 3 -8.3219 -3.6486 74.8713 0.0000 15.9201 0.0000
# 4 0.0000 0.0000 0.0000 25.4697 0.0000 2.6054
# 5 1.0524 -0.2586 15.9201 0.0000 28.3110 0.0000
# 6 0.0000 0.0000 0.0000 2.6054 0.0000 14.4431
#
#
#
# Elastic Compliance Matrix: (Units=1/GPa)
#
#
# Indices 1 2 3 4 5 6 
#
# 1 0.013078 -0.000945 0.001718 0.000000 -0.001461 0.000000
# 2 -0.000945 0.022996 0.001094 0.000000 -0.000370 0.000000
# 3 0.001718 0.001094 0.015461 0.000000 -0.008748 0.000000
# 4 0.000000 0.000000 0.000000 0.040000 0.000000 -0.007216
# 5 -0.001461 -0.000370 -0.008748 0.000000 0.040292 0.000000
# 6 0.000000 0.000000 0.000000 -0.007216 0.000000 0.070539
#
#
# Mechanical properties :
#
#
# Convention : Reuss Voigt Hill
#
# Bulk Modulus (GPa) = 18.09359 19.98965 19.04162
# Shear Modulus (GPa) = 23.03572 27.30922 25.17247
#
# Velocity S-wave (km/s) = 3.01864 3.28673 3.15553
# Velocity P-wave (km/s) = 4.39395 4.72342 4.56166
#
# Compressibility (1/GPa) = 0.05526818
#
# Stress axis : x y z
#
# Youngs Moduli (GPa) = 76.46539 43.48615 64.68045
#
# Poissons Ratio (x) = 0.04111 -0.11113
# Poissons Ratio (y) = 0.07229 -0.07078
# Poissons Ratio (z) = -0.13138 -0.04758
#
# Static dielectric constant tensor:
#      x y z
#    x 1.996720 0.000000 -0.009740 
#    y 0.000000 2.046560 0.000000 
#    z -0.009740 0.000000 2.082370 
# 
# From -- ./inp_files/49226.got.cif
#   From: 2010.05.17/outbox.cif.g08.bks.cpg/sg13_25_cif.got.tgz:49226.got - 2010.06.03 16:44:36.
