data_PCOD9228536
_publ_section_title
;
Structure prediction by ZEFSAII (Michael W. Deem and Ramdas Pophale) SiO2 
 PCOD9228536
Probable space group: P 2/C
;
_chemical_formula_sum "Si O2"
_cell_formula_units_Z 16
_cell_length_a 7.829966
_cell_length_b 17.582273
_cell_length_c 5.246543
_cell_angle_alpha 90.000000
_cell_angle_beta 92.444114
_cell_angle_gamma 90.000000
_cell_volume 721.627161
_symmetry_space_group_name_H-M "P 2/C"
_symmetry_group_IT_number 13
_symmetry_cell_setting 'monoclinic'
loop_
_space_group_symop_operation_xyz
x,y,z
-x,y,1/2-z
-x,-y,-z
x,-y,1/2+z
loop_
_atom_site_type_symbol
_atom_site_label
_atom_site_fract_x
_atom_site_fract_y
_atom_site_fract_z
Si Si1 0.805684 0.714102 0.144233
Si Si2 0.684316 0.790848 0.643936
Si Si3 0.303768 0.968802 0.954618
Si Si4 0.208663 0.541952 0.279626
O O1 0.707142 0.759123 0.361041
O O2 0.741800 0.627145 0.138855
O O3 0.000000 0.712227 0.250000
O O4 0.802346 0.752677 0.866733
O O5 0.500000 0.773620 0.750000
O O6 0.701396 0.881717 0.627936
O O7 0.223812 0.018589 0.725314
O O8 0.500000 0.000000 0.000000
O O9 0.266285 0.484183 0.503984
O O10 0.000000 0.539858 0.250000
#
# Coordination Sequence:
#
# PCOD9228536 Si02
#       4
#     4   4   4   4
#     4  11  24  40  61  93 131 158 193 257 318 358
#     4  12  23  38  65  93 120 160 208 254 297 363
#     4  10  19  34  59  89 109 147 205 265 275 329
#     4   9  17  33  59  85 111 156 211 245 277 349
#
# _framework density 22.172115000000002
#
# number of rings (size 3 to 8) (size 9 to 14) (size 15 to 20)
#    0.000    1.500    2.500    4.500    3.500    4.000 
#    0.000    0.000    0.000   30.000    0.000    0.000 
#    0.000    0.000    0.000    0.000    0.000    0.000 
#
# Total GULP energy -89378.544164 kJ/mol
# GULP energy per Si atom -5586.159010 kJ/mol
# Density = 2.212165 g / cm^3
# Si number density = 22.172115 Si / 1000 Ang^3
#
#
#
# Elastic Constant Matrix: (Units=GPa)
#
#
# Indices 1 2 3 4 5 6 
#
# 1 28.8220 -1.2052 -2.2961 0.0000 -6.0182 0.0000
# 2 -1.2052 141.1242 49.2036 0.0000 10.1336 0.0000
# 3 -2.2961 49.2036 157.5599 0.0000 -9.1203 0.0000
# 4 0.0000 0.0000 0.0000 50.1734 0.0000 -4.2787
# 5 -6.0182 10.1336 -9.1203 0.0000 24.4042 0.0000
# 6 0.0000 0.0000 0.0000 -4.2787 0.0000 12.5217
#
#
#
# Elastic Compliance Matrix: (Units=1/GPa)
#
#
# Indices 1 2 3 4 5 6 
#
# 1 0.036853 -0.000887 0.001391 0.000000 0.009976 0.000000
# 2 -0.000887 0.008446 -0.002929 0.000000 -0.004821 0.000000
# 3 0.001391 -0.002929 0.007535 0.000000 0.004376 0.000000
# 4 0.000000 0.000000 0.000000 0.020529 0.000000 0.007015
# 5 0.009976 -0.004821 0.004376 0.000000 0.047074 0.000000
# 6 0.000000 0.000000 0.000000 0.007015 0.000000 0.082258
#
#
# Mechanical properties :
#
#
# Convention : Reuss Voigt Hill
#
# Bulk Modulus (GPa) = 20.84026 46.54563 33.69294
# Shear Modulus (GPa) = 22.36747 36.20680 29.28713
#
# Velocity S-wave (km/s) = 3.17962 4.04541 3.63836
# Velocity P-wave (km/s) = 4.78537 6.54667 5.73405
#
# Compressibility (1/GPa) = 0.04798405
#
# Stress axis : x y z
#
# Youngs Moduli (GPa) = 27.13515 118.40057 132.71079
#
# Poissons Ratio (x) = 0.10499 -0.18466
# Poissons Ratio (y) = 0.02406 0.38877
# Poissons Ratio (z) = -0.03776 0.34685
#
# Static dielectric constant tensor:
#      x y z
#    x 1.830340 0.000000 0.084320 
#    y 0.000000 1.796370 0.000000 
#    z 0.084320 0.000000 1.847750 
# 
# From -- ./inp_files/1139.got.cif
#   From: 2010.05.17/outbox.cif.g08.bks.cpg/sg13_1_cif.got.tgz:1139.got - 2010.06.03 16:44:36.
