data_PCOD9228469
_publ_section_title
;
Structure prediction by ZEFSAII (Michael W. Deem and Ramdas Pophale) SiO2 
 PCOD9228469
Probable space group: P 2/C
;
_chemical_formula_sum "Si O2"
_cell_formula_units_Z 30
_cell_length_a 18.249443
_cell_length_b 8.716288
_cell_length_c 10.186040
_cell_angle_alpha 90.000000
_cell_angle_beta 53.823317
_cell_angle_gamma 90.000000
_cell_volume 1307.880417
_symmetry_space_group_name_H-M "P 2/C"
_symmetry_group_IT_number 13
_symmetry_cell_setting 'monoclinic'
loop_
_space_group_symop_operation_xyz
x,y,z
-x,y,1/2-z
-x,-y,-z
x,-y,1/2+z
loop_
_atom_site_type_symbol
_atom_site_label
_atom_site_fract_x
_atom_site_fract_y
_atom_site_fract_z
Si Si1 0.821879 0.123793 0.928121
Si Si2 0.632562 0.867884 0.511999
Si Si3 0.679781 0.860998 0.801996
Si Si4 0.946726 0.687132 0.473706
Si Si5 0.932173 0.328248 0.436992
Si Si6 0.511420 0.319672 0.473247
Si Si7 0.500000 0.112631 0.750000
Si Si8 0.179010 0.785840 0.653743
O O1 0.735961 0.182792 0.932987
O O2 0.765926 0.099589 0.122298
O O3 0.905339 0.223817 0.893396
O O4 0.850533 0.962814 0.835374
O O5 0.564783 0.734402 0.547772
O O6 0.635541 0.978264 0.382556
O O7 0.584577 0.991169 0.660727
O O8 0.720087 0.793420 0.895861
O O9 0.610691 0.736231 0.818663
O O10 0.947959 0.509378 0.433668
O O11 0.877876 0.703331 0.670811
O O12 0.040256 0.736657 0.449282
O O13 0.836321 0.292721 0.471182
O O14 0.000000 0.269334 0.250000
O O15 0.500000 0.500000 0.500000
O O16 0.502319 0.223086 0.619781
#
# Coordination Sequence:
#
# PCOD9228469 Si02
#       8
#     4   4   4   4   4   4   2   4
#     4  10  19  34  57  81 109 143 183 230 273 322
#     4  10  19  35  56  78 109 152 191 223 280 345
#     4   9  19  36  53  77 111 149 187 224 282 345
#     4   9  19  36  56  82 111 145 183 223 280 340
#     4   9  18  37  59  79 112 150 180 220 280 337
#     4  11  23  36  56  88 114 143 195 244 281 330
#     4  10  20  38  60  76 110 160 190 228 288 340
#     4   9  19  35  56  82 110 142 187 233 270 323
#
# _framework density 22.937875999999999
#
# number of rings (size 3 to 8) (size 9 to 14) (size 15 to 20)
#    0.000    2.400    0.000    3.200    0.000    3.200 
#    0.000   23.333    0.000    0.000    0.000    0.000 
#    0.000    0.000    0.000    0.000    0.000    0.000 
#
# Total GULP energy -167151.723333 kJ/mol
# GULP energy per Si atom -5571.724111 kJ/mol
# Density = 2.288567 g / cm^3
# Si number density = 22.937876 Si / 1000 Ang^3
#
#
#
# Elastic Constant Matrix: (Units=GPa)
#
#
# Indices 1 2 3 4 5 6 
#
# 1 182.1414 68.6225 14.7617 0.0000 25.8773 0.0000
# 2 68.6225 93.0528 12.5259 0.0000 6.3761 0.0000
# 3 14.7617 12.5259 57.7682 0.0000 8.4698 0.0000
# 4 0.0000 0.0000 0.0000 20.2661 0.0000 11.6764
# 5 25.8773 6.3761 8.4698 0.0000 34.5144 0.0000
# 6 0.0000 0.0000 0.0000 11.6764 0.0000 35.9267
#
#
#
# Elastic Compliance Matrix: (Units=1/GPa)
#
#
# Indices 1 2 3 4 5 6 
#
# 1 0.008448 -0.005856 -0.000123 0.000000 -0.005222 0.000000
# 2 -0.005856 0.015205 -0.002108 0.000000 0.002099 0.000000
# 3 -0.000123 -0.002108 0.018390 0.000000 -0.004031 0.000000
# 4 0.000000 0.000000 0.000000 0.060712 0.000000 -0.019732
# 5 -0.005222 0.002099 -0.004031 0.000000 0.033490 0.000000
# 6 0.000000 0.000000 0.000000 -0.019732 0.000000 0.034247
#
#
# Mechanical properties :
#
#
# Convention : Reuss Voigt Hill
#
# Bulk Modulus (GPa) = 38.65720 58.30920 48.48320
# Shear Modulus (GPa) = 25.60280 33.94493 29.77387
#
# Velocity S-wave (km/s) = 3.34455 3.85107 3.60672
# Velocity P-wave (km/s) = 5.63953 6.72681 6.20703
#
# Compressibility (1/GPa) = 0.02586840
#
# Stress axis : x y z
#
# Youngs Moduli (GPa) = 118.36559 65.76764 54.37668
#
# Poissons Ratio (x) = 0.38513 0.00671
# Poissons Ratio (y) = 0.69314 0.11464
# Poissons Ratio (z) = 0.01461 0.13866
#
# Static dielectric constant tensor:
#      x y z
#    x 2.015790 0.000000 0.019650 
#    y 0.000000 1.792290 0.000000 
#    z 0.019650 0.000000 1.964520 
# 
# From -- ./inp_files/38784.got.cif
#   From: 2010.05.17/outbox.cif.g08.bks.cpg/sg13_20_cif.got.tgz:38784.got - 2010.06.03 16:44:36.
