data_PCOD9228418
_publ_section_title
;
Structure prediction by ZEFSAII (Michael W. Deem and Ramdas Pophale) SiO2 
 PCOD9228418
Probable space group: P 2/C
;
_chemical_formula_sum "Si O2"
_cell_formula_units_Z 22
_cell_length_a 21.728616
_cell_length_b 12.036016
_cell_length_c 11.145015
_cell_angle_alpha 90.000000
_cell_angle_beta 157.707874
_cell_angle_gamma 90.000000
_cell_volume 1105.634375
_symmetry_space_group_name_H-M "P 2/C"
_symmetry_group_IT_number 13
_symmetry_cell_setting 'monoclinic'
loop_
_space_group_symop_operation_xyz
x,y,z
-x,y,1/2-z
-x,-y,-z
x,-y,1/2+z
loop_
_atom_site_type_symbol
_atom_site_label
_atom_site_fract_x
_atom_site_fract_y
_atom_site_fract_z
Si Si1 0.739870 0.325410 0.362841
Si Si2 0.500000 0.793890 0.750000
Si Si3 0.707446 0.079250 0.252364
Si Si4 0.000000 0.507380 0.750000
Si Si5 0.500000 0.575423 0.250000
Si Si6 0.350124 0.999434 0.605536
Si Si7 0.739659 0.620757 0.136201
O O1 0.782128 0.201118 0.398276
O O2 0.729628 0.328509 0.486802
O O3 0.864749 0.423886 0.556794
O O4 0.576096 0.355009 0.995359
O O5 0.431469 0.878943 0.725250
O O6 0.355422 0.710059 0.452250
O O7 0.744871 0.008572 0.440535
O O8 0.508136 0.079529 0.898698
O O9 0.743798 0.029261 0.186544
O O10 0.915281 0.586514 0.499629
O O11 0.638336 0.493214 0.451248
#
# Coordination Sequence:
#
# PCOD9228418 Si02
#       7
#     4   2   4   2   2   4   4
#     4  11  19  36  55  77 113 148 184 230 285 327
#     4   9  16  31  56  86 108 135 182 227 284 326
#     4   9  17  29  55  79 115 137 175 224 289 337
#     4  10  24  36  52  76 110 158 196 218 264 338
#     4   9  20  31  52  88 102 135 188 241 278 338
#     4   9  17  31  52  90 113 138 172 235 293 338
#     4  10  19  34  55  76 111 148 185 231 276 328
#
# _framework density 19.898078999999999
#
# number of rings (size 3 to 8) (size 9 to 14) (size 15 to 20)
#    0.000    2.545    1.818    2.182    0.000    0.000 
#    0.000    0.000    0.000    5.455    0.000    0.000 
#    0.000    0.000    0.000    0.000    0.000    0.000 
#
# Total GULP energy -122467.810606 kJ/mol
# GULP energy per Si atom -5566.718664 kJ/mol
# Density = 1.985279 g / cm^3
# Si number density = 19.898079 Si / 1000 Ang^3
#
#
#
# Elastic Constant Matrix: (Units=GPa)
#
#
# Indices 1 2 3 4 5 6 
#
# 1 89.9833 31.2512 37.7206 0.0000 -46.8409 0.0000
# 2 31.2512 97.0259 37.7980 0.0000 -17.6338 0.0000
# 3 37.7206 37.7980 85.8992 0.0000 -24.8724 0.0000
# 4 0.0000 0.0000 0.0000 10.7290 0.0000 -12.9328
# 5 -46.8409 -17.6338 -24.8724 0.0000 30.1735 0.0000
# 6 0.0000 0.0000 0.0000 -12.9328 0.0000 41.1621
#
#
#
# Elastic Compliance Matrix: (Units=1/GPa)
#
#
# Indices 1 2 3 4 5 6 
#
# 1 0.058714 -0.003139 0.001916 0.000000 0.090892 0.000000
# 2 -0.003139 0.012915 -0.004637 0.000000 -0.001147 0.000000
# 3 0.001916 -0.004637 0.016967 0.000000 0.014251 0.000000
# 4 0.000000 0.000000 0.000000 0.150024 0.000000 0.047137
# 5 0.090892 -0.001147 0.014251 0.000000 0.185318 0.000000
# 6 0.000000 0.000000 0.000000 0.047137 0.000000 0.039104
#
#
# Mechanical properties :
#
#
# Convention : Reuss Voigt Hill
#
# Bulk Modulus (GPa) = 13.00770 54.04977 33.52873
# Shear Modulus (GPa) = 9.99227 27.48882 18.74055
#
# Velocity S-wave (km/s) = 2.24335 3.72086 3.07225
# Velocity P-wave (km/s) = 3.64164 6.75885 5.42879
#
# Compressibility (1/GPa) = 0.07687753
#
# Stress axis : x y z
#
# Youngs Moduli (GPa) = 17.03180 77.42666 58.93847
#
# Poissons Ratio (x) = 0.24303 -0.11295
# Poissons Ratio (y) = 0.05346 0.27329
# Poissons Ratio (z) = -0.03264 0.35902
#
# Static dielectric constant tensor:
#      x y z
#    x 1.790830 0.000000 0.006270 
#    y 0.000000 1.703070 0.000000 
#    z 0.006270 0.000000 1.732020 
# 
# From -- ./inp_files/34076.got.cif
#   From: 2010.05.17/outbox.cif.g08.bks.cpg/sg13_18_cif.got.tgz:34076.got - 2010.06.03 16:44:36.
