data_PCOD9228465
_publ_section_title
;
Structure prediction by ZEFSAII (Michael W. Deem and Ramdas Pophale) SiO2 
 PCOD9228465
Probable space group: P 2/C
;
_chemical_formula_sum "Si O2"
_cell_formula_units_Z 28
_cell_length_a 26.135595
_cell_length_b 9.963517
_cell_length_c 25.610477
_cell_angle_alpha 90.000000
_cell_angle_beta 11.089267
_cell_angle_gamma 90.000000
_cell_volume 1282.708994
_symmetry_space_group_name_H-M "P 2/C"
_symmetry_group_IT_number 13
_symmetry_cell_setting 'monoclinic'
loop_
_space_group_symop_operation_xyz
x,y,z
-x,y,1/2-z
-x,-y,-z
x,-y,1/2+z
loop_
_atom_site_type_symbol
_atom_site_label
_atom_site_fract_x
_atom_site_fract_y
_atom_site_fract_z
Si Si1 0.882084 0.180974 0.705518
Si Si2 0.933807 0.485814 0.982145
Si Si3 0.916783 0.370371 0.387396
Si Si4 0.592020 0.219490 0.575125
Si Si5 0.302817 0.118374 0.713089
Si Si6 0.420743 0.365546 0.024100
Si Si7 0.650449 0.974303 0.729568
O O1 0.923214 0.130678 0.604208
O O2 0.951043 0.337064 0.634751
O O3 0.088194 0.114000 0.539394
O O4 0.586289 0.126581 0.014972
O O5 0.948079 0.541659 0.908300
O O6 0.129257 0.574969 0.822595
O O7 0.634231 0.515742 0.301020
O O8 0.621068 0.313430 0.683119
O O9 0.000000 0.439429 0.250000
O O10 0.118345 0.244389 0.191853
O O11 0.602854 0.278560 0.505439
O O12 0.479649 0.069506 0.683552
O O13 0.459218 0.260002 0.555692
O O14 0.500000 0.000000 0.500000
O O15 0.241725 0.080384 0.833985
#
# Coordination Sequence:
#
# PCOD9228465 Si02
#       7
#     4   4   4   4   4   4   4
#     4  11  21  33  52  75 107 145 178 209 249 308
#     4  10  21  35  51  77 104 137 174 207 263 315
#     4  10  19  34  57  79 100 127 165 214 259 314
#     4   9  18  33  54  79 101 127 164 209 264 302
#     4   9  20  34  52  76 103 140 185 221 256 297
#     4   9  19  34  51  72 106 137 170 218 253 295
#     4  10  20  35  53  75 104 138 174 215 254 300
#
# _framework density 21.828802
#
# number of rings (size 3 to 8) (size 9 to 14) (size 15 to 20)
#    0.000    2.286    0.000    2.571    0.000   10.286 
#    0.000    0.000    0.000    5.143    0.000    0.000 
#    0.000    0.000    0.000    0.000    0.000    0.000 
#
# Total GULP energy -156267.784816 kJ/mol
# GULP energy per Si atom -5580.992315 kJ/mol
# Density = 2.177912 g / cm^3
# Si number density = 21.828802 Si / 1000 Ang^3
#
#
#
# Elastic Constant Matrix: (Units=GPa)
#
#
# Indices 1 2 3 4 5 6 
#
# 1 50.1707 15.8046 9.6884 0.0000 -8.0893 0.0000
# 2 15.8046 97.0146 10.8837 0.0000 -9.6726 0.0000
# 3 9.6884 10.8837 87.5908 0.0000 -17.1191 0.0000
# 4 0.0000 0.0000 0.0000 27.7713 0.0000 -10.1380
# 5 -8.0893 -9.6726 -17.1191 0.0000 28.2833 0.0000
# 6 0.0000 0.0000 0.0000 -10.1380 0.0000 10.1750
#
#
#
# Elastic Compliance Matrix: (Units=1/GPa)
#
#
# Indices 1 2 3 4 5 6 
#
# 1 0.021822 -0.002974 -0.001160 0.000000 0.004522 0.000000
# 2 -0.002974 0.011114 -0.000539 0.000000 0.002624 0.000000
# 3 -0.001160 -0.000539 0.013056 0.000000 0.007386 0.000000
# 4 0.000000 0.000000 0.000000 0.056593 0.000000 0.056387
# 5 0.004522 0.002624 0.007386 0.000000 0.042018 0.000000
# 6 0.000000 0.000000 0.000000 0.056387 0.000000 0.154462
#
#
# Mechanical properties :
#
#
# Convention : Reuss Voigt Hill
#
# Bulk Modulus (GPa) = 27.28912 34.16995 30.72953
# Shear Modulus (GPa) = 15.59448 26.47254 21.03351
#
# Velocity S-wave (km/s) = 2.67572 3.48621 3.10751
# Velocity P-wave (km/s) = 4.69836 5.64734 5.19457
#
# Compressibility (1/GPa) = 0.03664465
#
# Stress axis : x y z
#
# Youngs Moduli (GPa) = 45.82535 89.97385 76.59544
#
# Poissons Ratio (x) = 0.26758 0.08888
# Poissons Ratio (y) = 0.13628 0.04130
# Poissons Ratio (z) = 0.05318 0.04852
#
# Static dielectric constant tensor:
#      x y z
#    x 1.873210 0.000000 0.016390 
#    y 0.000000 1.825750 0.000000 
#    z 0.016390 0.000000 1.797880 
# 
# From -- ./inp_files/94847.got.cif
#   From: 2010.05.17/outbox.cif.g08.bks.cpg/sg13_48_cif.got.tgz:94847.got - 2010.06.03 16:44:36.
