data_PCOD9228985
_publ_section_title
;
Structure prediction by ZEFSAII (Michael W. Deem and Ramdas Pophale) SiO2 
 PCOD9228985
Probable space group: P 2/C
;
_chemical_formula_sum "Si O2"
_cell_formula_units_Z 24
_cell_length_a 8.693573
_cell_length_b 12.882853
_cell_length_c 10.823084
_cell_angle_alpha 90.000000
_cell_angle_beta 61.870838
_cell_angle_gamma 90.000000
_cell_volume 1068.991707
_symmetry_space_group_name_H-M "P 2/C"
_symmetry_group_IT_number 13
_symmetry_cell_setting 'monoclinic'
loop_
_space_group_symop_operation_xyz
x,y,z
-x,y,1/2-z
-x,-y,-z
x,-y,1/2+z
loop_
_atom_site_type_symbol
_atom_site_label
_atom_site_fract_x
_atom_site_fract_y
_atom_site_fract_z
Si Si1 0.303122 0.549991 0.071771
Si Si2 0.000000 0.876715 0.750000
Si Si3 0.351042 0.205795 0.536722
Si Si4 0.712578 0.572833 0.154712
Si Si5 0.775767 0.954319 0.231797
Si Si6 0.723247 0.795878 0.033693
Si Si7 0.500000 0.899602 0.750000
O O1 0.220713 0.534961 0.237908
O O2 0.500000 0.500000 0.000000
O O3 0.303742 0.673611 0.054604
O O4 0.223127 0.496541 0.982602
O O5 0.145524 0.807589 0.630043
O O6 0.922559 0.958223 0.680666
O O7 0.222129 0.126904 0.655948
O O8 0.529293 0.201492 0.550560
O O9 0.381956 0.169057 0.384908
O O10 0.500000 0.566893 0.250000
O O11 0.748718 0.691326 0.103063
O O12 0.758043 0.890049 0.113500
O O13 0.603592 0.025633 0.303468
#
# Coordination Sequence:
#
# PCOD9228985 Si02
#       7
#     4   2   4   4   4   4   2
#     4  10  20  33  62 101 126 160 205 278 335 377
#     4  12  28  40  62  96 132 180 218 264 316 404
#     4  12  22  38  65  99 128 165 218 274 325 384
#     4  10  19  36  63  97 130 162 207 273 332 387
#     4  12  23  44  64  91 129 174 222 261 328 379
#     4  12  21  41  64  91 130 174 216 261 333 383
#     4  12  24  34  64  96 126 162 214 276 310 390
#
# _framework density 22.451060999999999
#
# number of rings (size 3 to 8) (size 9 to 14) (size 15 to 20)
#    0.000    0.667    8.333    2.000    3.500    0.000 
#    0.000    0.000    0.000    2.000    0.000    0.000 
#    0.000    0.000    0.000    0.000    0.000    0.000 
#
# Total GULP energy -134132.165302 kJ/mol
# GULP energy per Si atom -5588.840221 kJ/mol
# Density = 2.239996 g / cm^3
# Si number density = 22.451061 Si / 1000 Ang^3
#
#
#
# Elastic Constant Matrix: (Units=GPa)
#
#
# Indices 1 2 3 4 5 6 
#
# 1 25.1256 18.3247 15.7712 0.0000 9.5972 0.0000
# 2 18.3247 84.6327 45.5268 0.0000 17.8614 0.0000
# 3 15.7712 45.5268 132.0961 0.0000 28.2486 0.0000
# 4 0.0000 0.0000 0.0000 34.3090 0.0000 16.1914
# 5 9.5972 17.8614 28.2486 0.0000 32.6318 0.0000
# 6 0.0000 0.0000 0.0000 16.1914 0.0000 13.4530
#
#
#
# Elastic Compliance Matrix: (Units=1/GPa)
#
#
# Indices 1 2 3 4 5 6 
#
# 1 0.050077 -0.008279 -0.001160 0.000000 -0.009193 0.000000
# 2 -0.008279 0.016416 -0.004011 0.000000 -0.003078 0.000000
# 3 -0.001160 -0.004011 0.010491 0.000000 -0.006545 0.000000
# 4 0.000000 0.000000 0.000000 0.067468 0.000000 -0.081201
# 5 -0.009193 -0.003078 -0.006545 0.000000 0.040699 0.000000
# 6 0.000000 0.000000 0.000000 -0.081201 0.000000 0.172063
#
#
# Mechanical properties :
#
#
# Convention : Reuss Voigt Hill
#
# Bulk Modulus (GPa) = 19.96617 44.56665 32.26641
# Shear Modulus (GPa) = 12.47480 26.89420 19.68450
#
# Velocity S-wave (km/s) = 2.35977 3.46483 2.96425
# Velocity P-wave (km/s) = 4.04193 5.99169 5.11065
#
# Compressibility (1/GPa) = 0.05008472
#
# Stress axis : x y z
#
# Youngs Moduli (GPa) = 19.96912 60.91785 95.32239
#
# Poissons Ratio (x) = 0.50433 0.11054
# Poissons Ratio (y) = 0.16532 0.38233
# Poissons Ratio (z) = 0.02316 0.24434
#
# Static dielectric constant tensor:
#      x y z
#    x 1.910560 0.000000 0.013440 
#    y 0.000000 1.780290 0.000000 
#    z 0.013440 0.000000 1.807660 
# 
# From -- ./inp_files/33764.got.cif
#   From: 2010.05.17/outbox.cif.g08.bks.cpg/sg13_17_cif.got.tgz:33764.got - 2010.06.03 16:44:36.
