data_PCOD9228349
_publ_section_title
;
Structure prediction by ZEFSAII (Michael W. Deem and Ramdas Pophale) SiO2 
 PCOD9228349
Probable space group: P 2/C
;
_chemical_formula_sum "Si O2"
_cell_formula_units_Z 18
_cell_length_a 7.451033
_cell_length_b 7.039618
_cell_length_c 15.990761
_cell_angle_alpha 90.000000
_cell_angle_beta 108.580602
_cell_angle_gamma 90.000000
_cell_volume 795.035271
_symmetry_space_group_name_H-M "P 2/C"
_symmetry_group_IT_number 13
_symmetry_cell_setting 'monoclinic'
loop_
_space_group_symop_operation_xyz
x,y,z
-x,y,1/2-z
-x,-y,-z
x,-y,1/2+z
loop_
_atom_site_type_symbol
_atom_site_label
_atom_site_fract_x
_atom_site_fract_y
_atom_site_fract_z
Si Si1 0.244107 0.354530 0.929200
Si Si2 0.000000 0.201395 0.750000
Si Si3 0.222633 0.089618 0.089248
Si Si4 0.171493 0.788970 0.946098
Si Si5 0.619822 0.949837 0.155594
O O1 0.240167 0.574881 0.949232
O O2 0.405298 0.256928 0.894019
O O3 0.061248 0.314929 0.842197
O O4 0.245063 0.238150 0.015252
O O5 0.806096 0.087122 0.739183
O O6 0.047139 0.177300 0.113676
O O7 0.428129 0.045366 0.157041
O O8 0.171765 0.888627 0.036950
O O9 0.302325 0.914947 0.906131
#
# Coordination Sequence:
#
# PCOD9228349 Si02
#       5
#     4   2   4   4   4
#     4   9  18  35  55  83 113 145 186 231 286 334
#     4   8  20  36  54  76 114 152 184 234 276 350
#     4  10  20  34  57  88 106 141 193 234 279 336
#     4  10  19  33  60  81 111 142 181 242 286 325
#     4   9  20  37  54  81 111 145 191 226 284 338
#
# _framework density 22.640504
#
# number of rings (size 3 to 8) (size 9 to 14) (size 15 to 20)
#    1.333    1.333    0.000    3.333    0.000    4.444 
#    0.000    1.111    0.000    0.000    0.000    0.000 
#    0.000    0.000    0.000    0.000    0.000    0.000 
#
# Total GULP energy -100207.869845 kJ/mol
# GULP energy per Si atom -5567.103880 kJ/mol
# Density = 2.258897 g / cm^3
# Si number density = 22.640504 Si / 1000 Ang^3
#
#
#
# Elastic Constant Matrix: (Units=GPa)
#
#
# Indices 1 2 3 4 5 6 
#
# 1 122.4129 30.1950 10.9702 0.0000 12.9418 0.0000
# 2 30.1950 165.2525 35.5614 0.0000 8.3983 0.0000
# 3 10.9702 35.5614 82.2388 0.0000 24.9898 0.0000
# 4 0.0000 0.0000 0.0000 17.3977 0.0000 4.8072
# 5 12.9418 8.3983 24.9898 0.0000 34.0233 0.0000
# 6 0.0000 0.0000 0.0000 4.8072 0.0000 15.1323
#
#
#
# Elastic Compliance Matrix: (Units=1/GPa)
#
#
# Indices 1 2 3 4 5 6 
#
# 1 0.008863 -0.001559 0.000514 0.000000 -0.003364 0.000000
# 2 -0.001559 0.006956 -0.003165 0.000000 0.001201 0.000000
# 3 0.000514 -0.003165 0.017098 0.000000 -0.011972 0.000000
# 4 0.000000 0.000000 0.000000 0.063010 0.000000 -0.020017
# 5 -0.003364 0.001201 -0.011972 0.000000 0.039169 0.000000
# 6 0.000000 0.000000 0.000000 -0.020017 0.000000 0.072443
#
#
# Mechanical properties :
#
#
# Convention : Reuss Voigt Hill
#
# Bulk Modulus (GPa) = 40.82033 58.15081 49.48557
# Shear Modulus (GPa) = 22.30909 32.85582 27.58246
#
# Velocity S-wave (km/s) = 3.14245 3.81359 3.49417
# Velocity P-wave (km/s) = 5.58888 6.71800 6.17928
#
# Compressibility (1/GPa) = 0.02449760
#
# Stress axis : x y z
#
# Youngs Moduli (GPa) = 112.82531 143.75505 58.48736
#
# Poissons Ratio (x) = 0.22414 -0.03007
# Poissons Ratio (y) = 0.17591 0.18510
# Poissons Ratio (z) = -0.05801 0.45496
#
# Static dielectric constant tensor:
#      x y z
#    x 1.940230 0.000000 0.038430 
#    y 0.000000 1.814890 0.000000 
#    z 0.038430 0.000000 1.962740 
# 
# From -- ./inp_files/74263.got.cif
#   From: 2010.05.17/outbox.cif.g08.bks.cpg/sg13_38_cif.got.tgz:74263.got - 2010.06.03 16:44:36.
