data_PCOD9228442
_publ_section_title
;
Structure prediction by ZEFSAII (Michael W. Deem and Ramdas Pophale) SiO2 
 PCOD9228442
Probable space group: P 2/C
;
_chemical_formula_sum "Si O2"
_cell_formula_units_Z 20
_cell_length_a 15.753673
_cell_length_b 6.621093
_cell_length_c 16.210511
_cell_angle_alpha 90.000000
_cell_angle_beta 148.580497
_cell_angle_gamma 90.000000
_cell_volume 881.446716
_symmetry_space_group_name_H-M "P 2/C"
_symmetry_group_IT_number 13
_symmetry_cell_setting 'monoclinic'
loop_
_space_group_symop_operation_xyz
x,y,z
-x,y,1/2-z
-x,-y,-z
x,-y,1/2+z
loop_
_atom_site_type_symbol
_atom_site_label
_atom_site_fract_x
_atom_site_fract_y
_atom_site_fract_z
Si Si1 0.697156 0.405862 0.005489
Si Si2 0.398085 0.562639 0.834796
Si Si3 0.794436 0.860340 0.735320
Si Si4 0.122772 0.600432 0.010792
Si Si5 0.928017 0.249111 0.773366
O O1 0.712578 0.224236 0.083395
O O2 0.814807 0.577194 0.141101
O O3 0.521580 0.512198 0.863690
O O4 0.768221 0.336874 0.977343
O O5 0.327506 0.786059 0.793907
O O6 0.239155 0.427321 0.685506
O O7 0.500000 0.500000 0.000000
O O8 0.834753 0.090792 0.752353
O O9 0.968088 0.745872 0.891058
O O10 0.060427 0.375508 0.934536
O O11 0.000000 0.144169 0.750000
#
# Coordination Sequence:
#
# PCOD9228442 Si02
#       5
#     4   4   4   4   4
#     4   9  19  35  55  77 105 138 171 213 261 310
#     4  10  21  35  52  77 109 141 172 214 263 307
#     4  10  19  34  56  80 105 132 171 219 263 306
#     4  10  19  35  56  76 103 140 178 212 253 309
#     4   9  18  33  55  79 100 132 178 216 254 310
#
# _framework density 22.689969000000001
#
# number of rings (size 3 to 8) (size 9 to 14) (size 15 to 20)
#    0.000    2.400    0.000    4.200    0.000    1.600 
#    0.000    4.000    0.000    7.200    0.000    0.000 
#    0.000    0.000    0.000    0.000    0.000    0.000 
#
# Total GULP energy -111641.195108 kJ/mol
# GULP energy per Si atom -5582.059755 kJ/mol
# Density = 2.263833 g / cm^3
# Si number density = 22.689969 Si / 1000 Ang^3
#
#
#
# Elastic Constant Matrix: (Units=GPa)
#
#
# Indices 1 2 3 4 5 6 
#
# 1 90.3949 12.6403 19.1625 0.0000 9.5578 0.0000
# 2 12.6403 58.1093 10.6086 0.0000 -9.3764 0.0000
# 3 19.1625 10.6086 100.8592 0.0000 -11.8687 0.0000
# 4 0.0000 0.0000 0.0000 -1.4245 0.0000 3.4224
# 5 9.5578 -9.3764 -11.8687 0.0000 28.7586 0.0000
# 6 0.0000 0.0000 0.0000 3.4224 0.0000 29.4977
#
#
#
# Elastic Compliance Matrix: (Units=1/GPa)
#
#
# Indices 1 2 3 4 5 6 
#
# 1 0.012821 -0.003320 -0.002854 0.000000 -0.006522 0.000000
# 2 -0.003320 0.019182 -0.000548 0.000000 0.007132 0.000000
# 3 -0.002854 -0.000548 0.011147 0.000000 0.005370 0.000000
# 4 0.000000 0.000000 0.000000 -0.548982 0.000000 0.063695
# 5 -0.006522 0.007132 0.005370 0.000000 0.041481 0.000000
# 6 0.000000 0.000000 0.000000 0.063695 0.000000 0.026511
#
#
# Mechanical properties :
#
#
# Convention : Reuss Voigt Hill
#
# Bulk Modulus (GPa) = 33.66328 37.13182 35.39755
# Shear Modulus (GPa) = -12.06289 25.16317 6.55014
#
# Velocity S-wave (km/s) = -2.30823 3.33378 1.70090
# Velocity P-wave (km/s) = 2.78648 5.58741 4.41495
#
# Compressibility (1/GPa) = 0.02970596
#
# Stress axis : x y z
#
# Youngs Moduli (GPa) = 77.99422 52.13251 89.71322
#
# Poissons Ratio (x) = 0.17309 0.25606
# Poissons Ratio (y) = 0.25896 0.04912
# Poissons Ratio (z) = 0.22261 0.02855
#
# Static dielectric constant tensor:
#      x y z
#    x 1.963240 0.000000 0.013750 
#    y 0.000000 1.813340 0.000000 
#    z 0.013750 0.000000 1.873070 
# 
# From -- ./inp_files/62340.got.cif
#   From: 2010.05.17/outbox.cif.g08.bks.cpg/sg13_32_cif.got.tgz:62340.got - 2010.06.03 16:44:36.
