data_PCOD9228750
_publ_section_title
;
Structure prediction by ZEFSAII (Michael W. Deem and Ramdas Pophale) SiO2 
 PCOD9228750
Probable space group: P 2/C
;
_chemical_formula_sum "Si O2"
_cell_formula_units_Z 32
_cell_length_a 12.085747
_cell_length_b 6.930418
_cell_length_c 31.562892
_cell_angle_alpha 90.000000
_cell_angle_beta 150.599462
_cell_angle_gamma 90.000000
_cell_volume 1297.816548
_symmetry_space_group_name_H-M "P 2/C"
_symmetry_group_IT_number 13
_symmetry_cell_setting 'monoclinic'
loop_
_space_group_symop_operation_xyz
x,y,z
-x,y,1/2-z
-x,-y,-z
x,-y,1/2+z
loop_
_atom_site_type_symbol
_atom_site_label
_atom_site_fract_x
_atom_site_fract_y
_atom_site_fract_z
Si Si1 0.070860 0.209024 0.447075
Si Si2 0.689013 0.837304 0.066637
Si Si3 0.578362 0.426832 0.704563
Si Si4 0.577819 0.710051 0.113802
Si Si5 0.083630 0.285414 0.541405
Si Si6 0.975376 0.341860 0.595314
Si Si7 0.116867 0.958459 0.748888
Si Si8 0.640900 0.852439 0.755155
O O1 0.336601 0.183333 0.532907
O O2 0.008039 0.171697 0.474841
O O3 0.045530 0.435416 0.425533
O O4 0.892877 0.117675 0.356832
O O5 0.631075 0.673859 0.082520
O O6 0.757318 0.728829 0.047008
O O7 0.906841 0.959187 0.153060
O O8 0.500000 0.000000 0.000000
O O9 0.588356 0.440981 0.656349
O O10 0.354649 0.299421 0.636692
O O11 0.553732 0.631725 0.719633
O O12 0.801674 0.334081 0.800316
O O13 0.762908 0.864719 0.188239
O O14 0.000000 0.500000 0.500000
O O15 0.990844 0.233616 0.555927
O O16 0.308768 0.898718 0.778172
O O17 0.000000 0.840290 0.750000
O O18 0.500000 0.926481 0.750000
#
# Coordination Sequence:
#
# PCOD9228750 Si02
#       8
#     4   4   4   4   4   4   4   4
#     4   9  20  38  62  93 129 156 212 277 319 384
#     4  11  23  42  64  87 130 179 215 270 323 394
#     4  10  19  37  67  91 128 169 209 274 329 381
#     4  10  21  43  65  88 129 169 219 268 323 393
#     4   9  17  33  56  93 127 157 201 266 325 387
#     4  10  19  35  61  95 122 166 218 259 331 382
#     4  10  23  46  62  88 133 178 217 260 334 399
#     4  11  22  42  66  98 133 169 216 276 329 391
#
# _framework density 24.656796
#
# number of rings (size 3 to 8) (size 9 to 14) (size 15 to 20)
#    0.000    2.000    1.250    3.375    0.000    0.500 
#   27.000    0.625    0.000    0.000    0.000    0.000 
#    0.000    0.000    0.000    0.000    0.000    0.000 
#
# Total GULP energy -178368.853596 kJ/mol
# GULP energy per Si atom -5574.026675 kJ/mol
# Density = 2.460068 g / cm^3
# Si number density = 24.656796 Si / 1000 Ang^3
#
#
#
# Elastic Constant Matrix: (Units=GPa)
#
#
# Indices 1 2 3 4 5 6 
#
# 1 234.8815 33.3101 27.9594 0.0000 -32.8935 0.0000
# 2 33.3101 34.8804 5.3494 0.0000 -17.2593 0.0000
# 3 27.9594 5.3494 114.8373 0.0000 4.5673 0.0000
# 4 0.0000 0.0000 0.0000 9.3741 0.0000 0.1112
# 5 -32.8935 -17.2593 4.5673 0.0000 31.4165 0.0000
# 6 0.0000 0.0000 0.0000 0.1112 0.0000 29.4694
#
#
#
# Elastic Compliance Matrix: (Units=1/GPa)
#
#
# Indices 1 2 3 4 5 6 
#
# 1 0.005427 -0.002835 -0.001361 0.000000 0.004322 0.000000
# 2 -0.002835 0.041710 -0.002058 0.000000 0.020245 0.000000
# 3 -0.001361 -0.002058 0.009291 0.000000 -0.003906 0.000000
# 4 0.000000 0.000000 0.000000 0.106682 0.000000 -0.000403
# 5 0.004322 0.020245 -0.003906 0.000000 0.048046 0.000000
# 6 0.000000 0.000000 0.000000 -0.000403 0.000000 0.033935
#
#
# Mechanical properties :
#
#
# Convention : Reuss Voigt Hill
#
# Bulk Modulus (GPa) = 22.76902 57.53744 40.15323
# Shear Modulus (GPa) = 18.36627 35.25068 26.80847
#
# Velocity S-wave (km/s) = 2.73220 3.78518 3.30095
# Velocity P-wave (km/s) = 4.38266 6.51839 5.55415
#
# Compressibility (1/GPa) = 0.04391933
#
# Stress axis : x y z
#
# Youngs Moduli (GPa) = 184.26856 23.97508 107.63581
#
# Poissons Ratio (x) = 0.06797 0.14651
# Poissons Ratio (y) = 0.52240 0.22150
# Poissons Ratio (z) = 0.25081 0.04934
#
# Static dielectric constant tensor:
#      x y z
#    x 2.114380 0.000000 -0.051210 
#    y 0.000000 2.036060 0.000000 
#    z -0.051210 0.000000 1.949420 
# 
# From -- ./inp_files/96717.got.cif
#   From: 2010.05.17/outbox.cif.g08.bks.cpg/sg13_49_cif.got.tgz:96717.got - 2010.06.03 16:44:36.
