data_PCOD9228730
_publ_section_title
;
Structure prediction by ZEFSAII (Michael W. Deem and Ramdas Pophale) SiO2 
 PCOD9228730
Probable space group: P 2/C
;
_chemical_formula_sum "Si O2"
_cell_formula_units_Z 28
_cell_length_a 9.874923
_cell_length_b 10.531992
_cell_length_c 18.621880
_cell_angle_alpha 90.000000
_cell_angle_beta 39.141801
_cell_angle_gamma 90.000000
_cell_volume 1222.541253
_symmetry_space_group_name_H-M "P 2/C"
_symmetry_group_IT_number 13
_symmetry_cell_setting 'monoclinic'
loop_
_space_group_symop_operation_xyz
x,y,z
-x,y,1/2-z
-x,-y,-z
x,-y,1/2+z
loop_
_atom_site_type_symbol
_atom_site_label
_atom_site_fract_x
_atom_site_fract_y
_atom_site_fract_z
Si Si1 0.999790 0.401547 0.434821
Si Si2 0.776069 0.614138 0.876310
Si Si3 0.988904 0.756936 0.168366
Si Si4 0.437732 0.823287 0.975135
Si Si5 0.638687 0.940438 0.344770
Si Si6 0.364583 0.253775 0.875180
Si Si7 0.673207 0.468827 0.780880
O O1 0.456749 0.397321 0.849621
O O2 0.889714 0.274028 0.512384
O O3 0.000000 0.500000 0.500000
O O4 0.239433 0.413523 0.301827
O O5 0.597669 0.721936 0.943884
O O6 0.689459 0.505788 0.857920
O O7 0.000000 0.662217 0.750000
O O8 0.853210 0.572851 0.923300
O O9 0.000000 0.730634 0.250000
O O10 0.852743 0.887584 0.218992
O O11 0.843727 0.644343 0.197971
O O12 0.221034 0.758164 0.036888
O O13 0.567235 0.914583 0.868628
O O14 0.338489 0.910804 0.079720
O O15 0.448257 0.847827 0.397822
O O16 0.500000 0.211974 0.750000
#
# Coordination Sequence:
#
# PCOD9228730 Si02
#       7
#     4   4   4   4   4   4   4
#     4  11  21  37  56  86 124 165 203 248 314 386
#     4  10  22  37  56  93 127 159 208 263 316 375
#     4   9  18  34  53  83 118 152 201 258 319 373
#     4  10  19  35  61  84 116 161 205 271 318 365
#     4   9  20  36  56  85 115 157 216 264 313 368
#     4  11  21  38  62  85 124 169 206 255 320 386
#     4  10  22  37  57  90 126 160 206 263 314 377
#
# _framework density 22.903112
#
# number of rings (size 3 to 8) (size 9 to 14) (size 15 to 20)
#    0.000    2.000    2.857    1.286    2.000    3.429 
#    0.000    0.000    0.000    7.714    0.000    0.000 
#    0.000    0.000    0.000    0.000    0.000    0.000 
#
# Total GULP energy -156006.803027 kJ/mol
# GULP energy per Si atom -5571.671537 kJ/mol
# Density = 2.285098 g / cm^3
# Si number density = 22.903112 Si / 1000 Ang^3
#
#
#
# Elastic Constant Matrix: (Units=GPa)
#
#
# Indices 1 2 3 4 5 6 
#
# 1 56.8403 20.9127 24.8324 0.0000 -1.7234 0.0000
# 2 20.9127 67.9111 29.2143 0.0000 -11.5397 0.0000
# 3 24.8324 29.2143 77.5117 0.0000 -3.8076 0.0000
# 4 0.0000 0.0000 0.0000 22.3619 0.0000 -3.3934
# 5 -1.7234 -11.5397 -3.8076 0.0000 43.3300 0.0000
# 6 0.0000 0.0000 0.0000 -3.3934 0.0000 8.4423
#
#
#
# Elastic Compliance Matrix: (Units=1/GPa)
#
#
# Indices 1 2 3 4 5 6 
#
# 1 0.021514 -0.004511 -0.005232 0.000000 -0.000806 0.000000
# 2 -0.004511 0.019283 -0.005603 0.000000 0.004464 0.000000
# 3 -0.005232 -0.005603 0.016678 0.000000 -0.000235 0.000000
# 4 0.000000 0.000000 0.000000 0.047624 0.000000 0.019143
# 5 -0.000806 0.004464 -0.000235 0.000000 0.024215 0.000000
# 6 0.000000 0.000000 0.000000 0.019143 0.000000 0.126145
#
#
# Mechanical properties :
#
#
# Convention : Reuss Voigt Hill
#
# Bulk Modulus (GPa) = 37.33801 39.13134 38.23468
# Shear Modulus (GPa) = 16.94457 23.31375 20.12916
#
# Velocity S-wave (km/s) = 2.72295 3.19396 2.96781
# Velocity P-wave (km/s) = 5.12093 5.54297 5.33612
#
# Compressibility (1/GPa) = 0.02678236
#
# Stress axis : x y z
#
# Youngs Moduli (GPa) = 46.48087 51.85821 59.96012
#
# Poissons Ratio (x) = 0.23395 0.31370
# Poissons Ratio (y) = 0.20969 0.33598
# Poissons Ratio (z) = 0.24318 0.29058
#
# Static dielectric constant tensor:
#      x y z
#    x 1.961360 0.000000 -0.007110 
#    y 0.000000 1.898370 0.000000 
#    z -0.007110 0.000000 1.976820 
# 
# From -- ./inp_files/78532.got.cif
#   From: 2010.05.17/outbox.cif.g08.bks.cpg/sg13_40_cif.got.tgz:78532.got - 2010.06.03 16:44:36.
