data_PCOD9228451
_publ_section_title
;
Structure prediction by ZEFSAII (Michael W. Deem and Ramdas Pophale) SiO2 
 PCOD9228451
Probable space group: P 2/C
;
_chemical_formula_sum "Si O2"
_cell_formula_units_Z 28
_cell_length_a 9.049096
_cell_length_b 9.712965
_cell_length_c 19.269096
_cell_angle_alpha 90.000000
_cell_angle_beta 93.155662
_cell_angle_gamma 90.000000
_cell_volume 1691.061191
_symmetry_space_group_name_H-M "P 2/C"
_symmetry_group_IT_number 13
_symmetry_cell_setting 'monoclinic'
loop_
_space_group_symop_operation_xyz
x,y,z
-x,y,1/2-z
-x,-y,-z
x,-y,1/2+z
loop_
_atom_site_type_symbol
_atom_site_label
_atom_site_fract_x
_atom_site_fract_y
_atom_site_fract_z
Si Si1 0.391051 0.117834 0.358941
Si Si2 0.831261 0.945187 0.769993
Si Si3 0.815622 0.139538 0.014457
Si Si4 0.405730 0.670033 0.561809
Si Si5 0.406470 0.859752 0.182420
Si Si6 0.371142 0.354963 0.559485
Si Si7 0.850132 0.874182 0.925456
O O1 0.275230 0.121532 0.291632
O O2 0.294379 0.095712 0.426084
O O3 0.489826 0.252454 0.378905
O O4 0.504051 0.992706 0.345699
O O5 0.838032 0.863048 0.842284
O O6 0.000000 0.964717 0.750000
O O7 0.748522 0.085426 0.790794
O O8 0.767689 0.287629 0.984135
O O9 0.805217 0.024654 0.953818
O O10 0.981558 0.144638 0.046829
O O11 0.362281 0.514373 0.579108
O O12 0.496122 0.662542 0.492282
O O13 0.262255 0.763500 0.547138
O O14 0.500000 0.808521 0.250000
O O15 0.394845 0.742642 0.125480
#
# Coordination Sequence:
#
# PCOD9228451 Si02
#       7
#     4   4   4   4   4   4   4
#     4  10  19  34  56  83 105 140 181 228 270 318
#     4  11  20  34  55  82 112 136 179 230 271 315
#     4  10  20  33  58  81 109 138 184 226 271 320
#     4  10  21  35  58  80 110 142 183 223 268 321
#     4  10  20  35  56  80 107 142 177 224 276 319
#     4  10  20  38  54  81 111 142 179 226 267 322
#     4  11  20  34  54  85 105 147 180 226 271 317
#
# _framework density 16.557651
#
# number of rings (size 3 to 8) (size 9 to 14) (size 15 to 20)
#    0.000    1.714    4.286    0.857    0.000    2.857 
#    2.571    0.000    0.000    0.857    0.000    0.000 
#    0.000    0.000    0.000    0.000    0.000    0.000 
#
# Total GULP energy -156072.068951 kJ/mol
# GULP energy per Si atom -5574.002463 kJ/mol
# Density = 1.651997 g / cm^3
# Si number density = 16.557651 Si / 1000 Ang^3
#
#
#
# Elastic Constant Matrix: (Units=GPa)
#
#
# Indices 1 2 3 4 5 6 
#
# 1 94.2718 38.6014 18.9882 0.0000 -6.1559 0.0000
# 2 38.6014 90.2953 27.9024 0.0000 -2.0712 0.0000
# 3 18.9882 27.9024 78.5523 0.0000 8.2617 0.0000
# 4 0.0000 0.0000 0.0000 21.0514 0.0000 -5.0209
# 5 -6.1559 -2.0712 8.2617 0.0000 12.5452 0.0000
# 6 0.0000 0.0000 0.0000 -5.0209 0.0000 12.3192
#
#
#
# Elastic Compliance Matrix: (Units=1/GPa)
#
#
# Indices 1 2 3 4 5 6 
#
# 1 0.013567 -0.004918 -0.002307 0.000000 0.007365 0.000000
# 2 -0.004918 0.014564 -0.004280 0.000000 0.002810 0.000000
# 3 -0.002307 -0.004280 0.016118 0.000000 -0.012453 0.000000
# 4 0.000000 0.000000 0.000000 0.052617 0.000000 0.021445
# 5 0.007365 0.002810 -0.012453 0.000000 0.091991 0.000000
# 6 0.000000 0.000000 0.000000 0.021445 0.000000 0.089914
#
#
# Mechanical properties :
#
#
# Convention : Reuss Voigt Hill
#
# Bulk Modulus (GPa) = 47.08332 48.23369 47.65851
# Shear Modulus (GPa) = 16.18845 21.02500 18.60672
#
# Velocity S-wave (km/s) = 3.13021 3.56730 3.35588
# Velocity P-wave (km/s) = 6.44686 6.79423 6.62282
#
# Compressibility (1/GPa) = 0.02123894
#
# Stress axis : x y z
#
# Youngs Moduli (GPa) = 73.70803 68.66108 62.04178
#
# Poissons Ratio (x) = 0.33768 0.14314
# Poissons Ratio (y) = 0.36250 0.26554
# Poissons Ratio (z) = 0.17006 0.29387
#
# Static dielectric constant tensor:
#      x y z
#    x 1.562830 0.000000 0.007440 
#    y 0.000000 1.529390 0.000000 
#    z 0.007440 0.000000 1.568110 
# 
# From -- ./inp_files/70477.got.cif
#   From: 2010.05.17/outbox.cif.g08.bks.cpg/sg13_36_cif.got.tgz:70477.got - 2010.06.03 16:44:36.
