data_PCOD9228802
_publ_section_title
;
Structure prediction by ZEFSAII (Michael W. Deem and Ramdas Pophale) SiO2 
 PCOD9228802
Probable space group: P 2/C
;
_chemical_formula_sum "Si O2"
_cell_formula_units_Z 28
_cell_length_a 17.149858
_cell_length_b 9.490426
_cell_length_c 10.571108
_cell_angle_alpha 90.000000
_cell_angle_beta 124.366244
_cell_angle_gamma 90.000000
_cell_volume 1420.219665
_symmetry_space_group_name_H-M "P 2/C"
_symmetry_group_IT_number 13
_symmetry_cell_setting 'monoclinic'
loop_
_space_group_symop_operation_xyz
x,y,z
-x,y,1/2-z
-x,-y,-z
x,-y,1/2+z
loop_
_atom_site_type_symbol
_atom_site_label
_atom_site_fract_x
_atom_site_fract_y
_atom_site_fract_z
Si Si1 0.323125 0.793768 0.144386
Si Si2 0.619530 0.947883 0.652413
Si Si3 0.118637 0.096169 0.485932
Si Si4 0.604347 0.432953 0.599172
Si Si5 0.090763 0.857219 0.671154
Si Si6 0.436713 0.167036 0.068271
Si Si7 0.729202 0.297710 0.182325
O O1 0.375622 0.666644 0.262766
O O2 0.375016 0.938810 0.229644
O O3 0.215780 0.819468 0.096010
O O4 0.314319 0.754338 0.990729
O O5 0.521613 0.863308 0.545275
O O6 0.693673 0.824412 0.744339
O O7 0.635460 0.046919 0.543813
O O8 0.114507 0.069666 0.329584
O O9 0.020468 0.175765 0.426856
O O10 0.112760 0.961949 0.574286
O O11 0.500000 0.500000 0.500000
O O12 0.607255 0.320319 0.486953
O O13 0.683284 0.553152 0.668326
O O14 0.158720 0.721884 0.724114
O O15 0.500000 0.157005 0.250000
#
# Coordination Sequence:
#
# PCOD9228802 Si02
#       7
#     4   4   4   4   4   4   4
#     4  10  22  37  57  83 115 151 190 241 290 348
#     4  10  19  36  54  81 108 135 191 238 286 341
#     4   9  17  35  59  88 120 147 191 241 300 352
#     4  11  24  38  50  76 113 151 196 228 279 350
#     4   9  18  33  60  90 116 151 188 242 298 358
#     4  10  21  35  52  74 103 145 185 234 279 330
#     4  11  21  36  58  81 114 152 189 237 296 343
#
# _framework density 19.715261000000002
#
# number of rings (size 3 to 8) (size 9 to 14) (size 15 to 20)
#    0.000    2.000    2.857    0.857    2.000    0.000 
#    0.000    2.143    0.000    0.000    0.000    0.000 
#    0.000    0.000    0.000    0.000    0.000    0.000 
#
# Total GULP energy -155879.049950 kJ/mol
# GULP energy per Si atom -5567.108927 kJ/mol
# Density = 1.967039 g / cm^3
# Si number density = 19.715261 Si / 1000 Ang^3
#
#
#
# Elastic Constant Matrix: (Units=GPa)
#
#
# Indices 1 2 3 4 5 6 
#
# 1 55.1988 30.9719 6.4166 0.0000 19.7613 0.0000
# 2 30.9719 117.0295 17.7751 0.0000 9.0759 0.0000
# 3 6.4166 17.7751 58.1342 0.0000 10.7009 0.0000
# 4 0.0000 0.0000 0.0000 23.9884 0.0000 10.0112
# 5 19.7613 9.0759 10.7009 0.0000 35.6679 0.0000
# 6 0.0000 0.0000 0.0000 10.0112 0.0000 25.1650
#
#
#
# Elastic Compliance Matrix: (Units=1/GPa)
#
#
# Indices 1 2 3 4 5 6 
#
# 1 0.026162 -0.006106 0.001441 0.000000 -0.013374 0.000000
# 2 -0.006106 0.010467 -0.002814 0.000000 0.001564 0.000000
# 3 0.001441 -0.002814 0.018966 0.000000 -0.005772 0.000000
# 4 0.000000 0.000000 0.000000 0.049986 0.000000 -0.019885
# 5 -0.013374 0.001564 -0.005772 0.000000 0.036780 0.000000
# 6 0.000000 0.000000 0.000000 -0.019885 0.000000 0.047649
#
#
# Mechanical properties :
#
#
# Convention : Reuss Voigt Hill
#
# Bulk Modulus (GPa) = 24.60822 37.85441 31.23131
# Shear Modulus (GPa) = 22.88200 28.64419 25.76309
#
# Velocity S-wave (km/s) = 3.41049 3.81582 3.61883
# Velocity P-wave (km/s) = 5.29315 6.21741 5.77381
#
# Compressibility (1/GPa) = 0.04063684
#
# Stress axis : x y z
#
# Youngs Moduli (GPa) = 38.22273 95.53948 52.72729
#
# Poissons Ratio (x) = 0.58332 -0.07597
# Poissons Ratio (y) = 0.23337 0.14839
# Poissons Ratio (z) = -0.05507 0.26887
#
# Static dielectric constant tensor:
#      x y z
#    x 1.795750 0.000000 -0.019710 
#    y 0.000000 1.697710 0.000000 
#    z -0.019710 0.000000 1.764790 
# 
# From -- ./inp_files/40430.got.cif
#   From: 2010.05.17/outbox.cif.g08.bks.cpg/sg13_21_cif.got.tgz:40430.got - 2010.06.03 16:44:36.
