data_PCOD9228266
_publ_section_title
;
Structure prediction by ZEFSAII (Michael W. Deem and Ramdas Pophale) SiO2 
 PCOD9228266
Probable space group: P 2/C
;
_chemical_formula_sum "Si O2"
_cell_formula_units_Z 12
_cell_length_a 7.722177
_cell_length_b 13.755229
_cell_length_c 7.052938
_cell_angle_alpha 90.000000
_cell_angle_beta 141.208301
_cell_angle_gamma 90.000000
_cell_volume 469.345228
_symmetry_space_group_name_H-M "P 2/C"
_symmetry_group_IT_number 13
_symmetry_cell_setting 'monoclinic'
loop_
_space_group_symop_operation_xyz
x,y,z
-x,y,1/2-z
-x,-y,-z
x,-y,1/2+z
loop_
_atom_site_type_symbol
_atom_site_label
_atom_site_fract_x
_atom_site_fract_y
_atom_site_fract_z
Si Si1 0.035206 0.615570 0.555634
Si Si2 0.550195 0.262912 0.563253
Si Si3 0.205194 0.919713 0.089216
O O1 0.000000 0.625957 0.750000
O O2 0.000000 0.500000 0.500000
O O3 0.779325 0.657156 0.225518
O O4 0.285398 0.692003 0.736196
O O5 0.500000 0.260785 0.750000
O O6 0.688341 0.156897 0.660855
O O7 0.500000 0.954525 0.250000
O O8 0.000000 0.874570 0.750000
O O9 0.000000 0.000000 0.000000
#
# Coordination Sequence:
#
# PCOD9228266 Si02
#       3
#     4   4   4
#     4  10  19  33  55  82 112 151 196 245 301 367
#     4   9  18  34  56  81 113 156 201 240 297 378
#     4  11  22  39  64  93 125 169 216 263 316 379
#
# _framework density 25.567533999999998
#
# number of rings (size 3 to 8) (size 9 to 14) (size 15 to 20)
#    0.000    2.000    0.000    7.000    0.000    0.000 
#    0.000    1.667    0.000   18.000    0.000    0.000 
#    0.000    0.000    0.000    0.000    0.000    0.000 
#
# Total GULP energy -66863.807846 kJ/mol
# GULP energy per Si atom -5571.983987 kJ/mol
# Density = 2.550934 g / cm^3
# Si number density = 25.567534 Si / 1000 Ang^3
#
#
#
# Elastic Constant Matrix: (Units=GPa)
#
#
# Indices 1 2 3 4 5 6 
#
# 1 64.1179 31.8804 25.3639 0.0000 -0.9237 0.0000
# 2 31.8804 206.2546 44.8632 0.0000 28.3796 0.0000
# 3 25.3639 44.8632 125.7568 0.0000 10.8761 0.0000
# 4 0.0000 0.0000 0.0000 37.8462 0.0000 -6.6750
# 5 -0.9237 28.3796 10.8761 0.0000 51.1490 0.0000
# 6 0.0000 0.0000 0.0000 -6.6750 0.0000 18.7902
#
#
#
# Elastic Compliance Matrix: (Units=1/GPa)
#
#
# Indices 1 2 3 4 5 6 
#
# 1 0.018024 -0.002462 -0.002958 0.000000 0.002320 0.000000
# 2 -0.002462 0.005945 -0.001360 0.000000 -0.003054 0.000000
# 3 -0.002958 -0.001360 0.009141 0.000000 -0.001242 0.000000
# 4 0.000000 0.000000 0.000000 0.028189 0.000000 0.010014
# 5 0.002320 -0.003054 -0.001242 0.000000 0.021551 0.000000
# 6 0.000000 0.000000 0.000000 0.010014 0.000000 0.056776
#
#
# Mechanical properties :
#
#
# Convention : Reuss Voigt Hill
#
# Bulk Modulus (GPa) = 51.14979 66.70492 58.92735
# Shear Modulus (GPa) = 31.30824 41.15854 36.23339
#
# Velocity S-wave (km/s) = 3.50313 4.01658 3.76861
# Velocity P-wave (km/s) = 6.03421 6.90340 6.48339
#
# Compressibility (1/GPa) = 0.01955042
#
# Stress axis : x y z
#
# Youngs Moduli (GPa) = 55.48238 168.21040 109.39631
#
# Poissons Ratio (x) = 0.41411 0.32355
# Poissons Ratio (y) = 0.13659 0.14880
# Poissons Ratio (z) = 0.16410 0.22880
#
# Static dielectric constant tensor:
#      x y z
#    x 2.227970 0.000000 0.055840 
#    y 0.000000 2.122680 0.000000 
#    z 0.055840 0.000000 1.983480 
# 
# From -- ./inp_files/8369.got.cif
#   From: 2010.05.17/outbox.cif.g08.bks.cpg/sg13_5_cif.got.tgz:8369.got - 2010.06.03 16:44:36.
