data_PCOD9228249
_publ_section_title
;
Structure prediction by ZEFSAII (Michael W. Deem and Ramdas Pophale) SiO2 
 PCOD9228249
Probable space group: P 2/C
;
_chemical_formula_sum "Si O2"
_cell_formula_units_Z 30
_cell_length_a 5.095836
_cell_length_b 14.478798
_cell_length_c 19.920247
_cell_angle_alpha 90.000000
_cell_angle_beta 63.584051
_cell_angle_gamma 90.000000
_cell_volume 1316.287979
_symmetry_space_group_name_H-M "P 2/C"
_symmetry_group_IT_number 13
_symmetry_cell_setting 'monoclinic'
loop_
_space_group_symop_operation_xyz
x,y,z
-x,y,1/2-z
-x,-y,-z
x,-y,1/2+z
loop_
_atom_site_type_symbol
_atom_site_label
_atom_site_fract_x
_atom_site_fract_y
_atom_site_fract_z
Si Si1 0.408325 0.631000 0.832748
Si Si2 0.764251 0.897699 0.322386
Si Si3 0.835157 0.474894 0.380694
Si Si4 0.232819 0.888879 0.460236
Si Si5 0.976990 0.042683 0.105798
Si Si6 0.500000 0.047625 0.250000
Si Si7 0.830499 0.276128 0.007881
Si Si8 0.403205 0.377086 0.961858
O O1 0.500000 0.671253 0.750000
O O2 0.683513 0.591280 0.842945
O O3 0.179906 0.547291 0.841643
O O4 0.251947 0.697887 0.905573
O O5 0.496673 0.845457 0.387445
O O6 0.000000 0.844026 0.250000
O O7 0.909540 0.955341 0.365525
O O8 0.650144 0.977537 0.285252
O O9 0.741769 0.446044 0.466980
O O10 0.662104 0.571653 0.392154
O O11 0.237043 0.903153 0.539990
O O12 0.944859 0.826855 0.485679
O O13 0.207994 0.991145 0.431198
O O14 0.757441 0.097407 0.179748
O O15 0.119447 0.337249 0.956879
O O16 0.562989 0.301748 0.990560
#
# Coordination Sequence:
#
# PCOD9228249 Si02
#       8
#     4   4   4   4   4   2   4   4
#     4  10  19  33  54  83 113 149 181 219 272 339
#     4   9  17  32  55  74  98 131 185 244 286 333
#     4   9  17  32  58  79 100 140 184 222 260 314
#     4  10  20  32  51  80 106 147 187 236 280 333
#     4   9  18  33  53  77 104 138 198 236 273 330
#     4   8  16  32  50  78  98 126 178 240 284 328
#     4  10  21  34  52  81 119 145 182 226 286 332
#     4   9  18  34  54  81 105 132 181 230 267 325
#
# _framework density 22.791364000000002
#
# number of rings (size 3 to 8) (size 9 to 14) (size 15 to 20)
#    0.000    2.667    0.000    1.600    1.867    3.200 
#    1.200    0.000    0.000    4.800    6.933    0.000 
#    0.000    0.000    0.000    0.000    0.000    0.000 
#
# Total GULP energy -167010.323864 kJ/mol
# GULP energy per Si atom -5567.010795 kJ/mol
# Density = 2.273949 g / cm^3
# Si number density = 22.791364 Si / 1000 Ang^3
#
#
#
# Elastic Constant Matrix: (Units=GPa)
#
#
# Indices 1 2 3 4 5 6 
#
# 1 66.0294 -7.8609 16.2944 0.0000 -4.8196 0.0000
# 2 -7.8609 37.7234 16.9808 0.0000 -6.6915 0.0000
# 3 16.2944 16.9808 151.4755 0.0000 -23.6039 0.0000
# 4 0.0000 0.0000 0.0000 12.8536 0.0000 -0.0945
# 5 -4.8196 -6.6915 -23.6039 0.0000 25.7304 0.0000
# 6 0.0000 0.0000 0.0000 -0.0945 0.0000 17.9426
#
#
#
# Elastic Compliance Matrix: (Units=1/GPa)
#
#
# Indices 1 2 3 4 5 6 
#
# 1 0.016359 0.004713 -0.001890 0.000000 0.002556 0.000000
# 2 0.004713 0.029866 -0.002925 0.000000 0.005966 0.000000
# 3 -0.001890 -0.002925 0.008120 0.000000 0.006334 0.000000
# 4 0.000000 0.000000 0.000000 0.077802 0.000000 0.000410
# 5 0.002556 0.005966 0.006334 0.000000 0.046705 0.000000
# 6 0.000000 0.000000 0.000000 0.000410 0.000000 0.055735
#
#
# Mechanical properties :
#
#
# Convention : Reuss Voigt Hill
#
# Bulk Modulus (GPa) = 18.47047 34.00631 26.23839
# Shear Modulus (GPa) = 19.77545 26.62627 23.20086
#
# Velocity S-wave (km/s) = 2.94882 3.42169 3.19402
# Velocity P-wave (km/s) = 4.44025 5.52845 5.01396
#
# Compressibility (1/GPa) = 0.05414047
#
# Stress axis : x y z
#
# Youngs Moduli (GPa) = 61.12924 33.48297 123.15306
#
# Poissons Ratio (x) = -0.15780 0.23273
# Poissons Ratio (y) = -0.28810 0.36026
# Poissons Ratio (z) = 0.11552 0.09795
#
# Static dielectric constant tensor:
#      x y z
#    x 2.002550 0.000000 0.009520 
#    y 0.000000 1.878110 0.000000 
#    z 0.009520 0.000000 2.006270 
# 
# From -- ./inp_files/73884.got.cif
#   From: 2010.05.17/outbox.cif.g08.bks.cpg/sg13_37_cif.got.tgz:73884.got - 2010.06.03 16:44:36.
