data_PCOD9228613
_publ_section_title
;
Structure prediction by ZEFSAII (Michael W. Deem and Ramdas Pophale) SiO2 
 PCOD9228613
Probable space group: P 2/C
;
_chemical_formula_sum "Si O2"
_cell_formula_units_Z 30
_cell_length_a 24.748426
_cell_length_b 9.441997
_cell_length_c 8.425484
_cell_angle_alpha 90.000000
_cell_angle_beta 50.398317
_cell_angle_gamma 90.000000
_cell_volume 1516.966021
_symmetry_space_group_name_H-M "P 2/C"
_symmetry_group_IT_number 13
_symmetry_cell_setting 'monoclinic'
loop_
_space_group_symop_operation_xyz
x,y,z
-x,y,1/2-z
-x,-y,-z
x,-y,1/2+z
loop_
_atom_site_type_symbol
_atom_site_label
_atom_site_fract_x
_atom_site_fract_y
_atom_site_fract_z
Si Si1 0.310872 0.367026 0.056095
Si Si2 0.979613 0.845513 0.101602
Si Si3 0.218822 0.120797 0.174755
Si Si4 0.176020 0.445163 0.804155
Si Si5 0.598869 0.583466 0.826610
Si Si6 0.103897 0.315498 0.242919
Si Si7 0.812607 0.172333 0.899973
Si Si8 0.500000 0.593411 0.750000
O O1 0.283531 0.225949 0.018599
O O2 0.242487 0.460359 0.229999
O O3 0.352170 0.332965 0.141316
O O4 0.356727 0.464467 0.852065
O O5 0.897084 0.830294 0.232927
O O6 0.000000 0.831582 0.250000
O O7 0.024538 0.732648 0.916549
O O8 0.000000 0.000000 0.000000
O O9 0.151750 0.182507 0.206740
O O10 0.205759 0.145903 0.384147
O O11 0.222316 0.955545 0.131821
O O12 0.123221 0.554171 0.820537
O O13 0.206139 0.325266 0.632027
O O14 0.133384 0.365561 0.020161
O O15 0.554337 0.664682 0.773131
O O16 0.546447 0.503047 0.045547
#
# Coordination Sequence:
#
# PCOD9228613 Si02
#       8
#     4   4   4   4   4   4   4   2
#     4  10  19  35  56  83 120 156 193 232 291 350
#     4  12  25  42  62  80 103 145 200 252 312 390
#     4  11  22  38  58  82 110 152 194 247 299 363
#     4  11  24  39  59  85 116 152 190 256 309 359
#     4   9  16  30  54  85 128 164 188 228 277 340
#     4  11  23  41  59  81 112 143 194 245 318 369
#     4  12  23  40  59  79 112 145 195 256 307 364
#     4   8  16  28  50  90 132 160 188 226 280 322
#
# _framework density 19.776316000000001
#
# number of rings (size 3 to 8) (size 9 to 14) (size 15 to 20)
#    0.000    1.333    2.667    4.800    1.867    0.533 
#    0.000    0.000    0.000    0.000    0.000    0.000 
#    0.000  247.467    0.000    0.000    0.000    0.000 
#
# Total GULP energy -167483.150846 kJ/mol
# GULP energy per Si atom -5582.771695 kJ/mol
# Density = 1.973130 g / cm^3
# Si number density = 19.776316 Si / 1000 Ang^3
#
#
#
# Elastic Constant Matrix: (Units=GPa)
#
#
# Indices 1 2 3 4 5 6 
#
# 1 79.3202 21.4230 7.9263 0.0000 2.0948 0.0000
# 2 21.4230 81.0013 13.8429 0.0000 -6.9814 0.0000
# 3 7.9263 13.8429 109.3578 0.0000 5.9828 0.0000
# 4 0.0000 0.0000 0.0000 11.6450 0.0000 0.5090
# 5 2.0948 -6.9814 5.9828 0.0000 21.9764 0.0000
# 6 0.0000 0.0000 0.0000 0.5090 0.0000 -2.6826
#
#
#
# Elastic Compliance Matrix: (Units=1/GPa)
#
#
# Indices 1 2 3 4 5 6 
#
# 1 0.013728 -0.003772 -0.000386 0.000000 -0.002402 0.000000
# 2 -0.003772 0.014111 -0.001805 0.000000 0.005334 0.000000
# 3 -0.000386 -0.001805 0.009573 0.000000 -0.003143 0.000000
# 4 0.000000 0.000000 0.000000 0.085168 0.000000 0.016161
# 5 -0.002402 0.005334 -0.003143 0.000000 0.048282 0.000000
# 6 0.000000 0.000000 0.000000 0.016161 0.000000 -0.369710
#
#
# Mechanical properties :
#
#
# Convention : Reuss Voigt Hill
#
# Bulk Modulus (GPa) = 39.23642 39.56265 39.39953
# Shear Modulus (GPa) = -28.02256 21.28689 -3.36784
#
# Velocity S-wave (km/s) = -3.76836 3.28439 -1.30639
# Velocity P-wave (km/s) = 0.97424 5.86783 4.20598
#
# Compressibility (1/GPa) = 0.02548653
#
# Stress axis : x y z
#
# Youngs Moduli (GPa) = 72.84481 70.86612 104.46428
#
# Poissons Ratio (x) = 0.26729 0.04034
# Poissons Ratio (y) = 0.27475 0.18852
# Poissons Ratio (z) = 0.02813 0.12789
#
# Static dielectric constant tensor:
#      x y z
#    x 1.768720 0.000000 -0.000110 
#    y 0.000000 1.690370 0.000000 
#    z -0.000110 0.000000 1.724560 
# 
# From -- ./inp_files/22801.got.cif
#   From: 2010.05.17/outbox.cif.g08.bks.cpg/sg13_12_cif.got.tgz:22801.got - 2010.06.03 16:44:36.
