data_PCOD9228662
_publ_section_title
;
Structure prediction by ZEFSAII (Michael W. Deem and Ramdas Pophale) SiO2 
 PCOD9228662
Probable space group: P 2/C
;
_chemical_formula_sum "Si O2"
_cell_formula_units_Z 26
_cell_length_a 11.226358
_cell_length_b 11.917090
_cell_length_c 8.730973
_cell_angle_alpha 90.000000
_cell_angle_beta 83.412816
_cell_angle_gamma 90.000000
_cell_volume 1160.366628
_symmetry_space_group_name_H-M "P 2/C"
_symmetry_group_IT_number 13
_symmetry_cell_setting 'monoclinic'
loop_
_space_group_symop_operation_xyz
x,y,z
-x,y,1/2-z
-x,-y,-z
x,-y,1/2+z
loop_
_atom_site_type_symbol
_atom_site_label
_atom_site_fract_x
_atom_site_fract_y
_atom_site_fract_z
Si Si1 0.784727 0.530321 0.738349
Si Si2 0.000000 0.840422 0.250000
Si Si3 0.390112 0.416284 0.981509
Si Si4 0.439964 0.162807 0.919368
Si Si5 0.850465 0.662856 0.461247
Si Si6 0.675465 0.854233 0.526760
Si Si7 0.767531 0.956186 0.194271
O O1 0.695709 0.468763 0.633624
O O2 0.696026 0.600486 0.859618
O O3 0.873434 0.604158 0.621087
O O4 0.843008 0.434701 0.835495
O O5 0.095484 0.918176 0.322877
O O6 0.937585 0.758261 0.383338
O O7 0.500000 0.500000 0.000000
O O8 0.434793 0.296375 0.921835
O O9 0.500000 0.126726 0.750000
O O10 0.531920 0.131961 0.041169
O O11 0.308240 0.112034 0.923086
O O12 0.722250 0.726968 0.501502
O O13 0.722482 0.915897 0.366602
O O14 0.737294 0.915710 0.659775
#
# Coordination Sequence:
#
# PCOD9228662 Si02
#       7
#     4   2   4   4   4   4   4
#     4  10  21  36  55  86 123 159 203 251 303 366
#     4  10  22  42  66  88 118 162 212 264 310 360
#     4  11  19  31  54  85 122 164 203 246 305 376
#     4  10  19  35  58  87 123 161 200 252 315 375
#     4  10  22  40  62  87 119 159 205 256 308 367
#     4  10  21  39  61  90 124 158 200 254 315 375
#     4  10  22  38  61  87 119 160 205 257 310 368
#
# _framework density 22.406711999999999
#
# number of rings (size 3 to 8) (size 9 to 14) (size 15 to 20)
#    0.000    1.846    0.000    6.462    0.000    4.308 
#    0.000    1.538    0.000   12.000    0.000    0.000 
#    0.000    0.000    0.000    0.000    0.000    0.000 
#
# Total GULP energy -145218.605162 kJ/mol
# GULP energy per Si atom -5585.330968 kJ/mol
# Density = 2.235571 g / cm^3
# Si number density = 22.406712 Si / 1000 Ang^3
#
#
#
# Elastic Constant Matrix: (Units=GPa)
#
#
# Indices 1 2 3 4 5 6 
#
# 1 106.1676 24.8729 11.1188 0.0000 16.8381 0.0000
# 2 24.8729 77.4739 18.4741 0.0000 10.1743 0.0000
# 3 11.1188 18.4741 86.6972 0.0000 5.5326 0.0000
# 4 0.0000 0.0000 0.0000 27.3298 0.0000 2.8170
# 5 16.8381 10.1743 5.5326 0.0000 10.1101 0.0000
# 6 0.0000 0.0000 0.0000 2.8170 0.0000 31.1829
#
#
#
# Elastic Compliance Matrix: (Units=1/GPa)
#
#
# Indices 1 2 3 4 5 6 
#
# 1 0.012955 -0.001516 -0.000061 0.000000 -0.020018 0.000000
# 2 -0.001516 0.015504 -0.002357 0.000000 -0.011788 0.000000
# 3 -0.000061 -0.002357 0.012317 0.000000 -0.004266 0.000000
# 4 0.000000 0.000000 0.000000 0.036934 0.000000 -0.003337
# 5 -0.020018 -0.011788 -0.004266 0.000000 0.146447 0.000000
# 6 0.000000 0.000000 0.000000 -0.003337 0.000000 0.032370
#
#
# Mechanical properties :
#
#
# Convention : Reuss Voigt Hill
#
# Bulk Modulus (GPa) = 30.38733 42.14114 36.26423
# Shear Modulus (GPa) = 18.15766 28.11609 23.13687
#
# Velocity S-wave (km/s) = 2.84978 3.54617 3.21687
# Velocity P-wave (km/s) = 4.94161 5.96785 5.47881
#
# Compressibility (1/GPa) = 0.03290846
#
# Stress axis : x y z
#
# Youngs Moduli (GPa) = 77.18771 64.49768 81.19019
#
# Poissons Ratio (x) = 0.09777 0.00496
# Poissons Ratio (y) = 0.11701 0.19138
# Poissons Ratio (z) = 0.00471 0.15203
#
# Static dielectric constant tensor:
#      x y z
#    x 1.875520 0.000000 -0.032390 
#    y 0.000000 1.845150 0.000000 
#    z -0.032390 0.000000 1.864210 
# 
# From -- ./inp_files/15907.got.cif
#   From: 2010.05.17/outbox.cif.g08.bks.cpg/sg13_8_cif.got.tgz:15907.got - 2010.06.03 16:44:36.
