data_PCOD9228419
_publ_section_title
;
Structure prediction by ZEFSAII (Michael W. Deem and Ramdas Pophale) SiO2 
 PCOD9228419
Probable space group: P 2/C
;
_chemical_formula_sum "Si O2"
_cell_formula_units_Z 18
_cell_length_a 24.880524
_cell_length_b 7.692298
_cell_length_c 5.223292
_cell_angle_alpha 90.000000
_cell_angle_beta 63.382442
_cell_angle_gamma 90.000000
_cell_volume 893.728683
_symmetry_space_group_name_H-M "P 2/C"
_symmetry_group_IT_number 13
_symmetry_cell_setting 'monoclinic'
loop_
_space_group_symop_operation_xyz
x,y,z
-x,y,1/2-z
-x,-y,-z
x,-y,1/2+z
loop_
_atom_site_type_symbol
_atom_site_label
_atom_site_fract_x
_atom_site_fract_y
_atom_site_fract_z
Si Si1 0.628844 0.111631 0.507929
Si Si2 0.261270 0.377510 0.203026
Si Si3 0.567445 0.569154 0.312915
Si Si4 0.870881 0.377411 0.020353
Si Si5 0.000000 0.375881 0.750000
O O1 0.687049 0.233907 0.417093
O O2 0.573296 0.239061 0.691010
O O3 0.628024 0.035633 0.226017
O O4 0.265675 0.492630 0.451414
O O5 0.194597 0.289906 0.338682
O O6 0.500000 0.500000 0.500000
O O7 0.596273 0.550987 0.531204
O O8 0.871130 0.502335 0.267407
O O9 0.935327 0.279773 0.886557
O O10 0.000000 0.500000 0.500000
#
# Coordination Sequence:
#
# PCOD9228419 Si02
#       5
#     4   4   4   4   2
#     4  12  24  38  57  85 112 137 172 221 266 305
#     4  10  19  34  55  77 104 143 181 213 258 320
#     4  10  21  41  63  82 107 143 176 206 254 316
#     4   8  14  23  40  66  95 128 168 211 257 301
#     4   8  12  20  34  60  96 124 156 214 264 290
#
# _framework density 20.140342
#
# number of rings (size 3 to 8) (size 9 to 14) (size 15 to 20)
#    0.000    2.222    0.000    4.000    0.000    0.000 
#    0.000   13.333    0.000    0.000    0.000    1.556 
#    0.000    0.000    0.000    0.000    0.000    0.000 
#
# Total GULP energy -100259.772001 kJ/mol
# GULP energy per Si atom -5569.987333 kJ/mol
# Density = 2.009450 g / cm^3
# Si number density = 20.140342 Si / 1000 Ang^3
#
#
#
# Elastic Constant Matrix: (Units=GPa)
#
#
# Indices 1 2 3 4 5 6 
#
# 1 95.4056 18.1190 29.5996 0.0000 -31.9601 0.0000
# 2 18.1190 43.1374 11.7290 0.0000 -11.8461 0.0000
# 3 29.5996 11.7290 116.3922 0.0000 19.1820 0.0000
# 4 0.0000 0.0000 0.0000 25.9940 0.0000 11.0959
# 5 -31.9601 -11.8461 19.1820 0.0000 61.1946 0.0000
# 6 0.0000 0.0000 0.0000 11.0959 0.0000 11.0548
#
#
#
# Elastic Compliance Matrix: (Units=1/GPa)
#
#
# Indices 1 2 3 4 5 6 
#
# 1 0.015763 -0.002604 -0.005294 0.000000 0.009388 0.000000
# 2 -0.002604 0.026281 -0.002742 0.000000 0.004587 0.000000
# 3 -0.005294 -0.002742 0.011343 0.000000 -0.006851 0.000000
# 4 0.000000 0.000000 0.000000 0.067309 0.000000 -0.067559
# 5 0.009388 0.004587 -0.006851 0.000000 0.024280 0.000000
# 6 0.000000 0.000000 0.000000 -0.067559 0.000000 0.158268
#
#
# Mechanical properties :
#
#
# Convention : Reuss Voigt Hill
#
# Bulk Modulus (GPa) = 31.14453 41.53671 36.34062
# Shear Modulus (GPa) = 14.91535 32.68120 23.79828
#
# Velocity S-wave (km/s) = 2.72430 4.03261 3.44120
# Velocity P-wave (km/s) = 5.03915 6.50777 5.81997
#
# Compressibility (1/GPa) = 0.03210836
#
# Stress axis : x y z
#
# Youngs Moduli (GPa) = 63.43864 38.05083 88.15798
#
# Poissons Ratio (x) = 0.09907 0.46667
# Poissons Ratio (y) = 0.16517 0.24174
# Poissons Ratio (z) = 0.33582 0.10434
#
# Static dielectric constant tensor:
#      x y z
#    x 1.903510 0.000000 -0.032020 
#    y 0.000000 1.685200 0.000000 
#    z -0.032020 0.000000 1.754290 
# 
# From -- ./inp_files/7211.got.cif
#   From: 2010.05.17/outbox.cif.g08.bks.cpg/sg13_4_cif.got.tgz:7211.got - 2010.06.03 16:44:36.
