data_PCOD9228177
_publ_section_title
;
Structure prediction by ZEFSAII (Michael W. Deem and Ramdas Pophale) SiO2 
 PCOD9228177
Probable space group: P 2/C
;
_chemical_formula_sum "Si O2"
_cell_formula_units_Z 28
_cell_length_a 9.801553
_cell_length_b 14.707715
_cell_length_c 9.433820
_cell_angle_alpha 90.000000
_cell_angle_beta 61.223002
_cell_angle_gamma 90.000000
_cell_volume 1192.009211
_symmetry_space_group_name_H-M "P 2/C"
_symmetry_group_IT_number 13
_symmetry_cell_setting 'monoclinic'
loop_
_space_group_symop_operation_xyz
x,y,z
-x,y,1/2-z
-x,-y,-z
x,-y,1/2+z
loop_
_atom_site_type_symbol
_atom_site_label
_atom_site_fract_x
_atom_site_fract_y
_atom_site_fract_z
Si Si1 0.224474 0.912338 0.793841
Si Si2 0.356339 0.378572 0.557085
Si Si3 0.737229 0.501126 0.132515
Si Si4 0.335931 0.042305 0.534140
Si Si5 0.486583 0.784067 0.585882
Si Si6 0.001551 0.372529 0.399460
Si Si7 0.911370 0.236815 0.928298
O O1 0.329146 0.840553 0.653365
O O2 0.200525 0.992224 0.690529
O O3 0.312615 0.965665 0.877419
O O4 0.123286 0.844007 0.941757
O O5 0.375010 0.453806 0.425030
O O6 0.320314 0.428056 0.721599
O O7 0.503822 0.312139 0.493291
O O8 0.222537 0.308330 0.562708
O O9 0.832210 0.421491 0.164707
O O10 0.870487 0.550680 0.972429
O O11 0.372997 0.149455 0.534781
O O12 0.500000 0.000000 0.500000
O O13 0.500000 0.770323 0.750000
O O14 0.978496 0.304938 0.539822
O O15 0.000000 0.323996 0.250000
O O16 0.000000 0.197884 0.750000
#
# Coordination Sequence:
#
# PCOD9228177 Si02
#       7
#     4   4   4   4   4   4   4
#     4  10  20  38  62  90 112 145 194 237 284 354
#     4  11  19  35  57  81 115 150 194 242 280 333
#     4  10  20  30  53  83 109 149 196 240 281 330
#     4   9  17  33  61  87 108 141 188 234 283 343
#     4   9  17  34  60  82 109 146 188 231 287 347
#     4  10  19  33  51  80 114 143 204 246 265 322
#     4  11  21  34  59  84 113 157 191 229 291 342
#
# _framework density 23.489753
#
# number of rings (size 3 to 8) (size 9 to 14) (size 15 to 20)
#    0.000    2.000    5.714    1.286    0.000    0.000 
#    0.000    4.286    0.000    3.429    0.000    0.000 
#    0.000    0.000    0.000    0.000    0.000    0.000 
#
# Total GULP energy -155995.496505 kJ/mol
# GULP energy per Si atom -5571.267732 kJ/mol
# Density = 2.343629 g / cm^3
# Si number density = 23.489753 Si / 1000 Ang^3
#
#
#
# Elastic Constant Matrix: (Units=GPa)
#
#
# Indices 1 2 3 4 5 6 
#
# 1 16.2820 11.6315 13.9457 0.0000 4.5174 0.0000
# 2 11.6315 106.8286 62.3144 0.0000 -0.8729 0.0000
# 3 13.9457 62.3144 115.2324 0.0000 0.1909 0.0000
# 4 0.0000 0.0000 0.0000 65.1902 0.0000 -1.6159
# 5 4.5174 -0.8729 0.1909 0.0000 22.8088 0.0000
# 6 0.0000 0.0000 0.0000 -1.6159 0.0000 10.3702
#
#
#
# Elastic Compliance Matrix: (Units=1/GPa)
#
#
# Indices 1 2 3 4 5 6 
#
# 1 0.074307 -0.004354 -0.006614 0.000000 -0.014828 0.000000
# 2 -0.004354 0.013937 -0.007012 0.000000 0.001454 0.000000
# 3 -0.006614 -0.007012 0.013269 0.000000 0.000931 0.000000
# 4 0.000000 0.000000 0.000000 0.015399 0.000000 0.002399
# 5 -0.014828 0.001454 0.000931 0.000000 0.046827 0.000000
# 6 0.000000 0.000000 0.000000 0.002399 0.000000 0.096804
#
#
# Mechanical properties :
#
#
# Convention : Reuss Voigt Hill
#
# Bulk Modulus (GPa) = 15.25482 46.01399 30.63440
# Shear Modulus (GPa) = 15.70578 29.70394 22.70486
#
# Velocity S-wave (km/s) = 2.58858 3.55991 3.11237
# Velocity P-wave (km/s) = 3.92972 6.04390 5.09762
#
# Compressibility (1/GPa) = 0.06555307
#
# Stress axis : x y z
#
# Youngs Moduli (GPa) = 13.45776 71.75123 75.36348
#
# Poissons Ratio (x) = 0.31238 0.49844
# Poissons Ratio (y) = 0.05859 0.52847
# Poissons Ratio (z) = 0.08901 0.50314
#
# Static dielectric constant tensor:
#      x y z
#    x 1.999240 0.000000 -0.076180 
#    y 0.000000 1.916820 0.000000 
#    z -0.076180 0.000000 1.867010 
# 
# From -- ./inp_files/16681.got.cif
#   From: 2010.05.17/outbox.cif.g08.bks.cpg/sg13_9_cif.got.tgz:16681.got - 2010.06.03 16:44:36.
