data_PCOD9228723
_publ_section_title
;
Structure prediction by ZEFSAII (Michael W. Deem and Ramdas Pophale) SiO2 
 PCOD9228723
Probable space group: P 2/C
;
_chemical_formula_sum "Si O2"
_cell_formula_units_Z 26
_cell_length_a 17.347092
_cell_length_b 12.323385
_cell_length_c 15.891520
_cell_angle_alpha 90.000000
_cell_angle_beta 18.071977
_cell_angle_gamma 90.000000
_cell_volume 1053.852992
_symmetry_space_group_name_H-M "P 2/C"
_symmetry_group_IT_number 13
_symmetry_cell_setting 'monoclinic'
loop_
_space_group_symop_operation_xyz
x,y,z
-x,y,1/2-z
-x,-y,-z
x,-y,1/2+z
loop_
_atom_site_type_symbol
_atom_site_label
_atom_site_fract_x
_atom_site_fract_y
_atom_site_fract_z
Si Si1 0.755121 0.267646 0.123701
Si Si2 0.243209 0.396786 0.672689
Si Si3 0.824764 0.970475 0.860917
Si Si4 0.291780 0.829452 0.659590
Si Si5 0.320654 0.236264 0.872111
Si Si6 0.980887 0.382962 0.117146
Si Si7 0.500000 0.148153 0.250000
O O1 0.713228 0.170277 0.235250
O O2 0.699358 0.221956 0.089741
O O3 0.522439 0.351540 0.376847
O O4 0.027166 0.317369 0.859450
O O5 0.181937 0.512129 0.693942
O O6 0.179433 0.411967 0.838033
O O7 0.000000 0.022477 0.750000
O O8 0.871994 0.918193 0.720586
O O9 0.753777 0.862427 0.988668
O O10 0.622764 0.063653 0.057517
O O11 0.555538 0.823048 0.337490
O O12 0.189668 0.709740 0.745712
O O13 0.500000 0.299710 0.750000
O O14 0.123485 0.320336 0.042168
#
# Coordination Sequence:
#
# PCOD9228723 Si02
#       7
#     4   4   4   4   4   4   2
#     4  11  26  46  64  95 131 181 220 267 308 398
#     4  10  24  42  67  96 133 174 222 253 322 392
#     4  11  22  41  65  95 126 165 216 280 340 378
#     4  10  20  39  66  94 130 160 216 267 329 389
#     4  10  19  35  60  98 130 156 205 277 330 381
#     4  10  20  37  68  97 130 170 205 272 324 386
#     4  12  28  46  64  86 132 178 216 274 330 374
#
# _framework density 24.671372000000002
#
# number of rings (size 3 to 8) (size 9 to 14) (size 15 to 20)
#    0.000    1.538    5.385    0.000    4.308    2.462 
#    1.385    3.846    0.000    0.000    0.000    0.000 
#    0.000    0.000    0.000    0.000    0.000    0.000 
#
# Total GULP energy -145032.732239 kJ/mol
# GULP energy per Si atom -5578.182009 kJ/mol
# Density = 2.461522 g / cm^3
# Si number density = 24.671372 Si / 1000 Ang^3
#
#
#
# Elastic Constant Matrix: (Units=GPa)
#
#
# Indices 1 2 3 4 5 6 
#
# 1 107.8240 17.0226 17.2323 0.0000 -21.7791 0.0000
# 2 17.0226 54.7502 11.9645 0.0000 -5.4917 0.0000
# 3 17.2323 11.9645 57.8907 0.0000 -18.7421 0.0000
# 4 0.0000 0.0000 0.0000 32.7742 0.0000 -4.9118
# 5 -21.7791 -5.4917 -18.7421 0.0000 36.1260 0.0000
# 6 0.0000 0.0000 0.0000 -4.9118 0.0000 4.3954
#
#
#
# Elastic Compliance Matrix: (Units=1/GPa)
#
#
# Indices 1 2 3 4 5 6 
#
# 1 0.010998 -0.002653 -0.000853 0.000000 0.005785 0.000000
# 2 -0.002653 0.019801 -0.003420 0.000000 -0.000364 0.000000
# 3 -0.000853 -0.003420 0.021513 0.000000 0.010127 0.000000
# 4 0.000000 0.000000 0.000000 0.036650 0.000000 0.040955
# 5 0.005785 -0.000364 0.010127 0.000000 0.036367 0.000000
# 6 0.000000 0.000000 0.000000 0.040955 0.000000 0.273277
#
#
# Mechanical properties :
#
#
# Convention : Reuss Voigt Hill
#
# Bulk Modulus (GPa) = 26.00114 34.76708 30.38411
# Shear Modulus (GPa) = 11.75705 26.27550 19.01627
#
# Velocity S-wave (km/s) = 2.18536 3.26700 2.77931
# Velocity P-wave (km/s) = 4.11456 5.32482 4.75833
#
# Compressibility (1/GPa) = 0.03845985
#
# Stress axis : x y z
#
# Youngs Moduli (GPa) = 90.92661 50.50374 46.48292
#
# Poissons Ratio (x) = 0.13398 0.03964
# Poissons Ratio (y) = 0.24121 0.15899
# Poissons Ratio (z) = 0.07753 0.17274
#
# Static dielectric constant tensor:
#      x y z
#    x 2.039980 0.000000 -0.079930 
#    y 0.000000 1.920850 0.000000 
#    z -0.079930 0.000000 2.313150 
# 
# From -- ./inp_files/69928.got.cif
#   From: 2010.05.17/outbox.cif.g08.bks.cpg/sg13_35_cif.got.tgz:69928.got - 2010.06.03 16:44:36.
