data_PCOD9228870
_publ_section_title
;
Structure prediction by ZEFSAII (Michael W. Deem and Ramdas Pophale) SiO2 
 PCOD9228870
Probable space group: P 2/C
;
_chemical_formula_sum "Si O2"
_cell_formula_units_Z 26
_cell_length_a 14.426779
_cell_length_b 12.477713
_cell_length_c 11.832684
_cell_angle_alpha 90.000000
_cell_angle_beta 30.095755
_cell_angle_gamma 90.000000
_cell_volume 1068.101097
_symmetry_space_group_name_H-M "P 2/C"
_symmetry_group_IT_number 13
_symmetry_cell_setting 'monoclinic'
loop_
_space_group_symop_operation_xyz
x,y,z
-x,y,1/2-z
-x,-y,-z
x,-y,1/2+z
loop_
_atom_site_type_symbol
_atom_site_label
_atom_site_fract_x
_atom_site_fract_y
_atom_site_fract_z
Si Si1 0.316417 0.112297 0.382520
Si Si2 0.566934 0.332505 0.858709
Si Si3 0.774270 0.609763 0.906694
Si Si4 0.000000 0.222492 0.250000
Si Si5 0.867551 0.414727 0.705607
Si Si6 0.284456 0.108885 0.818221
Si Si7 0.965630 0.832828 0.123577
O O1 0.500000 0.160391 0.250000
O O2 0.166153 0.112442 0.642606
O O3 0.181885 0.155555 0.424705
O O4 0.376820 0.000034 0.260726
O O5 0.673375 0.356792 0.628493
O O6 0.679176 0.393420 0.835484
O O7 0.580999 0.204515 0.861412
O O8 0.361299 0.370162 0.054183
O O9 0.821729 0.485579 0.863555
O O10 0.945157 0.691389 0.711800
O O11 0.824923 0.150049 0.455964
O O12 0.934219 0.295281 0.659985
O O13 0.000000 0.500000 0.500000
O O14 0.117060 0.113281 0.903262
#
# Coordination Sequence:
#
# PCOD9228870 Si02
#       7
#     4   4   4   2   4   4   4
#     4  11  25  43  68  96 132 180 218 267 341 385
#     4   9  21  36  59  96 124 159 218 268 307 396
#     4  10  19  36  58  92 126 161 210 264 325 374
#     4  10  20  34  64  96 120 170 214 268 328 380
#     4  11  22  41  65  90 128 172 210 263 335 388
#     4  10  21  42  66  92 130 170 218 271 327 386
#     4  10  24  47  62  97 139 166 227 277 317 410
#
# _framework density 24.342264
#
# number of rings (size 3 to 8) (size 9 to 14) (size 15 to 20)
#    0.000    1.846    0.000    4.615    4.308    4.308 
#   16.615    0.000    0.000    0.000    0.000    0.000 
#    0.000    0.000    0.000    0.000    0.000    0.000 
#
# Total GULP energy -144995.159188 kJ/mol
# GULP energy per Si atom -5576.736892 kJ/mol
# Density = 2.428686 g / cm^3
# Si number density = 24.342264 Si / 1000 Ang^3
#
#
#
# Elastic Constant Matrix: (Units=GPa)
#
#
# Indices 1 2 3 4 5 6 
#
# 1 89.6028 32.6764 17.8740 0.0000 -36.9517 0.0000
# 2 32.6764 82.4419 4.8524 0.0000 -6.3579 0.0000
# 3 17.8740 4.8524 61.5561 0.0000 -33.1004 0.0000
# 4 0.0000 0.0000 0.0000 19.3756 0.0000 3.1700
# 5 -36.9517 -6.3579 -33.1004 0.0000 52.6649 0.0000
# 6 0.0000 0.0000 0.0000 3.1700 0.0000 32.6801
#
#
#
# Elastic Compliance Matrix: (Units=1/GPa)
#
#
# Indices 1 2 3 4 5 6 
#
# 1 0.018816 -0.006528 0.002608 0.000000 0.014053 0.000000
# 2 -0.006528 0.014511 -0.001162 0.000000 -0.003558 0.000000
# 3 0.002608 -0.001162 0.024905 0.000000 0.017343 0.000000
# 4 0.000000 0.000000 0.000000 0.052443 0.000000 -0.005087
# 5 0.014053 -0.003558 0.017343 0.000000 0.039318 0.000000
# 6 0.000000 0.000000 0.000000 -0.005087 0.000000 0.031093
#
#
# Mechanical properties :
#
#
# Convention : Reuss Voigt Hill
#
# Bulk Modulus (GPa) = 20.80366 38.26735 29.53551
# Shear Modulus (GPa) = 24.12266 32.82399 28.47333
#
# Velocity S-wave (km/s) = 3.15140 3.67609 3.42381
# Velocity P-wave (km/s) = 4.66975 5.81144 5.27160
#
# Compressibility (1/GPa) = 0.04806847
#
# Stress axis : x y z
#
# Youngs Moduli (GPa) = 53.14626 68.91342 40.15200
#
# Poissons Ratio (x) = 0.44984 -0.10470
# Poissons Ratio (y) = 0.34692 0.04665
# Poissons Ratio (z) = -0.13858 0.08007
#
# Static dielectric constant tensor:
#      x y z
#    x 1.997130 0.000000 0.033310 
#    y 0.000000 1.955540 0.000000 
#    z 0.033310 0.000000 2.001340 
# 
# From -- ./inp_files/53652.got.cif
#   From: 2010.05.17/outbox.cif.g08.bks.cpg/sg13_27_cif.got.tgz:53652.got - 2010.06.03 16:44:36.
