data_PCOD9228886
_publ_section_title
;
Structure prediction by ZEFSAII (Michael W. Deem and Ramdas Pophale) SiO2 
 PCOD9228886
Probable space group: P 2/C
;
_chemical_formula_sum "Si O2"
_cell_formula_units_Z 22
_cell_length_a 5.198642
_cell_length_b 14.417746
_cell_length_c 12.300146
_cell_angle_alpha 90.000000
_cell_angle_beta 102.013056
_cell_angle_gamma 90.000000
_cell_volume 901.739086
_symmetry_space_group_name_H-M "P 2/C"
_symmetry_group_IT_number 13
_symmetry_cell_setting 'monoclinic'
loop_
_space_group_symop_operation_xyz
x,y,z
-x,y,1/2-z
-x,-y,-z
x,-y,1/2+z
loop_
_atom_site_type_symbol
_atom_site_label
_atom_site_fract_x
_atom_site_fract_y
_atom_site_fract_z
Si Si1 0.213241 0.685353 0.672268
Si Si2 0.756524 0.979631 0.095182
Si Si3 0.000000 0.156927 0.750000
Si Si4 0.296873 0.717467 0.130809
Si Si5 0.076296 0.155174 0.464618
Si Si6 0.786624 0.518169 0.328586
O O1 0.500000 0.694872 0.750000
O O2 0.182187 0.582950 0.615923
O O3 0.000000 0.685711 0.750000
O O4 0.136349 0.769624 0.588931
O O5 0.760522 0.913698 0.201663
O O6 0.850842 0.084253 0.125272
O O7 0.961428 0.918434 0.041717
O O8 0.500000 0.000000 0.000000
O O9 0.954534 0.230619 0.841429
O O10 0.500000 0.720693 0.250000
O O11 0.233200 0.610998 0.101615
O O12 0.327905 0.784544 0.029858
O O13 0.500000 0.512532 0.250000
O O14 0.000000 0.531279 0.250000
#
# Coordination Sequence:
#
# PCOD9228886 Si02
#       6
#     4   4   2   4   4   4
#     4  10  23  41  62  91 124 161 199 243 300 355
#     4  10  22  38  56  84 119 150 205 250 295 353
#     4  10  20  34  58  80 108 158 192 244 306 348
#     4  10  19  36  59  84 117 152 198 242 303 352
#     4  10  23  37  57  89 115 158 201 250 297 359
#     4   9  18  36  60  87 121 155 195 243 291 355
#
# _framework density 24.397300000000001
#
# number of rings (size 3 to 8) (size 9 to 14) (size 15 to 20)
#    0.000    2.182    0.909    1.091    3.818    0.727 
#    0.000    1.818    0.000    8.727    0.000    0.000 
#    0.000    0.000    0.000    0.000    0.000    0.000 
#
# Total GULP energy -122525.710092 kJ/mol
# GULP energy per Si atom -5569.350459 kJ/mol
# Density = 2.434177 g / cm^3
# Si number density = 24.397300 Si / 1000 Ang^3
#
#
#
# Elastic Constant Matrix: (Units=GPa)
#
#
# Indices 1 2 3 4 5 6 
#
# 1 78.2866 13.4250 17.4772 0.0000 25.4376 0.0000
# 2 13.4250 247.3284 65.4929 0.0000 20.4536 0.0000
# 3 17.4772 65.4929 100.0467 0.0000 39.5710 0.0000
# 4 0.0000 0.0000 0.0000 44.8285 0.0000 24.8224
# 5 25.4376 20.4536 39.5710 0.0000 31.1612 0.0000
# 6 0.0000 0.0000 0.0000 24.8224 0.0000 17.2539
#
#
#
# Elastic Compliance Matrix: (Units=1/GPa)
#
#
# Indices 1 2 3 4 5 6 
#
# 1 0.018957 -0.000795 0.006275 0.000000 -0.022921 0.000000
# 2 -0.000795 0.004971 -0.004181 0.000000 0.002696 0.000000
# 3 0.006275 -0.004181 0.025268 0.000000 -0.034466 0.000000
# 4 0.000000 0.000000 0.000000 0.109677 0.000000 -0.157788
# 5 -0.022921 0.002696 -0.034466 0.000000 0.092800 0.000000
# 6 0.000000 0.000000 0.000000 -0.157788 0.000000 0.284961
#
#
# Mechanical properties :
#
#
# Convention : Reuss Voigt Hill
#
# Bulk Modulus (GPa) = 19.30770 68.71686 44.01228
# Shear Modulus (GPa) = 9.06945 40.59983 24.83464
#
# Velocity S-wave (km/s) = 1.93015 4.08378 3.19396
# Velocity P-wave (km/s) = 3.59143 7.10375 5.62857
#
# Compressibility (1/GPa) = 0.05179280
#
# Stress axis : x y z
#
# Youngs Moduli (GPa) = 52.75118 201.18129 39.57497
#
# Poissons Ratio (x) = 0.15994 -0.24833
# Poissons Ratio (y) = 0.04194 0.16548
# Poissons Ratio (z) = -0.33101 0.84124
#
# Static dielectric constant tensor:
#      x y z
#    x 2.012390 0.000000 -0.129110 
#    y 0.000000 1.956280 0.000000 
#    z -0.129110 0.000000 2.297030 
# 
# From -- ./inp_files/44116.got.cif
#   From: 2010.05.17/outbox.cif.g08.bks.cpg/sg13_23_cif.got.tgz:44116.got - 2010.06.03 16:44:36.
