data_PCOD9228307
_publ_section_title
;
Structure prediction by ZEFSAII (Michael W. Deem and Ramdas Pophale) SiO2 
 PCOD9228307
Probable space group: P 2/C
;
_chemical_formula_sum "Si O2"
_cell_formula_units_Z 26
_cell_length_a 10.112114
_cell_length_b 11.038111
_cell_length_c 19.934015
_cell_angle_alpha 90.000000
_cell_angle_beta 39.386738
_cell_angle_gamma 90.000000
_cell_volume 1411.882198
_symmetry_space_group_name_H-M "P 2/C"
_symmetry_group_IT_number 13
_symmetry_cell_setting 'monoclinic'
loop_
_space_group_symop_operation_xyz
x,y,z
-x,y,1/2-z
-x,-y,-z
x,-y,1/2+z
loop_
_atom_site_type_symbol
_atom_site_label
_atom_site_fract_x
_atom_site_fract_y
_atom_site_fract_z
Si Si1 0.109961 0.204586 0.351712
Si Si2 0.700635 0.833320 0.100313
Si Si3 0.058525 0.478249 0.400211
Si Si4 0.000000 0.725738 0.750000
Si Si5 0.736731 0.277854 0.730527
Si Si6 0.000000 0.294417 0.750000
Si Si7 0.258811 0.488370 0.090046
Si Si8 0.500000 0.050587 0.250000
O O1 0.152915 0.345541 0.352614
O O2 0.307714 0.127260 0.296847
O O3 0.897003 0.169382 0.474406
O O4 0.063731 0.199831 0.290461
O O5 0.506813 0.744848 0.157002
O O6 0.773640 0.791348 0.145917
O O7 0.594976 0.963390 0.154866
O O8 0.201520 0.583317 0.311249
O O9 0.000000 0.500000 0.500000
O O10 0.843881 0.478102 0.442543
O O11 0.182138 0.630807 0.659278
O O12 0.886022 0.231571 0.731983
O O13 0.829853 0.387698 0.844889
O O14 0.500000 0.500000 0.000000
#
# Coordination Sequence:
#
# PCOD9228307 Si02
#       8
#     4   4   4   2   4   2   4   2
#     4  11  22  42  62  87 122 155 201 248 300 351
#     4  10  22  41  65  81 117 164 196 248 305 342
#     4  10  19  33  56  93 119 155 194 233 295 355
#     4   9  22  38  53  90 116 158 197 237 298 352
#     4   9  19  35  55  91 120 151 197 235 290 360
#     4   9  18  30  49  86 116 152 199 229 276 352
#     4   9  19  32  51  76 125 165 183 228 288 354
#     4  10  24  42  62  88 110 154 208 258 292 352
#
# _framework density 18.415134999999999
#
# number of rings (size 3 to 8) (size 9 to 14) (size 15 to 20)
#    0.000    2.462    1.538    1.385    4.308    2.462 
#    0.000    3.846    0.000    0.000    0.000    0.000 
#    0.000    0.000    0.000    0.000    0.000    0.000 
#
# Total GULP energy -144956.842254 kJ/mol
# GULP energy per Si atom -5575.263164 kJ/mol
# Density = 1.837322 g / cm^3
# Si number density = 18.415135 Si / 1000 Ang^3
#
#
#
# Elastic Constant Matrix: (Units=GPa)
#
#
# Indices 1 2 3 4 5 6 
#
# 1 143.2194 53.0345 94.9861 0.0000 -6.7550 0.0000
# 2 53.0345 84.4004 49.1944 0.0000 -16.8877 0.0000
# 3 94.9861 49.1944 133.3275 0.0000 -20.0881 0.0000
# 4 0.0000 0.0000 0.0000 32.8087 0.0000 -5.1218
# 5 -6.7550 -16.8877 -20.0881 0.0000 33.6153 0.0000
# 6 0.0000 0.0000 0.0000 -5.1218 0.0000 13.0626
#
#
#
# Elastic Compliance Matrix: (Units=1/GPa)
#
#
# Indices 1 2 3 4 5 6 
#
# 1 0.014891 -0.004781 -0.009622 0.000000 -0.005159 0.000000
# 2 -0.004781 0.017329 -0.002001 0.000000 0.006549 0.000000
# 3 -0.009622 -0.002001 0.016100 0.000000 0.006683 0.000000
# 4 0.000000 0.000000 0.000000 0.032467 0.000000 0.012730
# 5 -0.005159 0.006549 0.006683 0.000000 0.035995 0.000000
# 6 0.000000 0.000000 0.000000 0.012730 0.000000 0.081546
#
#
# Mechanical properties :
#
#
# Convention : Reuss Voigt Hill
#
# Bulk Modulus (GPa) = 64.46440 83.93081 74.19760
# Shear Modulus (GPa) = 21.15881 26.81280 23.98581
#
# Velocity S-wave (km/s) = 3.39335 3.81992 3.61294
# Velocity P-wave (km/s) = 7.10178 8.07043 7.60155
#
# Compressibility (1/GPa) = 0.01551244
#
# Stress axis : x y z
#
# Youngs Moduli (GPa) = 67.15551 57.70540 62.10988
#
# Poissons Ratio (x) = 0.27589 0.59762
# Poissons Ratio (y) = 0.32107 0.12430
# Poissons Ratio (z) = 0.64617 0.11548
#
# Static dielectric constant tensor:
#      x y z
#    x 1.655960 0.000000 0.021200 
#    y 0.000000 1.654920 0.000000 
#    z 0.021200 0.000000 1.655860 
# 
# From -- ./inp_files/76407.got.cif
#   From: 2010.05.17/outbox.cif.g08.bks.cpg/sg13_39_cif.got.tgz:76407.got - 2010.06.03 16:44:36.
