data_PCOD9228797
_publ_section_title
;
Structure prediction by ZEFSAII (Michael W. Deem and Ramdas Pophale) SiO2 
 PCOD9228797
Probable space group: P 2/C
;
_chemical_formula_sum "Si O2"
_cell_formula_units_Z 32
_cell_length_a 12.814015
_cell_length_b 5.777855
_cell_length_c 19.269424
_cell_angle_alpha 90.000000
_cell_angle_beta 118.391702
_cell_angle_gamma 90.000000
_cell_volume 1255.058025
_symmetry_space_group_name_H-M "P 2/C"
_symmetry_group_IT_number 13
_symmetry_cell_setting 'monoclinic'
loop_
_space_group_symop_operation_xyz
x,y,z
-x,y,1/2-z
-x,-y,-z
x,-y,1/2+z
loop_
_atom_site_type_symbol
_atom_site_label
_atom_site_fract_x
_atom_site_fract_y
_atom_site_fract_z
Si Si1 0.036224 0.564537 0.344942
Si Si2 0.713007 0.894920 0.722968
Si Si3 0.889570 0.936612 0.659358
Si Si4 0.165511 0.608360 0.624318
Si Si5 0.588771 0.812916 0.495019
Si Si6 0.634553 0.758546 0.300226
Si Si7 0.709417 0.879592 0.938665
Si Si8 0.479292 0.578727 0.894442
O O1 0.099519 0.315022 0.373193
O O2 0.000000 0.564725 0.250000
O O3 0.937069 0.547895 0.374506
O O4 0.099746 0.812645 0.373880
O O5 0.771228 0.931991 0.667509
O O6 0.809577 0.786077 0.805050
O O7 0.604809 0.712158 0.686094
O O8 0.677123 0.142489 0.740225
O O9 0.000000 0.939217 0.750000
O O10 0.278289 0.442675 0.649971
O O11 0.172875 0.758739 0.555531
O O12 0.594668 0.624015 0.557613
O O13 0.517099 0.687036 0.410395
O O14 0.500000 0.000000 0.500000
O O15 0.704280 0.930662 0.498515
O O16 0.500000 0.683465 0.250000
O O17 0.653758 0.979411 0.355997
O O18 0.607544 0.702277 0.930698
#
# Coordination Sequence:
#
# PCOD9228797 Si02
#       8
#     4   4   4   4   4   4   4   4
#     4  10  19  36  53  74 111 151 194 244 285 348
#     4  11  22  34  54  84 113 155 194 237 299 353
#     4  10  19  36  54  77 113 150 198 242 289 352
#     4  11  23  31  53  80 116 158 191 232 294 363
#     4   9  20  38  57  76 110 153 199 248 283 340
#     4  11  22  33  50  79 121 152 185 225 279 362
#     4  10  21  36  50  80 113 152 193 231 287 353
#     4  10  20  37  57  81 112 149 199 244 293 345
#
# _framework density 25.496828000000001
#
# number of rings (size 3 to 8) (size 9 to 14) (size 15 to 20)
#    0.000    1.750    3.750    2.250    5.250    0.000 
#    0.000    0.000    0.000    0.000    0.000    1.750 
#    0.000    0.000    0.000    0.000    0.000    0.000 
#
# Total GULP energy -178629.785170 kJ/mol
# GULP energy per Si atom -5582.180787 kJ/mol
# Density = 2.543880 g / cm^3
# Si number density = 25.496828 Si / 1000 Ang^3
#
#
#
# Elastic Constant Matrix: (Units=GPa)
#
#
# Indices 1 2 3 4 5 6 
#
# 1 132.8161 56.6703 7.8912 0.0000 -23.8096 0.0000
# 2 56.6703 155.6184 16.1017 0.0000 -4.2975 0.0000
# 3 7.8912 16.1017 50.4383 0.0000 -13.7656 0.0000
# 4 0.0000 0.0000 0.0000 31.2193 0.0000 -8.5765
# 5 -23.8096 -4.2975 -13.7656 0.0000 30.1697 0.0000
# 6 0.0000 0.0000 0.0000 -8.5765 0.0000 55.7584
#
#
#
# Elastic Compliance Matrix: (Units=1/GPa)
#
#
# Indices 1 2 3 4 5 6 
#
# 1 0.010607 -0.003822 0.001938 0.000000 0.008710 0.000000
# 2 -0.003822 0.008023 -0.002827 0.000000 -0.003164 0.000000
# 3 0.001938 -0.002827 0.023682 0.000000 0.011932 0.000000
# 4 0.000000 0.000000 0.000000 0.033445 0.000000 0.005144
# 5 0.008710 -0.003164 0.011932 0.000000 0.045014 0.000000
# 6 0.000000 0.000000 0.000000 0.005144 0.000000 0.018726
#
#
# Mechanical properties :
#
#
# Convention : Reuss Voigt Hill
#
# Bulk Modulus (GPa) = 30.40484 55.57768 42.99126
# Shear Modulus (GPa) = 31.27328 40.64345 35.95837
#
# Velocity S-wave (km/s) = 3.50602 3.99690 3.75948
# Velocity P-wave (km/s) = 5.32357 6.56852 5.97854
#
# Compressibility (1/GPa) = 0.03288950
#
# Stress axis : x y z
#
# Youngs Moduli (GPa) = 94.28158 124.64030 42.22634
#
# Poissons Ratio (x) = 0.47644 -0.08184
# Poissons Ratio (y) = 0.36039 0.11936
# Poissons Ratio (z) = -0.18273 0.35231
#
# Static dielectric constant tensor:
#      x y z
#    x 2.040540 0.000000 -0.003000 
#    y 0.000000 2.022170 0.000000 
#    z -0.003000 0.000000 2.160750 
# 
# From -- ./inp_files/86004.got.cif
#   From: 2010.05.17/outbox.cif.g08.bks.cpg/sg13_44_cif.got.tgz:86004.got - 2010.06.03 16:44:36.
