data_PCOD9228351
_publ_section_title
;
Structure prediction by ZEFSAII (Michael W. Deem and Ramdas Pophale) SiO2 
 PCOD9228351
Probable space group: P 2/C
;
_chemical_formula_sum "Si O2"
_cell_formula_units_Z 22
_cell_length_a 15.031206
_cell_length_b 10.401501
_cell_length_c 17.669463
_cell_angle_alpha 90.000000
_cell_angle_beta 23.444118
_cell_angle_gamma 90.000000
_cell_volume 1099.100513
_symmetry_space_group_name_H-M "P 2/C"
_symmetry_group_IT_number 13
_symmetry_cell_setting 'monoclinic'
loop_
_space_group_symop_operation_xyz
x,y,z
-x,y,1/2-z
-x,-y,-z
x,-y,1/2+z
loop_
_atom_site_type_symbol
_atom_site_label
_atom_site_fract_x
_atom_site_fract_y
_atom_site_fract_z
Si Si1 0.216447 0.157782 0.200642
Si Si2 0.454821 0.964517 0.928977
Si Si3 0.862335 0.869762 0.090782
Si Si4 0.740276 0.436412 0.300618
Si Si5 0.908631 0.644822 0.501920
Si Si6 0.500000 0.212827 0.250000
O O1 0.404893 0.116874 0.117395
O O2 0.262908 0.306419 0.146822
O O3 0.967849 0.167983 0.428817
O O4 0.789266 0.600064 0.673785
O O5 0.438549 0.876492 0.869037
O O6 0.609185 0.088178 0.789802
O O7 0.235474 0.034716 0.131440
O O8 0.926645 0.760091 0.100013
O O9 0.000000 0.000000 0.000000
O O10 0.500000 0.500000 0.500000
O O11 0.943624 0.536318 0.154133
O O12 0.713657 0.702208 0.603437
#
# Coordination Sequence:
#
# PCOD9228351 Si02
#       6
#     4   4   4   4   4   2
#     4   9  18  34  57  86 110 156 207 239 284 385
#     4  10  19  33  60  85 123 147 199 254 309 361
#     4   9  15  33  54  80 112 155 193 239 292 372
#     4  10  19  37  61  84 114 164 216 242 287 390
#     4  10  21  35  60  90 119 157 210 255 307 369
#     4  12  20  38  56 100 126 154 198 284 330 342
#
# _framework density 20.016368
#
# number of rings (size 3 to 8) (size 9 to 14) (size 15 to 20)
#    0.000    2.182    5.455    1.091    0.000    0.000 
#    0.000    3.636    0.000   21.818    0.000    0.000 
#    0.000    0.000    0.000    0.000    0.000    0.000 
#
# Total GULP energy -122537.378587 kJ/mol
# GULP energy per Si atom -5569.880845 kJ/mol
# Density = 1.997081 g / cm^3
# Si number density = 20.016368 Si / 1000 Ang^3
#
#
#
# Elastic Constant Matrix: (Units=GPa)
#
#
# Indices 1 2 3 4 5 6 
#
# 1 64.6864 35.7942 22.2311 0.0000 -6.7386 0.0000
# 2 35.7942 130.7834 38.8412 0.0000 -6.1827 0.0000
# 3 22.2311 38.8412 57.1228 0.0000 -9.8459 0.0000
# 4 0.0000 0.0000 0.0000 40.8769 0.0000 -7.4091
# 5 -6.7386 -6.1827 -9.8459 0.0000 14.3446 0.0000
# 6 0.0000 0.0000 0.0000 -7.4091 0.0000 7.3754
#
#
#
# Elastic Compliance Matrix: (Units=1/GPa)
#
#
# Indices 1 2 3 4 5 6 
#
# 1 0.019523 -0.003891 -0.004152 0.000000 0.004644 0.000000
# 2 -0.003891 0.010358 -0.005755 0.000000 -0.001314 0.000000
# 3 -0.004152 -0.005755 0.025260 0.000000 0.012907 0.000000
# 4 0.000000 0.000000 0.000000 0.029910 0.000000 0.030047
# 5 0.004644 -0.001314 0.012907 0.000000 0.080188 0.000000
# 6 0.000000 0.000000 0.000000 0.030047 0.000000 0.165770
#
#
# Mechanical properties :
#
#
# Convention : Reuss Voigt Hill
#
# Bulk Modulus (GPa) = 36.30380 49.59172 42.94776
# Shear Modulus (GPa) = 13.59483 22.90111 18.24797
#
# Velocity S-wave (km/s) = 2.60895 3.38615 3.02263
# Velocity P-wave (km/s) = 5.22033 6.33383 5.80385
#
# Compressibility (1/GPa) = 0.02754533
#
# Stress axis : x y z
#
# Youngs Moduli (GPa) = 51.22221 96.54139 39.58797
#
# Poissons Ratio (x) = 0.37560 0.16437
# Poissons Ratio (y) = 0.19928 0.22785
# Poissons Ratio (z) = 0.21267 0.55564
#
# Static dielectric constant tensor:
#      x y z
#    x 1.728540 0.000000 0.117660 
#    y 0.000000 1.754340 0.000000 
#    z 0.117660 0.000000 1.622170 
# 
# From -- ./inp_files/80977.got.cif
#   From: 2010.05.17/outbox.cif.g08.bks.cpg/sg13_41_cif.got.tgz:80977.got - 2010.06.03 16:44:36.
