data_PCOD9228736
_publ_section_title
;
Structure prediction by ZEFSAII (Michael W. Deem and Ramdas Pophale) SiO2 
 PCOD9228736
Probable space group: P 2/C
;
_chemical_formula_sum "Si O2"
_cell_formula_units_Z 24
_cell_length_a 10.590019
_cell_length_b 7.355652
_cell_length_c 19.782211
_cell_angle_alpha 90.000000
_cell_angle_beta 44.708874
_cell_angle_gamma 90.000000
_cell_volume 1084.076170
_symmetry_space_group_name_H-M "P 2/C"
_symmetry_group_IT_number 13
_symmetry_cell_setting 'monoclinic'
loop_
_space_group_symop_operation_xyz
x,y,z
-x,y,1/2-z
-x,-y,-z
x,-y,1/2+z
loop_
_atom_site_type_symbol
_atom_site_label
_atom_site_fract_x
_atom_site_fract_y
_atom_site_fract_z
Si Si1 0.000000 0.283546 0.250000
Si Si2 0.849941 0.865661 0.087429
Si Si3 0.625484 0.007638 0.552341
Si Si4 0.116264 0.657292 0.060283
Si Si5 0.769980 0.020135 0.264866
Si Si6 0.000000 0.750718 0.250000
Si Si7 0.663553 0.373129 0.461095
O O1 0.929522 0.165709 0.212977
O O2 0.812265 0.366690 0.345356
O O3 0.692602 0.882102 0.093204
O O4 0.961285 0.683901 0.063748
O O5 0.782987 0.938861 0.185308
O O6 0.000000 0.000000 0.000000
O O7 0.617119 0.166492 0.499161
O O8 0.761638 0.840884 0.486897
O O9 0.431352 0.923634 0.642194
O O10 0.240477 0.480499 0.013365
O O11 0.023211 0.654344 0.169604
O O12 0.826805 0.874410 0.300560
O O13 0.500000 0.500000 0.500000
#
# Coordination Sequence:
#
# PCOD9228736 Si02
#       7
#     2   4   4   4   4   2   4
#     4  11  23  40  62  93 127 164 207 259 324 379
#     4   9  19  37  61  86 114 159 207 248 309 376
#     4  11  22  38  60  89 123 160 206 257 309 372
#     4  10  21  38  59  85 122 160 200 255 310 369
#     4  10  19  35  61  86 116 156 199 251 309 368
#     4   9  17  32  54  79 109 152 195 237 298 357
#     4  12  25  39  62  95 128 166 214 262 315 380
#
# _framework density 22.138667000000002
#
# number of rings (size 3 to 8) (size 9 to 14) (size 15 to 20)
#    0.000    1.667    0.000    7.000    0.000    4.000 
#    0.000    0.000    0.000    4.000    0.000    0.000 
#    0.000    0.000    0.000    0.000    0.000    0.000 
#
# Total GULP energy -133803.479945 kJ/mol
# GULP energy per Si atom -5575.144998 kJ/mol
# Density = 2.208828 g / cm^3
# Si number density = 22.138667 Si / 1000 Ang^3
#
#
#
# Elastic Constant Matrix: (Units=GPa)
#
#
# Indices 1 2 3 4 5 6 
#
# 1 90.6904 2.8792 29.9083 0.0000 -5.3342 0.0000
# 2 2.8792 61.2236 17.6537 0.0000 -5.4778 0.0000
# 3 29.9083 17.6537 98.2122 0.0000 -14.3206 0.0000
# 4 0.0000 0.0000 0.0000 21.4674 0.0000 -8.7937
# 5 -5.3342 -5.4778 -14.3206 0.0000 40.3766 0.0000
# 6 0.0000 0.0000 0.0000 -8.7937 0.0000 21.0880
#
#
#
# Elastic Compliance Matrix: (Units=1/GPa)
#
#
# Indices 1 2 3 4 5 6 
#
# 1 0.012278 0.000546 -0.003786 0.000000 0.000353 0.000000
# 2 0.000546 0.017316 -0.003085 0.000000 0.001327 0.000000
# 3 -0.003786 -0.003085 0.012397 0.000000 0.003478 0.000000
# 4 0.000000 0.000000 0.000000 0.056178 0.000000 0.023426
# 5 0.000353 0.001327 0.003478 0.000000 0.026227 0.000000
# 6 0.000000 0.000000 0.000000 0.023426 0.000000 0.057189
#
#
# Mechanical properties :
#
#
# Convention : Reuss Voigt Hill
#
# Bulk Modulus (GPa) = 34.08209 39.00097 36.54153
# Shear Modulus (GPa) = 24.50782 29.89875 27.20329
#
# Velocity S-wave (km/s) = 3.33079 3.67893 3.50918
# Velocity P-wave (km/s) = 5.49732 5.97503 5.74114
#
# Compressibility (1/GPa) = 0.02934092
#
# Stress axis : x y z
#
# Youngs Moduli (GPa) = 81.44354 57.74916 80.66720
#
# Poissons Ratio (x) = -0.03152 0.30538
# Poissons Ratio (y) = -0.04445 0.24888
# Poissons Ratio (z) = 0.30832 0.17817
#
# Static dielectric constant tensor:
#      x y z
#    x 1.861910 0.000000 -0.006940 
#    y 0.000000 2.083370 0.000000 
#    z -0.006940 0.000000 1.786900 
# 
# From -- ./inp_files/77973.got.cif
#   From: 2010.05.17/outbox.cif.g08.bks.cpg/sg13_39_cif.got.tgz:77973.got - 2010.06.03 16:44:36.
