data_PCOD9228643
_publ_section_title
;
Structure prediction by ZEFSAII (Michael W. Deem and Ramdas Pophale) SiO2 
 PCOD9228643
Probable space group: P 2/C
;
_chemical_formula_sum "Si O2"
_cell_formula_units_Z 24
_cell_length_a 11.545008
_cell_length_b 11.936460
_cell_length_c 21.883392
_cell_angle_alpha 90.000000
_cell_angle_beta 19.952804
_cell_angle_gamma 90.000000
_cell_volume 1029.086704
_symmetry_space_group_name_H-M "P 2/C"
_symmetry_group_IT_number 13
_symmetry_cell_setting 'monoclinic'
loop_
_space_group_symop_operation_xyz
x,y,z
-x,y,1/2-z
-x,-y,-z
x,-y,1/2+z
loop_
_atom_site_type_symbol
_atom_site_label
_atom_site_fract_x
_atom_site_fract_y
_atom_site_fract_z
Si Si1 0.751413 0.940053 0.430984
Si Si2 0.673645 0.619797 0.365522
Si Si3 0.098601 0.127458 0.438297
Si Si4 0.019002 0.841405 0.834913
Si Si5 0.626058 0.364489 0.360412
Si Si6 0.999704 0.762652 0.393459
O O1 0.373063 0.888761 0.627836
O O2 0.935358 0.885762 0.398046
O O3 0.000000 0.910639 0.250000
O O4 0.745011 0.074063 0.442209
O O5 0.627701 0.498393 0.357746
O O6 0.422916 0.656172 0.543092
O O7 0.000000 0.609495 0.250000
O O8 0.720283 0.706577 0.288034
O O9 0.500000 0.140611 0.250000
O O10 0.017497 0.143351 0.408046
O O11 0.939233 0.215922 0.565667
O O12 0.000000 0.000000 0.500000
O O13 0.044020 0.707612 0.817753
O O14 0.330496 0.312584 0.463191
#
# Coordination Sequence:
#
# PCOD9228643 Si02
#       6
#     4   4   4   4   4   4
#     4  11  21  34  55  85 119 149 187 242 298 355
#     4   9  18  34  57  85 111 153 194 243 291 355
#     4  12  21  39  63  85 118 163 201 241 290 356
#     4  11  21  37  55  86 114 156 195 235 294 354
#     4   9  18  34  57  80 116 150 196 236 302 348
#     4  10  19  35  58  81 113 153 199 235 294 348
#
# _framework density 23.321649000000001
#
# number of rings (size 3 to 8) (size 9 to 14) (size 15 to 20)
#    0.000    1.667    5.000    3.000    0.000    0.667 
#    0.000    4.167    0.000    0.000    0.000    0.000 
#    0.000    0.000    0.000    0.000    0.000    0.000 
#
# Total GULP energy -133883.740333 kJ/mol
# GULP energy per Si atom -5578.489181 kJ/mol
# Density = 2.326857 g / cm^3
# Si number density = 23.321649 Si / 1000 Ang^3
#
#
#
# Elastic Constant Matrix: (Units=GPa)
#
#
# Indices 1 2 3 4 5 6 
#
# 1 104.7919 28.0591 36.8466 0.0000 46.0022 0.0000
# 2 28.0591 117.9374 27.7767 0.0000 34.9917 0.0000
# 3 36.8466 27.7767 67.1320 0.0000 22.8922 0.0000
# 4 0.0000 0.0000 0.0000 28.7674 0.0000 14.0960
# 5 46.0022 34.9917 22.8922 0.0000 42.6338 0.0000
# 6 0.0000 0.0000 0.0000 14.0960 0.0000 36.9758
#
#
#
# Elastic Compliance Matrix: (Units=1/GPa)
#
#
# Indices 1 2 3 4 5 6 
#
# 1 0.019643 0.002617 -0.004779 0.000000 -0.020776 0.000000
# 2 0.002617 0.011745 -0.002504 0.000000 -0.011118 0.000000
# 3 -0.004779 -0.002504 0.019704 0.000000 -0.003368 0.000000
# 4 0.000000 0.000000 0.000000 0.042747 0.000000 -0.016296
# 5 -0.020776 -0.011118 -0.003368 0.000000 0.056807 0.000000
# 6 0.000000 0.000000 0.000000 -0.016296 0.000000 0.033257
#
#
# Mechanical properties :
#
#
# Convention : Reuss Voigt Hill
#
# Bulk Modulus (GPa) = 23.94764 52.80290 38.37527
# Shear Modulus (GPa) = 24.13633 34.82067 29.47850
#
# Velocity S-wave (km/s) = 3.22053 3.86821 3.55913
# Velocity P-wave (km/s) = 4.91119 6.53001 5.77758
#
# Compressibility (1/GPa) = 0.04175778
#
# Stress axis : x y z
#
# Youngs Moduli (GPa) = 50.90825 85.14108 50.75165
#
# Poissons Ratio (x) = -0.22277 0.24256
# Poissons Ratio (y) = -0.13320 0.12710
# Poissons Ratio (z) = 0.24331 0.21323
#
# Static dielectric constant tensor:
#      x y z
#    x 1.899430 0.000000 -0.118090 
#    y 0.000000 1.891900 0.000000 
#    z -0.118090 0.000000 2.092390 
# 
# From -- ./inp_files/87483.got.cif
#   From: 2010.05.17/outbox.cif.g08.bks.cpg/sg13_44_cif.got.tgz:87483.got - 2010.06.03 16:44:36.
