data_PCOD9228340
_publ_section_title
;
Structure prediction by ZEFSAII (Michael W. Deem and Ramdas Pophale) SiO2 
 PCOD9228340
Probable space group: P 2/C
;
_chemical_formula_sum "Si O2"
_cell_formula_units_Z 30
_cell_length_a 6.730818
_cell_length_b 17.757646
_cell_length_c 9.705869
_cell_angle_alpha 90.000000
_cell_angle_beta 84.912438
_cell_angle_gamma 90.000000
_cell_volume 1155.508953
_symmetry_space_group_name_H-M "P 2/C"
_symmetry_group_IT_number 13
_symmetry_cell_setting 'monoclinic'
loop_
_space_group_symop_operation_xyz
x,y,z
-x,y,1/2-z
-x,-y,-z
x,-y,1/2+z
loop_
_atom_site_type_symbol
_atom_site_label
_atom_site_fract_x
_atom_site_fract_y
_atom_site_fract_z
Si Si1 0.515431 0.393871 0.395949
Si Si2 0.789438 0.971546 0.081372
Si Si3 0.087308 0.394589 0.389809
Si Si4 0.500000 0.321530 0.750000
Si Si5 0.327359 0.246180 0.035751
Si Si6 0.779660 0.433366 0.624034
Si Si7 0.985905 0.173596 0.893636
Si Si8 0.579449 0.889912 0.555590
O O1 0.500000 0.435624 0.250000
O O2 0.295610 0.362514 0.427189
O O3 0.652596 0.320646 0.375841
O O4 0.608648 0.437933 0.516710
O O5 0.869332 0.898013 0.152452
O O6 0.691747 0.048598 0.145837
O O7 0.600843 0.935944 0.009957
O O8 0.000000 0.000000 0.000000
O O9 0.132626 0.484187 0.359807
O O10 0.000000 0.368621 0.250000
O O11 0.946717 0.389075 0.529527
O O12 0.439102 0.270506 0.884540
O O13 0.685434 0.381195 0.747098
O O14 0.108545 0.215860 0.007328
O O15 0.453488 0.182351 0.104062
O O16 0.000000 0.219558 0.750000
O O17 0.768332 0.143940 0.955217
#
# Coordination Sequence:
#
# PCOD9228340 Si02
#       8
#     4   4   4   2   4   4   4   4
#     4  11  23  43  66  86 127 174 220 268 338 408
#     4   8  16  31  56  85 116 160 212 265 327 380
#     4  11  23  42  70  99 125 168 224 280 353 425
#     4  10  22  40  62  94 136 170 216 282 352 414
#     4  10  22  37  59  90 126 175 220 263 338 406
#     4  10  24  42  66 101 131 164 217 286 346 426
#     4  10  19  33  58  89 127 167 216 273 333 405
#     4   9  17  34  58  82 122 169 209 269 328 387
#
# _framework density 25.962586999999999
#
# number of rings (size 3 to 8) (size 9 to 14) (size 15 to 20)
#    0.000    2.133    1.333    1.200    0.933    8.000 
#    0.000    5.333   17.600    0.000    0.000    0.000 
#    0.000    0.000    0.000    0.000    0.000    0.000 
#
# Total GULP energy -167041.339615 kJ/mol
# GULP energy per Si atom -5568.044654 kJ/mol
# Density = 2.590350 g / cm^3
# Si number density = 25.962587 Si / 1000 Ang^3
#
#
#
# Elastic Constant Matrix: (Units=GPa)
#
#
# Indices 1 2 3 4 5 6 
#
# 1 205.8515 29.8607 54.5776 0.0000 -1.7134 0.0000
# 2 29.8607 70.3054 -11.2103 0.0000 6.6464 0.0000
# 3 54.5776 -11.2103 88.4973 0.0000 8.8824 0.0000
# 4 0.0000 0.0000 0.0000 6.4102 0.0000 -4.9284
# 5 -1.7134 6.6464 8.8824 0.0000 47.6584 0.0000
# 6 0.0000 0.0000 0.0000 -4.9284 0.0000 37.3453
#
#
#
# Elastic Compliance Matrix: (Units=1/GPa)
#
#
# Indices 1 2 3 4 5 6 
#
# 1 0.006677 -0.003751 -0.004759 0.000000 0.001650 0.000000
# 2 -0.003751 0.016901 0.004794 0.000000 -0.003385 0.000000
# 3 -0.004759 0.004794 0.015211 0.000000 -0.003675 0.000000
# 4 0.000000 0.000000 0.000000 0.173618 0.000000 0.022912
# 5 0.001650 -0.003385 -0.003675 0.000000 0.022199 0.000000
# 6 0.000000 0.000000 0.000000 0.022912 0.000000 0.029801
#
#
# Mechanical properties :
#
#
# Convention : Reuss Voigt Hill
#
# Bulk Modulus (GPa) = 31.89000 56.79005 44.34003
# Shear Modulus (GPa) = 17.71221 37.71119 27.71170
#
# Velocity S-wave (km/s) = 2.61477 3.81533 3.27061
# Velocity P-wave (km/s) = 4.62880 6.42886 5.60161
#
# Compressibility (1/GPa) = 0.03135779
#
# Stress axis : x y z
#
# Youngs Moduli (GPa) = 149.75852 59.16740 65.74326
#
# Poissons Ratio (x) = 0.22193 0.31286
# Poissons Ratio (y) = 0.56173 -0.31517
# Poissons Ratio (z) = 0.71267 -0.28365
#
# Static dielectric constant tensor:
#      x y z
#    x 2.142420 0.000000 0.016540 
#    y 0.000000 2.102140 0.000000 
#    z 0.016540 0.000000 2.051160 
# 
# From -- ./inp_files/26742.got.cif
#   From: 2010.05.17/outbox.cif.g08.bks.cpg/sg13_14_cif.got.tgz:26742.got - 2010.06.03 16:44:36.
