data_PCOD9228635
_publ_section_title
;
Structure prediction by ZEFSAII (Michael W. Deem and Ramdas Pophale) SiO2 
 PCOD9228635
Probable space group: P 2/C
;
_chemical_formula_sum "Si O2"
_cell_formula_units_Z 20
_cell_length_a 5.346408
_cell_length_b 6.961343
_cell_length_c 28.996010
_cell_angle_alpha 90.000000
_cell_angle_beta 47.903892
_cell_angle_gamma 90.000000
_cell_volume 800.773681
_symmetry_space_group_name_H-M "P 2/C"
_symmetry_group_IT_number 13
_symmetry_cell_setting 'monoclinic'
loop_
_space_group_symop_operation_xyz
x,y,z
-x,y,1/2-z
-x,-y,-z
x,-y,1/2+z
loop_
_atom_site_type_symbol
_atom_site_label
_atom_site_fract_x
_atom_site_fract_y
_atom_site_fract_z
Si Si1 0.688418 0.805908 0.767153
Si Si2 0.119547 0.220972 0.785641
Si Si3 0.365330 0.254483 0.471634
Si Si4 0.832705 0.397292 0.911052
Si Si5 0.898757 0.207629 0.095256
O O1 0.500000 0.697470 0.750000
O O2 0.583191 0.876179 0.661965
O O3 0.000000 0.695856 0.750000
O O4 0.860949 0.988515 0.720822
O O5 0.500000 0.277233 0.750000
O O6 0.000000 0.281503 0.750000
O O7 0.898380 0.294267 0.855147
O O8 0.176366 0.258373 0.543679
O O9 0.484722 0.478838 0.450603
O O10 0.166391 0.189512 0.451142
O O11 0.726930 0.150561 0.434374
O O12 0.099748 0.565442 0.890448
#
# Coordination Sequence:
#
# PCOD9228635 Si02
#       5
#     4   4   4   4   4
#     4  10  21  39  57  78 119 166 193 234 287 349
#     4  10  23  38  58  81 121 160 194 235 294 351
#     4   9  20  34  60  89 117 146 190 250 302 338
#     4   9  21  36  60  89 118 148 194 244 299 346
#     4  10  19  35  57  89 114 149 195 243 290 351
#
# _framework density 24.975843000000001
#
# number of rings (size 3 to 8) (size 9 to 14) (size 15 to 20)
#    1.200    1.200    0.000    1.800    2.800    0.800 
#    0.000    0.000    0.000   28.800    0.000    0.000 
#    0.000    0.000    0.000    0.000    0.000    0.000 
#
# Total GULP energy -111737.823743 kJ/mol
# GULP energy per Si atom -5586.891187 kJ/mol
# Density = 2.491900 g / cm^3
# Si number density = 24.975843 Si / 1000 Ang^3
#
#
#
# Elastic Constant Matrix: (Units=GPa)
#
#
# Indices 1 2 3 4 5 6 
#
# 1 186.7518 8.4714 45.5860 0.0000 38.9126 0.0000
# 2 8.4714 81.8160 10.6528 0.0000 5.6881 0.0000
# 3 45.5860 10.6528 150.2462 0.0000 34.6271 0.0000
# 4 0.0000 0.0000 0.0000 31.1009 0.0000 11.5261
# 5 38.9126 5.6881 34.6271 0.0000 43.3493 0.0000
# 6 0.0000 0.0000 0.0000 11.5261 0.0000 -51.3412
#
#
#
# Elastic Compliance Matrix: (Units=1/GPa)
#
#
# Indices 1 2 3 4 5 6 
#
# 1 0.006666 -0.000218 -0.000778 0.000000 -0.005334 0.000000
# 2 -0.000218 0.012389 -0.000592 0.000000 -0.000957 0.000000
# 3 -0.000778 -0.000592 0.008279 0.000000 -0.005837 0.000000
# 4 0.000000 0.000000 0.000000 0.029684 0.000000 0.006664
# 5 -0.005334 -0.000957 -0.005837 0.000000 0.032645 0.000000
# 6 0.000000 0.000000 0.000000 0.006664 0.000000 -0.017981
#
#
# Mechanical properties :
#
#
# Convention : Reuss Voigt Hill
#
# Bulk Modulus (GPa) = 41.39312 60.91494 51.15403
# Shear Modulus (GPa) = 60.30765 28.22871 44.26818
#
# Velocity S-wave (km/s) = 4.91923 3.36555 4.21460
# Velocity P-wave (km/s) = 6.99102 6.28849 6.64904
#
# Compressibility (1/GPa) = 0.02415860
#
# Stress axis : x y z
#
# Youngs Moduli (GPa) = 150.01954 80.71864 120.78735
#
# Poissons Ratio (x) = 0.01761 0.09394
# Poissons Ratio (y) = 0.03272 0.07146
# Poissons Ratio (z) = 0.11668 0.04775
#
# Static dielectric constant tensor:
#      x y z
#    x 1.877280 0.000000 -0.129350 
#    y 0.000000 2.013920 0.000000 
#    z -0.129350 0.000000 1.908710 
# 
# From -- ./inp_files/90098.got.cif
#   From: 2010.05.17/outbox.cif.g08.bks.cpg/sg13_46_cif.got.tgz:90098.got - 2010.06.03 16:44:36.
