data_PCOD9228021
_publ_section_title
;
Structure prediction by ZEFSAII (Michael W. Deem and Ramdas Pophale) SiO2 
 PCOD9228021
Probable space group: P 2/C
;
_chemical_formula_sum "Si O2"
_cell_formula_units_Z 20
_cell_length_a 30.820565
_cell_length_b 5.328267
_cell_length_c 20.077564
_cell_angle_alpha 90.000000
_cell_angle_beta 16.923245
_cell_angle_gamma 90.000000
_cell_volume 959.766094
_symmetry_space_group_name_H-M "P 2/C"
_symmetry_group_IT_number 13
_symmetry_cell_setting 'monoclinic'
loop_
_space_group_symop_operation_xyz
x,y,z
-x,y,1/2-z
-x,-y,-z
x,-y,1/2+z
loop_
_atom_site_type_symbol
_atom_site_label
_atom_site_fract_x
_atom_site_fract_y
_atom_site_fract_z
Si Si1 0.825361 0.365183 0.495379
Si Si2 0.681608 0.205194 0.980898
Si Si3 0.710798 0.130282 0.090626
Si Si4 0.426516 0.400148 0.540199
Si Si5 0.365698 0.294605 0.001022
O O1 0.784978 0.630152 0.518899
O O2 0.739712 0.344176 0.691897
O O3 0.000000 0.348063 0.250000
O O4 0.765560 0.131209 0.539928
O O5 0.500000 0.234218 0.250000
O O6 0.736550 0.145598 0.973991
O O7 0.734330 0.475045 0.878193
O O8 0.712739 0.973979 0.886114
O O9 0.532702 0.172585 0.362284
O O10 0.500000 0.500000 0.500000
O O11 0.427050 0.605783 0.481038
O O12 0.500000 0.265129 0.750000
#
# Coordination Sequence:
#
# PCOD9228021 Si02
#       5
#     4   4   4   4   4
#     4  11  25  41  61  87 132 168 202 252 315 366
#     4  10  19  31  59  88 122 148 191 255 312 346
#     4  11  21  40  64  93 118 161 215 255 301 365
#     4  10  22  37  63  97 118 157 212 261 299 361
#     4  10  19  33  54  88 124 147 188 254 314 341
#
# _framework density 20.838411000000001
#
# number of rings (size 3 to 8) (size 9 to 14) (size 15 to 20)
#    0.000    1.600    4.000    2.400    8.400    3.200 
#    0.000    0.000    0.000    7.200    0.000    0.000 
#    0.000    0.000    0.000    0.000    0.000    0.000 
#
# Total GULP energy -111618.945792 kJ/mol
# GULP energy per Si atom -5580.947290 kJ/mol
# Density = 2.079098 g / cm^3
# Si number density = 20.838411 Si / 1000 Ang^3
#
#
#
# Elastic Constant Matrix: (Units=GPa)
#
#
# Indices 1 2 3 4 5 6 
#
# 1 94.1438 3.0101 19.5047 0.0000 11.4652 0.0000
# 2 3.0101 123.7600 12.7531 0.0000 -9.0188 0.0000
# 3 19.5047 12.7531 89.6526 0.0000 -11.3886 0.0000
# 4 0.0000 0.0000 0.0000 3.4157 0.0000 -14.6293
# 5 11.4652 -9.0188 -11.3886 0.0000 10.6090 0.0000
# 6 0.0000 0.0000 0.0000 -14.6293 0.0000 22.9282
#
#
#
# Elastic Compliance Matrix: (Units=1/GPa)
#
#
# Indices 1 2 3 4 5 6 
#
# 1 0.014805 -0.001467 -0.006025 0.000000 -0.023715 0.000000
# 2 -0.001467 0.008768 0.000255 0.000000 0.009314 0.000000
# 3 -0.006025 0.000255 0.015381 0.000000 0.023239 0.000000
# 4 0.000000 0.000000 0.000000 -0.168962 0.000000 -0.107806
# 5 -0.023715 0.009314 0.023239 0.000000 0.152752 0.000000
# 6 0.000000 0.000000 0.000000 -0.107806 0.000000 -0.025171
#
#
# Mechanical properties :
#
#
# Convention : Reuss Voigt Hill
#
# Bulk Modulus (GPa) = 40.84991 42.01025 41.43008
# Shear Modulus (GPa) = 247.42354 25.54314 136.48334
#
# Velocity S-wave (km/s) = 10.90835 3.50490 8.10174
# Velocity P-wave (km/s) = 13.35297 6.04838 10.36544
#
# Compressibility (1/GPa) = 0.02447986
#
# Stress axis : x y z
#
# Youngs Moduli (GPa) = 67.54342 114.04752 65.01676
#
# Poissons Ratio (x) = 0.16736 0.39171
# Poissons Ratio (y) = 0.09912 -0.01658
# Poissons Ratio (z) = 0.40694 -0.02909
#
# Static dielectric constant tensor:
#      x y z
#    x 1.543610 0.000000 -0.235700 
#    y 0.000000 1.824170 0.000000 
#    z -0.235700 0.000000 1.478780 
# 
# From -- ./inp_files/65042.got.cif
#   From: 2010.05.17/outbox.cif.g08.bks.cpg/sg13_33_cif.got.tgz:65042.got - 2010.06.03 16:44:36.
