data_PCOD9228044
_publ_section_title
;
Structure prediction by ZEFSAII (Michael W. Deem and Ramdas Pophale) SiO2 
 PCOD9228044
Probable space group: P 2/C
;
_chemical_formula_sum "Si O2"
_cell_formula_units_Z 28
_cell_length_a 5.366642
_cell_length_b 19.468661
_cell_length_c 13.584565
_cell_angle_alpha 90.000000
_cell_angle_beta 108.566360
_cell_angle_gamma 90.000000
_cell_volume 1345.464993
_symmetry_space_group_name_H-M "P 2/C"
_symmetry_group_IT_number 13
_symmetry_cell_setting 'monoclinic'
loop_
_space_group_symop_operation_xyz
x,y,z
-x,y,1/2-z
-x,-y,-z
x,-y,1/2+z
loop_
_atom_site_type_symbol
_atom_site_label
_atom_site_fract_x
_atom_site_fract_y
_atom_site_fract_z
Si Si1 0.729416 0.913941 0.952418
Si Si2 0.628894 0.235150 0.520984
Si Si3 0.137052 0.513833 0.863270
Si Si4 0.744591 0.828282 0.246700
Si Si5 0.329511 0.569055 0.087584
Si Si6 0.835553 0.976494 0.631348
Si Si7 0.168690 0.281525 0.567628
O O1 0.451177 0.944805 0.881905
O O2 0.980943 0.928199 0.915488
O O3 0.683889 0.834006 0.968221
O O4 0.786710 0.955166 0.060729
O O5 0.678539 0.215895 0.642164
O O6 0.326759 0.258282 0.489846
O O7 0.853629 0.288892 0.517276
O O8 0.382844 0.464642 0.863847
O O9 0.000000 0.545993 0.750000
O O10 0.900505 0.471543 0.884730
O O11 0.255735 0.563154 0.962108
O O12 0.500000 0.872794 0.250000
O O13 0.802427 0.776318 0.343617
O O14 0.000000 0.868283 0.250000
O O15 0.305707 0.647867 0.115984
O O16 0.000000 0.984916 0.750000
#
# Coordination Sequence:
#
# PCOD9228044 Si02
#       7
#     4   4   4   4   4   4   4
#     4  10  21  37  57  86 114 144 190 231 279 338
#     4  10  19  32  51  77 111 141 171 218 273 330
#     4  10  21  36  56  79 108 147 186 231 276 320
#     4   8  16  27  41  67 100 135 165 193 252 317
#     4  10  21  36  55  83 111 142 187 228 275 337
#     4  10  21  38  60  82 110 150 190 236 280 322
#     4  10  19  32  50  76 112 144 173 216 274 334
#
# _framework density 20.810648
#
# number of rings (size 3 to 8) (size 9 to 14) (size 15 to 20)
#    0.000    2.286    0.000    2.571    0.000    6.857 
#    0.000    7.143    0.000    5.143    0.000    0.000 
#    0.000    0.000    0.000    0.000    0.000    0.000 
#
# Total GULP energy -156064.394120 kJ/mol
# GULP energy per Si atom -5573.728361 kJ/mol
# Density = 2.076328 g / cm^3
# Si number density = 20.810648 Si / 1000 Ang^3
#
#
#
# Elastic Constant Matrix: (Units=GPa)
#
#
# Indices 1 2 3 4 5 6 
#
# 1 147.0997 2.1143 17.0894 0.0000 -0.9841 0.0000
# 2 2.1143 33.6985 4.9074 0.0000 -5.7407 0.0000
# 3 17.0894 4.9074 65.5155 0.0000 26.1990 0.0000
# 4 0.0000 0.0000 0.0000 7.4133 0.0000 -0.9523
# 5 -0.9841 -5.7407 26.1990 0.0000 21.5897 0.0000
# 6 0.0000 0.0000 0.0000 -0.9523 0.0000 9.9258
#
#
#
# Elastic Compliance Matrix: (Units=1/GPa)
#
#
# Indices 1 2 3 4 5 6 
#
# 1 0.007332 0.001201 -0.004398 0.000000 0.005990 0.000000
# 2 0.001201 0.035922 -0.013299 0.000000 0.025745 0.000000
# 3 -0.004398 -0.013299 0.036720 0.000000 -0.048297 0.000000
# 4 0.000000 0.000000 0.000000 0.136575 0.000000 0.013103
# 5 0.005990 0.025745 -0.048297 0.000000 0.112045 0.000000
# 6 0.000000 0.000000 0.000000 0.013103 0.000000 0.102004
#
#
# Mechanical properties :
#
#
# Convention : Reuss Voigt Hill
#
# Bulk Modulus (GPa) = 21.28474 32.72622 27.00548
# Shear Modulus (GPa) = 10.43295 22.59927 16.51611
#
# Velocity S-wave (km/s) = 2.24146 3.29895 2.82021
# Velocity P-wave (km/s) = 4.11690 5.50187 4.85899
#
# Compressibility (1/GPa) = 0.04698202
#
# Stress axis : x y z
#
# Youngs Moduli (GPa) = 136.39107 27.83808 27.23291
#
# Poissons Ratio (x) = -0.03343 0.11977
# Poissons Ratio (y) = -0.16380 0.36217
# Poissons Ratio (z) = 0.59984 0.37022
#
# Static dielectric constant tensor:
#      x y z
#    x 1.878170 0.000000 0.029290 
#    y 0.000000 1.715810 0.000000 
#    z 0.029290 0.000000 1.758400 
# 
# From -- ./inp_files/26764.got.cif
#   From: 2010.05.17/outbox.cif.g08.bks.cpg/sg13_14_cif.got.tgz:26764.got - 2010.06.03 16:44:36.
