data_PCOD9228006
_publ_section_title
;
Structure prediction by ZEFSAII (Michael W. Deem and Ramdas Pophale) SiO2 
 PCOD9228006
Probable space group: P 2/C
;
_chemical_formula_sum "Si O2"
_cell_formula_units_Z 32
_cell_length_a 22.405018
_cell_length_b 9.096442
_cell_length_c 18.126564
_cell_angle_alpha 90.000000
_cell_angle_beta 19.922972
_cell_angle_gamma 90.000000
_cell_volume 1258.857333
_symmetry_space_group_name_H-M "P 2/C"
_symmetry_group_IT_number 13
_symmetry_cell_setting 'monoclinic'
loop_
_space_group_symop_operation_xyz
x,y,z
-x,y,1/2-z
-x,-y,-z
x,-y,1/2+z
loop_
_atom_site_type_symbol
_atom_site_label
_atom_site_fract_x
_atom_site_fract_y
_atom_site_fract_z
Si Si1 0.179037 0.669948 0.456216
Si Si2 0.823046 0.169372 0.756164
Si Si3 0.523405 0.987617 0.307825
Si Si4 0.197991 0.541606 0.588287
Si Si5 0.995310 0.921269 0.906551
Si Si6 0.667471 0.279754 0.439839
Si Si7 0.341601 0.426696 0.616037
Si Si8 0.620555 0.719116 0.684689
O O1 0.240209 0.637213 0.466774
O O2 0.303816 0.630891 0.242570
O O3 0.999425 0.574122 0.656324
O O4 0.106412 0.836134 0.538040
O O5 0.806065 0.342000 0.762401
O O6 0.873802 0.099913 0.618713
O O7 0.953344 0.090494 0.661071
O O8 0.635518 0.099544 0.990036
O O9 0.500000 0.940601 0.250000
O O10 0.671840 0.111581 0.143136
O O11 0.487064 0.838163 0.393726
O O12 0.332077 0.602464 0.493666
O O13 0.222447 0.378985 0.528868
O O14 0.168124 0.824979 0.728843
O O15 0.683543 0.398048 0.356050
O O16 0.519834 0.367082 0.368872
O O17 0.500000 0.719969 0.750000
#
# Coordination Sequence:
#
# PCOD9228006 Si02
#       8
#     4   4   4   4   4   4   4   4
#     4   9  20  35  53  90 119 163 189 236 293 362
#     4   8  15  29  48  77 108 137 177 234 276 336
#     4   9  19  31  48  78 105 141 178 238 300 338
#     4  10  20  35  57  84 123 153 196 234 298 356
#     4   8  15  30  51  77 108 145 182 221 285 335
#     4  10  19  31  53  84 109 140 189 253 287 341
#     4  10  19  32  55  88 115 144 200 245 297 340
#     4  10  19  35  54  85 109 150 196 247 294 348
#
# _framework density 25.419879000000002
#
# number of rings (size 3 to 8) (size 9 to 14) (size 15 to 20)
#    0.000    2.750    1.250    0.000    1.750    5.000 
#    0.000    0.000    0.000    0.750   55.250    0.000 
#    0.000    0.000    0.000    0.000    0.000    0.000 
#
# Total GULP energy -178400.871559 kJ/mol
# GULP energy per Si atom -5575.027236 kJ/mol
# Density = 2.536202 g / cm^3
# Si number density = 25.419879 Si / 1000 Ang^3
#
#
#
# Elastic Constant Matrix: (Units=GPa)
#
#
# Indices 1 2 3 4 5 6 
#
# 1 56.7384 27.6259 7.6907 0.0000 2.6900 0.0000
# 2 27.6259 142.7580 18.4423 0.0000 7.4259 0.0000
# 3 7.6907 18.4423 100.5768 0.0000 20.0313 0.0000
# 4 0.0000 0.0000 0.0000 32.8368 0.0000 8.0611
# 5 2.6900 7.4259 20.0313 0.0000 26.7104 0.0000
# 6 0.0000 0.0000 0.0000 8.0611 0.0000 16.4259
#
#
#
# Elastic Compliance Matrix: (Units=1/GPa)
#
#
# Indices 1 2 3 4 5 6 
#
# 1 0.019527 -0.003662 -0.000744 0.000000 -0.000391 0.000000
# 2 -0.003662 0.007894 -0.000945 0.000000 -0.001117 0.000000
# 3 -0.000744 -0.000945 0.011880 0.000000 -0.008572 0.000000
# 4 0.000000 0.000000 0.000000 0.034625 0.000000 -0.016992
# 5 -0.000391 -0.001117 -0.008572 0.000000 0.044217 0.000000
# 6 0.000000 0.000000 0.000000 -0.016992 0.000000 0.069218
#
#
# Mechanical properties :
#
#
# Convention : Reuss Voigt Hill
#
# Bulk Modulus (GPa) = 34.96658 45.28791 40.12724
# Shear Modulus (GPa) = 24.08515 31.61556 27.85036
#
# Velocity S-wave (km/s) = 3.08148 3.53049 3.31360
# Velocity P-wave (km/s) = 5.14258 5.87143 5.51905
#
# Compressibility (1/GPa) = 0.02859873
#
# Stress axis : x y z
#
# Youngs Moduli (GPa) = 51.21029 126.68207 84.17530
#
# Poissons Ratio (x) = 0.46396 0.06261
# Poissons Ratio (y) = 0.18755 0.07954
# Poissons Ratio (z) = 0.03809 0.11970
#
# Static dielectric constant tensor:
#      x y z
#    x 2.048780 0.000000 -0.084330 
#    y 0.000000 2.149610 0.000000 
#    z -0.084330 0.000000 2.126990 
# 
# From -- ./inp_files/82779.got.cif
#   From: 2010.05.17/outbox.cif.g08.bks.cpg/sg13_42_cif.got.tgz:82779.got - 2010.06.03 16:44:36.
