data_PCOD9228401
_publ_section_title
;
Structure prediction by ZEFSAII (Michael W. Deem and Ramdas Pophale) SiO2 
 PCOD9228401
Probable space group: P 2/C
;
_chemical_formula_sum "Si O2"
_cell_formula_units_Z 30
_cell_length_a 25.175026
_cell_length_b 11.605357
_cell_length_c 8.931716
_cell_angle_alpha 90.000000
_cell_angle_beta 39.377030
_cell_angle_gamma 90.000000
_cell_volume 1655.543754
_symmetry_space_group_name_H-M "P 2/C"
_symmetry_group_IT_number 13
_symmetry_cell_setting 'monoclinic'
loop_
_space_group_symop_operation_xyz
x,y,z
-x,y,1/2-z
-x,-y,-z
x,-y,1/2+z
loop_
_atom_site_type_symbol
_atom_site_label
_atom_site_fract_x
_atom_site_fract_y
_atom_site_fract_z
Si Si1 0.251540 0.746123 0.367152
Si Si2 0.324595 0.577283 0.785814
Si Si3 0.896686 0.106713 0.303968
Si Si4 0.000000 0.299173 0.250000
Si Si5 0.164190 0.439648 0.845851
Si Si6 0.088319 0.867539 0.075107
Si Si7 0.779094 0.309371 0.219653
Si Si8 0.402690 0.636299 0.929922
O O1 0.195742 0.855154 0.441525
O O2 0.205884 0.638723 0.384473
O O3 0.245733 0.725734 0.557412
O O4 0.345914 0.744119 0.103815
O O5 0.302513 0.666371 0.701930
O O6 0.382822 0.611610 0.798694
O O7 0.365334 0.468062 0.613503
O O8 0.232641 0.562866 0.063166
O O9 0.958014 0.210531 0.222292
O O10 0.923773 0.984135 0.307103
O O11 0.890218 0.099397 0.140815
O O12 0.926590 0.380804 0.477884
O O13 0.166190 0.573242 0.887504
O O14 0.000000 0.803062 0.250000
O O15 0.161556 0.788389 0.977863
O O16 0.500000 0.648551 0.750000
#
# Coordination Sequence:
#
# PCOD9228401 Si02
#       8
#     4   4   4   2   4   4   4   4
#     4   9  19  38  53  76 112 145 178 228 275 333
#     4  11  20  34  54  77 118 150 177 220 272 341
#     4  10  22  39  54  75 108 148 191 240 279 315
#     4  10  22  34  56  76 110 152 194 234 280 312
#     4  10  19  34  54  74 112 153 182 224 274 325
#     4  11  24  36  55  79 108 145 198 244 266 313
#     4  11  20  35  53  79 110 148 185 227 273 326
#     4  11  20  34  57  86 111 145 180 223 277 337
#
# _framework density 18.120934999999999
#
# number of rings (size 3 to 8) (size 9 to 14) (size 15 to 20)
#    0.000    1.600    4.667    0.800    2.800    2.133 
#    0.000    2.667    0.000    0.000    0.000    9.333 
#    0.000    0.000    0.000    0.000    0.000    0.000 
#
# Total GULP energy -167179.287962 kJ/mol
# GULP energy per Si atom -5572.642932 kJ/mol
# Density = 1.807969 g / cm^3
# Si number density = 18.120935 Si / 1000 Ang^3
#
#
#
# Elastic Constant Matrix: (Units=GPa)
#
#
# Indices 1 2 3 4 5 6 
#
# 1 70.3122 2.8646 25.6718 0.0000 -11.4702 0.0000
# 2 2.8646 32.3987 3.9102 0.0000 -8.0411 0.0000
# 3 25.6718 3.9102 57.6613 0.0000 -23.7641 0.0000
# 4 0.0000 0.0000 0.0000 16.1306 0.0000 -0.8704
# 5 -11.4702 -8.0411 -23.7641 0.0000 35.6486 0.0000
# 6 0.0000 0.0000 0.0000 -0.8704 0.0000 13.7628
#
#
#
# Elastic Compliance Matrix: (Units=1/GPa)
#
#
# Indices 1 2 3 4 5 6 
#
# 1 0.016999 -0.000502 -0.007345 0.000000 0.000460 0.000000
# 2 -0.000502 0.032765 0.001353 0.000000 0.008131 0.000000
# 3 -0.007345 0.001353 0.027125 0.000000 0.016024 0.000000
# 4 0.000000 0.000000 0.000000 0.062206 0.000000 0.003934
# 5 0.000460 0.008131 0.016024 0.000000 0.040715 0.000000
# 6 0.000000 0.000000 0.000000 0.003934 0.000000 0.072909
#
#
# Mechanical properties :
#
#
# Convention : Reuss Voigt Hill
#
# Bulk Modulus (GPa) = 15.64944 25.02950 20.33947
# Shear Modulus (GPa) = 17.42111 21.63678 19.52895
#
# Velocity S-wave (km/s) = 3.10398 3.45921 3.28640
# Velocity P-wave (km/s) = 4.63693 5.45869 5.06450
#
# Compressibility (1/GPa) = 0.06390006
#
# Stress axis : x y z
#
# Youngs Moduli (GPa) = 58.82534 30.52082 36.86648
#
# Poissons Ratio (x) = 0.01533 0.27077
# Poissons Ratio (y) = 0.02955 -0.04987
# Poissons Ratio (z) = 0.43206 -0.04128
#
# Static dielectric constant tensor:
#      x y z
#    x 1.654360 0.000000 0.009210 
#    y 0.000000 1.631060 0.000000 
#    z 0.009210 0.000000 1.666570 
# 
# From -- ./inp_files/24138.got.cif
#   From: 2010.05.17/outbox.cif.g08.bks.cpg/sg13_13_cif.got.tgz:24138.got - 2010.06.03 16:44:36.
