data_PCOD9228620
_publ_section_title
;
Structure prediction by ZEFSAII (Michael W. Deem and Ramdas Pophale) SiO2 
 PCOD9228620
Probable space group: P 2/C
;
_chemical_formula_sum "Si O2"
_cell_formula_units_Z 24
_cell_length_a 13.816706
_cell_length_b 14.645372
_cell_length_c 10.315346
_cell_angle_alpha 90.000000
_cell_angle_beta 34.119479
_cell_angle_gamma 90.000000
_cell_volume 1170.819699
_symmetry_space_group_name_H-M "P 2/C"
_symmetry_group_IT_number 13
_symmetry_cell_setting 'monoclinic'
loop_
_space_group_symop_operation_xyz
x,y,z
-x,y,1/2-z
-x,-y,-z
x,-y,1/2+z
loop_
_atom_site_type_symbol
_atom_site_label
_atom_site_fract_x
_atom_site_fract_y
_atom_site_fract_z
Si Si1 0.737981 0.403085 0.211311
Si Si2 0.672693 0.391755 0.778900
Si Si3 0.127190 0.096639 0.731040
Si Si4 0.704866 0.711485 0.500243
Si Si5 0.117384 0.103270 0.248382
Si Si6 0.182923 0.701086 0.621688
O O1 0.530605 0.399711 0.464926
O O2 0.764599 0.510479 0.158288
O O3 0.784058 0.339638 0.037476
O O4 0.821419 0.363876 0.248963
O O5 0.688951 0.335695 0.629091
O O6 0.750977 0.341023 0.816871
O O7 0.246187 0.183287 0.573371
O O8 0.000000 0.092848 0.750000
O O9 0.209274 0.995417 0.654521
O O10 0.011045 0.111463 0.987300
O O11 0.500000 0.705404 0.750000
O O12 0.225671 0.195979 0.119828
O O13 0.000000 0.100956 0.250000
O O14 0.000000 0.702343 0.750000
#
# Coordination Sequence:
#
# PCOD9228620 Si02
#       6
#     4   4   4   4   4   4
#     4  10  21  38  57  77 106 148 184 212 263 326
#     4  10  21  38  57  76 107 148 183 214 260 326
#     4  10  19  35  57  77 104 142 178 213 263 326
#     4  10  20  34  55  82 108 137 179 227 265 305
#     4   9  19  34  55  78 104 141 178 211 262 325
#     4  11  21  35  56  83 110 135 177 230 268 305
#
# _framework density 20.498459
#
# number of rings (size 3 to 8) (size 9 to 14) (size 15 to 20)
#    0.000    2.000    0.000    4.500    0.000    3.333 
#    0.000    5.000    0.000   13.000    0.000    0.000 
#    0.000    0.000    0.000    0.000    0.000    0.000 
#
# Total GULP energy -133977.152574 kJ/mol
# GULP energy per Si atom -5582.381357 kJ/mol
# Density = 2.045180 g / cm^3
# Si number density = 20.498459 Si / 1000 Ang^3
#
#
#
# Elastic Constant Matrix: (Units=GPa)
#
#
# Indices 1 2 3 4 5 6 
#
# 1 65.7206 23.1241 26.7083 0.0000 32.2227 0.0000
# 2 23.1241 183.9400 56.2789 0.0000 17.4665 0.0000
# 3 26.7083 56.2789 81.7547 0.0000 37.0525 0.0000
# 4 0.0000 0.0000 0.0000 60.9378 0.0000 21.3231
# 5 32.2227 17.4665 37.0525 0.0000 32.4576 0.0000
# 6 0.0000 0.0000 0.0000 21.3231 0.0000 44.3682
#
#
#
# Elastic Compliance Matrix: (Units=1/GPa)
#
#
# Indices 1 2 3 4 5 6 
#
# 1 0.033842 -0.003614 0.011970 0.000000 -0.045317 0.000000
# 2 -0.003614 0.007474 -0.007807 0.000000 0.008477 0.000000
# 3 0.011970 -0.007807 0.035591 0.000000 -0.048312 0.000000
# 4 0.000000 0.000000 0.000000 0.019728 0.000000 -0.009481
# 5 -0.045317 0.008477 -0.048312 0.000000 0.126388 0.000000
# 6 0.000000 0.000000 0.000000 -0.009481 0.000000 0.027095
#
#
# Mechanical properties :
#
#
# Convention : Reuss Voigt Hill
#
# Bulk Modulus (GPa) = 12.81942 60.40422 36.61182
# Shear Modulus (GPa) = 18.18044 42.57298 30.37671
#
# Velocity S-wave (km/s) = 2.98135 4.56223 3.85372
# Velocity P-wave (km/s) = 4.25660 7.56859 6.14012
#
# Compressibility (1/GPa) = 0.07800667
#
# Stress axis : x y z
#
# Youngs Moduli (GPa) = 29.54950 133.78870 28.09687
#
# Poissons Ratio (x) = 0.48347 -0.33633
# Poissons Ratio (y) = 0.10678 0.21935
# Poissons Ratio (z) = -0.35372 1.04447
#
# Static dielectric constant tensor:
#      x y z
#    x 1.728290 0.000000 -0.027950 
#    y 0.000000 1.781630 0.000000 
#    z -0.027950 0.000000 1.722520 
# 
# From -- ./inp_files/19461.got.cif
#   From: 2010.05.17/outbox.cif.g08.bks.cpg/sg13_10_cif.got.tgz:19461.got - 2010.06.03 16:44:36.
