data_PCOD9228008
_publ_section_title
;
Structure prediction by ZEFSAII (Michael W. Deem and Ramdas Pophale) SiO2 
 PCOD9228008
Probable space group: P 2/C
;
_chemical_formula_sum "Si O2"
_cell_formula_units_Z 24
_cell_length_a 21.765766
_cell_length_b 6.428119
_cell_length_c 26.862165
_cell_angle_alpha 90.000000
_cell_angle_beta 163.616045
_cell_angle_gamma 90.000000
_cell_volume 1060.132352
_symmetry_space_group_name_H-M "P 2/C"
_symmetry_group_IT_number 13
_symmetry_cell_setting 'monoclinic'
loop_
_space_group_symop_operation_xyz
x,y,z
-x,y,1/2-z
-x,-y,-z
x,-y,1/2+z
loop_
_atom_site_type_symbol
_atom_site_label
_atom_site_fract_x
_atom_site_fract_y
_atom_site_fract_z
Si Si1 0.312814 0.298484 0.720104
Si Si2 0.907902 0.536877 0.801649
Si Si3 0.764554 0.080910 0.928189
Si Si4 0.600573 0.129960 0.033056
Si Si5 0.010308 0.852464 0.316976
Si Si6 0.906525 0.711678 0.965613
O O1 0.400528 0.214253 0.734954
O O2 0.448085 0.185286 0.868066
O O3 0.058129 0.243360 0.536015
O O4 0.288947 0.550414 0.699028
O O5 0.681520 0.647881 0.616045
O O6 0.974400 0.379255 0.809877
O O7 0.930751 0.407387 0.869862
O O8 0.072251 0.729473 0.933926
O O9 0.776603 0.948331 0.988815
O O10 0.829855 0.905938 0.938265
O O11 0.500000 0.000000 0.000000
O O12 0.805206 0.991836 0.174662
O O13 0.000000 0.855564 0.250000
#
# Coordination Sequence:
#
# PCOD9228008 Si02
#       6
#     4   4   4   4   4   4
#     4  10  19  31  53  85 120 156 192 238 297 356
#     4   9  19  35  55  82 115 155 201 243 296 363
#     4   9  18  35  57  80 110 152 199 241 290 355
#     4  11  23  37  59  93 125 154 196 255 307 352
#     4  10  22  40  61  83 115 161 205 249 301 361
#     4   9  18  32  53  82 120 160 192 234 296 362
#
# _framework density 22.638681999999999
#
# number of rings (size 3 to 8) (size 9 to 14) (size 15 to 20)
#    0.000    2.333    0.000    3.500    0.000    9.333 
#    0.000    0.833    0.000    0.000    0.000    0.000 
#    0.000    0.000    0.000    0.000    0.000    0.000 
#
# Total GULP energy -133632.545752 kJ/mol
# GULP energy per Si atom -5568.022740 kJ/mol
# Density = 2.258716 g / cm^3
# Si number density = 22.638682 Si / 1000 Ang^3
#
#
#
# Elastic Constant Matrix: (Units=GPa)
#
#
# Indices 1 2 3 4 5 6 
#
# 1 108.0296 42.0161 26.8929 0.0000 -31.1225 0.0000
# 2 42.0161 129.8944 26.6232 0.0000 -9.0965 0.0000
# 3 26.8929 26.6232 65.6886 0.0000 -27.9378 0.0000
# 4 0.0000 0.0000 0.0000 37.5300 0.0000 -12.4978
# 5 -31.1225 -9.0965 -27.9378 0.0000 39.7808 0.0000
# 6 0.0000 0.0000 0.0000 -12.4978 0.0000 30.4528
#
#
#
# Elastic Compliance Matrix: (Units=1/GPa)
#
#
# Indices 1 2 3 4 5 6 
#
# 1 0.013487 -0.003707 0.000154 0.000000 0.009812 0.000000
# 2 -0.003707 0.009427 -0.003736 0.000000 -0.003368 0.000000
# 3 0.000154 -0.003736 0.023331 0.000000 0.015651 0.000000
# 4 0.000000 0.000000 0.000000 0.030863 0.000000 0.012666
# 5 0.009812 -0.003368 0.015651 0.000000 0.043036 0.000000
# 6 0.000000 0.000000 0.000000 0.012666 0.000000 0.038036
#
#
# Mechanical properties :
#
#
# Convention : Reuss Voigt Hill
#
# Bulk Modulus (GPa) = 31.57755 54.96411 43.27083
# Shear Modulus (GPa) = 27.27563 35.42475 31.35019
#
# Velocity S-wave (km/s) = 3.47482 3.96003 3.72534
# Velocity P-wave (km/s) = 5.48434 6.72612 6.13672
#
# Compressibility (1/GPa) = 0.03166807
#
# Stress axis : x y z
#
# Youngs Moduli (GPa) = 74.14619 106.07345 42.86132
#
# Poissons Ratio (x) = 0.39321 -0.00660
# Poissons Ratio (y) = 0.27486 0.16012
# Poissons Ratio (z) = -0.01142 0.39625
#
# Static dielectric constant tensor:
#      x y z
#    x 1.991940 0.000000 -0.090970 
#    y 0.000000 1.869260 0.000000 
#    z -0.090970 0.000000 1.967940 
# 
# From -- ./inp_files/93749.got.cif
#   From: 2010.05.17/outbox.cif.g08.bks.cpg/sg13_47_cif.got.tgz:93749.got - 2010.06.03 16:44:36.
