data_PCOD9228022
_publ_section_title
;
Structure prediction by ZEFSAII (Michael W. Deem and Ramdas Pophale) SiO2 
 PCOD9228022
Probable space group: P 2/C
;
_chemical_formula_sum "Si O2"
_cell_formula_units_Z 20
_cell_length_a 5.324669
_cell_length_b 10.197129
_cell_length_c 21.732894
_cell_angle_alpha 90.000000
_cell_angle_beta 55.551900
_cell_angle_gamma 90.000000
_cell_volume 973.087552
_symmetry_space_group_name_H-M "P 2/C"
_symmetry_group_IT_number 13
_symmetry_cell_setting 'monoclinic'
loop_
_space_group_symop_operation_xyz
x,y,z
-x,y,1/2-z
-x,-y,-z
x,-y,1/2+z
loop_
_atom_site_type_symbol
_atom_site_label
_atom_site_fract_x
_atom_site_fract_y
_atom_site_fract_z
Si Si1 0.316225 0.996233 0.090574
Si Si2 0.142784 0.100331 0.430025
Si Si3 0.364284 0.694131 0.117030
Si Si4 0.765518 0.443015 0.668649
Si Si5 0.886447 0.387435 0.469567
O O1 0.342014 0.850150 0.113112
O O2 0.497814 0.089991 0.111315
O O3 0.987689 0.049612 0.116665
O O4 0.500000 0.000000 0.000000
O O5 0.028502 0.244792 0.461806
O O6 0.000000 0.000000 0.500000
O O7 0.586349 0.642024 0.140677
O O8 0.019705 0.643810 0.167578
O O9 0.528540 0.636831 0.032121
O O10 0.500000 0.490037 0.750000
O O11 0.968982 0.561070 0.613401
O O12 0.000000 0.500000 0.500000
#
# Coordination Sequence:
#
# PCOD9228022 Si02
#       5
#     4   4   4   4   4
#     4  10  19  31  59  89 125 146 191 248 313 344
#     4  10  19  33  54  89 131 150 184 252 314 345
#     4  11  21  39  64  92 118 160 211 255 299 366
#     4  11  25  41  59  85 129 168 203 250 311 365
#     4  10  22  36  63  96 122 155 210 258 301 366
#
# _framework density 20.553135000000001
#
# number of rings (size 3 to 8) (size 9 to 14) (size 15 to 20)
#    0.000    1.600    4.000    2.400    8.400    3.200 
#    0.000    0.000    0.000    7.200    0.000    0.000 
#    0.000    0.000    0.000    0.000    0.000    0.000 
#
# Total GULP energy -111457.884587 kJ/mol
# GULP energy per Si atom -5572.894229 kJ/mol
# Density = 2.050635 g / cm^3
# Si number density = 20.553135 Si / 1000 Ang^3
#
#
#
# Elastic Constant Matrix: (Units=GPa)
#
#
# Indices 1 2 3 4 5 6 
#
# 1 147.9031 11.8546 3.4651 0.0000 -10.1879 0.0000
# 2 11.8546 110.2570 4.7143 0.0000 4.0722 0.0000
# 3 3.4651 4.7143 60.5728 0.0000 -14.9664 0.0000
# 4 0.0000 0.0000 0.0000 10.2911 0.0000 -1.5230
# 5 -10.1879 4.0722 -14.9664 0.0000 23.0327 0.0000
# 6 0.0000 0.0000 0.0000 -1.5230 0.0000 22.3003
#
#
#
# Elastic Compliance Matrix: (Units=1/GPa)
#
#
# Indices 1 2 3 4 5 6 
#
# 1 0.007074 -0.000920 0.000572 0.000000 0.003663 0.000000
# 2 -0.000920 0.009339 -0.001409 0.000000 -0.002974 0.000000
# 3 0.000572 -0.001409 0.019906 0.000000 0.013437 0.000000
# 4 0.000000 0.000000 0.000000 0.098163 0.000000 0.006704
# 5 0.003663 -0.002974 0.013437 0.000000 0.054294 0.000000
# 6 0.000000 0.000000 0.000000 0.006704 0.000000 0.045300
#
#
# Mechanical properties :
#
#
# Convention : Reuss Voigt Hill
#
# Bulk Modulus (GPa) = 30.48378 39.86678 35.17528
# Shear Modulus (GPa) = 20.11871 31.03809 25.57840
#
# Velocity S-wave (km/s) = 3.13207 3.89027 3.53158
# Velocity P-wave (km/s) = 5.28618 6.29428 5.81213
#
# Compressibility (1/GPa) = 0.03280434
#
# Stress axis : x y z
#
# Youngs Moduli (GPa) = 141.36497 107.08081 50.23619
#
# Poissons Ratio (x) = 0.09855 -0.02874
# Poissons Ratio (y) = 0.13010 0.07078
# Poissons Ratio (z) = -0.08088 0.15087
#
# Static dielectric constant tensor:
#      x y z
#    x 1.877820 0.000000 0.029730 
#    y 0.000000 1.716900 0.000000 
#    z 0.029730 0.000000 1.741320 
# 
# From -- ./inp_files/83280.got.cif
#   From: 2010.05.17/outbox.cif.g08.bks.cpg/sg13_42_cif.got.tgz:83280.got - 2010.06.03 16:44:36.
