data_PCOD9228859
_publ_section_title
;
Structure prediction by ZEFSAII (Michael W. Deem and Ramdas Pophale) SiO2 
 PCOD9228859
Probable space group: P 2/C
;
_chemical_formula_sum "Si O2"
_cell_formula_units_Z 20
_cell_length_a 9.212249
_cell_length_b 7.225100
_cell_length_c 13.211773
_cell_angle_alpha 90.000000
_cell_angle_beta 98.084582
_cell_angle_gamma 90.000000
_cell_volume 870.628386
_symmetry_space_group_name_H-M "P 2/C"
_symmetry_group_IT_number 13
_symmetry_cell_setting 'monoclinic'
loop_
_space_group_symop_operation_xyz
x,y,z
-x,y,1/2-z
-x,-y,-z
x,-y,1/2+z
loop_
_atom_site_type_symbol
_atom_site_label
_atom_site_fract_x
_atom_site_fract_y
_atom_site_fract_z
Si Si1 0.841950 0.874848 0.524841
Si Si2 0.466116 0.783879 0.021873
Si Si3 0.027133 0.420264 0.134021
Si Si4 0.776377 0.284669 0.590004
Si Si5 0.265111 0.705710 0.173292
O O1 0.693231 0.762332 0.546905
O O2 0.982721 0.771489 0.580039
O O3 0.828950 0.853762 0.402104
O O4 0.824839 0.081009 0.560939
O O5 0.618841 0.678907 0.020325
O O6 0.420275 0.737416 0.133594
O O7 0.500000 0.000000 0.000000
O O8 0.905347 0.569040 0.085158
O O9 0.812898 0.510282 0.361125
O O10 0.000000 0.399573 0.250000
O O11 0.748062 0.273680 0.708496
#
# Coordination Sequence:
#
# PCOD9228859 Si02
#       5
#     4   4   4   4   4
#     4   9  20  36  57  80 116 144 188 234 282 334
#     4   8  17  34  58  82 109 150 186 228 285 340
#     4  10  21  35  55  82 113 148 193 234 280 341
#     4  10  19  36  58  83 113 147 187 235 283 340
#     4   9  19  35  59  81 113 155 182 227 295 334
#
# _framework density 22.971913000000001
#
# number of rings (size 3 to 8) (size 9 to 14) (size 15 to 20)
#    1.200    1.600    0.000    1.200    0.000    4.000 
#    0.000    4.000    0.000    4.800    0.000    0.000 
#    0.000    0.000    0.000    0.000    0.000    0.000 
#
# Total GULP energy -111401.247435 kJ/mol
# GULP energy per Si atom -5570.062372 kJ/mol
# Density = 2.291963 g / cm^3
# Si number density = 22.971913 Si / 1000 Ang^3
#
#
#
# Elastic Constant Matrix: (Units=GPa)
#
#
# Indices 1 2 3 4 5 6 
#
# 1 126.4672 55.9835 27.6703 0.0000 -6.2817 0.0000
# 2 55.9835 70.9651 15.4498 0.0000 1.6768 0.0000
# 3 27.6703 15.4498 61.4097 0.0000 -2.0311 0.0000
# 4 0.0000 0.0000 0.0000 21.7314 0.0000 -4.7939
# 5 -6.2817 1.6768 -2.0311 0.0000 33.4632 0.0000
# 6 0.0000 0.0000 0.0000 -4.7939 0.0000 39.9227
#
#
#
# Elastic Compliance Matrix: (Units=1/GPa)
#
#
# Indices 1 2 3 4 5 6 
#
# 1 0.013035 -0.009615 -0.003364 0.000000 0.002725 0.000000
# 2 -0.009615 0.022032 -0.001309 0.000000 -0.002988 0.000000
# 3 -0.003364 -0.001309 0.018147 0.000000 0.000536 0.000000
# 4 0.000000 0.000000 0.000000 0.047268 0.000000 0.005676
# 5 0.002725 -0.002988 0.000536 0.000000 0.030577 0.000000
# 6 0.000000 0.000000 0.000000 0.005676 0.000000 0.025730
#
#
# Mechanical properties :
#
#
# Convention : Reuss Voigt Hill
#
# Bulk Modulus (GPa) = 40.58955 50.78323 45.68639
# Shear Modulus (GPa) = 25.82917 29.67269 27.75093
#
# Velocity S-wave (km/s) = 3.35682 3.59791 3.47945
# Velocity P-wave (km/s) = 5.72118 6.27811 6.00610
#
# Compressibility (1/GPa) = 0.02463688
#
# Stress axis : x y z
#
# Youngs Moduli (GPa) = 76.71720 45.38796 55.10527
#
# Poissons Ratio (x) = 0.43641 0.18539
# Poissons Ratio (y) = 0.73764 0.07216
# Poissons Ratio (z) = 0.25809 0.05943
#
# Static dielectric constant tensor:
#      x y z
#    x 2.005510 0.000000 -0.021460 
#    y 0.000000 1.819090 0.000000 
#    z -0.021460 0.000000 1.866750 
# 
# From -- ./inp_files/49085.got.cif
#   From: 2010.05.17/outbox.cif.g08.bks.cpg/sg13_25_cif.got.tgz:49085.got - 2010.06.03 16:44:36.
