data_PCOD9228655
_publ_section_title
;
Structure prediction by ZEFSAII (Michael W. Deem and Ramdas Pophale) SiO2 
 PCOD9228655
Probable space group: P 2/C
;
_chemical_formula_sum "Si O2"
_cell_formula_units_Z 22
_cell_length_a 14.495079
_cell_length_b 12.436974
_cell_length_c 17.379218
_cell_angle_alpha 90.000000
_cell_angle_beta 159.755243
_cell_angle_gamma 90.000000
_cell_volume 1084.128616
_symmetry_space_group_name_H-M "P 2/C"
_symmetry_group_IT_number 13
_symmetry_cell_setting 'monoclinic'
loop_
_space_group_symop_operation_xyz
x,y,z
-x,y,1/2-z
-x,-y,-z
x,-y,1/2+z
loop_
_atom_site_type_symbol
_atom_site_label
_atom_site_fract_x
_atom_site_fract_y
_atom_site_fract_z
Si Si1 0.196084 0.209335 0.776264
Si Si2 0.780065 0.970973 0.928401
Si Si3 0.000000 0.351404 0.750000
Si Si4 0.773551 0.505746 0.934916
Si Si5 0.061115 0.335352 0.056481
Si Si6 0.263976 0.890050 0.775861
O O1 0.202250 0.274081 0.861198
O O2 0.165100 0.291157 0.680245
O O3 0.922181 0.140638 0.563808
O O4 0.442861 0.127698 0.959572
O O5 0.500000 0.990650 0.750000
O O6 0.720837 0.957923 0.791293
O O7 0.012281 0.059135 0.123503
O O8 0.887539 0.428236 0.595833
O O9 0.500000 0.456516 0.750000
O O10 0.954598 0.414895 0.038480
O O11 0.742274 0.594874 0.843195
O O12 0.184148 0.230708 0.190224
#
# Coordination Sequence:
#
# PCOD9228655 Si02
#       6
#     4   4   2   4   4   4
#     4  10  19  35  58  84 113 151 191 234 283 338
#     4  10  21  35  55  84 115 146 188 239 282 331
#     4  10  20  32  58  86 106 146 196 234 278 332
#     4  10  20  36  55  80 112 146 187 237 284 334
#     4   9  21  36  54  81 113 147 188 235 284 337
#     4  10  20  36  56  79 112 152 190 229 283 341
#
# _framework density 20.292795999999999
#
# number of rings (size 3 to 8) (size 9 to 14) (size 15 to 20)
#    0.000    2.182    0.000    2.727    0.000    7.273 
#    0.000    5.455    0.000    9.818    0.000    0.000 
#    0.000    0.000    0.000    0.000    0.000    0.000 
#
# Total GULP energy -122688.094918 kJ/mol
# GULP energy per Si atom -5576.731587 kJ/mol
# Density = 2.024661 g / cm^3
# Si number density = 20.292796 Si / 1000 Ang^3
#
#
#
# Elastic Constant Matrix: (Units=GPa)
#
#
# Indices 1 2 3 4 5 6 
#
# 1 109.5384 41.1590 48.7385 0.0000 19.2531 0.0000
# 2 41.1590 72.5813 27.1499 0.0000 5.6725 0.0000
# 3 48.7385 27.1499 82.9071 0.0000 21.1765 0.0000
# 4 0.0000 0.0000 0.0000 13.2882 0.0000 -5.7477
# 5 19.2531 5.6725 21.1765 0.0000 27.1338 0.0000
# 6 0.0000 0.0000 0.0000 -5.7477 0.0000 29.6945
#
#
#
# Elastic Compliance Matrix: (Units=1/GPa)
#
#
# Indices 1 2 3 4 5 6 
#
# 1 0.014607 -0.005877 -0.005407 0.000000 -0.004916 0.000000
# 2 -0.005877 0.018083 -0.003206 0.000000 0.002891 0.000000
# 3 -0.005407 -0.003206 0.018908 0.000000 -0.010250 0.000000
# 4 0.000000 0.000000 0.000000 0.082131 0.000000 0.015897
# 5 -0.004916 0.002891 -0.010250 0.000000 0.047738 0.000000
# 6 0.000000 0.000000 0.000000 0.015897 0.000000 0.036753
#
#
# Mechanical properties :
#
#
# Convention : Reuss Voigt Hill
#
# Bulk Modulus (GPa) = 44.20801 55.45796 49.83298
# Shear Modulus (GPa) = 19.62788 23.88859 21.75823
#
# Velocity S-wave (km/s) = 3.11341 3.43475 3.27802
# Velocity P-wave (km/s) = 5.89549 6.56645 6.23999
#
# Compressibility (1/GPa) = 0.02262034
#
# Stress axis : x y z
#
# Youngs Moduli (GPa) = 68.45892 55.29971 52.88722
#
# Poissons Ratio (x) = 0.32498 0.28596
# Poissons Ratio (y) = 0.40231 0.16953
# Poissons Ratio (z) = 0.37016 0.17727
#
# Static dielectric constant tensor:
#      x y z
#    x 1.705810 0.000000 -0.015210 
#    y 0.000000 1.727970 0.000000 
#    z -0.015210 0.000000 1.764610 
# 
# From -- ./inp_files/37246.got.cif
#   From: 2010.05.17/outbox.cif.g08.bks.cpg/sg13_19_cif.got.tgz:37246.got - 2010.06.03 16:44:36.
