data_PCOD9228746
_publ_section_title
;
Structure prediction by ZEFSAII (Michael W. Deem and Ramdas Pophale) SiO2 
 PCOD9228746
Probable space group: P 2/C
;
_chemical_formula_sum "Si O2"
_cell_formula_units_Z 32
_cell_length_a 8.952035
_cell_length_b 10.468313
_cell_length_c 22.442404
_cell_angle_alpha 90.000000
_cell_angle_beta 131.450349
_cell_angle_gamma 90.000000
_cell_volume 1576.364564
_symmetry_space_group_name_H-M "P 2/C"
_symmetry_group_IT_number 13
_symmetry_cell_setting 'monoclinic'
loop_
_space_group_symop_operation_xyz
x,y,z
-x,y,1/2-z
-x,-y,-z
x,-y,1/2+z
loop_
_atom_site_type_symbol
_atom_site_label
_atom_site_fract_x
_atom_site_fract_y
_atom_site_fract_z
Si Si1 0.208424 0.956111 0.502625
Si Si2 0.407581 0.409859 0.080505
Si Si3 0.997946 0.298027 0.998116
Si Si4 0.451704 0.696425 0.110599
Si Si5 0.629387 0.793800 0.722810
Si Si6 0.501915 0.061914 0.678817
Si Si7 0.517693 0.779137 0.517154
Si Si8 0.949438 0.190609 0.112117
O O1 0.090740 0.834323 0.497345
O O2 0.379428 0.892667 0.505762
O O3 0.306303 0.031443 0.585200
O O4 0.076024 0.052060 0.427466
O O5 0.169816 0.401115 0.029852
O O6 0.499593 0.548475 0.114855
O O7 0.519693 0.307786 0.152266
O O8 0.437152 0.352630 0.022845
O O9 0.969242 0.286147 0.061418
O O10 0.769392 0.309822 0.917627
O O11 0.575015 0.796850 0.181970
O O12 0.465489 0.763598 0.049342
O O13 0.500000 0.792855 0.750000
O O14 0.857919 0.777954 0.799113
O O15 0.623319 0.935965 0.694232
O O16 0.500000 0.059010 0.750000
O O17 0.747765 0.794635 0.595846
#
# Coordination Sequence:
#
# PCOD9228746 Si02
#       8
#     4   4   4   4   4   4   4   4
#     4  11  20  38  67  96 131 158 213 271 318 372
#     4  11  22  41  60  91 128 169 211 266 310 372
#     4  10  19  35  61  93 118 159 213 262 310 372
#     4  11  24  38  65  89 128 168 210 256 322 380
#     4  11  22  38  63  91 127 163 209 264 320 372
#     4  11  22  38  61  94 127 159 204 263 332 368
#     4  10  22  40  64  95 120 169 215 263 311 379
#     4  11  21  35  66  95 121 164 217 262 312 384
#
# _framework density 20.299873999999999
#
# number of rings (size 3 to 8) (size 9 to 14) (size 15 to 20)
#    0.000    1.250    6.250    2.250    3.500    1.000 
#    0.000    0.000    0.000    1.500    0.000    0.000 
#    0.000    0.000    0.000    0.000    0.000    0.000 
#
# Total GULP energy -178245.821553 kJ/mol
# GULP energy per Si atom -5570.181924 kJ/mol
# Density = 2.025367 g / cm^3
# Si number density = 20.299874 Si / 1000 Ang^3
#
#
#
# Elastic Constant Matrix: (Units=GPa)
#
#
# Indices 1 2 3 4 5 6 
#
# 1 109.9259 14.3294 18.9625 0.0000 5.5494 0.0000
# 2 14.3294 83.1049 2.3846 0.0000 -13.7096 0.0000
# 3 18.9625 2.3846 40.0793 0.0000 -4.8553 0.0000
# 4 0.0000 0.0000 0.0000 16.7543 0.0000 -3.7134
# 5 5.5494 -13.7096 -4.8553 0.0000 25.4922 0.0000
# 6 0.0000 0.0000 0.0000 -3.7134 0.0000 21.4919
#
#
#
# Elastic Compliance Matrix: (Units=1/GPa)
#
#
# Indices 1 2 3 4 5 6 
#
# 1 0.010585 -0.002436 -0.005426 0.000000 -0.004648 0.000000
# 2 -0.002436 0.013765 0.001325 0.000000 0.008186 0.000000
# 3 -0.005426 0.001325 0.028322 0.000000 0.007288 0.000000
# 4 0.000000 0.000000 0.000000 0.062063 0.000000 0.010723
# 5 -0.004648 0.008186 0.007288 0.000000 0.046030 0.000000
# 6 0.000000 0.000000 0.000000 0.010723 0.000000 0.048382
#
#
# Mechanical properties :
#
#
# Convention : Reuss Voigt Hill
#
# Bulk Modulus (GPa) = 25.25370 33.82923 29.54147
# Shear Modulus (GPa) = 21.23853 25.90991 23.57422
#
# Velocity S-wave (km/s) = 3.23807 3.57649 3.41148
# Velocity P-wave (km/s) = 5.14271 5.80999 5.48650
#
# Compressibility (1/GPa) = 0.03959816
#
# Stress axis : x y z
#
# Youngs Moduli (GPa) = 94.47044 72.64575 35.30829
#
# Poissons Ratio (x) = 0.17698 0.19159
# Poissons Ratio (y) = 0.23015 -0.04679
# Poissons Ratio (z) = 0.51263 -0.09628
#
# Static dielectric constant tensor:
#      x y z
#    x 1.692430 0.000000 -0.232650 
#    y 0.000000 1.774430 0.000000 
#    z -0.232650 0.000000 0.569300 
# 
# From -- ./inp_files/85139.got.cif
#   From: 2010.05.17/outbox.cif.g08.bks.cpg/sg13_43_cif.got.tgz:85139.got - 2010.06.03 16:44:36.
