data_PCOD9228537
_publ_section_title
;
Structure prediction by ZEFSAII (Michael W. Deem and Ramdas Pophale) SiO2 
 PCOD9228537
Probable space group: P 2/C
;
_chemical_formula_sum "Si O2"
_cell_formula_units_Z 32
_cell_length_a 20.643688
_cell_length_b 9.932381
_cell_length_c 19.846008
_cell_angle_alpha 90.000000
_cell_angle_beta 20.505344
_cell_angle_gamma 90.000000
_cell_volume 1425.435070
_symmetry_space_group_name_H-M "P 2/C"
_symmetry_group_IT_number 13
_symmetry_cell_setting 'monoclinic'
loop_
_space_group_symop_operation_xyz
x,y,z
-x,y,1/2-z
-x,-y,-z
x,-y,1/2+z
loop_
_atom_site_type_symbol
_atom_site_label
_atom_site_fract_x
_atom_site_fract_y
_atom_site_fract_z
Si Si1 0.769078 0.689539 0.156779
Si Si2 0.973969 0.751677 0.081638
Si Si3 0.679224 0.394825 0.237567
Si Si4 0.709075 0.309707 0.066646
Si Si5 0.727646 0.584100 0.409127
Si Si6 0.971375 0.770830 0.703122
Si Si7 0.576773 0.289134 0.598324
Si Si8 0.912362 0.066596 0.909023
O O1 0.846758 0.780039 0.141495
O O2 0.705524 0.541594 0.243061
O O3 0.592844 0.739349 0.286086
O O4 0.944122 0.676999 0.936011
O O5 0.882875 0.618954 0.203920
O O6 0.982314 0.866437 0.130455
O O7 0.185439 0.710867 0.858362
O O8 0.749463 0.403282 0.090999
O O9 0.464134 0.357708 0.436761
O O10 0.500000 0.333800 0.250000
O O11 0.801948 0.344397 0.905288
O O12 0.732854 0.160018 0.073546
O O13 0.665551 0.434752 0.491979
O O14 0.000000 0.712866 0.750000
O O15 0.754038 0.805510 0.913317
O O16 0.090217 0.907551 0.579750
O O17 0.500000 0.289554 0.750000
O O18 0.000000 0.084417 0.750000
#
# Coordination Sequence:
#
# PCOD9228537 Si02
#       8
#     4   4   4   4   4   4   4   4
#     4  11  23  40  60  94 124 158 204 240 304 366
#     4  11  22  37  62  90 128 162 194 248 302 356
#     4   9  20  34  57  90 126 154 197 238 298 366
#     4   9  17  34  59  88 114 152 194 253 295 352
#     4  10  19  34  59  90 125 155 192 242 303 357
#     4  11  24  42  63  83 117 161 206 260 294 341
#     4  11  22  41  63  91 121 157 204 249 299 363
#     4  10  21  41  58  87 117 156 212 249 291 354
#
# _framework density 22.449286000000001
#
# number of rings (size 3 to 8) (size 9 to 14) (size 15 to 20)
#    0.000    1.750    2.500    3.000    0.000    3.500 
#    4.500    0.625    0.000    0.000    0.000    0.000 
#    0.000    0.000    0.000    0.000    0.000    0.000 
#
# Total GULP energy -178367.216923 kJ/mol
# GULP energy per Si atom -5573.975529 kJ/mol
# Density = 2.239819 g / cm^3
# Si number density = 22.449286 Si / 1000 Ang^3
#
#
#
# Elastic Constant Matrix: (Units=GPa)
#
#
# Indices 1 2 3 4 5 6 
#
# 1 106.7730 -4.8261 20.9483 0.0000 -27.1461 0.0000
# 2 -4.8261 42.4922 -0.7705 0.0000 -1.1576 0.0000
# 3 20.9483 -0.7705 66.8173 0.0000 -18.3943 0.0000
# 4 0.0000 0.0000 0.0000 21.4179 0.0000 2.7663
# 5 -27.1461 -1.1576 -18.3943 0.0000 29.4677 0.0000
# 6 0.0000 0.0000 0.0000 2.7663 0.0000 -0.9463
#
#
#
# Elastic Compliance Matrix: (Units=1/GPa)
#
#
# Indices 1 2 3 4 5 6 
#
# 1 0.012394 0.001691 -0.000851 0.000000 0.010952 0.000000
# 2 0.001691 0.023812 0.000520 0.000000 0.002818 0.000000
# 3 -0.000851 0.000520 0.018147 0.000000 0.010564 0.000000
# 4 0.000000 0.000000 0.000000 0.033894 0.000000 0.099077
# 5 0.010952 0.002818 0.010564 0.000000 0.050730 0.000000
# 6 0.000000 0.000000 0.000000 0.099077 0.000000 -0.767109
#
#
# Mechanical properties :
#
#
# Convention : Reuss Voigt Hill
#
# Bulk Modulus (GPa) = 17.52156 27.42063 22.47110
# Shear Modulus (GPa) = -8.17224 23.36989 7.59882
#
# Velocity S-wave (km/s) = -1.91003 3.22997 1.84180
# Velocity P-wave (km/s) = 1.71977 5.11383 3.81503
#
# Compressibility (1/GPa) = 0.05707253
#
# Stress axis : x y z
#
# Youngs Moduli (GPa) = 80.68686 41.99570 55.10459
#
# Poissons Ratio (x) = -0.07100 0.04689
# Poissons Ratio (y) = -0.13641 -0.02867
# Poissons Ratio (z) = 0.06866 -0.02185
#
# Static dielectric constant tensor:
#      x y z
#    x 1.887790 0.000000 0.015280 
#    y 0.000000 1.869030 0.000000 
#    z 0.015280 0.000000 1.882640 
# 
# From -- ./inp_files/81810.got.cif
#   From: 2010.05.17/outbox.cif.g08.bks.cpg/sg13_41_cif.got.tgz:81810.got - 2010.06.03 16:44:36.
