data_PCOD9228214
_publ_section_title
;
Structure prediction by ZEFSAII (Michael W. Deem and Ramdas Pophale) SiO2 
 PCOD9228214
Probable space group: P 2/C
;
_chemical_formula_sum "Si O2"
_cell_formula_units_Z 32
_cell_length_a 9.283040
_cell_length_b 10.813480
_cell_length_c 18.059284
_cell_angle_alpha 90.000000
_cell_angle_beta 103.313454
_cell_angle_gamma 90.000000
_cell_volume 1764.106432
_symmetry_space_group_name_H-M "P 2/C"
_symmetry_group_IT_number 13
_symmetry_cell_setting 'monoclinic'
loop_
_space_group_symop_operation_xyz
x,y,z
-x,y,1/2-z
-x,-y,-z
x,-y,1/2+z
loop_
_atom_site_type_symbol
_atom_site_label
_atom_site_fract_x
_atom_site_fract_y
_atom_site_fract_z
Si Si1 0.516074 0.612829 0.444030
Si Si2 0.143675 0.251761 0.310768
Si Si3 0.001941 0.483726 0.833276
Si Si4 0.347366 0.843429 0.961741
Si Si5 0.646186 0.799607 0.800135
Si Si6 0.297831 0.447534 0.121491
Si Si7 0.683460 0.088812 0.453123
Si Si8 0.793019 0.324746 0.543081
O O1 0.500000 0.500000 0.500000
O O2 0.621069 0.716340 0.491488
O O3 0.589369 0.558285 0.379577
O O4 0.350171 0.663633 0.420408
O O5 0.096900 0.387830 0.336203
O O6 0.219606 0.177322 0.386224
O O7 0.260729 0.247138 0.258297
O O8 0.000000 0.201649 0.250000
O O9 0.071944 0.384969 0.897446
O O10 0.000000 0.432267 0.750000
O O11 0.839028 0.520185 0.842286
O O12 0.508428 0.875512 0.944302
O O13 0.304212 0.952307 0.012852
O O14 0.500000 0.859956 0.750000
O O15 0.613867 0.672587 0.840418
O O16 0.717833 0.887590 0.870705
O O17 0.230879 0.406959 0.033887
O O18 0.784380 0.184801 0.511789
#
# Coordination Sequence:
#
# PCOD9228214 Si02
#       8
#     4   4   4   4   4   4   4   4
#     4   9  18  32  57  87 108 136 192 232 278 329
#     4  11  21  35  55  86 117 143 183 243 296 340
#     4  11  21  34  52  82 118 151 180 234 304 346
#     4  10  19  37  60  84 112 150 190 238 282 337
#     4  11  20  34  59  87 111 143 194 241 283 342
#     4  10  19  33  53  81 112 144 180 226 295 345
#     4   9  20  37  60  83 106 152 201 230 278 339
#     4   9  19  33  55  79 110 144 187 233 271 343
#
# _framework density 18.139493999999999
#
# number of rings (size 3 to 8) (size 9 to 14) (size 15 to 20)
#    0.000    2.000    3.750    2.625    1.750    0.000 
#    0.000    1.250    2.750    0.750    0.000    0.000 
#    0.000    0.000    0.000    0.000    0.000    0.000 
#
# Total GULP energy -178213.196204 kJ/mol
# GULP energy per Si atom -5569.162381 kJ/mol
# Density = 1.809821 g / cm^3
# Si number density = 18.139494 Si / 1000 Ang^3
#
#
#
# Elastic Constant Matrix: (Units=GPa)
#
#
# Indices 1 2 3 4 5 6 
#
# 1 41.0828 16.8926 15.7521 0.0000 -8.7121 0.0000
# 2 16.8926 87.2565 38.2209 0.0000 2.6212 0.0000
# 3 15.7521 38.2209 73.3641 0.0000 2.1126 0.0000
# 4 0.0000 0.0000 0.0000 10.9300 0.0000 6.8498
# 5 -8.7121 2.6212 2.1126 0.0000 35.5007 0.0000
# 6 0.0000 0.0000 0.0000 6.8498 0.0000 13.9272
#
#
#
# Elastic Compliance Matrix: (Units=1/GPa)
#
#
# Indices 1 2 3 4 5 6 
#
# 1 0.029321 -0.003957 -0.004457 0.000000 0.007753 0.000000
# 2 -0.003957 0.015397 -0.007124 0.000000 -0.001684 0.000000
# 3 -0.004457 -0.007124 0.018347 0.000000 -0.001660 0.000000
# 4 0.000000 0.000000 0.000000 0.132256 0.000000 -0.065048
# 5 0.007753 -0.001684 -0.001660 0.000000 0.030294 0.000000
# 6 0.000000 0.000000 0.000000 -0.065048 0.000000 0.103795
#
#
# Mechanical properties :
#
#
# Convention : Reuss Voigt Hill
#
# Bulk Modulus (GPa) = 31.26014 38.15939 34.70977
# Shear Modulus (GPa) = 13.47165 20.79410 17.13287
#
# Velocity S-wave (km/s) = 2.72815 3.38944 3.07662
# Velocity P-wave (km/s) = 5.21482 6.03325 5.63890
#
# Compressibility (1/GPa) = 0.03198962
#
# Stress axis : x y z
#
# Youngs Moduli (GPa) = 34.10483 64.94578 54.50567
#
# Poissons Ratio (x) = 0.25699 0.24295
# Poissons Ratio (y) = 0.13495 0.38828
# Poissons Ratio (z) = 0.15202 0.46265
#
# Static dielectric constant tensor:
#      x y z
#    x 1.690580 0.000000 -0.004150 
#    y 0.000000 1.623780 0.000000 
#    z -0.004150 0.000000 1.640990 
# 
# From -- ./inp_files/64306.got.cif
#   From: 2010.05.17/outbox.cif.g08.bks.cpg/sg13_33_cif.got.tgz:64306.got - 2010.06.03 16:44:36.
