data_PCOD9228030
_publ_section_title
;
Structure prediction by ZEFSAII (Michael W. Deem and Ramdas Pophale) SiO2 
 PCOD9228030
Probable space group: P 2/C
;
_chemical_formula_sum "Si O2"
_cell_formula_units_Z 24
_cell_length_a 23.750672
_cell_length_b 9.107831
_cell_length_c 18.833703
_cell_angle_alpha 90.000000
_cell_angle_beta 160.312651
_cell_angle_gamma 90.000000
_cell_volume 1372.496719
_symmetry_space_group_name_H-M "P 2/C"
_symmetry_group_IT_number 13
_symmetry_cell_setting 'monoclinic'
loop_
_space_group_symop_operation_xyz
x,y,z
-x,y,1/2-z
-x,-y,-z
x,-y,1/2+z
loop_
_atom_site_type_symbol
_atom_site_label
_atom_site_fract_x
_atom_site_fract_y
_atom_site_fract_z
Si Si1 0.252200 0.595944 0.201061
Si Si2 0.572813 0.632626 0.494462
Si Si3 0.327325 0.423011 0.016976
Si Si4 0.847696 0.797168 0.290813
Si Si5 0.916484 0.344020 0.225494
Si Si6 0.810224 0.139072 0.224747
O O1 0.384289 0.635506 0.297200
O O2 0.317331 0.445806 0.313671
O O3 0.249834 0.722709 0.258611
O O4 0.066420 0.586508 0.950314
O O5 0.608388 0.530340 0.469178
O O6 0.642889 0.790008 0.556717
O O7 0.500000 0.353983 0.250000
O O8 0.200577 0.306197 0.832357
O O9 0.226333 0.531271 0.949631
O O10 0.038981 0.804404 0.545092
O O11 0.803637 0.964376 0.220207
O O12 0.848219 0.208653 0.192145
O O13 0.000000 0.302066 0.250000
#
# Coordination Sequence:
#
# PCOD9228030 Si02
#       6
#     4   4   4   4   4   4
#     4   9  17  30  50  74  97 122 159 203 239 283
#     4   9  17  30  50  74  96 122 161 202 240 280
#     4  10  19  32  49  70  98 128 161 200 244 290
#     4   9  18  33  51  72  99 130 162 198 243 290
#     4  10  19  32  50  70  95 127 163 199 241 287
#     4   9  18  33  52  72  97 130 164 199 241 289
#
# _framework density 17.48638
#
# number of rings (size 3 to 8) (size 9 to 14) (size 15 to 20)
#    0.000    2.667    0.000    2.000    0.000    4.667 
#    0.000    5.833    0.000    4.000    0.000    0.000 
#    0.000    0.000    0.000    0.000    0.000    0.000 
#
# Total GULP energy -133659.785954 kJ/mol
# GULP energy per Si atom -5569.157748 kJ/mol
# Density = 1.744658 g / cm^3
# Si number density = 17.486380 Si / 1000 Ang^3
#
#
#
# Elastic Constant Matrix: (Units=GPa)
#
#
# Indices 1 2 3 4 5 6 
#
# 1 77.8721 26.0117 10.6694 0.0000 10.5721 0.0000
# 2 26.0117 78.1432 23.6540 0.0000 4.2805 0.0000
# 3 10.6694 23.6540 37.4951 0.0000 0.6602 0.0000
# 4 0.0000 0.0000 0.0000 20.8131 0.0000 2.4690
# 5 10.5721 4.2805 0.6602 0.0000 25.5670 0.0000
# 6 0.0000 0.0000 0.0000 2.4690 0.0000 9.8457
#
#
#
# Elastic Compliance Matrix: (Units=1/GPa)
#
#
# Indices 1 2 3 4 5 6 
#
# 1 0.015242 -0.004310 -0.001521 0.000000 -0.005542 0.000000
# 2 -0.004310 0.017184 -0.009599 0.000000 -0.000847 0.000000
# 3 -0.001521 -0.009599 0.033134 0.000000 0.001380 0.000000
# 4 0.000000 0.000000 0.000000 0.049520 0.000000 -0.012418
# 5 -0.005542 -0.000847 0.001380 0.000000 0.041511 0.000000
# 6 0.000000 0.000000 0.000000 -0.012418 0.000000 0.104681
#
#
# Mechanical properties :
#
#
# Convention : Reuss Voigt Hill
#
# Bulk Modulus (GPa) = 28.81799 34.90896 31.86348
# Shear Modulus (GPa) = 16.46373 20.12350 18.29362
#
# Velocity S-wave (km/s) = 3.07174 3.39604 3.23795
# Velocity P-wave (km/s) = 5.39415 5.94847 5.67808
#
# Compressibility (1/GPa) = 0.03470055
#
# Stress axis : x y z
#
# Youngs Moduli (GPa) = 65.60874 58.19476 30.18024
#
# Poissons Ratio (x) = 0.25080 0.04590
# Poissons Ratio (y) = 0.28275 0.28971
# Poissons Ratio (z) = 0.09978 0.55862
#
# Static dielectric constant tensor:
#      x y z
#    x 1.598780 0.000000 -0.018630 
#    y 0.000000 1.558710 0.000000 
#    z -0.018630 0.000000 1.628160 
# 
# From -- ./inp_files/63296.got.cif
#   From: 2010.05.17/outbox.cif.g08.bks.cpg/sg13_32_cif.got.tgz:63296.got - 2010.06.03 16:44:36.
