data_PCOD9228186
_publ_section_title
;
Structure prediction by ZEFSAII (Michael W. Deem and Ramdas Pophale) SiO2 
 PCOD9228186
Probable space group: P 2/C
;
_chemical_formula_sum "Si O2"
_cell_formula_units_Z 24
_cell_length_a 7.172366
_cell_length_b 20.344068
_cell_length_c 14.813962
_cell_angle_alpha 90.000000
_cell_angle_beta 149.511102
_cell_angle_gamma 90.000000
_cell_volume 1096.724259
_symmetry_space_group_name_H-M "P 2/C"
_symmetry_group_IT_number 13
_symmetry_cell_setting 'monoclinic'
loop_
_space_group_symop_operation_xyz
x,y,z
-x,y,1/2-z
-x,-y,-z
x,-y,1/2+z
loop_
_atom_site_type_symbol
_atom_site_label
_atom_site_fract_x
_atom_site_fract_y
_atom_site_fract_z
Si Si1 0.925611 0.326424 0.456534
Si Si2 0.188911 0.939753 0.199766
Si Si3 0.811089 0.439753 0.300234
Si Si4 0.147435 0.917773 0.909840
Si Si5 0.074389 0.173576 0.543466
Si Si6 0.852565 0.582227 0.090160
O O1 0.500000 0.325369 0.250000
O O2 0.066394 0.379195 0.440421
O O3 0.997578 0.363814 0.580054
O O4 0.000000 0.250000 0.500000
O O5 0.500000 0.950887 0.250000
O O6 0.417921 0.921247 0.385101
O O7 0.933606 0.879195 0.059579
O O8 0.988999 0.008582 0.126066
O O9 0.500000 0.450886 0.250000
O O10 0.011001 0.508582 0.373934
O O11 0.582080 0.421247 0.114899
O O12 0.000000 0.901436 0.750000
O O13 0.002422 0.863814 0.919946
O O14 0.500000 0.174631 0.750000
O O15 0.000000 0.598564 0.250000
#
# Coordination Sequence:
#
# PCOD9228186 Si02
#       6
#     4   4   4   4   4   4
#     4   9  19  34  50  70  99 134 166 195 238 299
#     4   9  18  33  52  75  99 130 165 197 242 300
#     4   9  18  33  52  75  99 130 165 197 242 300
#     4  10  19  33  52  77 101 124 162 212 247 281
#     4   9  19  34  50  70  99 134 166 195 238 299
#     4  10  19  33  52  77 101 124 162 212 247 281
#
# _framework density 21.88335
#
# number of rings (size 3 to 8) (size 9 to 14) (size 15 to 20)
#    0.000    3.333    0.000    5.000    0.000    4.000 
#    0.000    8.333    0.000    0.000    0.000    0.000 
#    0.000    0.000    0.000    0.000    0.000    0.000 
#
# Total GULP energy -133678.778299 kJ/mol
# GULP energy per Si atom -5569.949096 kJ/mol
# Density = 2.183354 g / cm^3
# Si number density = 21.883350 Si / 1000 Ang^3
#
#
#
# Elastic Constant Matrix: (Units=GPa)
#
#
# Indices 1 2 3 4 5 6 
#
# 1 37.0698 44.4144 47.8296 0.0000 -24.7054 0.0000
# 2 44.4144 224.9378 85.2463 0.0000 -47.3092 0.0000
# 3 47.8296 85.2463 175.3283 0.0000 -58.8156 0.0000
# 4 0.0000 0.0000 0.0000 48.7421 0.0000 5.2122
# 5 -24.7054 -47.3092 -58.8156 0.0000 33.6156 0.0000
# 6 0.0000 0.0000 0.0000 5.2122 0.0000 8.2507
#
#
#
# Elastic Compliance Matrix: (Units=1/GPa)
#
#
# Indices 1 2 3 4 5 6 
#
# 1 0.055397 -0.003321 -0.003408 0.000000 0.030077 0.000000
# 2 -0.003321 0.006517 -0.000011 0.000000 0.006712 0.000000
# 3 -0.003408 -0.000011 0.014025 0.000000 0.022018 0.000000
# 4 0.000000 0.000000 0.000000 0.022003 0.000000 -0.013900
# 5 0.030077 0.006712 0.022018 0.000000 0.099823 0.000000
# 6 0.000000 0.000000 0.000000 -0.013900 0.000000 0.129983
#
#
# Mechanical properties :
#
#
# Convention : Reuss Voigt Hill
#
# Bulk Modulus (GPa) = 16.01056 88.03516 52.02286
# Shear Modulus (GPa) = 13.81033 35.44473 24.62753
#
# Velocity S-wave (km/s) = 2.51487 4.02893 3.35834
# Velocity P-wave (km/s) = 3.97051 7.87145 6.23397
#
# Compressibility (1/GPa) = 0.06245876
#
# Stress axis : x y z
#
# Youngs Moduli (GPa) = 18.05145 153.43788 71.30073
#
# Poissons Ratio (x) = 0.50955 0.24301
# Poissons Ratio (y) = 0.05995 0.00081
# Poissons Ratio (z) = 0.06152 0.00174
#
# Static dielectric constant tensor:
#      x y z
#    x 2.146630 0.000000 0.026880 
#    y 0.000000 1.890430 0.000000 
#    z 0.026880 0.000000 1.847580 
# 
# From -- ./inp_files/48127.got.cif
#   From: 2010.05.17/outbox.cif.g08.bks.cpg/sg13_25_cif.got.tgz:48127.got - 2010.06.03 16:44:36.
