data_PCOD9228507
_publ_section_title
;
Structure prediction by ZEFSAII (Michael W. Deem and Ramdas Pophale) SiO2 
 PCOD9228507
Probable space group: P 2/C
;
_chemical_formula_sum "Si O2"
_cell_formula_units_Z 30
_cell_length_a 10.922676
_cell_length_b 9.889355
_cell_length_c 14.351525
_cell_angle_alpha 90.000000
_cell_angle_beta 109.716979
_cell_angle_gamma 90.000000
_cell_volume 1459.337374
_symmetry_space_group_name_H-M "P 2/C"
_symmetry_group_IT_number 13
_symmetry_cell_setting 'monoclinic'
loop_
_space_group_symop_operation_xyz
x,y,z
-x,y,1/2-z
-x,-y,-z
x,-y,1/2+z
loop_
_atom_site_type_symbol
_atom_site_label
_atom_site_fract_x
_atom_site_fract_y
_atom_site_fract_z
Si Si1 0.233534 0.844011 0.479470
Si Si2 0.500000 0.252573 0.750000
Si Si3 0.633740 0.364372 0.615460
Si Si4 0.023470 0.546412 0.152714
Si Si5 0.654943 0.622426 0.513150
Si Si6 0.794124 0.580785 0.938946
Si Si7 0.282391 0.118668 0.572662
Si Si8 0.049435 0.138805 0.658745
O O1 0.274519 0.756174 0.399093
O O2 0.251745 0.733411 0.564796
O O3 0.081602 0.878563 0.434198
O O4 0.303226 0.983121 0.518940
O O5 0.596692 0.339880 0.711657
O O6 0.411629 0.162109 0.660315
O O7 0.680743 0.516746 0.604219
O O8 0.497737 0.344364 0.523981
O O9 0.130955 0.454700 0.133565
O O10 0.072134 0.700293 0.174583
O O11 0.000000 0.496379 0.250000
O O12 0.900874 0.554318 0.050128
O O13 0.679821 0.522740 0.431869
O O14 0.737821 0.755306 0.505869
O O15 0.170548 0.094810 0.623547
O O16 0.000000 0.089087 0.750000
#
# Coordination Sequence:
#
# PCOD9228507 Si02
#       8
#     4   2   4   4   4   4   4   4
#     4  10  21  35  60  82 117 157 189 233 294 352
#     4  10  22  36  62  84 112 150 202 240 284 358
#     4   9  19  38  58  82 108 145 191 242 288 339
#     4   9  17  30  56  83 113 150 194 239 297 350
#     4   9  18  34  59  79 108 143 189 237 282 347
#     4   9  17  34  53  82 116 148 191 242 292 351
#     4  11  21  37  60  85 114 156 196 232 287 354
#     4  10  19  34  58  88 116 148 194 243 286 349
#
# _framework density 20.557275000000001
#
# number of rings (size 3 to 8) (size 9 to 14) (size 15 to 20)
#    0.000    2.400    1.333    1.200    0.000    3.200 
#    0.000    0.667    5.867    7.200    0.000    0.000 
#    0.000    0.000    0.000    0.000    0.000    0.000 
#
# Total GULP energy -167019.114386 kJ/mol
# GULP energy per Si atom -5567.303813 kJ/mol
# Density = 2.051049 g / cm^3
# Si number density = 20.557275 Si / 1000 Ang^3
#
#
#
# Elastic Constant Matrix: (Units=GPa)
#
#
# Indices 1 2 3 4 5 6 
#
# 1 75.6607 14.9975 25.4033 0.0000 -14.5555 0.0000
# 2 14.9975 114.7687 37.6196 0.0000 -13.6377 0.0000
# 3 25.4033 37.6196 67.8299 0.0000 -22.5468 0.0000
# 4 0.0000 0.0000 0.0000 13.3666 0.0000 1.0886
# 5 -14.5555 -13.6377 -22.5468 0.0000 32.2925 0.0000
# 6 0.0000 0.0000 0.0000 1.0886 0.0000 20.3528
#
#
#
# Elastic Compliance Matrix: (Units=1/GPa)
#
#
# Indices 1 2 3 4 5 6 
#
# 1 0.015471 -0.000104 -0.004471 0.000000 0.003808 0.000000
# 2 -0.000104 0.010656 -0.005718 0.000000 0.000461 0.000000
# 3 -0.004471 -0.005718 0.023591 0.000000 0.012041 0.000000
# 4 0.000000 0.000000 0.000000 0.075141 0.000000 -0.004019
# 5 0.003808 0.000461 0.012041 0.000000 0.041286 0.000000
# 6 0.000000 0.000000 0.000000 -0.004019 0.000000 0.049348
#
#
# Mechanical properties :
#
#
# Convention : Reuss Voigt Hill
#
# Bulk Modulus (GPa) = 34.32505 46.03336 40.17921
# Shear Modulus (GPa) = 20.34277 25.21831 22.78054
#
# Velocity S-wave (km/s) = 3.14915 3.50628 3.33250
# Velocity P-wave (km/s) = 5.47324 6.23164 5.86471
#
# Compressibility (1/GPa) = 0.02913324
#
# Stress axis : x y z
#
# Youngs Moduli (GPa) = 64.63648 93.84634 42.38934
#
# Poissons Ratio (x) = 0.00973 0.18952
# Poissons Ratio (y) = 0.00670 0.24237
# Poissons Ratio (z) = 0.28898 0.53658
#
# Static dielectric constant tensor:
#      x y z
#    x 1.804240 0.000000 0.008520 
#    y 0.000000 1.728790 0.000000 
#    z 0.008520 0.000000 1.795130 
# 
# From -- ./inp_files/50408.got.cif
#   From: 2010.05.17/outbox.cif.g08.bks.cpg/sg13_26_cif.got.tgz:50408.got - 2010.06.03 16:44:36.
