data_PCOD9228256
_publ_section_title
;
Structure prediction by ZEFSAII (Michael W. Deem and Ramdas Pophale) SiO2 
 PCOD9228256
Probable space group: P 2/C
;
_chemical_formula_sum "Si O2"
_cell_formula_units_Z 32
_cell_length_a 21.181118
_cell_length_b 14.621089
_cell_length_c 8.505516
_cell_angle_alpha 90.000000
_cell_angle_beta 138.595031
_cell_angle_gamma 90.000000
_cell_volume 1742.120933
_symmetry_space_group_name_H-M "P 2/C"
_symmetry_group_IT_number 13
_symmetry_cell_setting 'monoclinic'
loop_
_space_group_symop_operation_xyz
x,y,z
-x,y,1/2-z
-x,-y,-z
x,-y,1/2+z
loop_
_atom_site_type_symbol
_atom_site_label
_atom_site_fract_x
_atom_site_fract_y
_atom_site_fract_z
Si Si1 0.608160 0.035898 0.701264
Si Si2 0.586719 0.615500 0.129579
Si Si3 0.097141 0.043598 0.528143
Si Si4 0.605579 0.781371 0.378070
Si Si5 0.700388 0.112366 0.569699
Si Si6 0.097195 0.861992 0.361454
Si Si7 0.732142 0.731325 0.909780
Si Si8 0.629760 0.427223 0.351187
O O1 0.621026 0.115261 0.853165
O O2 0.630045 0.079849 0.573772
O O3 0.500000 0.000000 0.500000
O O4 0.680552 0.955131 0.884504
O O5 0.614730 0.713742 0.247714
O O6 0.627430 0.535501 0.316953
O O7 0.471149 0.607663 0.911097
O O8 0.623015 0.594650 0.022642
O O9 0.192671 0.100002 0.664187
O O10 0.080016 0.074145 0.675840
O O11 0.126192 0.937873 0.547192
O O12 0.000000 0.062945 0.250000
O O13 0.500000 0.773602 0.250000
O O14 0.674614 0.750327 0.644348
O O15 0.687198 0.211948 0.472178
O O16 0.167851 0.782007 0.439019
O O17 0.000000 0.822013 0.250000
O O18 0.716426 0.626558 0.930272
#
# Coordination Sequence:
#
# PCOD9228256 Si02
#       8
#     4   4   4   4   4   4   4   4
#     4  12  24  36  50  70 109 157 203 232 269 331
#     4  10  21  35  60  80 112 138 182 230 283 337
#     4  10  19  33  55  77 105 141 192 244 294 335
#     4  12  22  35  51  78 107 147 187 228 277 329
#     4  11  22  37  52  76 107 153 194 237 281 335
#     4  10  20  34  54  81 108 149 191 239 288 336
#     4  11  22  36  56  78 115 145 187 232 281 341
#     4  10  20  37  56  85 107 142 176 231 289 336
#
# _framework density 18.368414999999999
#
# number of rings (size 3 to 8) (size 9 to 14) (size 15 to 20)
#    0.000    1.250    1.250    7.875    1.750    1.000 
#    0.000    0.000    0.000    0.000    0.000    3.500 
#    0.000    1.000    0.000    1.500    0.000    0.000 
#
# Total GULP energy -178619.794691 kJ/mol
# GULP energy per Si atom -5581.868584 kJ/mol
# Density = 1.832661 g / cm^3
# Si number density = 18.368415 Si / 1000 Ang^3
#
#
#
# Elastic Constant Matrix: (Units=GPa)
#
#
# Indices 1 2 3 4 5 6 
#
# 1 86.0898 6.4265 4.6234 0.0000 0.2837 0.0000
# 2 6.4265 58.8110 4.8308 0.0000 4.8260 0.0000
# 3 4.6234 4.8308 39.7060 0.0000 6.5191 0.0000
# 4 0.0000 0.0000 0.0000 25.8311 0.0000 -5.5668
# 5 0.2837 4.8260 6.5191 0.0000 16.6175 0.0000
# 6 0.0000 0.0000 0.0000 -5.5668 0.0000 29.5106
#
#
#
# Elastic Compliance Matrix: (Units=1/GPa)
#
#
# Indices 1 2 3 4 5 6 
#
# 1 0.011777 -0.001233 -0.001333 0.000000 0.000680 0.000000
# 2 -0.001233 0.017619 -0.001243 0.000000 -0.004608 0.000000
# 3 -0.001333 -0.001243 0.027179 0.000000 -0.010279 0.000000
# 4 0.000000 0.000000 0.000000 0.040353 0.000000 0.007612
# 5 0.000680 -0.004608 -0.010279 0.000000 0.065537 0.000000
# 6 0.000000 0.000000 0.000000 0.007612 0.000000 0.035322
#
#
# Mechanical properties :
#
#
# Convention : Reuss Voigt Hill
#
# Bulk Modulus (GPa) = 20.42659 24.04091 22.23375
# Shear Modulus (GPa) = 22.55046 25.64026 24.09536
#
# Velocity S-wave (km/s) = 3.50762 3.74021 3.62578
# Velocity P-wave (km/s) = 5.24873 5.63639 5.44601
#
# Compressibility (1/GPa) = 0.04895581
#
# Stress axis : x y z
#
# Youngs Moduli (GPa) = 84.90997 56.75806 36.79282
#
# Poissons Ratio (x) = 0.07000 0.04904
# Poissons Ratio (y) = 0.10471 0.04575
# Poissons Ratio (z) = 0.11318 0.07057
#
# Static dielectric constant tensor:
#      x y z
#    x 1.685240 0.000000 0.000490 
#    y 0.000000 1.625920 0.000000 
#    z 0.000490 0.000000 1.642200 
# 
# From -- ./inp_files/23568.got.cif
#   From: 2010.05.17/outbox.cif.g08.bks.cpg/sg13_12_cif.got.tgz:23568.got - 2010.06.03 16:44:36.
