data_PCOD9228289
_publ_section_title
;
Structure prediction by ZEFSAII (Michael W. Deem and Ramdas Pophale) SiO2 
 PCOD9228289
Probable space group: P 2/C
;
_chemical_formula_sum "Si O2"
_cell_formula_units_Z 24
_cell_length_a 15.551285
_cell_length_b 14.922943
_cell_length_c 9.283527
_cell_angle_alpha 90.000000
_cell_angle_beta 31.052841
_cell_angle_gamma 90.000000
_cell_volume 1111.319657
_symmetry_space_group_name_H-M "P 2/C"
_symmetry_group_IT_number 13
_symmetry_cell_setting 'monoclinic'
loop_
_space_group_symop_operation_xyz
x,y,z
-x,y,1/2-z
-x,-y,-z
x,-y,1/2+z
loop_
_atom_site_type_symbol
_atom_site_label
_atom_site_fract_x
_atom_site_fract_y
_atom_site_fract_z
Si Si1 0.810250 0.463235 0.076586
Si Si2 0.687712 0.399562 0.544753
Si Si3 0.303190 0.797238 0.526706
Si Si4 0.702462 0.118489 0.968324
Si Si5 0.692467 0.966645 0.186623
Si Si6 0.195787 0.732440 0.986896
O O1 0.797056 0.450125 0.266494
O O2 0.706097 0.545946 0.164726
O O3 0.737296 0.368650 0.120763
O O4 0.000000 0.473676 0.750000
O O5 0.500000 0.399763 0.750000
O O6 0.751233 0.296963 0.466532
O O7 0.500000 0.792267 0.250000
O O8 0.278388 0.887746 0.472416
O O9 0.250400 0.789908 0.768830
O O10 0.500000 0.118945 0.250000
O O11 0.758478 0.216981 0.932607
O O12 0.764466 0.054049 0.007316
O O13 0.760663 0.074444 0.736195
O O14 0.500000 0.000000 0.500000
O O15 0.000000 0.723513 0.250000
#
# Coordination Sequence:
#
# PCOD9228289 Si02
#       6
#     4   4   4   4   4   4
#     4  10  21  38  58  81 116 159 192 228 287 348
#     4  10  21  35  57  85 113 146 191 245 285 323
#     4  10  19  36  58  82 113 150 191 236 284 337
#     4  10  19  33  56  82 107 144 187 230 276 334
#     4  10  19  33  57  86 111 142 186 233 279 338
#     4  10  22  39  57  82 119 155 188 234 290 338
#
# _framework density 21.595946999999999
#
# number of rings (size 3 to 8) (size 9 to 14) (size 15 to 20)
#    0.000    2.000    0.000    5.500    0.000    2.000 
#    0.000    4.167    0.000    0.000    0.000    0.000 
#    0.000    0.000    0.000    0.000    0.000    0.000 
#
# Total GULP energy -133798.837880 kJ/mol
# GULP energy per Si atom -5574.951578 kJ/mol
# Density = 2.154679 g / cm^3
# Si number density = 21.595947 Si / 1000 Ang^3
#
#
#
# Elastic Constant Matrix: (Units=GPa)
#
#
# Indices 1 2 3 4 5 6 
#
# 1 32.7172 36.5824 -19.2254 0.0000 3.9333 0.0000
# 2 36.5824 114.7237 -16.2927 0.0000 8.6984 0.0000
# 3 -19.2254 -16.2927 35.4150 0.0000 -6.5726 0.0000
# 4 0.0000 0.0000 0.0000 19.6031 0.0000 14.1119
# 5 3.9333 8.6984 -6.5726 0.0000 12.7813 0.0000
# 6 0.0000 0.0000 0.0000 14.1119 0.0000 43.6834
#
#
#
# Elastic Compliance Matrix: (Units=1/GPa)
#
#
# Indices 1 2 3 4 5 6 
#
# 1 0.066678 -0.017594 0.029315 0.000000 0.006529 0.000000
# 2 -0.017594 0.014217 -0.004202 0.000000 -0.006422 0.000000
# 3 0.029315 -0.004202 0.045407 0.000000 0.017189 0.000000
# 4 0.000000 0.000000 0.000000 0.066471 0.000000 -0.021473
# 5 0.006529 -0.006422 0.017189 0.000000 0.089440 0.000000
# 6 0.000000 0.000000 0.000000 -0.021473 0.000000 0.029829
#
#
# Mechanical properties :
#
#
# Convention : Reuss Voigt Hill
#
# Bulk Modulus (GPa) = 7.07518 20.55384 13.81451
# Shear Modulus (GPa) = 14.52989 27.33299 20.93144
#
# Velocity S-wave (km/s) = 2.59666 3.56146 3.11662
# Velocity P-wave (km/s) = 3.50335 5.14297 4.40021
#
# Compressibility (1/GPa) = 0.14133921
#
# Stress axis : x y z
#
# Youngs Moduli (GPa) = 14.99737 70.33859 22.02300
#
# Poissons Ratio (x) = 1.23753 -0.64560
# Poissons Ratio (y) = 0.26386 0.09255
# Poissons Ratio (z) = -0.43964 0.29559
#
# Static dielectric constant tensor:
#      x y z
#    x 1.755540 0.000000 -0.031720 
#    y 0.000000 1.892890 0.000000 
#    z -0.031720 0.000000 1.722590 
# 
# From -- ./inp_files/19496.got.cif
#   From: 2010.05.17/outbox.cif.g08.bks.cpg/sg13_10_cif.got.tgz:19496.got - 2010.06.03 16:44:36.
