data_PCOD9228448
_publ_section_title
;
Structure prediction by ZEFSAII (Michael W. Deem and Ramdas Pophale) SiO2 
 PCOD9228448
Probable space group: P 2/C
;
_chemical_formula_sum "Si O2"
_cell_formula_units_Z 32
_cell_length_a 21.171337
_cell_length_b 8.459771
_cell_length_c 20.373552
_cell_angle_alpha 90.000000
_cell_angle_beta 152.527174
_cell_angle_gamma 90.000000
_cell_volume 1683.384562
_symmetry_space_group_name_H-M "P 2/C"
_symmetry_group_IT_number 13
_symmetry_cell_setting 'monoclinic'
loop_
_space_group_symop_operation_xyz
x,y,z
-x,y,1/2-z
-x,-y,-z
x,-y,1/2+z
loop_
_atom_site_type_symbol
_atom_site_label
_atom_site_fract_x
_atom_site_fract_y
_atom_site_fract_z
Si Si1 0.631647 0.204365 0.146836
Si Si2 0.061924 0.429335 0.375905
Si Si3 0.775010 0.178856 0.039942
Si Si4 0.203241 0.639190 0.803245
Si Si5 0.430328 0.107571 0.843019
Si Si6 0.437651 0.403087 0.062018
Si Si7 0.647384 0.618851 0.322784
Si Si8 0.608353 0.098184 0.406652
O O1 0.765858 0.272606 0.235805
O O2 0.551929 0.327677 0.119579
O O3 0.655077 0.039542 0.206494
O O4 0.524777 0.170644 0.989033
O O5 0.103170 0.248056 0.392870
O O6 0.211553 0.482466 0.538558
O O7 0.000000 0.496758 0.250000
O O8 0.945622 0.436114 0.323185
O O9 0.650122 0.274102 0.890649
O O10 0.741198 0.995692 0.004786
O O11 0.787869 0.242645 0.125658
O O12 0.325028 0.512433 0.924024
O O13 0.351955 0.251434 0.735695
O O14 0.531340 0.025190 0.883731
O O15 0.522499 0.505477 0.192273
O O16 0.362724 0.257321 0.027793
O O17 0.500000 0.133754 0.250000
#
# Coordination Sequence:
#
# PCOD9228448 Si02
#       8
#     4   4   4   4   4   4   4   4
#     4  10  21  35  53  84 122 145 192 236 285 322
#     4   8  19  35  59  80 108 149 195 223 277 348
#     4   9  19  34  59  76 109 146 186 230 275 348
#     4  11  19  37  58  84 110 153 195 225 284 344
#     4  10  19  34  56  81 113 154 184 237 277 337
#     4  11  24  31  56  90 117 146 182 247 283 336
#     4  10  19  37  58  83 114 144 191 230 292 329
#     4  11  19  31  52  90 113 134 181 245 293 321
#
# _framework density 19.009322000000001
#
# number of rings (size 3 to 8) (size 9 to 14) (size 15 to 20)
#    0.750    1.250    3.750    0.375    1.750    0.000 
#    0.000    1.250    0.000   17.250    0.000    0.000 
#    0.000    0.000    0.000    0.000    0.000    0.000 
#
# Total GULP energy -178154.919541 kJ/mol
# GULP energy per Si atom -5567.341236 kJ/mol
# Density = 1.896606 g / cm^3
# Si number density = 19.009322 Si / 1000 Ang^3
#
#
#
# Elastic Constant Matrix: (Units=GPa)
#
#
# Indices 1 2 3 4 5 6 
#
# 1 63.7536 17.4748 -5.3555 0.0000 4.9094 0.0000
# 2 17.4748 54.1611 4.7876 0.0000 3.0552 0.0000
# 3 -5.3555 4.7876 43.5968 0.0000 1.5704 0.0000
# 4 0.0000 0.0000 0.0000 10.8330 0.0000 -5.3801
# 5 4.9094 3.0552 1.5704 0.0000 24.5520 0.0000
# 6 0.0000 0.0000 0.0000 -5.3801 0.0000 26.0733
#
#
#
# Elastic Compliance Matrix: (Units=1/GPa)
#
#
# Indices 1 2 3 4 5 6 
#
# 1 0.017758 -0.005819 0.002929 0.000000 -0.003014 0.000000
# 2 -0.005819 0.020670 -0.002941 0.000000 -0.001220 0.000000
# 3 0.002929 -0.002941 0.023683 0.000000 -0.001735 0.000000
# 4 0.000000 0.000000 0.000000 0.102851 0.000000 0.021223
# 5 -0.003014 -0.001220 -0.001735 0.000000 0.041595 0.000000
# 6 0.000000 0.000000 0.000000 0.021223 0.000000 0.042733
#
#
# Mechanical properties :
#
#
# Convention : Reuss Voigt Hill
#
# Bulk Modulus (GPa) = 19.82146 21.70279 20.76213
# Shear Modulus (GPa) = 18.00073 21.93197 19.96635
#
# Velocity S-wave (km/s) = 3.08058 3.40037 3.24442
# Velocity P-wave (km/s) = 4.80658 5.18251 4.99808
#
# Compressibility (1/GPa) = 0.05045036
#
# Stress axis : x y z
#
# Youngs Moduli (GPa) = 56.31130 48.38036 42.22496
#
# Poissons Ratio (x) = 0.28150 -0.12368
# Poissons Ratio (y) = 0.32765 0.12417
# Poissons Ratio (z) = -0.16494 0.14227
#
# Static dielectric constant tensor:
#      x y z
#    x 1.708560 0.000000 0.022590 
#    y 0.000000 1.679360 0.000000 
#    z 0.022590 0.000000 1.701890 
# 
# From -- ./inp_files/81692.got.cif
#   From: 2010.05.17/outbox.cif.g08.bks.cpg/sg13_41_cif.got.tgz:81692.got - 2010.06.03 16:44:36.
