data_PCOD9228311
_publ_section_title
;
Structure prediction by ZEFSAII (Michael W. Deem and Ramdas Pophale) SiO2 
 PCOD9228311
Probable space group: P 2/C
;
_chemical_formula_sum "Si O2"
_cell_formula_units_Z 26
_cell_length_a 16.312291
_cell_length_b 15.090299
_cell_length_c 5.466704
_cell_angle_alpha 90.000000
_cell_angle_beta 120.101773
_cell_angle_gamma 90.000000
_cell_volume 1164.186876
_symmetry_space_group_name_H-M "P 2/C"
_symmetry_group_IT_number 13
_symmetry_cell_setting 'monoclinic'
loop_
_space_group_symop_operation_xyz
x,y,z
-x,y,1/2-z
-x,-y,-z
x,-y,1/2+z
loop_
_atom_site_type_symbol
_atom_site_label
_atom_site_fract_x
_atom_site_fract_y
_atom_site_fract_z
Si Si1 0.599515 0.056241 0.451608
Si Si2 0.500000 0.443952 0.750000
Si Si3 0.252934 0.681138 0.446037
Si Si4 0.058139 0.773945 0.085150
Si Si5 0.187790 0.055981 0.780813
Si Si6 0.687775 0.667766 0.466774
Si Si7 0.831333 0.506558 0.653656
O O1 0.500000 0.106605 0.250000
O O2 0.704980 0.094703 0.575844
O O3 0.596776 0.017811 0.726138
O O4 0.500000 0.500000 0.500000
O O5 0.407470 0.383573 0.618973
O O6 0.145160 0.706853 0.237270
O O7 0.286502 0.722160 0.752971
O O8 0.247768 0.573059 0.463897
O O9 0.315261 0.708394 0.306958
O O10 0.108349 0.869476 0.141689
O O11 0.000000 0.769040 0.250000
O O12 0.000000 0.757451 0.750000
O O13 0.178691 0.992039 0.530470
O O14 0.774215 0.598017 0.569911
O O15 0.886720 0.498794 0.486883
#
# Coordination Sequence:
#
# PCOD9228311 Si02
#       7
#     4   2   4   4   4   4   4
#     4   8  14  27  51  82 112 140 175 214 264 339
#     4  12  20  30  54  96 130 156 210 256 292 366
#     4  10  20  37  56  77 113 159 195 241 299 362
#     4  12  26  42  62  87 113 156 207 253 313 380
#     4  10  21  38  62  91 119 149 188 246 310 366
#     4  10  19  33  57  84 118 160 197 243 298 346
#     4   8  14  27  49  74  98 138 186 220 276 326
#
# _framework density 22.333183999999999
#
# number of rings (size 3 to 8) (size 9 to 14) (size 15 to 20)
#    0.000    2.154    0.000    5.538    0.000    1.846 
#    0.000    0.000    3.385   24.923    4.000    0.000 
#    0.000    0.000    0.000    0.000    0.000    0.000 
#
# Total GULP energy -144980.480235 kJ/mol
# GULP energy per Si atom -5576.172317 kJ/mol
# Density = 2.228235 g / cm^3
# Si number density = 22.333184 Si / 1000 Ang^3
#
#
#
# Elastic Constant Matrix: (Units=GPa)
#
#
# Indices 1 2 3 4 5 6 
#
# 1 112.8634 9.6273 39.3950 0.0000 -22.2365 0.0000
# 2 9.6273 36.1497 7.3349 0.0000 -6.7688 0.0000
# 3 39.3950 7.3349 122.5282 0.0000 -37.8396 0.0000
# 4 0.0000 0.0000 0.0000 18.0871 0.0000 2.2826
# 5 -22.2365 -6.7688 -37.8396 0.0000 55.7174 0.0000
# 6 0.0000 0.0000 0.0000 2.2826 0.0000 9.5407
#
#
#
# Elastic Compliance Matrix: (Units=1/GPa)
#
#
# Indices 1 2 3 4 5 6 
#
# 1 0.010332 -0.001829 -0.002540 0.000000 0.002176 0.000000
# 2 -0.001829 0.028692 -0.000353 0.000000 0.002516 0.000000
# 3 -0.002540 -0.000353 0.010975 0.000000 0.006397 0.000000
# 4 0.000000 0.000000 0.000000 0.057009 0.000000 -0.013640
# 5 0.002176 0.002516 0.006397 0.000000 0.023466 0.000000
# 6 0.000000 0.000000 0.000000 -0.013640 0.000000 0.108078
#
#
# Mechanical properties :
#
#
# Convention : Reuss Voigt Hill
#
# Bulk Modulus (GPa) = 24.65739 42.69507 33.67623
# Shear Modulus (GPa) = 19.11947 31.01465 25.06706
#
# Velocity S-wave (km/s) = 2.92910 3.73060 3.35388
# Velocity P-wave (km/s) = 4.74385 6.14128 5.48723
#
# Compressibility (1/GPa) = 0.04055579
#
# Stress axis : x y z
#
# Youngs Moduli (GPa) = 96.78982 34.85231 91.11880
#
# Poissons Ratio (x) = 0.06373 0.23148
# Poissons Ratio (y) = 0.17699 0.03212
# Poissons Ratio (z) = 0.24588 0.01229
#
# Static dielectric constant tensor:
#      x y z
#    x 1.913950 0.000000 -0.161020 
#    y 0.000000 2.061080 0.000000 
#    z -0.161020 0.000000 1.993990 
# 
# From -- ./inp_files/5277.got.cif
#   From: 2010.05.17/outbox.cif.g08.bks.cpg/sg13_3_cif.got.tgz:5277.got - 2010.06.03 16:44:36.
