data_PCOD9228716
_publ_section_title
;
Structure prediction by ZEFSAII (Michael W. Deem and Ramdas Pophale) SiO2 
 PCOD9228716
Probable space group: P 2/C
;
_chemical_formula_sum "Si O2"
_cell_formula_units_Z 28
_cell_length_a 24.978962
_cell_length_b 11.666953
_cell_length_c 30.964405
_cell_angle_alpha 90.000000
_cell_angle_beta 170.561243
_cell_angle_gamma 90.000000
_cell_volume 1479.859976
_symmetry_space_group_name_H-M "P 2/C"
_symmetry_group_IT_number 13
_symmetry_cell_setting 'monoclinic'
loop_
_space_group_symop_operation_xyz
x,y,z
-x,y,1/2-z
-x,-y,-z
x,-y,1/2+z
loop_
_atom_site_type_symbol
_atom_site_label
_atom_site_fract_x
_atom_site_fract_y
_atom_site_fract_z
Si Si1 0.324891 0.537532 0.785332
Si Si2 0.150007 0.265143 0.992095
Si Si3 0.731596 0.742874 0.074392
Si Si4 0.468828 0.648950 0.462391
Si Si5 0.330062 0.906616 0.895298
Si Si6 0.383018 0.018655 0.293818
Si Si7 0.700883 0.017534 0.366835
O O1 0.504906 0.424613 0.947472
O O2 0.000000 0.500000 0.500000
O O3 0.540807 0.622684 0.927462
O O4 0.317702 0.605913 0.826403
O O5 0.933580 0.234652 0.778517
O O6 0.918999 0.355253 0.833171
O O7 0.500000 0.300825 0.250000
O O8 0.176621 0.149455 0.041706
O O9 0.000000 0.743686 0.250000
O O10 0.479827 0.847808 0.872519
O O11 0.549186 0.780067 0.517514
O O12 0.961434 0.923027 0.587433
O O13 0.500000 0.000000 0.000000
O O14 0.407514 0.948177 0.005075
O O15 0.456095 0.982399 0.302975
O O16 0.000000 0.000000 0.000000
O O17 0.500000 0.032496 0.250000
#
# Coordination Sequence:
#
# PCOD9228716 Si02
#       7
#     4   4   4   4   4   4   4
#     4  10  24  39  65  88 121 168 217 270 317 369
#     4  10  19  35  60  90 130 159 199 267 324 368
#     4  11  23  40  65  98 125 161 221 270 318 390
#     4  10  22  41  60  91 125 163 216 267 317 381
#     4  12  21  38  62  92 129 164 210 264 323 408
#     4  12  24  36  65  99 129 166 206 261 338 395
#     4  11  23  37  57  90 132 165 203 257 324 393
#
# _framework density 18.920708000000001
#
# number of rings (size 3 to 8) (size 9 to 14) (size 15 to 20)
#    0.000    1.143    4.286    2.571    6.000    0.000 
#    0.000    0.000    6.286    0.000    0.000    0.000 
#    0.000    0.000    0.000    0.000    0.000    0.000 
#
# Total GULP energy -155989.354129 kJ/mol
# GULP energy per Si atom -5571.048362 kJ/mol
# Density = 1.887764 g / cm^3
# Si number density = 18.920708 Si / 1000 Ang^3
#
#
#
# Elastic Constant Matrix: (Units=GPa)
#
#
# Indices 1 2 3 4 5 6 
#
# 1 106.1986 39.4550 32.2125 0.0000 -30.5548 0.0000
# 2 39.4550 126.7696 42.5422 0.0000 0.9483 0.0000
# 3 32.2125 42.5422 76.7732 0.0000 -11.0187 0.0000
# 4 0.0000 0.0000 0.0000 30.0209 0.0000 -3.1054
# 5 -30.5548 0.9483 -11.0187 0.0000 35.7457 0.0000
# 6 0.0000 0.0000 0.0000 -3.1054 0.0000 16.5731
#
#
#
# Elastic Compliance Matrix: (Units=1/GPa)
#
#
# Indices 1 2 3 4 5 6 
#
# 1 0.015185 -0.004024 -0.002368 0.000000 0.012356 0.000000
# 2 -0.004024 0.010895 -0.005110 0.000000 -0.005304 0.000000
# 3 -0.002368 -0.005110 0.017347 0.000000 0.003459 0.000000
# 4 0.000000 0.000000 0.000000 0.033968 0.000000 0.006365
# 5 0.012356 -0.005304 0.003459 0.000000 0.039744 0.000000
# 6 0.000000 0.000000 0.000000 0.006365 0.000000 0.061531
#
#
# Mechanical properties :
#
#
# Convention : Reuss Voigt Hill
#
# Bulk Modulus (GPa) = 48.96491 59.79565 54.38028
# Shear Modulus (GPa) = 23.98280 29.50339 26.74309
#
# Velocity S-wave (km/s) = 3.56412 3.95310 3.76364
# Velocity P-wave (km/s) = 6.54771 7.24624 6.90581
#
# Compressibility (1/GPa) = 0.02042279
#
# Stress axis : x y z
#
# Youngs Moduli (GPa) = 65.85635 91.78296 57.64632
#
# Poissons Ratio (x) = 0.36931 0.13651
# Poissons Ratio (y) = 0.26499 0.29459
# Poissons Ratio (z) = 0.15595 0.46904
#
# Static dielectric constant tensor:
#      x y z
#    x 1.697350 0.000000 0.008190 
#    y 0.000000 1.701700 0.000000 
#    z 0.008190 0.000000 1.723840 
# 
# From -- ./inp_files/97697.got.cif
#   From: 2010.05.17/outbox.cif.g08.bks.cpg/sg13_49_cif.got.tgz:97697.got - 2010.06.03 16:44:36.
