data_PCOD9228487
_publ_section_title
;
Structure prediction by ZEFSAII (Michael W. Deem and Ramdas Pophale) SiO2 
 PCOD9228487
Probable space group: P 2/C
;
_chemical_formula_sum "Si O2"
_cell_formula_units_Z 28
_cell_length_a 13.610680
_cell_length_b 12.767910
_cell_length_c 9.597203
_cell_angle_alpha 90.000000
_cell_angle_beta 125.177438
_cell_angle_gamma 90.000000
_cell_volume 1363.213818
_symmetry_space_group_name_H-M "P 2/C"
_symmetry_group_IT_number 13
_symmetry_cell_setting 'monoclinic'
loop_
_space_group_symop_operation_xyz
x,y,z
-x,y,1/2-z
-x,-y,-z
x,-y,1/2+z
loop_
_atom_site_type_symbol
_atom_site_label
_atom_site_fract_x
_atom_site_fract_y
_atom_site_fract_z
Si Si1 0.520630 0.182809 0.607447
Si Si2 0.200179 0.397980 0.230790
Si Si3 0.733047 0.168783 0.256412
Si Si4 0.913205 0.998294 0.300074
Si Si5 0.137393 0.593484 0.358689
Si Si6 0.539600 0.583193 0.424894
Si Si7 0.746262 0.188578 0.597801
O O1 0.500000 0.141798 0.750000
O O2 0.398684 0.168238 0.420466
O O3 0.531270 0.308334 0.630066
O O4 0.638306 0.153994 0.613699
O O5 0.184585 0.271814 0.209836
O O6 0.130685 0.488104 0.259328
O O7 0.324064 0.398244 0.420598
O O8 0.189110 0.428586 0.057311
O O9 0.802461 0.071810 0.247878
O O10 0.716654 0.168186 0.410391
O O11 0.000000 0.038000 0.250000
O O12 0.860673 0.884026 0.223633
O O13 0.000000 0.000000 0.500000
O O14 0.219084 0.687884 0.363151
O O15 0.000000 0.633442 0.250000
O O16 0.500000 0.531950 0.250000
O O17 0.500000 0.500000 0.500000
#
# Coordination Sequence:
#
# PCOD9228487 Si02
#       7
#     4   4   4   4   4   4   4
#     4  10  23  40  64  98 127 166 220 272 329 385
#     4  10  22  39  60  93 131 171 216 264 321 383
#     4  10  24  44  67  97 134 174 217 269 330 391
#     4  12  26  47  71  98 128 172 222 268 327 391
#     4  11  23  40  63  94 134 178 220 266 323 390
#     4  10  19  34  57  88 125 166 214 266 321 385
#     4  11  24  44  69  93 134 175 215 273 330 392
#
# _framework density 20.539698000000001
#
# number of rings (size 3 to 8) (size 9 to 14) (size 15 to 20)
#    0.000    1.429    1.429    3.000    4.000    5.714 
#    0.000    0.000    0.000    0.000    0.000    0.000 
#    0.000    0.000    0.000    0.000    0.000    0.000 
#
# Total GULP energy -155923.348243 kJ/mol
# GULP energy per Si atom -5568.691009 kJ/mol
# Density = 2.049295 g / cm^3
# Si number density = 20.539698 Si / 1000 Ang^3
#
#
#
# Elastic Constant Matrix: (Units=GPa)
#
#
# Indices 1 2 3 4 5 6 
#
# 1 112.1733 27.7847 43.2848 0.0000 -9.5891 0.0000
# 2 27.7847 58.1302 28.5842 0.0000 -11.1602 0.0000
# 3 43.2848 28.5842 152.1146 0.0000 -24.5694 0.0000
# 4 0.0000 0.0000 0.0000 37.7468 0.0000 -35.0255
# 5 -9.5891 -11.1602 -24.5694 0.0000 28.7713 0.0000
# 6 0.0000 0.0000 0.0000 -35.0255 0.0000 129.8886
#
#
#
# Elastic Compliance Matrix: (Units=1/GPa)
#
#
# Indices 1 2 3 4 5 6 
#
# 1 0.010807 -0.004016 -0.002309 0.000000 0.000072 0.000000
# 2 -0.004016 0.021088 -0.001989 0.000000 0.005143 0.000000
# 3 -0.002309 -0.001989 0.008533 0.000000 0.005746 0.000000
# 4 0.000000 0.000000 0.000000 0.035333 0.000000 0.009528
# 5 0.000072 0.005143 0.005746 0.000000 0.041682 0.000000
# 6 0.000000 0.000000 0.000000 0.009528 0.000000 0.010268
#
#
# Mechanical properties :
#
#
# Convention : Reuss Voigt Hill
#
# Bulk Modulus (GPa) = 42.01842 57.96949 49.99395
# Shear Modulus (GPa) = 32.83598 54.13230 43.48414
#
# Velocity S-wave (km/s) = 4.00266 5.13928 4.60616
# Velocity P-wave (km/s) = 6.47019 7.96873 7.25824
#
# Compressibility (1/GPa) = 0.02379908
#
# Stress axis : x y z
#
# Youngs Moduli (GPa) = 92.53603 47.42071 117.19546
#
# Poissons Ratio (x) = 0.19045 0.27057
# Poissons Ratio (y) = 0.37164 0.23313
# Poissons Ratio (z) = 0.21364 0.09433
#
# Static dielectric constant tensor:
#      x y z
#    x 1.566660 0.000000 -0.108550 
#    y 0.000000 1.806300 0.000000 
#    z -0.108550 0.000000 1.622960 
# 
# From -- ./inp_files/16605.got.cif
#   From: 2010.05.17/outbox.cif.g08.bks.cpg/sg13_9_cif.got.tgz:16605.got - 2010.06.03 16:44:36.
