data_PCOD9228480
_publ_section_title
;
Structure prediction by ZEFSAII (Michael W. Deem and Ramdas Pophale) SiO2 
 PCOD9228480
Probable space group: P 2/C
;
_chemical_formula_sum "Si O2"
_cell_formula_units_Z 28
_cell_length_a 8.592365
_cell_length_b 19.966141
_cell_length_c 14.797374
_cell_angle_alpha 90.000000
_cell_angle_beta 148.237803
_cell_angle_gamma 90.000000
_cell_volume 1336.297641
_symmetry_space_group_name_H-M "P 2/C"
_symmetry_group_IT_number 13
_symmetry_cell_setting 'monoclinic'
loop_
_space_group_symop_operation_xyz
x,y,z
-x,y,1/2-z
-x,-y,-z
x,-y,1/2+z
loop_
_atom_site_type_symbol
_atom_site_label
_atom_site_fract_x
_atom_site_fract_y
_atom_site_fract_z
Si Si1 0.713242 0.349445 0.069029
Si Si2 0.879595 0.940408 0.878885
Si Si3 0.373530 0.388863 0.085613
Si Si4 0.530375 0.031607 0.918642
Si Si5 0.199829 0.849346 0.160274
Si Si6 0.247876 0.464554 0.557764
Si Si7 0.131426 0.708090 0.214477
O O1 0.545754 0.366742 0.080313
O O2 0.000000 0.312600 0.250000
O O3 0.817001 0.410644 0.053394
O O4 0.476025 0.309657 0.893157
O O5 0.568534 0.967156 0.690456
O O6 0.139246 0.940805 0.931633
O O7 0.936154 0.874790 0.965368
O O8 0.000000 0.000000 0.000000
O O9 0.500000 0.376821 0.250000
O O10 0.366821 0.468602 0.069227
O O11 0.058021 0.350744 0.926536
O O12 0.301381 0.091407 0.779833
O O13 0.500000 0.000000 0.000000
O O14 0.500000 0.840801 0.250000
O O15 0.105962 0.780050 0.156926
O O16 0.500000 0.437561 0.750000
O O17 0.000000 0.500000 0.500000
O O18 0.000000 0.712526 0.250000
#
# Coordination Sequence:
#
# PCOD9228480 Si02
#       7
#     4   4   4   4   4   4   4
#     4  11  23  39  61  88 119 155 199 252 303 364
#     4   9  18  34  54  81 111 145 186 231 284 344
#     4  10  22  41  61  87 119 154 200 250 301 365
#     4  10  19  34  57  85 115 147 189 243 291 342
#     4   9  20  37  57  81 115 155 195 237 295 359
#     4  11  22  37  60  90 119 153 196 244 305 366
#     4  10  23  42  61  84 119 161 203 251 306 362
#
# _framework density 20.953415
#
# number of rings (size 3 to 8) (size 9 to 14) (size 15 to 20)
#    0.000    2.000    0.000    4.714    0.000    6.857 
#    0.000    8.571    0.000    1.714    0.000    0.000 
#    0.000    0.000    0.000    0.000    0.000    0.000 
#
# Total GULP energy -155917.190124 kJ/mol
# GULP energy per Si atom -5568.471076 kJ/mol
# Density = 2.090572 g / cm^3
# Si number density = 20.953415 Si / 1000 Ang^3
#
#
#
# Elastic Constant Matrix: (Units=GPa)
#
#
# Indices 1 2 3 4 5 6 
#
# 1 64.6002 15.4886 25.0477 0.0000 -13.8563 0.0000
# 2 15.4886 85.1660 42.8242 0.0000 -13.1767 0.0000
# 3 25.0477 42.8242 113.4924 0.0000 -3.6067 0.0000
# 4 0.0000 0.0000 0.0000 29.1456 0.0000 -10.5449
# 5 -13.8563 -13.1767 -3.6067 0.0000 33.0195 0.0000
# 6 0.0000 0.0000 0.0000 -10.5449 0.0000 33.7122
#
#
#
# Elastic Compliance Matrix: (Units=1/GPa)
#
#
# Indices 1 2 3 4 5 6 
#
# 1 0.018567 -0.000386 -0.003722 0.000000 0.007231 0.000000
# 2 -0.000386 0.015449 -0.005573 0.000000 0.005394 0.000000
# 3 -0.003722 -0.005573 0.011655 0.000000 -0.002513 0.000000
# 4 0.000000 0.000000 0.000000 0.038689 0.000000 0.012102
# 5 0.007231 0.005394 -0.002513 0.000000 0.035198 0.000000
# 6 0.000000 0.000000 0.000000 0.012102 0.000000 0.033448
#
#
# Mechanical properties :
#
#
# Convention : Reuss Voigt Hill
#
# Bulk Modulus (GPa) = 38.01017 47.77552 42.89285
# Shear Modulus (GPa) = 27.60345 31.16864 29.38605
#
# Velocity S-wave (km/s) = 3.63350 3.86102 3.74899
# Velocity P-wave (km/s) = 5.98187 6.53659 6.26537
#
# Compressibility (1/GPa) = 0.02630875
#
# Stress axis : x y z
#
# Youngs Moduli (GPa) = 53.86037 64.73051 85.79660
#
# Poissons Ratio (x) = 0.02501 0.31934
# Poissons Ratio (y) = 0.02081 0.47811
# Poissons Ratio (z) = 0.20047 0.36072
#
# Static dielectric constant tensor:
#      x y z
#    x 1.962690 0.000000 0.062490 
#    y 0.000000 1.735670 0.000000 
#    z 0.062490 0.000000 1.832280 
# 
# From -- ./inp_files/48246.got.cif
#   From: 2010.05.17/outbox.cif.g08.bks.cpg/sg13_25_cif.got.tgz:48246.got - 2010.06.03 16:44:36.
