data_PCOD9228085
_publ_section_title
;
Structure prediction by ZEFSAII (Michael W. Deem and Ramdas Pophale) SiO2 
 PCOD9228085
Probable space group: P 2/C
;
_chemical_formula_sum "Si O2"
_cell_formula_units_Z 24
_cell_length_a 15.323308
_cell_length_b 8.973742
_cell_length_c 14.899616
_cell_angle_alpha 90.000000
_cell_angle_beta 32.440069
_cell_angle_gamma 90.000000
_cell_volume 1099.015522
_symmetry_space_group_name_H-M "P 2/C"
_symmetry_group_IT_number 13
_symmetry_cell_setting 'monoclinic'
loop_
_space_group_symop_operation_xyz
x,y,z
-x,y,1/2-z
-x,-y,-z
x,-y,1/2+z
loop_
_atom_site_type_symbol
_atom_site_label
_atom_site_fract_x
_atom_site_fract_y
_atom_site_fract_z
Si Si1 0.845471 0.550440 0.022411
Si Si2 0.505239 0.079366 0.849916
Si Si3 0.339260 0.614320 0.488839
Si Si4 0.189354 0.594109 0.245125
Si Si5 0.041723 0.829995 0.808177
Si Si6 0.754419 0.058254 0.784368
O O1 0.707666 0.541996 0.066275
O O2 0.009181 0.452279 0.864521
O O3 0.902454 0.722408 0.964667
O O4 0.797766 0.525316 0.166265
O O5 0.500000 0.034672 0.750000
O O6 0.667206 0.042824 0.764261
O O7 0.477594 0.259816 0.873675
O O8 0.367266 0.999962 0.030505
O O9 0.333898 0.478511 0.562120
O O10 0.184912 0.715446 0.655300
O O11 0.204120 0.770675 0.235356
O O12 0.000000 0.907460 0.750000
O O13 0.097100 0.946466 0.832755
#
# Coordination Sequence:
#
# PCOD9228085 Si02
#       6
#     4   4   4   4   4   4
#     4   9  18  34  54  77 108 143 170 201 264 333
#     4  10  21  40  58  72 102 147 185 214 257 319
#     4   9  18  35  54  73 104 143 178 210 255 318
#     4  10  19  32  52  80 107 129 169 223 263 300
#     4   8  16  32  53  77 109 145 173 205 260 325
#     4  10  21  35  55  83 108 134 178 229 261 295
#
# _framework density 21.837724999999999
#
# number of rings (size 3 to 8) (size 9 to 14) (size 15 to 20)
#    0.000    2.667    0.000    2.500    0.000    2.667 
#    0.000   10.833    0.000    0.000    0.000    0.000 
#    0.000    0.000    0.000    0.000    0.000    0.000 
#
# Total GULP energy -133928.693573 kJ/mol
# GULP energy per Si atom -5580.362232 kJ/mol
# Density = 2.178802 g / cm^3
# Si number density = 21.837725 Si / 1000 Ang^3
#
#
#
# Elastic Constant Matrix: (Units=GPa)
#
#
# Indices 1 2 3 4 5 6 
#
# 1 138.1872 35.1741 23.9378 0.0000 20.4010 0.0000
# 2 35.1741 69.6989 -1.3763 0.0000 4.6236 0.0000
# 3 23.9378 -1.3763 39.2966 0.0000 17.1376 0.0000
# 4 0.0000 0.0000 0.0000 31.6408 0.0000 -5.3339
# 5 20.4010 4.6236 17.1376 0.0000 27.3191 0.0000
# 6 0.0000 0.0000 0.0000 -5.3339 0.0000 32.5813
#
#
#
# Elastic Compliance Matrix: (Units=1/GPa)
#
#
# Indices 1 2 3 4 5 6 
#
# 1 0.009778 -0.004782 -0.004532 0.000000 -0.003649 0.000000
# 2 -0.004782 0.016985 0.004411 0.000000 -0.002071 0.000000
# 3 -0.004532 0.004411 0.037461 0.000000 -0.020861 0.000000
# 4 0.000000 0.000000 0.000000 0.032502 0.000000 0.005321
# 5 -0.003649 -0.002071 -0.020861 0.000000 0.052767 0.000000
# 6 0.000000 0.000000 0.000000 0.005321 0.000000 0.031564
#
#
# Mechanical properties :
#
#
# Convention : Reuss Voigt Hill
#
# Bulk Modulus (GPa) = 18.37662 40.29487 29.33575
# Shear Modulus (GPa) = 23.92344 30.93805 27.43075
#
# Velocity S-wave (km/s) = 3.31344 3.76802 3.54802
# Velocity P-wave (km/s) = 4.80332 6.11741 5.49975
#
# Compressibility (1/GPa) = 0.05441696
#
# Stress axis : x y z
#
# Youngs Moduli (GPa) = 102.27543 58.87546 26.69475
#
# Poissons Ratio (x) = 0.28153 0.12098
# Poissons Ratio (y) = 0.48905 -0.11774
# Poissons Ratio (z) = 0.46352 -0.25968
#
# Static dielectric constant tensor:
#      x y z
#    x 1.849090 0.000000 -0.031600 
#    y 0.000000 1.747030 0.000000 
#    z -0.031600 0.000000 1.943150 
# 
# From -- ./inp_files/49332.got.cif
#   From: 2010.05.17/outbox.cif.g08.bks.cpg/sg13_25_cif.got.tgz:49332.got - 2010.06.03 16:44:36.
