data_PCOD9228769
_publ_section_title
;
Structure prediction by ZEFSAII (Michael W. Deem and Ramdas Pophale) SiO2 
 PCOD9228769
Probable space group: P 2/C
;
_chemical_formula_sum "Si O2"
_cell_formula_units_Z 24
_cell_length_a 16.719380
_cell_length_b 8.952845
_cell_length_c 17.517825
_cell_angle_alpha 90.000000
_cell_angle_beta 28.272525
_cell_angle_gamma 90.000000
_cell_volume 1242.034258
_symmetry_space_group_name_H-M "P 2/C"
_symmetry_group_IT_number 13
_symmetry_cell_setting 'monoclinic'
loop_
_space_group_symop_operation_xyz
x,y,z
-x,y,1/2-z
-x,-y,-z
x,-y,1/2+z
loop_
_atom_site_type_symbol
_atom_site_label
_atom_site_fract_x
_atom_site_fract_y
_atom_site_fract_z
Si Si1 0.113106 0.655971 0.322924
Si Si2 0.987726 0.367848 0.349821
Si Si3 0.830433 0.205831 0.167537
Si Si4 0.389384 0.463574 0.166601
Si Si5 0.387178 0.704980 0.275586
Si Si6 0.341359 0.906891 0.165032
O O1 0.210196 0.545978 0.300370
O O2 0.253728 0.781192 0.184524
O O3 0.037890 0.541144 0.324752
O O4 0.968225 0.742091 0.490391
O O5 0.800076 0.328423 0.536178
O O6 0.000000 0.337403 0.250000
O O7 0.112069 0.267971 0.297969
O O8 0.657609 0.291543 0.289962
O O9 0.797378 0.031629 0.198884
O O10 0.459939 0.548333 0.180636
O O11 0.500000 0.500000 0.000000
O O12 0.500000 0.760504 0.250000
O O13 0.386688 0.817695 0.204393
O O14 0.500000 0.000000 0.000000
#
# Coordination Sequence:
#
# PCOD9228769 Si02
#       6
#     4   4   4   4   4   4
#     4  10  20  40  61  89 121 158 214 255 296 373
#     4  11  23  39  64  95 120 161 211 267 318 359
#     4  11  19  40  65  87 119 166 216 254 298 375
#     4  10  19  35  63  90 118 159 206 254 304 366
#     4  11  24  42  59  94 132 157 206 266 323 372
#     4  11  24  40  64  94 125 171 211 251 317 385
#
# _framework density 19.323138
#
# number of rings (size 3 to 8) (size 9 to 14) (size 15 to 20)
#    0.000    1.333    5.000    3.500    7.000    0.000 
#    0.000    3.333    0.000    0.000    0.000    0.000 
#    0.000    0.000    0.000    0.000    0.000    0.000 
#
# Total GULP energy -133866.576326 kJ/mol
# GULP energy per Si atom -5577.774014 kJ/mol
# Density = 1.927916 g / cm^3
# Si number density = 19.323138 Si / 1000 Ang^3
#
#
#
# Elastic Constant Matrix: (Units=GPa)
#
#
# Indices 1 2 3 4 5 6 
#
# 1 91.4920 34.0271 29.8158 0.0000 13.7901 0.0000
# 2 34.0271 105.8911 17.4935 0.0000 -8.2054 0.0000
# 3 29.8158 17.4935 95.5333 0.0000 4.0618 0.0000
# 4 0.0000 0.0000 0.0000 39.1324 0.0000 -4.8103
# 5 13.7901 -8.2054 4.0618 0.0000 26.1981 0.0000
# 6 0.0000 0.0000 0.0000 -4.8103 0.0000 22.2351
#
#
#
# Elastic Compliance Matrix: (Units=1/GPa)
#
#
# Indices 1 2 3 4 5 6 
#
# 1 0.015311 -0.005053 -0.003466 0.000000 -0.009105 0.000000
# 2 -0.005053 0.011707 -0.000841 0.000000 0.006457 0.000000
# 3 -0.003466 -0.000841 0.011714 0.000000 -0.000255 0.000000
# 4 0.000000 0.000000 0.000000 0.026252 0.000000 0.005679
# 5 -0.009105 0.006457 -0.000255 0.000000 0.045025 0.000000
# 6 0.000000 0.000000 0.000000 0.005679 0.000000 0.046203
#
#
# Mechanical properties :
#
#
# Convention : Reuss Voigt Hill
#
# Bulk Modulus (GPa) = 49.97165 50.62102 50.29633
# Shear Modulus (GPa) = 27.53258 31.61847 29.57553
#
# Velocity S-wave (km/s) = 3.77881 4.04951 3.91650
# Velocity P-wave (km/s) = 6.70496 6.93676 6.82184
#
# Compressibility (1/GPa) = 0.02001135
#
# Stress axis : x y z
#
# Youngs Moduli (GPa) = 65.31234 85.42137 85.36629
#
# Poissons Ratio (x) = 0.43163 0.29590
# Poissons Ratio (y) = 0.33002 0.07181
# Poissons Ratio (z) = 0.22638 0.07185
#
# Static dielectric constant tensor:
#      x y z
#    x 1.686720 0.000000 -0.033880 
#    y 0.000000 1.702970 0.000000 
#    z -0.033880 0.000000 1.750050 
# 
# From -- ./inp_files/69413.got.cif
#   From: 2010.05.17/outbox.cif.g08.bks.cpg/sg13_35_cif.got.tgz:69413.got - 2010.06.03 16:44:36.
