data_PCOD9228242
_publ_section_title
;
Structure prediction by ZEFSAII (Michael W. Deem and Ramdas Pophale) SiO2 
 PCOD9228242
Probable space group: P 2/C
;
_chemical_formula_sum "Si O2"
_cell_formula_units_Z 24
_cell_length_a 26.708735
_cell_length_b 7.270038
_cell_length_c 13.659829
_cell_angle_alpha 90.000000
_cell_angle_beta 158.709931
_cell_angle_gamma 90.000000
_cell_volume 963.050886
_symmetry_space_group_name_H-M "P 2/C"
_symmetry_group_IT_number 13
_symmetry_cell_setting 'monoclinic'
loop_
_space_group_symop_operation_xyz
x,y,z
-x,y,1/2-z
-x,-y,-z
x,-y,1/2+z
loop_
_atom_site_type_symbol
_atom_site_label
_atom_site_fract_x
_atom_site_fract_y
_atom_site_fract_z
Si Si1 0.116460 0.741049 0.651498
Si Si2 0.769071 0.424880 0.840448
Si Si3 0.895438 0.304552 0.888847
Si Si4 0.371530 0.810162 0.711888
Si Si5 0.500000 0.331377 0.250000
Si Si6 0.000000 0.269427 0.750000
Si Si7 0.364275 0.232210 0.719409
O O1 0.086884 0.525442 0.579557
O O2 0.031251 0.788952 0.593502
O O3 0.053294 0.838103 0.441865
O O4 0.278794 0.754486 0.963845
O O5 0.849231 0.277130 0.916720
O O6 0.629746 0.450050 0.522794
O O7 0.720097 0.346684 0.854374
O O8 0.868151 0.599658 0.035635
O O9 0.775416 0.263204 0.591188
O O10 0.456314 0.792196 0.763689
O O11 0.355667 0.014744 0.723471
O O12 0.474929 0.713465 0.977724
#
# Coordination Sequence:
#
# PCOD9228242 Si02
#       7
#     4   4   4   4   2   2   4
#     4  10  20  34  53  77 108 140 177 219 267 313
#     4   9  16  30  54  77 103 138 178 210 260 321
#     4   9  18  34  55  78 105 141 177 220 264 316
#     4   9  19  34  54  79 110 139 176 217 262 315
#     4   8  16  32  52  74 102 142 180 216 256 318
#     4  10  20  36  52  76 110 142 176 222 266 314
#     4  10  19  33  54  82 110 141 176 219 264 314
#
# _framework density 24.920802999999999
#
# number of rings (size 3 to 8) (size 9 to 14) (size 15 to 20)
#    0.000    2.667    0.000    3.000    0.000    1.333 
#    0.000   10.000    0.000    7.000    0.000    0.000 
#    0.000    0.000    0.000    0.000    0.000    0.000 
#
# Total GULP energy -133878.622896 kJ/mol
# GULP energy per Si atom -5578.275954 kJ/mol
# Density = 2.486408 g / cm^3
# Si number density = 24.920803 Si / 1000 Ang^3
#
#
#
# Elastic Constant Matrix: (Units=GPa)
#
#
# Indices 1 2 3 4 5 6 
#
# 1 31.8020 10.4957 9.2076 0.0000 -0.1662 0.0000
# 2 10.4957 48.8532 -18.1790 0.0000 7.0740 0.0000
# 3 9.2076 -18.1790 163.8354 0.0000 -26.2041 0.0000
# 4 0.0000 0.0000 0.0000 -140.5682 0.0000 13.1218
# 5 -0.1662 7.0740 -26.2041 0.0000 34.9610 0.0000
# 6 0.0000 0.0000 0.0000 13.1218 0.0000 16.7328
#
#
#
# Elastic Compliance Matrix: (Units=1/GPa)
#
#
# Indices 1 2 3 4 5 6 
#
# 1 0.035150 -0.008615 -0.002983 0.000000 -0.000326 0.000000
# 2 -0.008615 0.023723 0.002661 0.000000 -0.002846 0.000000
# 3 -0.002983 0.002661 0.007361 0.000000 0.004964 0.000000
# 4 0.000000 0.000000 0.000000 -0.006629 0.000000 0.005198
# 5 -0.000326 -0.002846 0.004964 0.000000 0.032899 0.000000
# 6 0.000000 0.000000 0.000000 0.005198 0.000000 0.055686
#
#
# Mechanical properties :
#
#
# Convention : Reuss Voigt Hill
#
# Bulk Modulus (GPa) = 20.67856 27.50434 24.09145
# Shear Modulus (GPa) = 27.44497 -1.57712 12.93392
#
# Velocity S-wave (km/s) = 3.32217 -0.79638 2.28063
# Velocity P-wave (km/s) = 4.79911 3.19609 4.07716
#
# Compressibility (1/GPa) = 0.04835926
#
# Stress axis : x y z
#
# Youngs Moduli (GPa) = 28.44971 42.15377 135.85790
#
# Poissons Ratio (x) = 0.36314 0.40532
# Poissons Ratio (y) = 0.24508 -0.36153
# Poissons Ratio (z) = 0.08488 -0.11218
#
# Static dielectric constant tensor:
#      x y z
#    x 2.073060 0.000000 -0.020890 
#    y 0.000000 1.970130 0.000000 
#    z -0.020890 0.000000 2.054800 
# 
# From -- ./inp_files/59942.got.cif
#   From: 2010.05.17/outbox.cif.g08.bks.cpg/sg13_30_cif.got.tgz:59942.got - 2010.06.03 16:44:36.
