data_PCOD9228694
_publ_section_title
;
Structure prediction by ZEFSAII (Michael W. Deem and Ramdas Pophale) SiO2 
 PCOD9228694
Probable space group: P 2/C
;
_chemical_formula_sum "Si O2"
_cell_formula_units_Z 28
_cell_length_a 23.886826
_cell_length_b 5.521431
_cell_length_c 13.701089
_cell_angle_alpha 90.000000
_cell_angle_beta 34.409866
_cell_angle_gamma 90.000000
_cell_volume 1021.168628
_symmetry_space_group_name_H-M "P 2/C"
_symmetry_group_IT_number 13
_symmetry_cell_setting 'monoclinic'
loop_
_space_group_symop_operation_xyz
x,y,z
-x,y,1/2-z
-x,-y,-z
x,-y,1/2+z
loop_
_atom_site_type_symbol
_atom_site_label
_atom_site_fract_x
_atom_site_fract_y
_atom_site_fract_z
Si Si1 0.690456 0.635485 0.792505
Si Si2 0.104700 0.212561 0.406603
Si Si3 0.599488 0.158183 0.666837
Si Si4 0.910930 0.503844 0.251488
Si Si5 0.656426 0.872483 0.300467
Si Si6 0.702725 0.340758 0.038390
Si Si7 0.107138 0.847318 0.557022
O O1 0.797858 0.665820 0.686409
O O2 0.647925 0.371830 0.874663
O O3 0.690034 0.639197 0.674245
O O4 0.636115 0.887144 0.890888
O O5 0.103699 0.262240 0.293290
O O6 0.011117 0.363666 0.580475
O O7 0.101434 0.939826 0.453307
O O8 0.500000 0.177451 0.750000
O O9 0.591458 0.151157 0.797022
O O10 0.662213 0.403253 0.556918
O O11 0.652614 0.901303 0.572177
O O12 0.819848 0.672869 0.355686
O O13 0.900110 0.409078 0.377093
O O14 0.774022 0.896819 0.096932
O O15 0.000000 0.959212 0.750000
#
# Coordination Sequence:
#
# PCOD9228694 Si02
#       7
#     4   4   4   4   4   4   4
#     4   9  17  35  55  84 116 164 218 249 327 379
#     4  10  25  38  61  95 130 189 226 276 335 396
#     4  10  19  35  59  97 128 160 222 286 345 407
#     4  11  23  42  60  94 139 172 241 277 326 419
#     4   9  18  32  55  87 114 163 212 258 328 384
#     4  10  21  36  64  90 128 175 214 286 344 400
#     4  11  22  36  64  85 127 180 219 275 330 386
#
# _framework density 27.419567000000001
#
# number of rings (size 3 to 8) (size 9 to 14) (size 15 to 20)
#    0.000    2.000    2.857    1.286    6.000    0.571 
#    0.000    5.714    0.000    0.857    0.000   38.000 
#    0.000    0.000    0.000    0.000    0.000    0.000 
#
# Total GULP energy -156528.831319 kJ/mol
# GULP energy per Si atom -5590.315404 kJ/mol
# Density = 2.735716 g / cm^3
# Si number density = 27.419567 Si / 1000 Ang^3
#
#
#
# Elastic Constant Matrix: (Units=GPa)
#
#
# Indices 1 2 3 4 5 6 
#
# 1 125.8954 69.1056 54.7255 0.0000 -23.6153 0.0000
# 2 69.1056 209.6737 35.9499 0.0000 -16.4075 0.0000
# 3 54.7255 35.9499 95.6156 0.0000 -24.7968 0.0000
# 4 0.0000 0.0000 0.0000 13.7587 0.0000 -2.1870
# 5 -23.6153 -16.4075 -24.7968 0.0000 56.9387 0.0000
# 6 0.0000 0.0000 0.0000 -2.1870 0.0000 52.9990
#
#
#
# Elastic Compliance Matrix: (Units=1/GPa)
#
#
# Indices 1 2 3 4 5 6 
#
# 1 0.012286 -0.002972 -0.005428 0.000000 0.001875 0.000000
# 2 -0.002972 0.005843 -0.000427 0.000000 0.000265 0.000000
# 3 -0.005428 -0.000427 0.014779 0.000000 0.004062 0.000000
# 4 0.000000 0.000000 0.000000 0.073161 0.000000 0.003019
# 5 0.001875 0.000265 0.004062 0.000000 0.020186 0.000000
# 6 0.000000 0.000000 0.000000 0.003019 0.000000 0.018993
#
#
# Mechanical properties :
#
#
# Convention : Reuss Voigt Hill
#
# Bulk Modulus (GPa) = 65.55730 83.41629 74.48680
# Shear Modulus (GPa) = 29.76441 42.83287 36.29864
#
# Velocity S-wave (km/s) = 3.29829 3.95666 3.64238
# Velocity P-wave (km/s) = 6.20208 7.16672 6.70178
#
# Compressibility (1/GPa) = 0.01525383
#
# Stress axis : x y z
#
# Youngs Moduli (GPa) = 81.39620 171.15244 67.66217
#
# Poissons Ratio (x) = 0.50862 0.36727
# Poissons Ratio (y) = 0.24189 0.02890
# Poissons Ratio (z) = 0.44182 0.07311
#
# Static dielectric constant tensor:
#      x y z
#    x 2.101520 0.000000 0.012300 
#    y 0.000000 2.184040 0.000000 
#    z 0.012300 0.000000 2.105980 
# 
# From -- ./inp_files/82316.got.cif
#   From: 2010.05.17/outbox.cif.g08.bks.cpg/sg13_42_cif.got.tgz:82316.got - 2010.06.03 16:44:36.
