data_PCOD9228829
_publ_section_title
;
Structure prediction by ZEFSAII (Michael W. Deem and Ramdas Pophale) SiO2 
 PCOD9228829
Probable space group: P 2/C
;
_chemical_formula_sum "Si O2"
_cell_formula_units_Z 24
_cell_length_a 14.454491
_cell_length_b 18.236644
_cell_length_c 14.499729
_cell_angle_alpha 90.000000
_cell_angle_beta 19.828714
_cell_angle_gamma 90.000000
_cell_volume 1296.508869
_symmetry_space_group_name_H-M "P 2/C"
_symmetry_group_IT_number 13
_symmetry_cell_setting 'monoclinic'
loop_
_space_group_symop_operation_xyz
x,y,z
-x,y,1/2-z
-x,-y,-z
x,-y,1/2+z
loop_
_atom_site_type_symbol
_atom_site_label
_atom_site_fract_x
_atom_site_fract_y
_atom_site_fract_z
Si Si1 0.000000 0.387088 0.750000
Si Si2 0.248683 0.207889 0.326663
Si Si3 0.000000 0.152426 0.750000
Si Si4 0.723756 0.036325 0.227344
Si Si5 0.500000 0.505738 0.750000
Si Si6 0.216133 0.303576 0.724295
Si Si7 0.500000 0.057642 0.250000
Si Si8 0.721737 0.456283 0.734545
O O1 0.260197 0.439717 0.505260
O O2 0.049017 0.338471 0.794719
O O3 0.135582 0.195433 0.537812
O O4 0.276954 0.124950 0.264236
O O5 0.993363 0.251572 0.524451
O O6 0.522523 0.256590 0.057193
O O7 0.265473 0.103469 0.525785
O O8 0.664447 0.018325 0.175767
O O9 0.500000 0.000000 0.500000
O O10 0.000000 0.000000 0.000000
O O11 0.630544 0.461850 0.713217
O O12 0.284025 0.373200 0.723795
O O13 0.000000 0.500000 0.500000
O O14 0.500000 0.500000 0.000000
#
# Coordination Sequence:
#
# PCOD9228829 Si02
#       8
#     2   4   2   4   2   4   2   4
#     4  12  23  36  62  92 122 159 196 244 317 380
#     4  11  23  38  58  90 128 161 199 253 315 375
#     4  10  19  36  56  86 126 165 184 242 323 396
#     4  11  22  39  63  89 123 165 208 250 307 372
#     4  12  22  42  63  87 122 162 210 254 298 372
#     4  12  23  37  58  92 127 159 202 256 311 367
#     4  10  20  36  61  91 122 156 206 246 312 368
#     4  12  23  42  63  88 120 164 211 258 299 365
#
# _framework density 18.51125
#
# number of rings (size 3 to 8) (size 9 to 14) (size 15 to 20)
#    0.000    0.667    3.333    7.500    0.000    4.000 
#    0.000    0.000    0.000    6.000    0.000    0.000 
#    0.000    0.000    0.000    0.000    0.000    0.000 
#
# Total GULP energy -133824.605118 kJ/mol
# GULP energy per Si atom -5576.025213 kJ/mol
# Density = 1.846912 g / cm^3
# Si number density = 18.511250 Si / 1000 Ang^3
#
#
#
# Elastic Constant Matrix: (Units=GPa)
#
#
# Indices 1 2 3 4 5 6 
#
# 1 133.0821 66.6604 35.6803 0.0000 -14.7474 0.0000
# 2 66.6604 139.1497 56.4932 0.0000 -1.8369 0.0000
# 3 35.6803 56.4932 139.3490 0.0000 -23.3942 0.0000
# 4 0.0000 0.0000 0.0000 45.6093 0.0000 -2.1996
# 5 -14.7474 -1.8369 -23.3942 0.0000 29.2844 0.0000
# 6 0.0000 0.0000 0.0000 -2.1996 0.0000 26.7255
#
#
#
# Elastic Compliance Matrix: (Units=1/GPa)
#
#
# Indices 1 2 3 4 5 6 
#
# 1 0.010579 -0.005091 0.000226 0.000000 0.005189 0.000000
# 2 -0.005091 0.011227 -0.004111 0.000000 -0.005144 0.000000
# 3 0.000226 -0.004111 0.010118 0.000000 0.007939 0.000000
# 4 0.000000 0.000000 0.000000 0.022013 0.000000 0.001812
# 5 0.005189 -0.005144 0.007939 0.000000 0.042780 0.000000
# 6 0.000000 0.000000 0.000000 0.001812 0.000000 0.037567
#
#
# Mechanical properties :
#
#
# Convention : Reuss Voigt Hill
#
# Bulk Modulus (GPa) = 71.57719 81.02761 76.30240
# Shear Modulus (GPa) = 31.86904 37.17363 34.52133
#
# Velocity S-wave (km/s) = 4.15372 4.48612 4.32312
# Velocity P-wave (km/s) = 7.85846 8.40837 8.13806
#
# Compressibility (1/GPa) = 0.01397093
#
# Stress axis : x y z
#
# Youngs Moduli (GPa) = 94.53050 89.07300 98.83534
#
# Poissons Ratio (x) = 0.45349 -0.02238
# Poissons Ratio (y) = 0.48127 0.40635
# Poissons Ratio (z) = -0.02141 0.36622
#
# Static dielectric constant tensor:
#      x y z
#    x 1.695130 0.000000 0.006900 
#    y 0.000000 1.685100 0.000000 
#    z 0.006900 0.000000 1.651590 
# 
# From -- ./inp_files/53922.got.cif
#   From: 2010.05.17/outbox.cif.g08.bks.cpg/sg13_27_cif.got.tgz:53922.got - 2010.06.03 16:44:36.
