data_PCOD9228387
_publ_section_title
;
Structure prediction by ZEFSAII (Michael W. Deem and Ramdas Pophale) SiO2 
 PCOD9228387
Probable space group: P 2/C
;
_chemical_formula_sum "Si O2"
_cell_formula_units_Z 22
_cell_length_a 5.262466
_cell_length_b 26.290456
_cell_length_c 7.889321
_cell_angle_alpha 90.000000
_cell_angle_beta 59.446072
_cell_angle_gamma 90.000000
_cell_volume 939.953557
_symmetry_space_group_name_H-M "P 2/C"
_symmetry_group_IT_number 13
_symmetry_cell_setting 'monoclinic'
loop_
_space_group_symop_operation_xyz
x,y,z
-x,y,1/2-z
-x,-y,-z
x,-y,1/2+z
loop_
_atom_site_type_symbol
_atom_site_label
_atom_site_fract_x
_atom_site_fract_y
_atom_site_fract_z
Si Si1 0.000000 0.497476 0.250000
Si Si2 0.793988 0.425375 0.038434
Si Si3 0.137669 0.098044 0.522605
Si Si4 0.635430 0.946904 0.017730
Si Si5 0.854955 0.317651 0.111918
Si Si6 0.854933 0.793329 0.614532
O O1 0.995411 0.458982 0.094554
O O2 0.753994 0.540250 0.384342
O O3 0.500000 0.422258 0.250000
O O4 0.915013 0.368283 0.983002
O O5 0.486742 0.092855 0.438512
O O6 0.052260 0.155913 0.513816
O O7 0.000000 0.083099 0.750000
O O8 0.982196 0.061186 0.437463
O O9 0.500000 0.937908 0.250000
O O10 0.500000 0.000000 0.000000
O O11 0.500000 0.314826 0.250000
O O12 0.946653 0.262149 0.011863
O O13 0.000000 0.324269 0.250000
O O14 0.500000 0.794490 0.750000
O O15 0.000000 0.795905 0.750000
#
# Coordination Sequence:
#
# PCOD9228387 Si02
#       6
#     2   4   4   4   4   4
#     4  10  20  32  54  82 106 150 198 228 294 360
#     4  10  19  34  53  78 112 149 188 242 294 343
#     4  10  21  37  54  79 111 144 174 223 279 321
#     4  10  21  36  55  79 110 143 178 219 271 323
#     4   9  18  34  56  77 110 146 182 231 288 327
#     4  10  20  35  57  83 105 143 190 229 272 334
#
# _framework density 23.405408999999999
#
# number of rings (size 3 to 8) (size 9 to 14) (size 15 to 20)
#    0.000    2.182    0.909    2.182    0.000    2.182 
#    1.636    0.000    0.000    0.000    0.000    0.000 
#    0.000    0.000    0.000    0.000    0.000    0.000 
#
# Total GULP energy -122574.448456 kJ/mol
# GULP energy per Si atom -5571.565839 kJ/mol
# Density = 2.335214 g / cm^3
# Si number density = 23.405409 Si / 1000 Ang^3
#
#
#
# Elastic Constant Matrix: (Units=GPa)
#
#
# Indices 1 2 3 4 5 6 
#
# 1 151.2680 37.8758 18.5617 0.0000 17.7948 0.0000
# 2 37.8758 192.5211 11.6480 0.0000 25.8307 0.0000
# 3 18.5617 11.6480 51.4183 0.0000 17.7450 0.0000
# 4 0.0000 0.0000 0.0000 41.4819 0.0000 6.9315
# 5 17.7948 25.8307 17.7450 0.0000 26.7606 0.0000
# 6 0.0000 0.0000 0.0000 6.9315 0.0000 30.6907
#
#
#
# Elastic Compliance Matrix: (Units=1/GPa)
#
#
# Indices 1 2 3 4 5 6 
#
# 1 0.007381 -0.000957 -0.001391 0.000000 -0.003062 0.000000
# 2 -0.000957 0.006118 0.001009 0.000000 -0.005938 0.000000
# 3 -0.001391 0.001009 0.025596 0.000000 -0.017022 0.000000
# 4 0.000000 0.000000 0.000000 0.025052 0.000000 -0.005658
# 5 -0.003062 -0.005938 -0.017022 0.000000 0.056423 0.000000
# 6 0.000000 0.000000 0.000000 -0.005658 0.000000 0.033861
#
#
# Mechanical properties :
#
#
# Convention : Reuss Voigt Hill
#
# Bulk Modulus (GPa) = 27.45962 59.04205 43.25083
# Shear Modulus (GPa) = 29.54201 41.59476 35.56839
#
# Velocity S-wave (km/s) = 3.55658 4.22019 3.90252
# Velocity P-wave (km/s) = 5.35008 7.00195 6.23099
#
# Compressibility (1/GPa) = 0.03641711
#
# Stress axis : x y z
#
# Youngs Moduli (GPa) = 135.47657 163.44604 39.06805
#
# Poissons Ratio (x) = 0.15645 0.05435
# Poissons Ratio (y) = 0.12968 -0.03941
# Poissons Ratio (z) = 0.18846 -0.16489
#
# Static dielectric constant tensor:
#      x y z
#    x 1.962770 0.000000 -0.017270 
#    y 0.000000 1.933670 0.000000 
#    z -0.017270 0.000000 1.946070 
# 
# From -- ./inp_files/10220.got.cif
#   From: 2010.05.17/outbox.cif.g08.bks.cpg/sg13_6_cif.got.tgz:10220.got - 2010.06.03 16:44:36.
