data_PCOD9228111
_publ_section_title
;
Structure prediction by ZEFSAII (Michael W. Deem and Ramdas Pophale) SiO2 
 PCOD9228111
Probable space group: P 2/C
;
_chemical_formula_sum "Si O2"
_cell_formula_units_Z 16
_cell_length_a 14.591469
_cell_length_b 3.979950
_cell_length_c 15.990264
_cell_angle_alpha 90.000000
_cell_angle_beta 33.088430
_cell_angle_gamma 90.000000
_cell_volume 506.957372
_symmetry_space_group_name_H-M "P 2/C"
_symmetry_group_IT_number 13
_symmetry_cell_setting 'monoclinic'
loop_
_space_group_symop_operation_xyz
x,y,z
-x,y,1/2-z
-x,-y,-z
x,-y,1/2+z
loop_
_atom_site_type_symbol
_atom_site_label
_atom_site_fract_x
_atom_site_fract_y
_atom_site_fract_z
Si Si1 0.609211 0.226261 0.481000
Si Si2 0.879084 0.724661 0.650935
Si Si3 0.866771 0.238929 0.414574
Si Si4 0.373909 0.671654 0.782096
O O1 0.741901 0.427446 0.320484
O O2 0.738740 0.056655 0.448677
O O3 0.489099 0.448897 0.631941
O O4 0.500000 0.000000 0.500000
O O5 0.749070 0.883699 0.683771
O O6 0.000000 0.500000 0.500000
O O7 0.003342 0.925425 0.617900
O O8 0.748687 0.465063 0.563079
O O9 0.000000 0.416520 0.250000
O O10 0.500000 0.850552 0.750000
#
# Coordination Sequence:
#
# PCOD9228111 Si02
#       4
#     4   4   4   4
#     4  10  19  32  53  81 112 147 184 231 289 345
#     4   9  17  33  56  78 103 142 184 228 278 335
#     4   8  16  32  53  73 103 141 177 224 284 334
#     4   9  17  31  54  80 107 142 187 235 278 332
#
# _framework density 31.560836999999999
#
# number of rings (size 3 to 8) (size 9 to 14) (size 15 to 20)
#    0.000    3.000    0.000    0.750    0.000    0.000 
#    0.000   15.000    0.000   37.500    0.000    0.000 
#    0.000    0.000    0.000    0.000    0.000    0.000 
#
# Total GULP energy -89274.721934 kJ/mol
# GULP energy per Si atom -5579.670121 kJ/mol
# Density = 3.148900 g / cm^3
# Si number density = 31.560837 Si / 1000 Ang^3
#
#
#
# Elastic Constant Matrix: (Units=GPa)
#
#
# Indices 1 2 3 4 5 6 
#
# 1 487.8577 70.4799 2.8820 0.0000 -22.6539 0.0000
# 2 70.4799 67.9252 94.7173 0.0000 3.2057 0.0000
# 3 2.8820 94.7173 413.7075 0.0000 25.9457 0.0000
# 4 0.0000 0.0000 0.0000 84.1564 0.0000 10.6838
# 5 -22.6539 3.2057 25.9457 0.0000 47.5456 0.0000
# 6 0.0000 0.0000 0.0000 10.6838 0.0000 50.8570
#
#
#
# Elastic Compliance Matrix: (Units=1/GPa)
#
#
# Indices 1 2 3 4 5 6 
#
# 1 0.002668 -0.003965 0.000821 0.000000 0.001091 0.000000
# 2 -0.003965 0.027593 -0.006269 0.000000 -0.000328 0.000000
# 3 0.000821 -0.006269 0.003930 0.000000 -0.001331 0.000000
# 4 0.000000 0.000000 0.000000 0.012208 0.000000 -0.002565
# 5 0.001091 -0.000328 -0.001331 0.000000 0.022301 0.000000
# 6 0.000000 0.000000 0.000000 -0.002565 0.000000 0.020202
#
#
# Mechanical properties :
#
#
# Convention : Reuss Voigt Hill
#
# Bulk Modulus (GPa) = 65.08016 145.07208 105.07612
# Shear Modulus (GPa) = 44.30641 89.93921 67.12281
#
# Velocity S-wave (km/s) = 3.75085 5.34406 4.61670
# Velocity P-wave (km/s) = 6.27884 9.17302 7.86028
#
# Compressibility (1/GPa) = 0.01536567
#
# Stress axis : x y z
#
# Youngs Moduli (GPa) = 374.76530 36.24074 254.43729
#
# Poissons Ratio (x) = 0.14368 -0.20881
# Poissons Ratio (y) = 1.48578 1.59512
# Poissons Ratio (z) = -0.30756 0.22720
#
# Static dielectric constant tensor:
#      x y z
#    x 2.388060 0.000000 0.011160 
#    y 0.000000 2.489710 0.000000 
#    z 0.011160 0.000000 2.369520 
# 
# From -- ./inp_files/27366.got.cif
#   From: 2010.05.17/outbox.cif.g08.bks.cpg/sg13_14_cif.got.tgz:27366.got - 2010.06.03 16:44:36.
