data_PCOD9228225
_publ_section_title
;
Structure prediction by ZEFSAII (Michael W. Deem and Ramdas Pophale) SiO2 
 PCOD9228225
Probable space group: P 2/C
;
_chemical_formula_sum "Si O2"
_cell_formula_units_Z 20
_cell_length_a 24.248755
_cell_length_b 8.357376
_cell_length_c 5.165761
_cell_angle_alpha 90.000000
_cell_angle_beta 99.743712
_cell_angle_gamma 90.000000
_cell_volume 1031.770760
_symmetry_space_group_name_H-M "P 2/C"
_symmetry_group_IT_number 13
_symmetry_cell_setting 'monoclinic'
loop_
_space_group_symop_operation_xyz
x,y,z
-x,y,1/2-z
-x,-y,-z
x,-y,1/2+z
loop_
_atom_site_type_symbol
_atom_site_label
_atom_site_fract_x
_atom_site_fract_y
_atom_site_fract_z
Si Si1 0.603245 0.607207 0.874821
Si Si2 0.152100 0.388741 0.940937
Si Si3 0.065464 0.893537 0.281549
Si Si4 0.273007 0.603437 0.434195
Si Si5 0.437311 0.934118 0.493333
O O1 0.596371 0.529808 0.587730
O O2 0.666482 0.676126 0.957878
O O3 0.563388 0.753847 0.909204
O O4 0.147859 0.524638 0.714837
O O5 0.105111 0.256548 0.862855
O O6 0.214399 0.313658 0.953765
O O7 0.000000 0.846963 0.250000
O O8 0.075288 0.026990 0.510220
O O9 0.272373 0.547273 0.135244
O O10 0.500000 0.000000 0.500000
O O11 0.409814 0.043805 0.691915
#
# Coordination Sequence:
#
# PCOD9228225 Si02
#       5
#     4   4   4   4   4
#     4  10  19  35  58  79  99 135 179 207 243 310
#     4  10  19  33  54  78 102 131 171 217 257 300
#     4  10  21  36  51  71 105 142 172 210 258 304
#     4   8  16  30  50  76 103 127 161 213 259 293
#     4  10  21  38  53  74 109 137 160 209 264 295
#
# _framework density 19.384149000000001
#
# number of rings (size 3 to 8) (size 9 to 14) (size 15 to 20)
#    0.000    2.400    0.000    2.400    0.000    0.800 
#    0.000   14.000    0.000    0.000    0.000    0.000 
#    0.000    0.000    0.000    0.000    0.000    0.000 
#
# Total GULP energy -111455.861969 kJ/mol
# GULP energy per Si atom -5572.793098 kJ/mol
# Density = 1.934003 g / cm^3
# Si number density = 19.384149 Si / 1000 Ang^3
#
#
#
# Elastic Constant Matrix: (Units=GPa)
#
#
# Indices 1 2 3 4 5 6 
#
# 1 78.3597 37.5805 -3.8356 0.0000 11.1637 0.0000
# 2 37.5805 39.8696 -15.8671 0.0000 5.2739 0.0000
# 3 -3.8356 -15.8671 78.5840 0.0000 -13.7984 0.0000
# 4 0.0000 0.0000 0.0000 18.0181 0.0000 -7.8815
# 5 11.1637 5.2739 -13.7984 0.0000 22.0836 0.0000
# 6 0.0000 0.0000 0.0000 -7.8815 0.0000 -24.9586
#
#
#
# Elastic Compliance Matrix: (Units=1/GPa)
#
#
# Indices 1 2 3 4 5 6 
#
# 1 0.026352 -0.025719 -0.005804 0.000000 -0.010806 0.000000
# 2 -0.025719 0.052611 0.010608 0.000000 0.007065 0.000000
# 3 -0.005804 0.010608 0.016460 0.000000 0.010685 0.000000
# 4 0.000000 0.000000 0.000000 0.048764 0.000000 -0.015399
# 5 -0.010806 0.007065 0.010685 0.000000 0.055734 0.000000
# 6 0.000000 0.000000 0.000000 -0.015399 0.000000 -0.035204
#
#
# Mechanical properties :
#
#
# Convention : Reuss Voigt Hill
#
# Bulk Modulus (GPa) = 18.65924 25.84098 22.25011
# Shear Modulus (GPa) = 22.28039 14.95764 18.61901
#
# Velocity S-wave (km/s) = 3.39398 2.78086 3.10260
# Velocity P-wave (km/s) = 5.00057 4.86527 4.93338
#
# Compressibility (1/GPa) = 0.05359275
#
# Stress axis : x y z
#
# Youngs Moduli (GPa) = 37.94822 19.00728 60.75300
#
# Poissons Ratio (x) = 0.48885 0.35262
# Poissons Ratio (y) = 0.97600 -0.64448
# Poissons Ratio (z) = 0.22026 -0.20163
#
# Static dielectric constant tensor:
#      x y z
#    x 1.635220 0.000000 -0.133790 
#    y 0.000000 1.643130 0.000000 
#    z -0.133790 0.000000 1.494390 
# 
# From -- ./inp_files/6713.got.cif
#   From: 2010.05.17/outbox.cif.g08.bks.cpg/sg13_4_cif.got.tgz:6713.got - 2010.06.03 16:44:36.
