data_PCOD9228969
_publ_section_title
;
Structure prediction by ZEFSAII (Michael W. Deem and Ramdas Pophale) SiO2 
 PCOD9228969
Probable space group: P 2/C
;
_chemical_formula_sum "Si O2"
_cell_formula_units_Z 30
_cell_length_a 12.392276
_cell_length_b 9.367135
_cell_length_c 14.582297
_cell_angle_alpha 90.000000
_cell_angle_beta 120.731606
_cell_angle_gamma 90.000000
_cell_volume 1455.007741
_symmetry_space_group_name_H-M "P 2/C"
_symmetry_group_IT_number 13
_symmetry_cell_setting 'monoclinic'
loop_
_space_group_symop_operation_xyz
x,y,z
-x,y,1/2-z
-x,-y,-z
x,-y,1/2+z
loop_
_atom_site_type_symbol
_atom_site_label
_atom_site_fract_x
_atom_site_fract_y
_atom_site_fract_z
Si Si1 0.807529 0.684362 0.725426
Si Si2 0.414732 0.041202 0.092500
Si Si3 0.027916 0.535353 0.117677
Si Si4 0.303645 0.024394 0.350435
Si Si5 0.500000 0.219808 0.750000
Si Si6 0.640669 0.665360 0.833969
Si Si7 0.242760 0.553259 0.434913
Si Si8 0.725702 0.716102 0.230627
O O1 0.935717 0.610442 0.813608
O O2 0.796880 0.850806 0.702332
O O3 0.721373 0.653923 0.777231
O O4 0.758256 0.600525 0.614425
O O5 0.558590 0.077466 0.124830
O O6 0.362271 0.169763 0.131291
O O7 0.429439 0.890290 0.150550
O O8 0.330270 0.020781 0.966327
O O9 0.147155 0.639975 0.180560
O O10 0.902226 0.595345 0.109422
O O11 0.000000 0.500000 0.000000
O O12 0.264180 0.886283 0.275588
O O13 0.394166 0.307832 0.756985
O O14 0.500000 0.626807 0.750000
O O15 0.690611 0.570260 0.939394
O O16 0.300247 0.655047 0.382221
#
# Coordination Sequence:
#
# PCOD9228969 Si02
#       8
#     4   4   4   4   2   4   4   4
#     4  11  23  42  68  95 131 179 220 276 328 401
#     4  10  19  36  62  95 144 174 198 275 350 403
#     4  11  24  48  69  90 131 185 228 275 339 388
#     4  10  20  38  65  97 133 175 218 267 341 401
#     4  10  20  36  64 104 136 162 220 280 334 394
#     4  12  21  40  68  99 133 177 221 267 343 408
#     4  11  25  46  66  92 137 184 224 273 339 394
#     4  10  21  41  69  98 132 175 218 270 336 404
#
# _framework density 20.618445999999999
#
# number of rings (size 3 to 8) (size 9 to 14) (size 15 to 20)
#    0.000    1.333    4.667    2.400    0.000    1.600 
#    4.800    3.333    0.000    0.000    0.000    0.000 
#    0.000    0.000    0.000    0.000    0.000    0.000 
#
# Total GULP energy -167671.664526 kJ/mol
# GULP energy per Si atom -5589.055484 kJ/mol
# Density = 2.057152 g / cm^3
# Si number density = 20.618446 Si / 1000 Ang^3
#
#
#
# Elastic Constant Matrix: (Units=GPa)
#
#
# Indices 1 2 3 4 5 6 
#
# 1 114.4530 27.0185 48.7717 0.0000 -17.5085 0.0000
# 2 27.0185 91.6553 32.0720 0.0000 6.2216 0.0000
# 3 48.7717 32.0720 135.3394 0.0000 2.5612 0.0000
# 4 0.0000 0.0000 0.0000 27.7071 0.0000 -12.9409
# 5 -17.5085 6.2216 2.5612 0.0000 28.4477 0.0000
# 6 0.0000 0.0000 0.0000 -12.9409 0.0000 20.9272
#
#
#
# Elastic Compliance Matrix: (Units=1/GPa)
#
#
# Indices 1 2 3 4 5 6 
#
# 1 0.012420 -0.002861 -0.003961 0.000000 0.008626 0.000000
# 2 -0.002861 0.012715 -0.001900 0.000000 -0.004371 0.000000
# 3 -0.003961 -0.001900 0.009321 0.000000 -0.002862 0.000000
# 4 0.000000 0.000000 0.000000 0.050749 0.000000 0.031382
# 5 0.008626 -0.004371 -0.002862 0.000000 0.041675 0.000000
# 6 0.000000 0.000000 0.000000 0.031382 0.000000 0.067191
#
#
# Mechanical properties :
#
#
# Convention : Reuss Voigt Hill
#
# Bulk Modulus (GPa) = 58.77854 61.90801 60.34328
# Shear Modulus (GPa) = 23.02194 30.98876 27.00535
#
# Velocity S-wave (km/s) = 3.34514 3.88101 3.62300
# Velocity P-wave (km/s) = 6.59466 7.08334 6.84337
#
# Compressibility (1/GPa) = 0.01701301
#
# Stress axis : x y z
#
# Youngs Moduli (GPa) = 80.51462 78.64666 107.28952
#
# Poissons Ratio (x) = 0.22499 0.42498
# Poissons Ratio (y) = 0.23033 0.20380
# Poissons Ratio (z) = 0.31893 0.14939
#
# Static dielectric constant tensor:
#      x y z
#    x 1.757630 0.000000 -0.026850 
#    y 0.000000 1.758690 0.000000 
#    z -0.026850 0.000000 1.738930 
# 
# From -- ./inp_files/50392.got.cif
#   From: 2010.05.17/outbox.cif.g08.bks.cpg/sg13_26_cif.got.tgz:50392.got - 2010.06.03 16:44:36.
