data_PCOD9228026
_publ_section_title
;
Structure prediction by ZEFSAII (Michael W. Deem and Ramdas Pophale) SiO2 
 PCOD9228026
Probable space group: P 2/C
;
_chemical_formula_sum "Si O2"
_cell_formula_units_Z 30
_cell_length_a 12.747613
_cell_length_b 11.961767
_cell_length_c 11.780588
_cell_angle_alpha 90.000000
_cell_angle_beta 73.603284
_cell_angle_gamma 90.000000
_cell_volume 1723.293593
_symmetry_space_group_name_H-M "P 2/C"
_symmetry_group_IT_number 13
_symmetry_cell_setting 'monoclinic'
loop_
_space_group_symop_operation_xyz
x,y,z
-x,y,1/2-z
-x,-y,-z
x,-y,1/2+z
loop_
_atom_site_type_symbol
_atom_site_label
_atom_site_fract_x
_atom_site_fract_y
_atom_site_fract_z
Si Si1 0.930683 0.595393 0.157447
Si Si2 0.239947 0.279644 0.644839
Si Si3 0.539706 0.154595 0.866714
Si Si4 0.801331 0.172587 0.188678
Si Si5 0.854705 0.385014 0.034708
Si Si6 0.000000 0.073074 0.250000
Si Si7 0.637191 0.915230 0.906307
Si Si8 0.164757 0.050031 0.551814
O O1 0.835639 0.677079 0.229597
O O2 0.876669 0.498532 0.097040
O O3 0.000000 0.556807 0.250000
O O4 0.025794 0.649455 0.051253
O O5 0.362999 0.242498 0.637106
O O6 0.224685 0.373846 0.550849
O O7 0.187876 0.165164 0.612163
O O8 0.500000 0.168758 0.750000
O O9 0.582600 0.027130 0.871244
O O10 0.442949 0.155979 0.989592
O O11 0.810038 0.294031 0.134242
O O12 0.901215 0.150064 0.241375
O O13 0.688570 0.152747 0.287172
O O14 0.821071 0.082939 0.082712
O O15 0.949229 0.997999 0.366691
O O16 0.738992 0.963236 0.947579
#
# Coordination Sequence:
#
# PCOD9228026 Si02
#       8
#     4   4   4   4   4   2   4   4
#     4   9  18  35  57  79 101 137 179 219 265 321
#     4   9  19  34  55  77 102 135 183 217 266 318
#     4  10  19  35  56  77 103 141 185 223 255 313
#     4  10  19  32  47  75 108 139 171 211 264 314
#     4   9  19  34  54  78 106 136 170 218 271 318
#     4  10  20  28  44  74 112 142 168 204 254 324
#     4   9  19  34  51  76 106 138 182 218 254 304
#     4   9  18  31  48  72 107 146 170 207 258 314
#
# _framework density 17.408524
#
# number of rings (size 3 to 8) (size 9 to 14) (size 15 to 20)
#    0.000    2.667    0.000    1.200    5.600    1.067 
#    7.200    0.000    0.000    3.200    0.000    0.000 
#    0.000    0.000    0.000    0.000    0.000    0.000 
#
# Total GULP energy -167002.245032 kJ/mol
# GULP energy per Si atom -5566.741501 kJ/mol
# Density = 1.736890 g / cm^3
# Si number density = 17.408524 Si / 1000 Ang^3
#
#
#
# Elastic Constant Matrix: (Units=GPa)
#
#
# Indices 1 2 3 4 5 6 
#
# 1 90.7312 33.7879 56.8403 0.0000 -15.1005 0.0000
# 2 33.7879 32.9126 34.8004 0.0000 -10.6701 0.0000
# 3 56.8403 34.8004 115.3770 0.0000 -28.8098 0.0000
# 4 0.0000 0.0000 0.0000 23.1756 0.0000 -0.8128
# 5 -15.1005 -10.6701 -28.8098 0.0000 30.2161 0.0000
# 6 0.0000 0.0000 0.0000 -0.8128 0.0000 17.4808
#
#
#
# Elastic Compliance Matrix: (Units=1/GPa)
#
#
# Indices 1 2 3 4 5 6 
#
# 1 0.019858 -0.014788 -0.005445 0.000000 -0.000489 0.000000
# 2 -0.014788 0.055964 -0.008539 0.000000 0.004231 0.000000
# 3 -0.005445 -0.008539 0.016396 0.000000 0.009897 0.000000
# 4 0.000000 0.000000 0.000000 0.043219 0.000000 0.002010
# 5 -0.000489 0.004231 0.009897 0.000000 0.043781 0.000000
# 6 0.000000 0.000000 0.000000 0.002010 0.000000 0.057299
#
#
# Mechanical properties :
#
#
# Convention : Reuss Voigt Hill
#
# Bulk Modulus (GPa) = 28.83781 54.43090 41.63435
# Shear Modulus (GPa) = 16.36025 21.74732 19.05379
#
# Velocity S-wave (km/s) = 3.06891 3.53829 3.31193
# Velocity P-wave (km/s) = 5.39990 6.93017 6.21234
#
# Compressibility (1/GPa) = 0.03467670
#
# Stress axis : x y z
#
# Youngs Moduli (GPa) = 50.35740 17.86852 60.98907
#
# Poissons Ratio (x) = 0.26423 0.33208
# Poissons Ratio (y) = 0.74466 0.52076
# Poissons Ratio (z) = 0.27419 0.15257
#
# Static dielectric constant tensor:
#      x y z
#    x 1.601720 0.000000 0.015480 
#    y 0.000000 1.574320 0.000000 
#    z 0.015480 0.000000 1.627470 
# 
# From -- ./inp_files/33827.got.cif
#   From: 2010.05.17/outbox.cif.g08.bks.cpg/sg13_17_cif.got.tgz:33827.got - 2010.06.03 16:44:36.
