data_PCOD9228287
_publ_section_title
;
Structure prediction by ZEFSAII (Michael W. Deem and Ramdas Pophale) SiO2 
 PCOD9228287
Probable space group: P 2/C
;
_chemical_formula_sum "Si O2"
_cell_formula_units_Z 32
_cell_length_a 11.207359
_cell_length_b 9.459602
_cell_length_c 14.868184
_cell_angle_alpha 90.000000
_cell_angle_beta 88.274482
_cell_angle_gamma 90.000000
_cell_volume 1575.567809
_symmetry_space_group_name_H-M "P 2/C"
_symmetry_group_IT_number 13
_symmetry_cell_setting 'monoclinic'
loop_
_space_group_symop_operation_xyz
x,y,z
-x,y,1/2-z
-x,-y,-z
x,-y,1/2+z
loop_
_atom_site_type_symbol
_atom_site_label
_atom_site_fract_x
_atom_site_fract_y
_atom_site_fract_z
Si Si1 0.038874 0.803227 0.646262
Si Si2 0.786029 0.137860 0.068294
Si Si3 0.274876 0.613310 0.062422
Si Si4 0.572889 0.374371 0.390113
Si Si5 0.739022 0.162447 0.489808
Si Si6 0.932658 0.462833 0.841057
Si Si7 0.164648 0.418496 0.917486
Si Si8 0.316282 0.355335 0.308729
O O1 0.928538 0.847139 0.582984
O O2 0.000000 0.848319 0.750000
O O3 0.160422 0.851033 0.592131
O O4 0.059971 0.633432 0.653983
O O5 0.736172 0.203801 0.162445
O O6 0.738730 0.245481 0.992634
O O7 0.734684 0.989073 0.037570
O O8 0.398089 0.532009 0.073444
O O9 0.194857 0.612648 0.152913
O O10 0.199803 0.498069 0.007776
O O11 0.624381 0.245957 0.449956
O O12 0.435478 0.369626 0.365934
O O13 0.646974 0.363666 0.295091
O O14 0.780822 0.265972 0.569306
O O15 0.000000 0.419254 0.750000
O O16 0.023920 0.405554 0.913371
O O17 0.222982 0.523410 0.841934
#
# Coordination Sequence:
#
# PCOD9228287 Si02
#       8
#     4   4   4   4   4   4   4   4
#     4  11  20  35  59  82 114 152 187 224 274 332
#     4  11  23  37  56  84 118 151 182 224 278 339
#     4  10  19  33  56  81 108 139 183 230 273 322
#     4  10  21  39  61  82 106 143 192 238 280 327
#     4  11  23  37  56  84 118 151 182 224 278 339
#     4  11  18  30  55  83 108 138 185 232 274 319
#     4  10  19  33  56  81 108 139 183 230 273 322
#     4  10  21  39  61  82 106 143 192 238 280 327
#
# _framework density 20.310138999999999
#
# number of rings (size 3 to 8) (size 9 to 14) (size 15 to 20)
#    0.000    1.500    5.000    3.000    0.000    5.000 
#    0.000    6.250    0.000    3.000    0.000    0.000 
#    0.000    0.000    0.000    0.000    0.000    0.000 
#
# Total GULP energy -178258.580700 kJ/mol
# GULP energy per Si atom -5570.580647 kJ/mol
# Density = 2.026391 g / cm^3
# Si number density = 20.310139 Si / 1000 Ang^3
#
#
#
# Elastic Constant Matrix: (Units=GPa)
#
#
# Indices 1 2 3 4 5 6 
#
# 1 72.5144 7.4811 -10.7542 0.0000 12.2364 0.0000
# 2 7.4811 118.6223 13.7570 0.0000 6.3744 0.0000
# 3 -10.7542 13.7570 48.7841 0.0000 -6.6389 0.0000
# 4 0.0000 0.0000 0.0000 18.3826 0.0000 5.9368
# 5 12.2364 6.3744 -6.6389 0.0000 35.3615 0.0000
# 6 0.0000 0.0000 0.0000 5.9368 0.0000 11.4703
#
#
#
# Elastic Compliance Matrix: (Units=1/GPa)
#
#
# Indices 1 2 3 4 5 6 
#
# 1 0.015102 -0.001063 0.003021 0.000000 -0.004467 0.000000
# 2 -0.001063 0.008942 -0.003002 0.000000 -0.001808 0.000000
# 3 0.003021 -0.003002 0.022518 0.000000 0.003723 0.000000
# 4 0.000000 0.000000 0.000000 0.065318 0.000000 -0.033807
# 5 -0.004467 -0.001808 0.003723 0.000000 0.030850 0.000000
# 6 0.000000 0.000000 0.000000 -0.033807 0.000000 0.104680
#
#
# Mechanical properties :
#
#
# Convention : Reuss Voigt Hill
#
# Bulk Modulus (GPa) = 22.48495 28.98762 25.73628
# Shear Modulus (GPa) = 18.91632 28.33866 23.62749
#
# Velocity S-wave (km/s) = 3.05515 3.73942 3.41447
# Velocity P-wave (km/s) = 4.85181 5.74002 5.31450
#
# Compressibility (1/GPa) = 0.04447420
#
# Stress axis : x y z
#
# Youngs Moduli (GPa) = 66.21730 111.82626 44.40954
#
# Poissons Ratio (x) = 0.11884 -0.13416
# Poissons Ratio (y) = 0.07037 0.13332
# Poissons Ratio (z) = -0.20004 0.33571
#
# Static dielectric constant tensor:
#      x y z
#    x 1.828550 0.000000 -0.049340 
#    y 0.000000 1.696690 0.000000 
#    z -0.049340 0.000000 1.879520 
# 
# From -- ./inp_files/50347.got.cif
#   From: 2010.05.17/outbox.cif.g08.bks.cpg/sg13_26_cif.got.tgz:50347.got - 2010.06.03 16:44:36.
