data_PCOD9228901
_publ_section_title
;
Structure prediction by ZEFSAII (Michael W. Deem and Ramdas Pophale) SiO2 
 PCOD9228901
Probable space group: P 2/C
;
_chemical_formula_sum "Si O2"
_cell_formula_units_Z 32
_cell_length_a 12.991862
_cell_length_b 20.185940
_cell_length_c 13.585701
_cell_angle_alpha 90.000000
_cell_angle_beta 22.769643
_cell_angle_gamma 90.000000
_cell_volume 1378.935038
_symmetry_space_group_name_H-M "P 2/C"
_symmetry_group_IT_number 13
_symmetry_cell_setting 'monoclinic'
loop_
_space_group_symop_operation_xyz
x,y,z
-x,y,1/2-z
-x,-y,-z
x,-y,1/2+z
loop_
_atom_site_type_symbol
_atom_site_label
_atom_site_fract_x
_atom_site_fract_y
_atom_site_fract_z
Si Si1 0.019048 0.018583 0.843721
Si Si2 0.199361 0.698104 0.915030
Si Si3 0.935493 0.835789 0.465439
Si Si4 0.122295 0.444491 0.537734
Si Si5 0.455808 0.170130 0.005490
Si Si6 0.587618 0.307862 0.887256
Si Si7 0.474304 0.965788 0.156388
Si Si8 0.656985 0.451743 0.789690
O O1 0.000000 0.989811 0.750000
O O2 0.895615 0.092050 0.954041
O O3 0.338849 0.016942 0.567922
O O4 0.843802 0.973884 0.071042
O O5 0.185710 0.770045 0.979534
O O6 0.436506 0.693028 0.626378
O O7 0.221004 0.631309 0.959141
O O8 0.907156 0.698339 0.119515
O O9 0.254530 0.831674 0.196683
O O10 0.780923 0.834317 0.706424
O O11 0.302860 0.504881 0.342502
O O12 0.000000 0.461971 0.750000
O O13 0.922227 0.439711 0.620882
O O14 0.467334 0.242120 0.943623
O O15 0.440937 0.107618 0.947694
O O16 0.532703 0.379120 0.887227
O O17 0.500000 0.978724 0.250000
O O18 0.500000 0.500000 0.000000
#
# Coordination Sequence:
#
# PCOD9228901 Si02
#       8
#     4   4   4   4   4   4   4   4
#     4  10  21  35  51  74 106 144 173 220 273 332
#     4   9  18  34  52  80 110 144 176 223 274 337
#     4  10  20  33  54  81 108 135 179 222 277 319
#     4  10  21  35  57  86 115 150 198 234 281 346
#     4  10  20  34  55  79 103 138 178 234 262 326
#     4   9  18  34  56  78 107 141 184 215 284 332
#     4  10  21  36  53  72 104 141 183 218 274 325
#     4  10  19  36  60  80 114 158 182 237 292 338
#
# _framework density 23.206315
#
# number of rings (size 3 to 8) (size 9 to 14) (size 15 to 20)
#    0.000    2.250    1.250    1.500    0.000    4.000 
#    0.000    0.000    2.750    5.250    0.000    0.000 
#    0.000    0.000    0.000    0.000    0.000    0.000 
#
# Total GULP energy -178417.024045 kJ/mol
# GULP energy per Si atom -5575.532001 kJ/mol
# Density = 2.315350 g / cm^3
# Si number density = 23.206315 Si / 1000 Ang^3
#
#
#
# Elastic Constant Matrix: (Units=GPa)
#
#
# Indices 1 2 3 4 5 6 
#
# 1 39.1949 15.6542 23.9838 0.0000 5.7642 0.0000
# 2 15.6542 219.9305 51.7723 0.0000 31.5942 0.0000
# 3 23.9838 51.7723 146.1844 0.0000 17.0154 0.0000
# 4 0.0000 0.0000 0.0000 35.6395 0.0000 16.1239
# 5 5.7642 31.5942 17.0154 0.0000 36.3398 0.0000
# 6 0.0000 0.0000 0.0000 16.1239 0.0000 -7.8258
#
#
#
# Elastic Compliance Matrix: (Units=1/GPa)
#
#
# Indices 1 2 3 4 5 6 
#
# 1 0.028679 -0.000777 -0.004208 0.000000 -0.001903 0.000000
# 2 -0.000777 0.005498 -0.001351 0.000000 -0.004024 0.000000
# 3 -0.004208 -0.001351 0.008245 0.000000 -0.002018 0.000000
# 4 0.000000 0.000000 0.000000 0.014522 0.000000 0.029921
# 5 -0.001903 -0.004024 -0.002018 0.000000 0.032264 0.000000
# 6 0.000000 0.000000 0.000000 0.029921 0.000000 -0.066135
#
#
# Mechanical properties :
#
#
# Convention : Reuss Voigt Hill
#
# Bulk Modulus (GPa) = 33.61589 65.34781 49.48185
# Shear Modulus (GPa) = 109.49847 33.75734 71.62790
#
# Velocity S-wave (km/s) = 6.87657 3.81814 5.56172
# Velocity P-wave (km/s) = 8.80720 6.90349 7.91280
#
# Compressibility (1/GPa) = 0.02974783
#
# Stress axis : x y z
#
# Youngs Moduli (GPa) = 34.86867 181.86928 121.29124
#
# Poissons Ratio (x) = 0.14137 0.51045
# Poissons Ratio (y) = 0.02710 0.16391
# Poissons Ratio (z) = 0.14674 0.24577
#
# Static dielectric constant tensor:
#      x y z
#    x 1.856530 0.000000 -0.058260 
#    y 0.000000 2.072680 0.000000 
#    z -0.058260 0.000000 1.906150 
# 
# From -- ./inp_files/53983.got.cif
#   From: 2010.05.17/outbox.cif.g08.bks.cpg/sg13_27_cif.got.tgz:53983.got - 2010.06.03 16:44:36.
