data_PCOD9228404
_publ_section_title
;
Structure prediction by ZEFSAII (Michael W. Deem and Ramdas Pophale) SiO2 
 PCOD9228404
Probable space group: P 2/C
;
_chemical_formula_sum "Si O2"
_cell_formula_units_Z 28
_cell_length_a 15.661856
_cell_length_b 7.190066
_cell_length_c 15.114265
_cell_angle_alpha 90.000000
_cell_angle_beta 37.496089
_cell_angle_gamma 90.000000
_cell_volume 1036.028320
_symmetry_space_group_name_H-M "P 2/C"
_symmetry_group_IT_number 13
_symmetry_cell_setting 'monoclinic'
loop_
_space_group_symop_operation_xyz
x,y,z
-x,y,1/2-z
-x,-y,-z
x,-y,1/2+z
loop_
_atom_site_type_symbol
_atom_site_label
_atom_site_fract_x
_atom_site_fract_y
_atom_site_fract_z
Si Si1 0.547085 0.210037 0.441561
Si Si2 0.933374 0.551143 0.960264
Si Si3 0.833268 0.322661 0.787686
Si Si4 0.737574 0.088979 0.148947
Si Si5 0.343932 0.671361 0.242204
Si Si6 0.022156 0.963614 0.836521
Si Si7 0.381266 0.354723 0.403551
O O1 0.501039 0.326201 0.567385
O O2 0.463458 0.273834 0.422211
O O3 0.500000 0.000000 0.500000
O O4 0.701379 0.196622 0.270397
O O5 0.999863 0.749404 0.880033
O O6 0.009190 0.395984 0.840460
O O7 0.762828 0.559162 0.103755
O O8 0.000000 0.500000 0.000000
O O9 0.743604 0.369783 0.774979
O O10 0.756764 0.418063 0.932810
O O11 0.842702 0.097985 0.769729
O O12 0.674896 0.881556 0.208217
O O13 0.667701 0.191429 0.122698
O O14 0.900939 0.060589 0.995631
O O15 0.000000 0.969963 0.750000
O O16 0.500000 0.468484 0.250000
#
# Coordination Sequence:
#
# PCOD9228404 Si02
#       7
#     4   4   4   4   4   4   4
#     4   8  14  26  47  75 105 140 183 227 280 329
#     4   9  20  35  53  78 110 147 187 230 284 329
#     4  10  19  34  54  79 110 149 189 230 286 342
#     4   9  16  28  46  76 107 140 183 228 279 328
#     4   8  16  30  51  77 105 143 184 231 277 329
#     4  11  21  34  54  80 115 146 189 239 279 339
#     4   9  16  28  50  77 106 145 185 232 284 338
#
# _framework density 27.026289999999999
#
# number of rings (size 3 to 8) (size 9 to 14) (size 15 to 20)
#    0.000    2.857    1.429    0.000    0.000    5.714 
#    0.000    0.000    0.000    1.714    0.000   18.000 
#    0.000    0.000    0.000    0.000    0.000    0.000 
#
# Total GULP energy -156116.772617 kJ/mol
# GULP energy per Si atom -5575.599022 kJ/mol
# Density = 2.696478 g / cm^3
# Si number density = 27.026290 Si / 1000 Ang^3
#
#
#
# Elastic Constant Matrix: (Units=GPa)
#
#
# Indices 1 2 3 4 5 6 
#
# 1 24.7103 6.6765 11.9170 0.0000 5.5198 0.0000
# 2 6.6765 119.3026 45.2221 0.0000 0.5734 0.0000
# 3 11.9170 45.2221 141.3067 0.0000 21.8168 0.0000
# 4 0.0000 0.0000 0.0000 13.1581 0.0000 2.9078
# 5 5.5198 0.5734 21.8168 0.0000 41.5222 0.0000
# 6 0.0000 0.0000 0.0000 2.9078 0.0000 10.5589
#
#
#
# Elastic Compliance Matrix: (Units=1/GPa)
#
#
# Indices 1 2 3 4 5 6 
#
# 1 0.043041 -0.001444 -0.002489 0.000000 -0.004394 0.000000
# 2 -0.001444 0.009687 -0.003251 0.000000 0.001766 0.000000
# 3 -0.002489 -0.003251 0.008999 0.000000 -0.004353 0.000000
# 4 0.000000 0.000000 0.000000 0.080924 0.000000 -0.022286
# 5 -0.004394 0.001766 -0.004353 0.000000 0.026930 0.000000
# 6 0.000000 0.000000 0.000000 -0.022286 0.000000 0.100844
#
#
# Mechanical properties :
#
#
# Convention : Reuss Voigt Hill
#
# Bulk Modulus (GPa) = 21.11556 45.88341 33.49949
# Shear Modulus (GPa) = 16.63452 27.81478 22.22465
#
# Velocity S-wave (km/s) = 2.48361 3.21156 2.87075
# Velocity P-wave (km/s) = 4.00679 5.54674 4.83842
#
# Compressibility (1/GPa) = 0.04735843
#
# Stress axis : x y z
#
# Youngs Moduli (GPa) = 23.23357 103.23497 111.12187
#
# Poissons Ratio (x) = 0.14907 0.27662
# Poissons Ratio (y) = 0.03355 0.36125
# Poissons Ratio (z) = 0.05784 0.33561
#
# Static dielectric constant tensor:
#      x y z
#    x 2.086900 0.000000 -0.076670 
#    y 0.000000 2.118480 0.000000 
#    z -0.076670 0.000000 2.238180 
# 
# From -- ./inp_files/70456.got.cif
#   From: 2010.05.17/outbox.cif.g08.bks.cpg/sg13_36_cif.got.tgz:70456.got - 2010.06.03 16:44:36.
