data_PCOD9228181
_publ_section_title
;
Structure prediction by ZEFSAII (Michael W. Deem and Ramdas Pophale) SiO2 
 PCOD9228181
Probable space group: P 2/C
;
_chemical_formula_sum "Si O2"
_cell_formula_units_Z 18
_cell_length_a 9.729707
_cell_length_b 16.311043
_cell_length_c 5.203095
_cell_angle_alpha 90.000000
_cell_angle_beta 75.996540
_cell_angle_gamma 90.000000
_cell_volume 801.199794
_symmetry_space_group_name_H-M "P 2/C"
_symmetry_group_IT_number 13
_symmetry_cell_setting 'monoclinic'
loop_
_space_group_symop_operation_xyz
x,y,z
-x,y,1/2-z
-x,-y,-z
x,-y,1/2+z
loop_
_atom_site_type_symbol
_atom_site_label
_atom_site_fract_x
_atom_site_fract_y
_atom_site_fract_z
Si Si1 0.165096 0.446592 0.651796
Si Si2 0.647383 0.777139 0.749788
Si Si3 0.000000 0.943749 0.750000
Si Si4 0.331505 0.710063 0.259919
Si Si5 0.686767 0.943968 0.924432
O O1 0.186772 0.483751 0.359384
O O2 0.269905 0.372766 0.671249
O O3 0.000000 0.420079 0.750000
O O4 0.500000 0.731433 0.750000
O O5 0.710072 0.779490 0.434356
O O6 0.600067 0.862695 0.903548
O O7 0.732102 0.729249 0.929762
O O8 0.154616 0.905302 0.674454
O O9 0.000000 0.000000 0.500000
O O10 0.500000 0.708168 0.250000
O O11 0.667861 0.010520 0.704066
#
# Coordination Sequence:
#
# PCOD9228181 Si02
#       5
#     4   4   2   4   4
#     4  10  21  38  60  86 115 141 175 224 266 314
#     4  10  21  36  53  77 110 143 180 229 272 313
#     4   8  16  30  46  66  94 126 162 218 268 308
#     4  10  21  38  56  79 114 147 179 220 268 325
#     4  10  19  33  52  73 102 138 183 227 272 318
#
# _framework density 22.466308000000001
#
# number of rings (size 3 to 8) (size 9 to 14) (size 15 to 20)
#    0.000    2.222    0.000    2.667    0.000    1.778 
#    4.000    0.000    0.000    0.000    0.000    0.000 
#    0.000    0.000    0.000    0.000    0.000    0.000 
#
# Total GULP energy -100232.264941 kJ/mol
# GULP energy per Si atom -5568.459163 kJ/mol
# Density = 2.241517 g / cm^3
# Si number density = 22.466308 Si / 1000 Ang^3
#
#
#
# Elastic Constant Matrix: (Units=GPa)
#
#
# Indices 1 2 3 4 5 6 
#
# 1 59.2424 23.9760 11.6274 0.0000 17.6650 0.0000
# 2 23.9760 73.7146 14.5612 0.0000 15.8250 0.0000
# 3 11.6274 14.5612 139.1911 0.0000 37.2814 0.0000
# 4 0.0000 0.0000 0.0000 25.6422 0.0000 1.5823
# 5 17.6650 15.8250 37.2814 0.0000 26.8283 0.0000
# 6 0.0000 0.0000 0.0000 1.5823 0.0000 15.8758
#
#
#
# Elastic Compliance Matrix: (Units=1/GPa)
#
#
# Indices 1 2 3 4 5 6 
#
# 1 0.023113 -0.004517 0.003033 0.000000 -0.016770 0.000000
# 2 -0.004517 0.016569 0.000741 0.000000 -0.007829 0.000000
# 3 0.003033 0.000741 0.011955 0.000000 -0.019048 0.000000
# 4 0.000000 0.000000 0.000000 0.039240 0.000000 -0.003911
# 5 -0.016770 -0.007829 -0.019048 0.000000 0.079404 0.000000
# 6 0.000000 0.000000 0.000000 -0.003911 0.000000 0.063379
#
#
# Mechanical properties :
#
#
# Convention : Reuss Voigt Hill
#
# Bulk Modulus (GPa) = 19.93906 41.38637 30.66271
# Shear Modulus (GPa) = 19.85217 28.46814 24.16016
#
# Velocity S-wave (km/s) = 2.97584 3.56356 3.28288
# Velocity P-wave (km/s) = 4.54993 5.94924 5.29600
#
# Compressibility (1/GPa) = 0.05015282
#
# Stress axis : x y z
#
# Youngs Moduli (GPa) = 43.26611 60.35252 83.64501
#
# Poissons Ratio (x) = 0.27259 -0.25373
# Poissons Ratio (y) = 0.19542 -0.06198
# Poissons Ratio (z) = -0.13124 -0.04472
#
# Static dielectric constant tensor:
#      x y z
#    x 1.992420 0.000000 -0.033420 
#    y 0.000000 1.801400 0.000000 
#    z -0.033420 0.000000 1.996470 
# 
# From -- ./inp_files/3044.got.cif
#   From: 2010.05.17/outbox.cif.g08.bks.cpg/sg13_2_cif.got.tgz:3044.got - 2010.06.03 16:44:36.
