data_PCOD9228977
_publ_section_title
;
Structure prediction by ZEFSAII (Michael W. Deem and Ramdas Pophale) SiO2 
 PCOD9228977
Probable space group: P 2/C
;
_chemical_formula_sum "Si O2"
_cell_formula_units_Z 26
_cell_length_a 15.441961
_cell_length_b 11.163964
_cell_length_c 18.058963
_cell_angle_alpha 90.000000
_cell_angle_beta 24.395368
_cell_angle_gamma 90.000000
_cell_volume 1285.867238
_symmetry_space_group_name_H-M "P 2/C"
_symmetry_group_IT_number 13
_symmetry_cell_setting 'monoclinic'
loop_
_space_group_symop_operation_xyz
x,y,z
-x,y,1/2-z
-x,-y,-z
x,-y,1/2+z
loop_
_atom_site_type_symbol
_atom_site_label
_atom_site_fract_x
_atom_site_fract_y
_atom_site_fract_z
Si Si1 0.071973 0.522722 0.611217
Si Si2 0.378179 0.940484 0.771703
Si Si3 0.489347 0.862892 0.981941
Si Si4 0.155407 0.681177 0.824803
Si Si5 0.272239 0.309258 0.390293
Si Si6 0.500000 0.330615 0.750000
Si Si7 0.723624 0.194835 0.706293
O O1 0.110063 0.383798 0.564307
O O2 0.294596 0.588860 0.424214
O O3 0.000000 0.543279 0.750000
O O4 0.902832 0.578825 0.687238
O O5 0.500000 0.979200 0.750000
O O6 0.533854 0.880229 0.588966
O O7 0.228785 0.831420 0.912120
O O8 0.265944 0.054413 0.823838
O O9 0.703834 0.786458 0.819661
O O10 0.337451 0.799709 0.159491
O O11 0.500000 0.000000 0.000000
O O12 0.271163 0.634931 0.808507
O O13 0.937613 0.737951 0.021881
O O14 0.500000 0.316325 0.250000
O O15 0.552439 0.252256 0.782751
#
# Coordination Sequence:
#
# PCOD9228977 Si02
#       7
#     4   4   4   4   4   2   4
#     4  11  22  40  63  88 121 157 212 257 296 358
#     4   9  18  35  60  81 122 161 189 243 304 359
#     4   9  19  34  57  86 122 151 194 241 297 359
#     4  10  22  39  63  91 120 158 204 256 297 360
#     4  10  21  41  60  80 125 163 193 248 310 350
#     4  10  20  36  62  88 122 158 196 256 320 342
#     4  10  19  36  63  90 117 158 203 243 306 366
#
# _framework density 20.219816000000002
#
# number of rings (size 3 to 8) (size 9 to 14) (size 15 to 20)
#    0.000    2.154    1.538    1.385    0.000    5.538 
#    8.308    0.769    0.000    0.000    0.000    0.000 
#    0.000    0.000    0.000    0.000    0.000    0.000 
#
# Total GULP energy -144939.338052 kJ/mol
# GULP energy per Si atom -5574.589925 kJ/mol
# Density = 2.017379 g / cm^3
# Si number density = 20.219816 Si / 1000 Ang^3
#
#
#
# Elastic Constant Matrix: (Units=GPa)
#
#
# Indices 1 2 3 4 5 6 
#
# 1 118.3735 18.4295 27.3661 0.0000 8.8304 0.0000
# 2 18.4295 54.5206 20.6648 0.0000 7.1337 0.0000
# 3 27.3661 20.6648 72.5877 0.0000 22.4979 0.0000
# 4 0.0000 0.0000 0.0000 24.1088 0.0000 11.4520
# 5 8.8304 7.1337 22.4979 0.0000 29.7613 0.0000
# 6 0.0000 0.0000 0.0000 11.4520 0.0000 6.8578
#
#
#
# Elastic Compliance Matrix: (Units=1/GPa)
#
#
# Indices 1 2 3 4 5 6 
#
# 1 0.009458 -0.002068 -0.002953 0.000000 -0.000079 0.000000
# 2 -0.002068 0.021022 -0.005007 0.000000 -0.000641 0.000000
# 3 -0.002953 -0.005007 0.020467 0.000000 -0.013396 0.000000
# 4 0.000000 0.000000 0.000000 0.200607 0.000000 -0.334998
# 5 -0.000079 -0.000641 -0.013396 0.000000 0.043904 0.000000
# 6 0.000000 0.000000 0.000000 -0.334998 0.000000 0.705239
#
#
# Mechanical properties :
#
#
# Convention : Reuss Voigt Hill
#
# Bulk Modulus (GPa) = 32.36986 42.04473 37.20729
# Shear Modulus (GPa) = 4.84943 24.08034 14.46488
#
# Velocity S-wave (km/s) = 1.55034 3.45473 2.67756
# Velocity P-wave (km/s) = 4.38731 6.06238 5.29155
#
# Compressibility (1/GPa) = 0.03089294
#
# Stress axis : x y z
#
# Youngs Moduli (GPa) = 105.72770 47.56894 48.85942
#
# Poissons Ratio (x) = 0.09836 0.14427
# Poissons Ratio (y) = 0.21861 0.24462
# Poissons Ratio (z) = 0.31220 0.23816
#
# Static dielectric constant tensor:
#      x y z
#    x 1.754590 0.000000 0.008230 
#    y 0.000000 1.740310 0.000000 
#    z 0.008230 0.000000 1.712010 
# 
# From -- ./inp_files/68410.got.cif
#   From: 2010.05.17/outbox.cif.g08.bks.cpg/sg13_35_cif.got.tgz:68410.got - 2010.06.03 16:44:36.
