data_PCOD9228320
_publ_section_title
;
Structure prediction by ZEFSAII (Michael W. Deem and Ramdas Pophale) SiO2 
 PCOD9228320
Probable space group: P 2/C
;
_chemical_formula_sum "Si O2"
_cell_formula_units_Z 24
_cell_length_a 11.634276
_cell_length_b 12.247838
_cell_length_c 10.659485
_cell_angle_alpha 90.000000
_cell_angle_beta 47.895091
_cell_angle_gamma 90.000000
_cell_volume 1126.914998
_symmetry_space_group_name_H-M "P 2/C"
_symmetry_group_IT_number 13
_symmetry_cell_setting 'monoclinic'
loop_
_space_group_symop_operation_xyz
x,y,z
-x,y,1/2-z
-x,-y,-z
x,-y,1/2+z
loop_
_atom_site_type_symbol
_atom_site_label
_atom_site_fract_x
_atom_site_fract_y
_atom_site_fract_z
Si Si1 0.832428 0.941991 0.637122
Si Si2 0.006467 0.731647 0.895270
Si Si3 0.190194 0.908896 0.120730
Si Si4 0.864776 0.515046 0.756815
Si Si5 0.451601 0.421343 0.921258
Si Si6 0.726049 0.713196 0.272594
O O1 0.870948 0.817468 0.641867
O O2 0.754532 0.943297 0.557855
O O3 0.761864 0.004568 0.807341
O O4 0.000000 0.000000 0.500000
O O5 0.064136 0.608949 0.883047
O O6 0.000000 0.743125 0.750000
O O7 0.840409 0.755843 0.080023
O O8 0.250307 0.792542 0.126782
O O9 0.000000 0.903280 0.250000
O O10 0.790160 0.408222 0.753188
O O11 0.000000 0.478589 0.750000
O O12 0.732877 0.579415 0.932981
O O13 0.500000 0.466384 0.750000
O O14 0.547919 0.309334 0.866988
O O15 0.500000 0.500000 0.000000
#
# Coordination Sequence:
#
# PCOD9228320 Si02
#       6
#     4   4   4   4   4   4
#     4  10  19  33  57  87 126 153 210 250 305 356
#     4  11  20  32  54  90 119 158 205 254 299 356
#     4  10  19  35  57  92 122 163 204 255 301 366
#     4  10  22  37  59  90 125 158 205 256 304 368
#     4  10  22  42  60  85 122 168 206 247 310 368
#     4  11  21  37  61  86 127 164 203 248 312 364
#
# _framework density 21.297079
#
# number of rings (size 3 to 8) (size 9 to 14) (size 15 to 20)
#    0.000    1.667    3.333    4.500    0.000    1.333 
#    6.000    0.000    0.000    1.000    0.000    0.000 
#    0.000    0.000    0.000    0.000    0.000    0.000 
#
# Total GULP energy -133884.582445 kJ/mol
# GULP energy per Si atom -5578.524269 kJ/mol
# Density = 2.124861 g / cm^3
# Si number density = 21.297079 Si / 1000 Ang^3
#
#
#
# Elastic Constant Matrix: (Units=GPa)
#
#
# Indices 1 2 3 4 5 6 
#
# 1 83.3906 16.8426 53.3699 0.0000 25.7952 0.0000
# 2 16.8426 75.5500 13.2508 0.0000 32.3748 0.0000
# 3 53.3699 13.2508 95.6364 0.0000 17.2337 0.0000
# 4 0.0000 0.0000 0.0000 10.8026 0.0000 18.8216
# 5 25.7952 32.3748 17.2337 0.0000 46.1220 0.0000
# 6 0.0000 0.0000 0.0000 18.8216 0.0000 35.1073
#
#
#
# Elastic Compliance Matrix: (Units=1/GPa)
#
#
# Indices 1 2 3 4 5 6 
#
# 1 0.021070 0.000730 -0.010340 0.000000 -0.008433 0.000000
# 2 0.000730 0.018961 -0.000603 0.000000 -0.013492 0.000000
# 3 -0.010340 -0.000603 0.016288 0.000000 0.000120 0.000000
# 4 0.000000 0.000000 0.000000 1.404501 0.000000 -0.752976
# 5 -0.008433 -0.013492 0.000120 0.000000 0.035824 0.000000
# 6 0.000000 0.000000 0.000000 -0.752976 0.000000 0.432167
#
#
# Mechanical properties :
#
#
# Convention : Reuss Voigt Hill
#
# Bulk Modulus (GPa) = 27.85982 46.83373 37.34677
# Shear Modulus (GPa) = 2.54946 29.81395 16.18170
#
# Velocity S-wave (km/s) = 1.09530 3.74559 2.75945
# Velocity P-wave (km/s) = 3.83530 6.38313 5.26564
#
# Compressibility (1/GPa) = 0.03589398
#
# Stress axis : x y z
#
# Youngs Moduli (GPa) = 47.45980 52.73944 61.39361
#
# Poissons Ratio (x) = -0.03850 0.63480
# Poissons Ratio (y) = -0.03465 0.03703
# Poissons Ratio (z) = 0.49073 0.03181
#
# Static dielectric constant tensor:
#      x y z
#    x 1.756980 0.000000 0.006900 
#    y 0.000000 1.792940 0.000000 
#    z 0.006900 0.000000 1.829550 
# 
# From -- ./inp_files/33713.got.cif
#   From: 2010.05.17/outbox.cif.g08.bks.cpg/sg13_17_cif.got.tgz:33713.got - 2010.06.03 16:44:36.
