data_PCOD9228637
_publ_section_title
;
Structure prediction by ZEFSAII (Michael W. Deem and Ramdas Pophale) SiO2 
 PCOD9228637
Probable space group: P 2/C
;
_chemical_formula_sum "Si O2"
_cell_formula_units_Z 26
_cell_length_a 16.869859
_cell_length_b 13.490844
_cell_length_c 5.292558
_cell_angle_alpha 90.000000
_cell_angle_beta 70.361986
_cell_angle_gamma 90.000000
_cell_volume 1134.464417
_symmetry_space_group_name_H-M "P 2/C"
_symmetry_group_IT_number 13
_symmetry_cell_setting 'monoclinic'
loop_
_space_group_symop_operation_xyz
x,y,z
-x,y,1/2-z
-x,-y,-z
x,-y,1/2+z
loop_
_atom_site_type_symbol
_atom_site_label
_atom_site_fract_x
_atom_site_fract_y
_atom_site_fract_z
Si Si1 0.745930 0.098203 0.388730
Si Si2 0.846218 0.713050 0.446437
Si Si3 0.500000 0.068583 0.250000
Si Si4 0.320789 0.123856 0.542768
Si Si5 0.311880 0.569543 0.946372
Si Si6 0.900753 0.826902 0.889242
Si Si7 0.500000 0.567763 0.750000
Si Si8 0.000000 0.436130 0.750000
O O1 0.700622 0.161584 0.656554
O O2 0.840398 0.080320 0.383790
O O3 0.698203 0.994473 0.402653
O O4 0.738008 0.151455 0.128308
O O5 0.759124 0.653768 0.491406
O O6 0.866744 0.751445 0.709974
O O7 0.917212 0.629346 0.333941
O O8 0.874808 0.790202 0.194129
O O9 0.416213 0.132835 0.357587
O O10 0.500000 0.000000 0.500000
O O11 0.303820 0.498044 0.708180
O O12 0.406917 0.616360 0.846966
O O13 0.000000 0.841630 0.750000
O O14 0.500000 0.500000 0.500000
O O15 0.000000 0.500000 0.500000
#
# Coordination Sequence:
#
# PCOD9228637 Si02
#       8
#     4   4   2   4   4   4   2   2
#     4  10  20  35  57  79 114 144 193 235 276 334
#     4  12  23  39  58  82 116 147 192 231 287 353
#     4  12  16  30  58  91 125 148 172 236 306 350
#     4  10  19  35  57  92 113 144 186 243 292 325
#     4  10  19  35  58  86 109 141 181 229 286 329
#     4  12  24  42  57  77 109 161 196 225 281 357
#     4   8  16  30  54  81 109 134 174 220 266 336
#     4  12  22  36  58  86 114 140 180 246 294 334
#
# _framework density 22.918303000000002
#
# number of rings (size 3 to 8) (size 9 to 14) (size 15 to 20)
#    0.000    1.231    4.615    3.692    0.000    0.000 
#    0.000    3.077    0.000    7.385    0.000    0.000 
#    0.000    0.000    0.000    0.000    0.000    0.000 
#
# Total GULP energy -145136.473755 kJ/mol
# GULP energy per Si atom -5582.172068 kJ/mol
# Density = 2.286614 g / cm^3
# Si number density = 22.918303 Si / 1000 Ang^3
#
#
#
# Elastic Constant Matrix: (Units=GPa)
#
#
# Indices 1 2 3 4 5 6 
#
# 1 190.3268 7.9385 24.6943 0.0000 -24.1780 0.0000
# 2 7.9385 37.1673 4.3828 0.0000 1.0606 0.0000
# 3 24.6943 4.3828 196.4615 0.0000 6.1172 0.0000
# 4 0.0000 0.0000 0.0000 30.5182 0.0000 6.4803
# 5 -24.1780 1.0606 6.1172 0.0000 41.2237 0.0000
# 6 0.0000 0.0000 0.0000 6.4803 0.0000 36.6922
#
#
#
# Elastic Compliance Matrix: (Units=1/GPa)
#
#
# Indices 1 2 3 4 5 6 
#
# 1 0.005870 -0.001260 -0.000822 0.000000 0.003597 0.000000
# 2 -0.001260 0.027262 -0.000407 0.000000 -0.001380 0.000000
# 3 -0.000822 -0.000407 0.005241 0.000000 -0.001249 0.000000
# 4 0.000000 0.000000 0.000000 0.034044 0.000000 -0.006013
# 5 0.003597 -0.001380 -0.001249 0.000000 0.026589 0.000000
# 6 0.000000 0.000000 0.000000 -0.006013 0.000000 0.028316
#
#
# Mechanical properties :
#
#
# Convention : Reuss Voigt Hill
#
# Bulk Modulus (GPa) = 29.94289 55.33185 42.63737
# Shear Modulus (GPa) = 34.86012 47.48282 41.17147
#
# Velocity S-wave (km/s) = 3.90431 4.55667 4.24305
# Velocity P-wave (km/s) = 5.78085 7.20277 6.53062
#
# Compressibility (1/GPa) = 0.03339691
#
# Stress axis : x y z
#
# Youngs Moduli (GPa) = 170.35023 36.68139 190.79142
#
# Poissons Ratio (x) = 0.04620 0.15679
# Poissons Ratio (y) = 0.21457 0.07763
# Poissons Ratio (z) = 0.13999 0.01493
#
# Static dielectric constant tensor:
#      x y z
#    x 1.891970 0.000000 -0.029970 
#    y 0.000000 1.882910 0.000000 
#    z -0.029970 0.000000 1.923420 
# 
# From -- ./inp_files/4988.got.cif
#   From: 2010.05.17/outbox.cif.g08.bks.cpg/sg13_3_cif.got.tgz:4988.got - 2010.06.03 16:44:36.
