data_PCOD9228069
_publ_section_title
;
Structure prediction by ZEFSAII (Michael W. Deem and Ramdas Pophale) SiO2 
 PCOD9228069
Probable space group: P 2/C
;
_chemical_formula_sum "Si O2"
_cell_formula_units_Z 32
_cell_length_a 16.878326
_cell_length_b 20.299184
_cell_length_c 5.241612
_cell_angle_alpha 90.000000
_cell_angle_beta 99.083440
_cell_angle_gamma 90.000000
_cell_volume 1773.340381
_symmetry_space_group_name_H-M "P 2/C"
_symmetry_group_IT_number 13
_symmetry_cell_setting 'monoclinic'
loop_
_space_group_symop_operation_xyz
x,y,z
-x,y,1/2-z
-x,-y,-z
x,-y,1/2+z
loop_
_atom_site_type_symbol
_atom_site_label
_atom_site_fract_x
_atom_site_fract_y
_atom_site_fract_z
Si Si1 0.711471 0.780891 0.660864
Si Si2 0.142262 0.675914 0.739478
Si Si3 0.447285 0.307984 0.478397
Si Si4 0.202403 0.463653 0.456832
Si Si5 0.778470 0.160139 0.691947
Si Si6 0.908678 0.954579 0.223365
Si Si7 0.604087 0.459701 0.955047
Si Si8 0.915874 0.730536 0.288690
O O1 0.780817 0.724675 0.712167
O O2 0.629318 0.740024 0.588371
O O3 0.730308 0.828440 0.430365
O O4 0.721371 0.823477 0.923494
O O5 0.168135 0.604708 0.843702
O O6 0.105780 0.677061 0.438804
O O7 0.083467 0.703584 0.926366
O O8 0.500000 0.304656 0.250000
O O9 0.422833 0.384799 0.509594
O O10 0.500000 0.288462 0.750000
O O11 0.178971 0.482631 0.731548
O O12 0.298946 0.458387 0.498410
O O13 0.833522 0.095422 0.687096
O O14 0.845837 0.216801 0.734146
O O15 0.000000 0.924970 0.250000
O O16 0.903775 0.996609 0.480100
O O17 0.580108 0.509369 0.170701
O O18 0.000000 0.760385 0.250000
#
# Coordination Sequence:
#
# PCOD9228069 Si02
#       8
#     4   4   4   4   4   4   4   4
#     4  10  21  37  53  79 104 140 191 221 264 314
#     4  10  19  34  53  70  97 129 167 223 265 310
#     4  12  24  37  55  77 112 144 173 229 290 339
#     4  10  19  32  52  71  90 123 171 216 259 324
#     4  10  20  35  58  78 113 150 182 222 245 301
#     4  10  20  34  55  88 129 162 185 211 256 315
#     4  10  21  35  52  74 102 136 175 218 270 348
#     4  10  20  32  52  77 100 131 172 215 261 306
#
# _framework density 18.045043
#
# number of rings (size 3 to 8) (size 9 to 14) (size 15 to 20)
#    0.000    1.750    1.250    3.750    0.000    1.500 
#    0.000    3.750    0.000    7.500    0.000    0.000 
#    0.000   35.000    0.000    0.000    0.000    0.000 
#
# Total GULP energy -178547.794283 kJ/mol
# GULP energy per Si atom -5579.618571 kJ/mol
# Density = 1.800397 g / cm^3
# Si number density = 18.045043 Si / 1000 Ang^3
#
#
#
# Elastic Constant Matrix: (Units=GPa)
#
#
# Indices 1 2 3 4 5 6 
#
# 1 64.0209 33.6319 47.6942 0.0000 0.9710 0.0000
# 2 33.6319 80.3089 42.6113 0.0000 4.7220 0.0000
# 3 47.6942 42.6113 137.5388 0.0000 6.5977 0.0000
# 4 0.0000 0.0000 0.0000 20.4053 0.0000 29.2865
# 5 0.9710 4.7220 6.5977 0.0000 26.8715 0.0000
# 6 0.0000 0.0000 0.0000 29.2865 0.0000 232.7692
#
#
#
# Elastic Compliance Matrix: (Units=1/GPa)
#
#
# Indices 1 2 3 4 5 6 
#
# 1 0.023797 -0.006761 -0.006247 0.000000 0.001862 0.000000
# 2 -0.006761 0.016882 -0.002788 0.000000 -0.002038 0.000000
# 3 -0.006247 -0.002788 0.010389 0.000000 -0.001835 0.000000
# 4 0.000000 0.000000 0.000000 0.059807 0.000000 -0.007525
# 5 0.001862 -0.002038 -0.001835 0.000000 0.037955 0.000000
# 6 0.000000 0.000000 0.000000 -0.007525 0.000000 0.005243
#
#
# Mechanical properties :
#
#
# Convention : Reuss Voigt Hill
#
# Bulk Modulus (GPa) = 51.34362 58.86038 55.10200
# Shear Modulus (GPa) = 26.02041 66.53796 46.27918
#
# Velocity S-wave (km/s) = 3.80145 6.07892 5.06973
# Velocity P-wave (km/s) = 6.91251 9.05320 8.05429
#
# Compressibility (1/GPa) = 0.01947662
#
# Stress axis : x y z
#
# Youngs Moduli (GPa) = 42.02209 59.23327 96.25808
#
# Poissons Ratio (x) = 0.40046 0.60131
# Poissons Ratio (y) = 0.28410 0.26839
# Poissons Ratio (z) = 0.26250 0.16516
#
# Static dielectric constant tensor:
#      x y z
#    x 1.633440 0.000000 0.004910 
#    y 0.000000 1.593020 0.000000 
#    z 0.004910 0.000000 1.648410 
# 
# From -- ./inp_files/5363.got.cif
#   From: 2010.05.17/outbox.cif.g08.bks.cpg/sg13_3_cif.got.tgz:5363.got - 2010.06.03 16:44:36.
