data_PCOD9228542
_publ_section_title
;
Structure prediction by ZEFSAII (Michael W. Deem and Ramdas Pophale) SiO2 
 PCOD9228542
Probable space group: P 2/C
;
_chemical_formula_sum "Si O2"
_cell_formula_units_Z 32
_cell_length_a 15.470132
_cell_length_b 22.187794
_cell_length_c 9.091539
_cell_angle_alpha 90.000000
_cell_angle_beta 148.398858
_cell_angle_gamma 90.000000
_cell_volume 1635.231431
_symmetry_space_group_name_H-M "P 2/C"
_symmetry_group_IT_number 13
_symmetry_cell_setting 'monoclinic'
loop_
_space_group_symop_operation_xyz
x,y,z
-x,y,1/2-z
-x,-y,-z
x,-y,1/2+z
loop_
_atom_site_type_symbol
_atom_site_label
_atom_site_fract_x
_atom_site_fract_y
_atom_site_fract_z
Si Si1 0.686512 0.979020 0.298107
Si Si2 0.882156 0.871511 0.436755
Si Si3 0.824725 0.340151 0.573747
Si Si4 0.827953 0.533962 0.253994
Si Si5 0.326719 0.247778 0.917122
Si Si6 0.635245 0.455177 0.762841
Si Si7 0.127658 0.052254 0.142352
Si Si8 0.501687 0.678900 0.088413
O O1 0.752066 0.925286 0.286362
O O2 0.730718 0.955769 0.526178
O O3 0.797049 0.036319 0.406344
O O4 0.500000 0.000000 0.000000
O O5 0.779680 0.811705 0.260997
O O6 0.014475 0.889192 0.501887
O O7 0.000000 0.866610 0.750000
O O8 0.821804 0.407120 0.641003
O O9 0.779480 0.294128 0.638750
O O10 0.000000 0.330628 0.750000
O O11 0.678695 0.329408 0.244700
O O12 0.778272 0.549325 0.347548
O O13 0.000000 0.500000 0.500000
O O14 0.699996 0.486031 0.003215
O O15 0.384516 0.280855 0.852225
O O16 0.500000 0.234015 0.250000
O O17 0.500000 0.500000 0.500000
O O18 0.572548 0.388416 0.697172
O O19 0.000000 0.000000 0.000000
O O20 0.500000 0.704419 0.250000
#
# Coordination Sequence:
#
# PCOD9228542 Si02
#       8
#     4   4   4   4   4   4   4   4
#     4  10  19  34  59  93 127 162 201 250 304 355
#     4   9  20  39  60  88 126 165 206 254 305 366
#     4  11  24  44  63  88 124 157 202 263 313 371
#     4  12  25  41  58  93 127 154 197 255 310 382
#     4  10  23  45  67  85 119 168 216 258 313 372
#     4  12  23  39  64  90 122 160 196 249 319 380
#     4   9  18  34  56  86 125 162 198 247 304 352
#     4  11  24  43  65  91 118 159 209 256 316 383
#
# _framework density 19.569095999999998
#
# number of rings (size 3 to 8) (size 9 to 14) (size 15 to 20)
#    0.000    1.500    2.500    3.750    1.750    3.000 
#    0.000    7.500    0.000    1.500    0.000    0.000 
#    0.000    0.000    0.000    0.000    0.000    0.000 
#
# Total GULP energy -178667.088674 kJ/mol
# GULP energy per Si atom -5583.346521 kJ/mol
# Density = 1.952456 g / cm^3
# Si number density = 19.569096 Si / 1000 Ang^3
#
#
#
# Elastic Constant Matrix: (Units=GPa)
#
#
# Indices 1 2 3 4 5 6 
#
# 1 131.3496 45.9075 41.0271 0.0000 9.1761 0.0000
# 2 45.9075 119.5684 60.1994 0.0000 11.7471 0.0000
# 3 41.0271 60.1994 79.4961 0.0000 16.0109 0.0000
# 4 0.0000 0.0000 0.0000 40.3481 0.0000 10.2158
# 5 9.1761 11.7471 16.0109 0.0000 32.1129 0.0000
# 6 0.0000 0.0000 0.0000 10.2158 0.0000 22.2377
#
#
#
# Elastic Compliance Matrix: (Units=1/GPa)
#
#
# Indices 1 2 3 4 5 6 
#
# 1 0.009331 -0.001873 -0.003333 0.000000 -0.000319 0.000000
# 2 -0.001873 0.013894 -0.009603 0.000000 0.000241 0.000000
# 3 -0.003333 -0.009603 0.022979 0.000000 -0.006992 0.000000
# 4 0.000000 0.000000 0.000000 0.028046 0.000000 -0.012884
# 5 -0.000319 0.000241 -0.006992 0.000000 0.034629 0.000000
# 6 0.000000 0.000000 0.000000 -0.012884 0.000000 0.050888
#
#
# Mechanical properties :
#
#
# Convention : Reuss Voigt Hill
#
# Bulk Modulus (GPa) = 60.29056 69.40912 64.84984
# Shear Modulus (GPa) = 25.65217 31.15841 28.40529
#
# Velocity S-wave (km/s) = 3.62450 3.99460 3.81404
# Velocity P-wave (km/s) = 6.95643 7.53800 7.25305
#
# Compressibility (1/GPa) = 0.01658634
#
# Stress axis : x y z
#
# Youngs Moduli (GPa) = 107.16559 71.97438 43.51707
#
# Poissons Ratio (x) = 0.13483 0.14504
# Poissons Ratio (y) = 0.20075 0.41789
# Poissons Ratio (z) = 0.35717 0.69117
#
# Static dielectric constant tensor:
#      x y z
#    x 1.766270 0.000000 0.013760 
#    y 0.000000 1.666430 0.000000 
#    z 0.013760 0.000000 1.700320 
# 
# From -- ./inp_files/20237.got.cif
#   From: 2010.05.17/outbox.cif.g08.bks.cpg/sg13_11_cif.got.tgz:20237.got - 2010.06.03 16:44:36.
