data_PCOD9228417
_publ_section_title
;
Structure prediction by ZEFSAII (Michael W. Deem and Ramdas Pophale) SiO2 
 PCOD9228417
Probable space group: P 2/C
;
_chemical_formula_sum "Si O2"
_cell_formula_units_Z 18
_cell_length_a 25.776868
_cell_length_b 5.384895
_cell_length_c 5.001006
_cell_angle_alpha 90.000000
_cell_angle_beta 77.165647
_cell_angle_gamma 90.000000
_cell_volume 676.825416
_symmetry_space_group_name_H-M "P 2/C"
_symmetry_group_IT_number 13
_symmetry_cell_setting 'monoclinic'
loop_
_space_group_symop_operation_xyz
x,y,z
-x,y,1/2-z
-x,-y,-z
x,-y,1/2+z
loop_
_atom_site_type_symbol
_atom_site_label
_atom_site_fract_x
_atom_site_fract_y
_atom_site_fract_z
Si Si1 0.279155 0.873878 0.046677
Si Si2 0.500000 0.314989 0.250000
Si Si3 0.835592 0.340552 0.858236
Si Si4 0.055040 0.677838 0.119216
Si Si5 0.391529 0.342557 0.242631
O O1 0.333674 0.757700 0.879465
O O2 0.279977 0.125021 0.866455
O O3 0.222384 0.768076 0.022920
O O4 0.500000 0.500000 0.500000
O O5 0.442991 0.183579 0.280227
O O6 0.838601 0.419194 0.547496
O O7 0.888713 0.192352 0.882458
O O8 0.054445 0.443527 0.327928
O O9 0.000000 0.815713 0.250000
O O10 0.395199 0.586678 0.428511
#
# Coordination Sequence:
#
# PCOD9228417 Si02
#       5
#     4   2   4   4   4
#     4  12  24  36  50  75 108 137 167 209 255 293
#     4   8  16  30  54  80  98 122 164 212 246 286
#     4  10  19  34  55  75  97 133 174 207 246 300
#     4   8  14  25  45  73  97 117 155 210 252 284
#     4  10  19  36  58  78 100 132 172 207 246 300
#
# _framework density 26.594743999999999
#
# number of rings (size 3 to 8) (size 9 to 14) (size 15 to 20)
#    0.000    2.222    0.000    4.000    0.000    0.000 
#    0.000    1.111    0.000    1.333    0.000    0.000 
#    0.000    0.000    0.000    0.000    0.000    0.000 
#
# Total GULP energy -100485.225085 kJ/mol
# GULP energy per Si atom -5582.512505 kJ/mol
# Density = 2.653421 g / cm^3
# Si number density = 26.594744 Si / 1000 Ang^3
#
#
#
# Elastic Constant Matrix: (Units=GPa)
#
#
# Indices 1 2 3 4 5 6 
#
# 1 278.6569 21.0894 9.9040 0.0000 -30.4396 0.0000
# 2 21.0894 24.1369 12.1263 0.0000 3.3317 0.0000
# 3 9.9040 12.1263 141.6799 0.0000 3.7593 0.0000
# 4 0.0000 0.0000 0.0000 13.8486 0.0000 79.6754
# 5 -30.4396 3.3317 3.7593 0.0000 49.1630 0.0000
# 6 0.0000 0.0000 0.0000 79.6754 0.0000 -234.4144
#
#
#
# Elastic Compliance Matrix: (Units=1/GPa)
#
#
# Indices 1 2 3 4 5 6 
#
# 1 0.004213 -0.004067 -0.000023 0.000000 0.002886 0.000000
# 2 -0.004067 0.047568 -0.003642 0.000000 -0.005464 0.000000
# 3 -0.000023 -0.003642 0.007380 0.000000 -0.000332 0.000000
# 4 0.000000 0.000000 0.000000 0.024432 0.000000 0.008304
# 5 0.002886 -0.005464 -0.000332 0.000000 0.022523 0.000000
# 6 0.000000 0.000000 0.000000 0.008304 0.000000 -0.001443
#
#
# Mechanical properties :
#
#
# Convention : Reuss Voigt Hill
#
# Bulk Modulus (GPa) = 22.88529 58.96809 40.92669
# Shear Modulus (GPa) = 37.11881 -7.52363 14.79759
#
# Velocity S-wave (km/s) = 3.73999 -1.68379 2.36139
# Velocity P-wave (km/s) = 5.22244 4.29427 4.78093
#
# Compressibility (1/GPa) = 0.04369618
#
# Stress axis : x y z
#
# Youngs Moduli (GPa) = 237.38853 21.02249 135.49616
#
# Poissons Ratio (x) = 0.08551 0.00310
# Poissons Ratio (y) = 0.96556 0.49348
# Poissons Ratio (z) = 0.00544 0.07656
#
# Static dielectric constant tensor:
#      x y z
#    x 2.228280 0.000000 -0.044070 
#    y 0.000000 2.095970 0.000000 
#    z -0.044070 0.000000 2.019920 
# 
# From -- ./inp_files/7202.got.cif
#   From: 2010.05.17/outbox.cif.g08.bks.cpg/sg13_4_cif.got.tgz:7202.got - 2010.06.03 16:44:36.
