data_PCOD9228394
_publ_section_title
;
Structure prediction by ZEFSAII (Michael W. Deem and Ramdas Pophale) SiO2 
 PCOD9228394
Probable space group: P 2/C
;
_chemical_formula_sum "Si O2"
_cell_formula_units_Z 24
_cell_length_a 5.777336
_cell_length_b 9.196167
_cell_length_c 23.808996
_cell_angle_alpha 90.000000
_cell_angle_beta 50.106955
_cell_angle_gamma 90.000000
_cell_volume 970.528958
_symmetry_space_group_name_H-M "P 2/C"
_symmetry_group_IT_number 13
_symmetry_cell_setting 'monoclinic'
loop_
_space_group_symop_operation_xyz
x,y,z
-x,y,1/2-z
-x,-y,-z
x,-y,1/2+z
loop_
_atom_site_type_symbol
_atom_site_label
_atom_site_fract_x
_atom_site_fract_y
_atom_site_fract_z
Si Si1 0.828619 0.428617 0.946722
Si Si2 0.234810 0.992285 0.411863
Si Si3 0.084073 0.716864 0.678349
Si Si4 0.732914 0.676611 0.578863
Si Si5 0.157405 0.587807 0.286187
Si Si6 0.259247 0.006273 0.588920
O O1 0.051662 0.561391 0.926268
O O2 0.930208 0.366556 0.871667
O O3 0.500000 0.500000 0.000000
O O4 0.837814 0.318092 0.997573
O O5 0.286778 0.163838 0.392273
O O6 0.546468 0.930848 0.388993
O O7 0.054133 0.932006 0.386703
O O8 0.000000 0.000000 0.500000
O O9 0.391344 0.623354 0.634535
O O10 0.168866 0.841707 0.621340
O O11 0.000000 0.792473 0.750000
O O12 0.841087 0.590121 0.709344
O O13 0.500000 0.636057 0.250000
O O14 0.000000 0.623981 0.250000
O O15 0.500000 0.000000 0.500000
#
# Coordination Sequence:
#
# PCOD9228394 Si02
#       6
#     4   4   4   4   4   4
#     4  11  21  35  55  81 121 154 192 232 291 363
#     4   9  18  33  53  78 106 136 183 232 277 319
#     4  10  19  34  53  82 115 148 188 238 304 348
#     4  10  21  34  54  83 118 151 191 239 292 352
#     4  11  23  37  54  80 118 156 190 241 295 350
#     4   9  18  32  50  75 109 143 180 226 285 346
#
# _framework density 24.728781000000001
#
# number of rings (size 3 to 8) (size 9 to 14) (size 15 to 20)
#    0.000    2.000    1.667    3.000    4.667    2.667 
#    0.000    0.000    0.000    0.000    0.000   31.500 
#    0.000    0.000    0.000    0.000    0.000    0.000 
#
# Total GULP energy -133821.157463 kJ/mol
# GULP energy per Si atom -5575.881561 kJ/mol
# Density = 2.467250 g / cm^3
# Si number density = 24.728781 Si / 1000 Ang^3
#
#
#
# Elastic Constant Matrix: (Units=GPa)
#
#
# Indices 1 2 3 4 5 6 
#
# 1 258.0815 20.9134 56.6884 0.0000 -5.5344 0.0000
# 2 20.9134 67.0221 11.9836 0.0000 7.6600 0.0000
# 3 56.6884 11.9836 129.8931 0.0000 19.6015 0.0000
# 4 0.0000 0.0000 0.0000 33.3838 0.0000 1.8176
# 5 -5.5344 7.6600 19.6015 0.0000 38.9798 0.0000
# 6 0.0000 0.0000 0.0000 1.8176 0.0000 16.6268
#
#
#
# Elastic Compliance Matrix: (Units=1/GPa)
#
#
# Indices 1 2 3 4 5 6 
#
# 1 0.004487 -0.001241 -0.002139 0.000000 0.001957 0.000000
# 2 -0.001241 0.015736 -0.000451 0.000000 -0.003042 0.000000
# 3 -0.002139 -0.000451 0.009421 0.000000 -0.004953 0.000000
# 4 0.000000 0.000000 0.000000 0.030134 0.000000 -0.003294
# 5 0.001957 -0.003042 -0.004953 0.000000 0.029020 0.000000
# 6 0.000000 0.000000 0.000000 -0.003294 0.000000 0.060504
#
#
# Mechanical properties :
#
#
# Convention : Reuss Voigt Hill
#
# Bulk Modulus (GPa) = 45.49260 70.46307 57.97783
# Shear Modulus (GPa) = 30.43347 42.15883 36.29615
#
# Velocity S-wave (km/s) = 3.51193 4.13346 3.83530
# Velocity P-wave (km/s) = 5.90605 7.16498 6.56575
#
# Compressibility (1/GPa) = 0.02198160
#
# Stress axis : x y z
#
# Youngs Moduli (GPa) = 222.85907 63.54829 106.14415
#
# Poissons Ratio (x) = 0.07888 0.22705
# Poissons Ratio (y) = 0.27664 0.04787
# Poissons Ratio (z) = 0.47671 0.02866
#
# Static dielectric constant tensor:
#      x y z
#    x 2.140540 0.000000 0.062750 
#    y 0.000000 2.176650 0.000000 
#    z 0.062750 0.000000 1.975350 
# 
# From -- ./inp_files/83642.got.cif
#   From: 2010.05.17/outbox.cif.g08.bks.cpg/sg13_42_cif.got.tgz:83642.got - 2010.06.03 16:44:36.
