data_PCOD9228760
_publ_section_title
;
Structure prediction by ZEFSAII (Michael W. Deem and Ramdas Pophale) SiO2 
 PCOD9228760
Probable space group: P 2/C
;
_chemical_formula_sum "Si O2"
_cell_formula_units_Z 24
_cell_length_a 8.623541
_cell_length_b 9.106812
_cell_length_c 18.929345
_cell_angle_alpha 90.000000
_cell_angle_beta 124.776599
_cell_angle_gamma 90.000000
_cell_volume 1221.048446
_symmetry_space_group_name_H-M "P 2/C"
_symmetry_group_IT_number 13
_symmetry_cell_setting 'monoclinic'
loop_
_space_group_symop_operation_xyz
x,y,z
-x,y,1/2-z
-x,-y,-z
x,-y,1/2+z
loop_
_atom_site_type_symbol
_atom_site_label
_atom_site_fract_x
_atom_site_fract_y
_atom_site_fract_z
Si Si1 0.738410 0.255169 0.391499
Si Si2 0.719159 0.985657 0.303949
Si Si3 0.314380 0.924392 0.484300
Si Si4 0.023211 0.756217 0.178677
Si Si5 0.317423 0.409285 0.655736
Si Si6 0.838253 0.817707 0.473355
O O1 0.722275 0.159683 0.315408
O O2 0.640938 0.166394 0.431304
O O3 0.680188 0.421079 0.364220
O O4 0.958738 0.253515 0.468237
O O5 0.500000 0.943527 0.250000
O O6 0.835886 0.898200 0.275893
O O7 0.820087 0.923042 0.400564
O O8 0.176059 0.817741 0.403427
O O9 0.500000 0.000000 0.500000
O O10 0.197271 0.071453 0.472857
O O11 0.135284 0.645440 0.154822
O O12 0.000000 0.688827 0.250000
O O13 0.500000 0.378646 0.750000
O O14 0.309930 0.309779 0.583157
#
# Coordination Sequence:
#
# PCOD9228760 Si02
#       6
#     4   4   4   4   4   4
#     4  11  20  41  63  87 120 160 210 252 293 367
#     4  10  19  35  62  90 116 156 206 254 300 360
#     4  11  23  38  62  96 118 154 207 256 308 357
#     4  11  23  39  59  89 126 156 194 255 317 359
#     4  11  24  40  63  90 120 166 210 246 302 377
#     4  10  19  39  63  85 116 160 210 248 294 361
#
# _framework density 19.655241
#
# number of rings (size 3 to 8) (size 9 to 14) (size 15 to 20)
#    0.000    1.333    5.000    4.000    7.000    0.000 
#    0.000    3.333    0.000    0.000    0.000    0.000 
#    0.000    0.000    0.000    0.000    0.000    0.000 
#
# Total GULP energy -133650.412420 kJ/mol
# GULP energy per Si atom -5568.767184 kJ/mol
# Density = 1.961050 g / cm^3
# Si number density = 19.655241 Si / 1000 Ang^3
#
#
#
# Elastic Constant Matrix: (Units=GPa)
#
#
# Indices 1 2 3 4 5 6 
#
# 1 71.5698 12.7050 23.3103 0.0000 9.8996 0.0000
# 2 12.7050 131.5249 9.5934 0.0000 0.5651 0.0000
# 3 23.3103 9.5934 57.0395 0.0000 19.4933 0.0000
# 4 0.0000 0.0000 0.0000 29.5044 0.0000 0.5708
# 5 9.8996 0.5651 19.4933 0.0000 32.4641 0.0000
# 6 0.0000 0.0000 0.0000 0.5708 0.0000 22.1704
#
#
#
# Elastic Compliance Matrix: (Units=1/GPa)
#
#
# Indices 1 2 3 4 5 6 
#
# 1 0.016320 -0.001132 -0.006020 0.000000 -0.001342 0.000000
# 2 -0.001132 0.007793 -0.001157 0.000000 0.000904 0.000000
# 3 -0.006020 -0.001157 0.024601 0.000000 -0.012916 0.000000
# 4 0.000000 0.000000 0.000000 0.033910 0.000000 -0.000873
# 5 -0.001342 0.000904 -0.012916 0.000000 0.038952 0.000000
# 6 0.000000 0.000000 0.000000 -0.000873 0.000000 0.045128
#
#
# Mechanical properties :
#
#
# Convention : Reuss Voigt Hill
#
# Bulk Modulus (GPa) = 31.15780 39.03905 35.09843
# Shear Modulus (GPa) = 25.77051 31.12947 28.44999
#
# Velocity S-wave (km/s) = 3.62488 3.98398 3.80867
# Velocity P-wave (km/s) = 5.77981 6.40842 6.10222
#
# Compressibility (1/GPa) = 0.03209469
#
# Stress axis : x y z
#
# Youngs Moduli (GPa) = 61.27564 128.32099 40.64921
#
# Poissons Ratio (x) = 0.14520 0.24473
# Poissons Ratio (y) = 0.06934 0.04704
# Poissons Ratio (z) = 0.36891 0.14851
#
# Static dielectric constant tensor:
#      x y z
#    x 1.782740 0.000000 -0.006890 
#    y 0.000000 1.734670 0.000000 
#    z -0.006890 0.000000 1.747180 
# 
# From -- ./inp_files/69405.got.cif
#   From: 2010.05.17/outbox.cif.g08.bks.cpg/sg13_35_cif.got.tgz:69405.got - 2010.06.03 16:44:36.
