data_PCOD9228461
_publ_section_title
;
Structure prediction by ZEFSAII (Michael W. Deem and Ramdas Pophale) SiO2 
 PCOD9228461
Probable space group: P 2/C
;
_chemical_formula_sum "Si O2"
_cell_formula_units_Z 28
_cell_length_a 9.237263
_cell_length_b 14.643795
_cell_length_c 23.135969
_cell_angle_alpha 90.000000
_cell_angle_beta 25.076180
_cell_angle_gamma 90.000000
_cell_volume 1326.383374
_symmetry_space_group_name_H-M "P 2/C"
_symmetry_group_IT_number 13
_symmetry_cell_setting 'monoclinic'
loop_
_space_group_symop_operation_xyz
x,y,z
-x,y,1/2-z
-x,-y,-z
x,-y,1/2+z
loop_
_atom_site_type_symbol
_atom_site_label
_atom_site_fract_x
_atom_site_fract_y
_atom_site_fract_z
Si Si1 0.403009 0.505932 0.347814
Si Si2 0.234748 0.806118 0.516869
Si Si3 0.395621 0.375878 0.123488
Si Si4 0.297257 0.179124 0.191871
Si Si5 0.803368 0.684595 0.376120
Si Si6 0.532559 0.278920 0.803841
Si Si7 0.406720 0.007426 0.601235
O O1 0.500000 0.467909 0.250000
O O2 0.554683 0.449115 0.345228
O O3 0.518428 0.610980 0.308280
O O4 0.000000 0.500000 0.500000
O O5 0.499184 0.748458 0.461886
O O6 0.241538 0.755427 0.452975
O O7 0.393210 0.905203 0.448590
O O8 0.890700 0.816991 0.678313
O O9 0.489560 0.274313 0.112881
O O10 0.000000 0.374734 0.250000
O O11 0.635353 0.386662 0.980865
O O12 0.000000 0.178487 0.250000
O O13 0.485541 0.084802 0.108720
O O14 0.000000 0.642900 0.250000
O O15 0.097572 0.742763 0.302028
O O16 0.500000 0.246258 0.750000
O O17 0.000000 0.023249 0.750000
O O18 0.500000 0.000000 0.500000
#
# Coordination Sequence:
#
# PCOD9228461 Si02
#       7
#     4   4   4   4   4   4   4
#     4  11  26  45  65  92 125 170 219 259 316 389
#     4  11  20  37  62  94 123 164 207 259 315 366
#     4  11  21  39  65  93 129 166 204 269 321 365
#     4  10  19  34  56  94 135 154 202 256 314 374
#     4  10  20  37  60  89 124 155 207 258 311 369
#     4  10  23  42  62  85 123 166 217 260 307 378
#     4  11  18  31  55  91 132 159 197 251 311 371
#
# _framework density 21.110036999999998
#
# number of rings (size 3 to 8) (size 9 to 14) (size 15 to 20)
#    0.000    1.429    5.714    3.000    2.000    1.714 
#    0.000    4.286    0.000    1.714    0.000    0.000 
#    0.000    0.000    0.000    0.000    0.000    0.000 
#
# Total GULP energy -156435.056707 kJ/mol
# GULP energy per Si atom -5586.966311 kJ/mol
# Density = 2.106199 g / cm^3
# Si number density = 21.110037 Si / 1000 Ang^3
#
#
#
# Elastic Constant Matrix: (Units=GPa)
#
#
# Indices 1 2 3 4 5 6 
#
# 1 82.7053 26.2763 43.4328 0.0000 39.1128 0.0000
# 2 26.2763 86.6635 18.1466 0.0000 24.5554 0.0000
# 3 43.4328 18.1466 158.6073 0.0000 47.6957 0.0000
# 4 0.0000 0.0000 0.0000 10.8767 0.0000 53.2492
# 5 39.1128 24.5554 47.6957 0.0000 42.4924 0.0000
# 6 0.0000 0.0000 0.0000 53.2492 0.0000 -86.2779
#
#
#
# Elastic Compliance Matrix: (Units=1/GPa)
#
#
# Indices 1 2 3 4 5 6 
#
# 1 0.021497 -0.001090 -0.000002 0.000000 -0.019156 0.000000
# 2 -0.001090 0.014016 0.001251 0.000000 -0.008501 0.000000
# 3 -0.000002 0.001251 0.009629 0.000000 -0.011530 0.000000
# 4 0.000000 0.000000 0.000000 0.022862 0.000000 0.014110
# 5 -0.019156 -0.008501 -0.011530 0.000000 0.059020 0.000000
# 6 0.000000 0.000000 0.000000 0.014110 0.000000 -0.002882
#
#
# Mechanical properties :
#
#
# Convention : Reuss Voigt Hill
#
# Bulk Modulus (GPa) = 21.99646 55.96529 38.98088
# Shear Modulus (GPa) = 35.97697 9.42628 22.70162
#
# Velocity S-wave (km/s) = 4.13275 2.11542 3.28288
# Velocity P-wave (km/s) = 5.76327 5.70398 5.73371
#
# Compressibility (1/GPa) = 0.04546186
#
# Stress axis : x y z
#
# Youngs Moduli (GPa) = 46.51705 71.34736 103.84798
#
# Poissons Ratio (x) = 0.07777 0.00017
# Poissons Ratio (y) = 0.05070 -0.12993
# Poissons Ratio (z) = 0.00008 -0.08926
#
# Static dielectric constant tensor:
#      x y z
#    x 1.780540 0.000000 0.014860 
#    y 0.000000 1.806550 0.000000 
#    z 0.014860 0.000000 1.769820 
# 
# From -- ./inp_files/76697.got.cif
#   From: 2010.05.17/outbox.cif.g08.bks.cpg/sg13_39_cif.got.tgz:76697.got - 2010.06.03 16:44:36.
