data_PCOD9228766
_publ_section_title
;
Structure prediction by ZEFSAII (Michael W. Deem and Ramdas Pophale) SiO2 
 PCOD9228766
Probable space group: P 2/C
;
_chemical_formula_sum "Si O2"
_cell_formula_units_Z 26
_cell_length_a 8.465564
_cell_length_b 7.311820
_cell_length_c 16.533743
_cell_angle_alpha 90.000000
_cell_angle_beta 84.292625
_cell_angle_gamma 90.000000
_cell_volume 1018.343565
_symmetry_space_group_name_H-M "P 2/C"
_symmetry_group_IT_number 13
_symmetry_cell_setting 'monoclinic'
loop_
_space_group_symop_operation_xyz
x,y,z
-x,y,1/2-z
-x,-y,-z
x,-y,1/2+z
loop_
_atom_site_type_symbol
_atom_site_label
_atom_site_fract_x
_atom_site_fract_y
_atom_site_fract_z
Si Si1 0.465961 0.076764 0.668544
Si Si2 0.000000 0.051608 0.250000
Si Si3 0.143744 0.549939 0.567724
Si Si4 0.136442 0.136403 0.600653
Si Si5 0.302819 0.302304 0.218291
Si Si6 0.220349 0.406698 0.399413
Si Si7 0.329936 0.024388 0.463990
O O1 0.500000 0.171950 0.750000
O O2 0.427522 0.858703 0.685261
O O3 0.632795 0.093480 0.614999
O O4 0.308967 0.152169 0.635040
O O5 0.153241 0.174002 0.243403
O O6 0.009541 0.930343 0.169998
O O7 0.097597 0.335785 0.573636
O O8 0.260963 0.593044 0.636796
O O9 0.222347 0.558420 0.473378
O O10 0.970415 0.636271 0.596833
O O11 0.181034 0.988898 0.529208
O O12 0.300865 0.419259 0.304064
O O13 0.303941 0.230821 0.435728
O O14 0.500000 0.000000 0.500000
#
# Coordination Sequence:
#
# PCOD9228766 Si02
#       7
#     4   2   4   4   4   4   4
#     4  10  19  36  66  85 120 165 219 262 319 392
#     4  10  20  34  58  90 116 162 216 260 338 376
#     4  10  21  37  59  88 129 164 206 273 333 384
#     4   9  21  36  59  86 126 161 203 274 330 370
#     4  11  20  36  63  89 122 170 215 272 322 391
#     4  10  19  35  63  88 120 170 214 257 329 397
#     4   9  18  37  61  88 121 165 208 270 319 377
#
# _framework density 25.531656000000002
#
# number of rings (size 3 to 8) (size 9 to 14) (size 15 to 20)
#    0.000    2.154    3.077    0.000    2.154    0.000 
#    0.000    6.923   16.923    0.000    0.000    0.000 
#    0.000    0.000    0.000    0.000    0.000    0.000 
#
# Total GULP energy -144776.853573 kJ/mol
# GULP energy per Si atom -5568.340522 kJ/mol
# Density = 2.547354 g / cm^3
# Si number density = 25.531656 Si / 1000 Ang^3
#
#
#
# Elastic Constant Matrix: (Units=GPa)
#
#
# Indices 1 2 3 4 5 6 
#
# 1 60.9269 22.7186 27.5466 0.0000 -4.6202 0.0000
# 2 22.7186 57.1015 33.3436 0.0000 -8.2884 0.0000
# 3 27.5466 33.3436 167.7573 0.0000 -10.7948 0.0000
# 4 0.0000 0.0000 0.0000 40.5853 0.0000 -9.6468
# 5 -4.6202 -8.2884 -10.7948 0.0000 43.4127 0.0000
# 6 0.0000 0.0000 0.0000 -9.6468 0.0000 36.7674
#
#
#
# Elastic Compliance Matrix: (Units=1/GPa)
#
#
# Indices 1 2 3 4 5 6 
#
# 1 0.019802 -0.006722 -0.001893 0.000000 0.000353 0.000000
# 2 -0.006722 0.022447 -0.003179 0.000000 0.002780 0.000000
# 3 -0.001893 -0.003179 0.006963 0.000000 0.000923 0.000000
# 4 0.000000 0.000000 0.000000 0.026278 0.000000 0.006895
# 5 0.000353 0.002780 0.000923 0.000000 0.023833 0.000000
# 6 0.000000 0.000000 0.000000 0.006895 0.000000 0.029007
#
#
# Mechanical properties :
#
#
# Convention : Reuss Voigt Hill
#
# Bulk Modulus (GPa) = 39.02481 50.33369 44.67925
# Shear Modulus (GPa) = 31.16062 37.63154 34.39608
#
# Velocity S-wave (km/s) = 3.49731 3.84333 3.67440
# Velocity P-wave (km/s) = 5.62373 6.28108 5.96147
#
# Compressibility (1/GPa) = 0.02562472
#
# Stress axis : x y z
#
# Youngs Moduli (GPa) = 50.49940 44.54963 143.61542
#
# Poissons Ratio (x) = 0.29946 0.27184
# Poissons Ratio (y) = 0.33946 0.45654
# Poissons Ratio (z) = 0.09559 0.14162
#
# Static dielectric constant tensor:
#      x y z
#    x 2.060760 0.000000 -0.005320 
#    y 0.000000 1.997720 0.000000 
#    z -0.005320 0.000000 2.332040 
# 
# From -- ./inp_files/63733.got.cif
#   From: 2010.05.17/outbox.cif.g08.bks.cpg/sg13_32_cif.got.tgz:63733.got - 2010.06.03 16:44:36.
