data_PCOD9228739
_publ_section_title
;
Structure prediction by ZEFSAII (Michael W. Deem and Ramdas Pophale) SiO2 
 PCOD9228739
Probable space group: P 2/C
;
_chemical_formula_sum "Si O2"
_cell_formula_units_Z 28
_cell_length_a 17.295551
_cell_length_b 17.838767
_cell_length_c 5.171271
_cell_angle_alpha 90.000000
_cell_angle_beta 105.784907
_cell_angle_gamma 90.000000
_cell_volume 1535.332218
_symmetry_space_group_name_H-M "P 2/C"
_symmetry_group_IT_number 13
_symmetry_cell_setting 'monoclinic'
loop_
_space_group_symop_operation_xyz
x,y,z
-x,y,1/2-z
-x,-y,-z
x,-y,1/2+z
loop_
_atom_site_type_symbol
_atom_site_label
_atom_site_fract_x
_atom_site_fract_y
_atom_site_fract_z
Si Si1 0.252280 0.211033 0.049047
Si Si2 0.674761 0.288779 0.883087
Si Si3 0.326000 0.951412 0.636189
Si Si4 0.500000 0.121206 0.250000
Si Si5 0.089532 0.606740 0.797201
Si Si6 0.261532 0.544216 0.983431
Si Si7 0.910448 0.710072 0.202073
Si Si8 0.500000 0.772515 0.250000
O O1 0.278838 0.242871 0.351354
O O2 0.275020 0.124159 0.055084
O O3 0.301473 0.255240 0.872844
O O4 0.159862 0.231151 0.911390
O O5 0.580409 0.276278 0.840349
O O6 0.701991 0.374510 0.927726
O O7 0.419626 0.927600 0.701890
O O8 0.309998 0.010816 0.396456
O O9 0.505900 0.173892 0.506246
O O10 0.164673 0.552816 0.903391
O O11 0.096910 0.645318 0.523350
O O12 0.000000 0.573499 0.750000
O O13 0.096518 0.671161 0.024087
O O14 0.285543 0.514101 0.725778
O O15 0.000000 0.741793 0.250000
#
# Coordination Sequence:
#
# PCOD9228739 Si02
#       8
#     4   4   4   2   4   4   4   2
#     4  12  21  40  65  85 119 162 201 238 289 347
#     4  12  23  41  63  87 114 156 209 248 284 352
#     4  12  24  38  57  92 130 157 187 238 296 362
#     4  12  22  39  62  89 124 158 188 236 308 353
#     4  10  20  35  57  86 120 151 189 244 302 358
#     4  12  24  38  58  85 120 159 193 246 307 353
#     4  10  19  35  61  90 114 148 201 252 286 334
#     4  12  22  41  64  91 112 152 208 256 278 345
#
# _framework density 18.237096000000001
#
# number of rings (size 3 to 8) (size 9 to 14) (size 15 to 20)
#    0.000    0.571    5.714    3.857    0.000    0.571 
#    0.000    0.714    0.000    0.857    0.000    0.000 
#    0.000    0.000    0.000    0.000    0.000    0.000 
#
# Total GULP energy -156631.390521 kJ/mol
# GULP energy per Si atom -5593.978233 kJ/mol
# Density = 1.819559 g / cm^3
# Si number density = 18.237096 Si / 1000 Ang^3
#
#
#
# Elastic Constant Matrix: (Units=GPa)
#
#
# Indices 1 2 3 4 5 6 
#
# 1 53.3799 6.5494 -0.5683 0.0000 16.0633 0.0000
# 2 6.5494 59.1734 3.0512 0.0000 15.5797 0.0000
# 3 -0.5683 3.0512 65.3548 0.0000 2.1000 0.0000
# 4 0.0000 0.0000 0.0000 43.3552 0.0000 -32.9216
# 5 16.0633 15.5797 2.1000 0.0000 19.0007 0.0000
# 6 0.0000 0.0000 0.0000 -32.9216 0.0000 98.4596
#
#
#
# Elastic Compliance Matrix: (Units=1/GPa)
#
#
# Indices 1 2 3 4 5 6 
#
# 1 0.025784 0.003655 0.000853 0.000000 -0.024890 0.000000
# 2 0.003655 0.022083 -0.000319 0.000000 -0.021162 0.000000
# 3 0.000853 -0.000319 0.015393 0.000000 -0.002161 0.000000
# 4 0.000000 0.000000 0.000000 0.030914 0.000000 0.010337
# 5 -0.024890 -0.021162 -0.002161 0.000000 0.091263 0.000000
# 6 0.000000 0.000000 0.000000 0.010337 0.000000 0.013613
#
#
# Mechanical properties :
#
#
# Convention : Reuss Voigt Hill
#
# Bulk Modulus (GPa) = 13.95888 21.77474 17.86681
# Shear Modulus (GPa) = 23.30452 43.42147 33.36299
#
# Velocity S-wave (km/s) = 3.57860 4.88478 4.28179
# Velocity P-wave (km/s) = 4.97452 6.61669 5.85348
#
# Compressibility (1/GPa) = 0.07163897
#
# Stress axis : x y z
#
# Youngs Moduli (GPa) = 38.78350 45.28346 64.96522
#
# Poissons Ratio (x) = -0.16553 -0.05543
# Poissons Ratio (y) = -0.14177 0.02074
# Poissons Ratio (z) = -0.03309 0.01446
#
# Static dielectric constant tensor:
#      x y z
#    x 1.629120 0.000000 0.004760 
#    y 0.000000 1.586360 0.000000 
#    z 0.004760 0.000000 1.629240 
# 
# From -- ./inp_files/6233.got.cif
#   From: 2010.05.17/outbox.cif.g08.bks.cpg/sg13_4_cif.got.tgz:6233.got - 2010.06.03 16:44:36.
