data_PCOD9228995
_publ_section_title
;
Structure prediction by ZEFSAII (Michael W. Deem and Ramdas Pophale) SiO2 
 PCOD9228995
Probable space group: P 2/C
;
_chemical_formula_sum "Si O2"
_cell_formula_units_Z 28
_cell_length_a 32.475657
_cell_length_b 8.970396
_cell_length_c 32.949284
_cell_angle_alpha 90.000000
_cell_angle_beta 8.933274
_cell_angle_gamma 90.000000
_cell_volume 1490.536299
_symmetry_space_group_name_H-M "P 2/C"
_symmetry_group_IT_number 13
_symmetry_cell_setting 'monoclinic'
loop_
_space_group_symop_operation_xyz
x,y,z
-x,y,1/2-z
-x,-y,-z
x,-y,1/2+z
loop_
_atom_site_type_symbol
_atom_site_label
_atom_site_fract_x
_atom_site_fract_y
_atom_site_fract_z
Si Si1 0.829210 0.383002 0.714862
Si Si2 0.500000 0.764638 0.750000
Si Si3 0.696508 0.715741 0.168763
Si Si4 0.671033 0.625378 0.666918
Si Si5 0.335595 0.587527 0.213490
Si Si6 0.786116 0.221636 0.837715
Si Si7 0.831190 0.892796 0.829741
Si Si8 0.000000 0.020696 0.750000
O O1 0.745171 0.341781 0.751028
O O2 0.805510 0.253277 0.770913
O O3 0.120661 0.455764 0.430314
O O4 0.623699 0.512513 0.928724
O O5 0.560194 0.665536 0.730657
O O6 0.748300 0.871919 0.500323
O O7 0.667832 0.549490 0.179007
O O8 0.678033 0.697265 0.235312
O O9 0.456934 0.818756 0.386887
O O10 0.972697 0.785470 0.885796
O O11 0.967517 0.688586 0.382661
O O12 0.482900 0.709519 0.882282
O O13 0.808743 0.050899 0.828766
O O14 0.951880 0.924270 0.756601
#
# Coordination Sequence:
#
# PCOD9228995 Si02
#       8
#     4   2   4   4   4   4   4   2
#     4  10  19  36  65  94 120 160 216 256 299 371
#     4  12  22  42  66  94 114 154 222 270 294 352
#     4  12  24  42  60  98 130 163 201 260 323 370
#     4  12  23  39  68  89 122 158 212 265 301 358
#     4  10  20  36  63  93 124 162 204 264 310 353
#     4  12  21  42  63  97 117 171 212 249 304 378
#     4  12  26  40  64  88 132 170 198 253 326 380
#     4  12  24  44  64  88 124 166 216 248 308 384
#
# _framework density 18.785184999999998
#
# number of rings (size 3 to 8) (size 9 to 14) (size 15 to 20)
#    0.000    0.571    5.714    3.429    0.000    1.143 
#    0.000    1.429    0.000    0.000    0.000    0.000 
#    0.000    0.000    0.000    0.000    0.000    0.000 
#
# Total GULP energy -156623.463845 kJ/mol
# GULP energy per Si atom -5593.695137 kJ/mol
# Density = 1.874243 g / cm^3
# Si number density = 18.785185 Si / 1000 Ang^3
#
#
#
# Elastic Constant Matrix: (Units=GPa)
#
#
# Indices 1 2 3 4 5 6 
#
# 1 94.0864 21.8604 -16.1081 0.0000 5.8958 0.0000
# 2 21.8604 62.2726 -5.0889 0.0000 2.1016 0.0000
# 3 -16.1081 -5.0889 70.3726 0.0000 -0.4782 0.0000
# 4 0.0000 0.0000 0.0000 22.8539 0.0000 5.7483
# 5 5.8958 2.1016 -0.4782 0.0000 28.5810 0.0000
# 6 0.0000 0.0000 0.0000 5.7483 0.0000 24.6093
#
#
#
# Elastic Compliance Matrix: (Units=1/GPa)
#
#
# Indices 1 2 3 4 5 6 
#
# 1 0.012111 -0.003977 0.002470 0.000000 -0.002165 0.000000
# 2 -0.003977 0.017499 0.000352 0.000000 -0.000461 0.000000
# 3 0.002470 0.000352 0.014799 0.000000 -0.000288 0.000000
# 4 0.000000 0.000000 0.000000 0.046487 0.000000 -0.010859
# 5 -0.002165 -0.000461 -0.000288 0.000000 0.035464 0.000000
# 6 0.000000 0.000000 0.000000 -0.010859 0.000000 0.043171
#
#
# Mechanical properties :
#
#
# Convention : Reuss Voigt Hill
#
# Bulk Modulus (GPa) = 23.75337 25.33981 24.54659
# Shear Modulus (GPa) = 26.90002 30.28007 28.59004
#
# Velocity S-wave (km/s) = 3.78826 4.01922 3.90545
# Velocity P-wave (km/s) = 5.63974 5.92093 5.78204
#
# Compressibility (1/GPa) = 0.04209930
#
# Stress axis : x y z
#
# Youngs Moduli (GPa) = 82.56984 57.14717 67.57245
#
# Poissons Ratio (x) = 0.22725 -0.16690
# Poissons Ratio (y) = 0.32835 -0.02379
# Poissons Ratio (z) = -0.20394 -0.02012
#
# Static dielectric constant tensor:
#      x y z
#    x 1.671010 0.000000 0.004950 
#    y 0.000000 1.601000 0.000000 
#    z 0.004950 0.000000 1.631240 
# 
# From -- ./inp_files/97991.got.cif
#   From: 2010.05.17/outbox.cif.g08.bks.cpg/sg13_49_cif.got.tgz:97991.got - 2010.06.03 16:44:36.
