data_PCOD9228045
_publ_section_title
;
Structure prediction by ZEFSAII (Michael W. Deem and Ramdas Pophale) SiO2 
 PCOD9228045
Probable space group: P 2/C
;
_chemical_formula_sum "Si O2"
_cell_formula_units_Z 32
_cell_length_a 15.268898
_cell_length_b 5.186278
_cell_length_c 21.058061
_cell_angle_alpha 90.000000
_cell_angle_beta 105.267491
_cell_angle_gamma 90.000000
_cell_volume 1608.708244
_symmetry_space_group_name_H-M "P 2/C"
_symmetry_group_IT_number 13
_symmetry_cell_setting 'monoclinic'
loop_
_space_group_symop_operation_xyz
x,y,z
-x,y,1/2-z
-x,-y,-z
x,-y,1/2+z
loop_
_atom_site_type_symbol
_atom_site_label
_atom_site_fract_x
_atom_site_fract_y
_atom_site_fract_z
Si Si1 0.267338 0.638857 0.234394
Si Si2 0.742196 0.038033 0.490158
Si Si3 0.168246 0.150244 0.374639
Si Si4 0.495361 0.444140 0.108897
Si Si5 0.573236 0.782398 0.029654
Si Si6 0.098954 0.648673 0.296964
Si Si7 0.658567 0.857863 0.686327
Si Si8 0.698814 0.539557 0.399679
O O1 0.173209 0.636607 0.254914
O O2 0.321379 0.385695 0.265332
O O3 0.253614 0.617594 0.156729
O O4 0.322835 0.888865 0.268596
O O5 0.671855 0.120303 0.531540
O O6 0.742109 0.285768 0.442529
O O7 0.823221 0.931666 0.549889
O O8 0.705018 0.790693 0.445484
O O9 0.126403 0.430972 0.353528
O O10 0.265083 0.155661 0.354757
O O11 0.109067 0.930420 0.329371
O O12 0.564237 0.665847 0.098039
O O13 0.557837 0.205119 0.140571
O O14 0.408965 0.493699 0.136370
O O15 0.443078 0.413963 0.031595
O O16 0.500000 0.000000 0.000000
O O17 0.000000 0.602428 0.250000
#
# Coordination Sequence:
#
# PCOD9228045 Si02
#       8
#     4   4   4   4   4   4   4   4
#     4  10  23  41  59  83 115 159 198 239 298 362
#     4  11  22  35  60  83 118 158 194 250 287 344
#     4  10  21  36  61  95 116 141 193 243 300 346
#     4  10  22  32  51  81 112 158 202 244 286 326
#     4  10  19  32  50  78 115 151 198 249 286 326
#     4  10  21  40  67  92 115 145 185 245 304 362
#     4  10  22  36  59  80 116 155 200 257 288 331
#     4  11  23  39  55  81 120 166 204 231 293 353
#
# _framework density 19.891736000000002
#
# number of rings (size 3 to 8) (size 9 to 14) (size 15 to 20)
#    0.000    1.750    1.250    2.625   10.500    0.500 
#    0.000    1.250    0.000    4.500    0.000    0.000 
#    0.000    0.000    0.000    0.000    0.000    0.000 
#
# Total GULP energy -178339.809810 kJ/mol
# GULP energy per Si atom -5573.119057 kJ/mol
# Density = 1.984646 g / cm^3
# Si number density = 19.891736 Si / 1000 Ang^3
#
#
#
# Elastic Constant Matrix: (Units=GPa)
#
#
# Indices 1 2 3 4 5 6 
#
# 1 39.1037 22.5750 33.5834 0.0000 7.0211 0.0000
# 2 22.5750 121.7978 29.3543 0.0000 -7.2344 0.0000
# 3 33.5834 29.3543 63.2403 0.0000 4.0032 0.0000
# 4 0.0000 0.0000 0.0000 18.3508 0.0000 0.4909
# 5 7.0211 -7.2344 4.0032 0.0000 15.9879 0.0000
# 6 0.0000 0.0000 0.0000 0.4909 0.0000 14.6965
#
#
#
# Elastic Compliance Matrix: (Units=1/GPa)
#
#
# Indices 1 2 3 4 5 6 
#
# 1 0.053162 -0.005070 -0.024646 0.000000 -0.019469 0.000000
# 2 -0.005070 0.010200 -0.002515 0.000000 0.007472 0.000000
# 3 -0.024646 -0.002515 0.029929 0.000000 0.002191 0.000000
# 4 0.000000 0.000000 0.000000 0.054542 0.000000 -0.001822
# 5 -0.019469 0.007472 0.002191 0.000000 0.073929 0.000000
# 6 0.000000 0.000000 0.000000 -0.001822 0.000000 0.068104
#
#
# Mechanical properties :
#
#
# Convention : Reuss Voigt Hill
#
# Bulk Modulus (GPa) = 34.68622 43.90748 39.29685
# Shear Modulus (GPa) = 13.73856 19.04898 16.39377
#
# Velocity S-wave (km/s) = 2.63091 3.09792 2.87392
# Velocity P-wave (km/s) = 5.16761 5.90909 5.55074
#
# Compressibility (1/GPa) = 0.02882990
#
# Stress axis : x y z
#
# Youngs Moduli (GPa) = 18.81038 98.03910 33.41206
#
# Poissons Ratio (x) = 0.49707 0.82346
# Poissons Ratio (y) = 0.09537 0.08403
# Poissons Ratio (z) = 0.46359 0.24657
#
# Static dielectric constant tensor:
#      x y z
#    x 1.742950 0.000000 0.038000 
#    y 0.000000 1.775400 0.000000 
#    z 0.038000 0.000000 1.726130 
# 
# From -- ./inp_files/79339.got.cif
#   From: 2010.05.17/outbox.cif.g08.bks.cpg/sg13_40_cif.got.tgz:79339.got - 2010.06.03 16:44:36.
