data_PCOD9228912
_publ_section_title
;
Structure prediction by ZEFSAII (Michael W. Deem and Ramdas Pophale) SiO2 
 PCOD9228912
Probable space group: P 2/C
;
_chemical_formula_sum "Si O2"
_cell_formula_units_Z 32
_cell_length_a 9.182346
_cell_length_b 15.893487
_cell_length_c 23.563074
_cell_angle_alpha 90.000000
_cell_angle_beta 152.982290
_cell_angle_gamma 90.000000
_cell_volume 1562.121881
_symmetry_space_group_name_H-M "P 2/C"
_symmetry_group_IT_number 13
_symmetry_cell_setting 'monoclinic'
loop_
_space_group_symop_operation_xyz
x,y,z
-x,y,1/2-z
-x,-y,-z
x,-y,1/2+z
loop_
_atom_site_type_symbol
_atom_site_label
_atom_site_fract_x
_atom_site_fract_y
_atom_site_fract_z
Si Si1 0.208691 0.652954 0.691305
Si Si2 0.518604 0.663714 0.400263
Si Si3 0.704610 0.335790 0.550957
Si Si4 0.224087 0.041974 0.771714
Si Si5 0.281166 0.214037 0.729295
Si Si6 0.722269 0.942451 0.536825
Si Si7 0.090766 0.484366 0.716017
Si Si8 0.876058 0.778022 0.649713
O O1 0.500000 0.659072 0.750000
O O2 0.211241 0.568586 0.729209
O O3 0.878949 0.647289 0.542264
O O4 0.161218 0.734617 0.714099
O O5 0.317561 0.675971 0.388420
O O6 0.489718 0.744070 0.351235
O O7 0.367819 0.585435 0.314955
O O8 0.360790 0.298744 0.414084
O O9 0.975143 0.276366 0.617673
O O10 0.804955 0.434346 0.582736
O O11 0.178885 0.124289 0.717609
O O12 0.000000 0.047568 0.750000
O O13 0.580432 0.041171 0.924328
O O14 0.083371 0.968806 0.681813
O O15 0.500000 0.208214 0.750000
O O16 0.695918 0.845360 0.547557
O O17 0.500000 0.000000 0.500000
O O18 0.000000 0.501098 0.750000
O O19 0.000000 0.820836 0.750000
#
# Coordination Sequence:
#
# PCOD9228912 Si02
#       8
#     4   4   4   4   4   4   4   4
#     4  11  24  38  54  81 120 160 191 233 296 352
#     4   9  20  39  59  80 111 152 202 245 289 346
#     4   9  19  37  61  84 112 153 199 247 290 342
#     4  10  19  36  60  86 117 151 192 240 293 352
#     4  11  21  35  59  88 115 150 195 244 295 346
#     4  10  20  36  63  91 115 147 197 247 291 348
#     4   9  19  36  59  84 109 148 201 248 287 338
#     4  11  22  37  60  88 117 152 196 242 292 351
#
# _framework density 20.484957999999999
#
# number of rings (size 3 to 8) (size 9 to 14) (size 15 to 20)
#    0.000    2.000    0.000    6.375    0.000    9.000 
#    0.000    1.250    0.000    0.000    0.000    0.000 
#    0.000    0.000    0.000    0.000    0.000    0.000 
#
# Total GULP energy -178426.182792 kJ/mol
# GULP energy per Si atom -5575.818212 kJ/mol
# Density = 2.043833 g / cm^3
# Si number density = 20.484958 Si / 1000 Ang^3
#
#
#
# Elastic Constant Matrix: (Units=GPa)
#
#
# Indices 1 2 3 4 5 6 
#
# 1 75.0100 27.1938 18.2659 0.0000 19.5981 0.0000
# 2 27.1938 82.8896 -2.7708 0.0000 6.0545 0.0000
# 3 18.2659 -2.7708 62.1167 0.0000 1.7367 0.0000
# 4 0.0000 0.0000 0.0000 29.8426 0.0000 -15.1818
# 5 19.5981 6.0545 1.7367 0.0000 21.4771 0.0000
# 6 0.0000 0.0000 0.0000 -15.1818 0.0000 13.5745
#
#
#
# Elastic Compliance Matrix: (Units=1/GPa)
#
#
# Indices 1 2 3 4 5 6 
#
# 1 0.021570 -0.006003 -0.006121 0.000000 -0.017495 0.000000
# 2 -0.006003 0.014015 0.002353 0.000000 0.001337 0.000000
# 3 -0.006121 0.002353 0.017907 0.000000 0.003474 0.000000
# 4 0.000000 0.000000 0.000000 0.077742 0.000000 0.086947
# 5 -0.017495 0.001337 0.003474 0.000000 0.061868 0.000000
# 6 0.000000 0.000000 0.000000 0.086947 0.000000 0.170911
#
#
# Mechanical properties :
#
#
# Convention : Reuss Voigt Hill
#
# Bulk Modulus (GPa) = 29.45677 33.93266 31.69472
# Shear Modulus (GPa) = 12.66238 24.80065 18.73152
#
# Velocity S-wave (km/s) = 2.48892 3.48325 3.02719
# Velocity P-wave (km/s) = 4.76136 5.72521 5.26539
#
# Compressibility (1/GPa) = 0.03394806
#
# Stress axis : x y z
#
# Youngs Moduli (GPa) = 46.36165 71.35370 55.84545
#
# Poissons Ratio (x) = 0.42834 0.34185
# Poissons Ratio (y) = 0.27831 -0.13141
# Poissons Ratio (z) = 0.28379 -0.16790
#
# Static dielectric constant tensor:
#      x y z
#    x 1.752890 0.000000 0.042530 
#    y 0.000000 1.857860 0.000000 
#    z 0.042530 0.000000 1.902370 
# 
# From -- ./inp_files/85359.got.cif
#   From: 2010.05.17/outbox.cif.g08.bks.cpg/sg13_43_cif.got.tgz:85359.got - 2010.06.03 16:44:36.
