data_PCOD9228919
_publ_section_title
;
Structure prediction by ZEFSAII (Michael W. Deem and Ramdas Pophale) SiO2 
 PCOD9228919
Probable space group: P 2/C
;
_chemical_formula_sum "Si O2"
_cell_formula_units_Z 32
_cell_length_a 11.748616
_cell_length_b 8.902541
_cell_length_c 18.051166
_cell_angle_alpha 90.000000
_cell_angle_beta 127.654148
_cell_angle_gamma 90.000000
_cell_volume 1494.767148
_symmetry_space_group_name_H-M "P 2/C"
_symmetry_group_IT_number 13
_symmetry_cell_setting 'monoclinic'
loop_
_space_group_symop_operation_xyz
x,y,z
-x,y,1/2-z
-x,-y,-z
x,-y,1/2+z
loop_
_atom_site_type_symbol
_atom_site_label
_atom_site_fract_x
_atom_site_fract_y
_atom_site_fract_z
Si Si1 0.285755 0.359095 0.007850
Si Si2 0.926516 0.156485 0.405740
Si Si3 0.936338 0.116712 0.583065
Si Si4 0.163473 0.543267 0.837199
Si Si5 0.403894 0.289486 0.359646
Si Si6 0.625722 0.998750 0.239312
Si Si7 0.754532 0.568514 0.836761
Si Si8 0.209410 0.286658 0.737196
O O1 0.213302 0.197796 0.962209
O O2 0.191726 0.485664 0.930682
O O3 0.450416 0.354337 0.049103
O O4 0.281568 0.390246 0.093877
O O5 0.967439 0.151717 0.508350
O O6 0.773484 0.068123 0.333782
O O7 0.891261 0.326522 0.370275
O O8 0.041465 0.062094 0.404225
O O9 0.058511 0.199056 0.678873
O O10 0.267668 0.679017 0.856985
O O11 0.216624 0.400877 0.808299
O O12 0.000000 0.570822 0.750000
O O13 0.418864 0.117428 0.341294
O O14 0.368867 0.376745 0.268619
O O15 0.500000 0.989630 0.250000
O O16 0.668222 0.838016 0.222767
O O17 0.785715 0.396230 0.832281
#
# Coordination Sequence:
#
# PCOD9228919 Si02
#       8
#     4   4   4   4   4   4   4   4
#     4  11  20  35  64  90 124 167 216 265 327 378
#     4   8  16  29  51  83 119 150 196 249 308 373
#     4   9  16  30  52  81 116 156 200 246 312 366
#     4  11  23  42  59  87 129 175 216 262 315 384
#     4  10  21  39  63  89 120 165 216 263 319 388
#     4  10  19  36  60  90 122 160 202 265 329 378
#     4   9  19  35  60  92 121 153 208 267 323 380
#     4  10  21  36  58  87 123 160 203 262 324 376
#
# _framework density 21.408017000000001
#
# number of rings (size 3 to 8) (size 9 to 14) (size 15 to 20)
#    0.000    2.250    1.250    3.000    0.000    4.000 
#    2.250    1.250    2.750    7.500    0.000    0.000 
#    0.000    0.000    0.000    0.000    0.000    0.000 
#
# Total GULP energy -178627.439649 kJ/mol
# GULP energy per Si atom -5582.107489 kJ/mol
# Density = 2.135929 g / cm^3
# Si number density = 21.408017 Si / 1000 Ang^3
#
#
#
# Elastic Constant Matrix: (Units=GPa)
#
#
# Indices 1 2 3 4 5 6 
#
# 1 75.4324 31.9532 17.7531 0.0000 22.9147 0.0000
# 2 31.9532 69.5387 -4.4984 0.0000 14.0467 0.0000
# 3 17.7531 -4.4984 54.2021 0.0000 22.9665 0.0000
# 4 0.0000 0.0000 0.0000 12.3608 0.0000 -1.1390
# 5 22.9147 14.0467 22.9665 0.0000 21.3485 0.0000
# 6 0.0000 0.0000 0.0000 -1.1390 0.0000 27.2743
#
#
#
# Elastic Compliance Matrix: (Units=1/GPa)
#
#
# Indices 1 2 3 4 5 6 
#
# 1 0.021726 -0.005650 0.001325 0.000000 -0.021028 0.000000
# 2 -0.005650 0.022629 0.013724 0.000000 -0.023589 0.000000
# 3 0.001325 0.013724 0.043338 0.000000 -0.057075 0.000000
# 4 0.000000 0.000000 0.000000 0.081213 0.000000 0.003392
# 5 -0.021028 -0.023589 -0.057075 0.000000 0.146333 0.000000
# 6 0.000000 0.000000 0.000000 0.003392 0.000000 0.036806
#
#
# Mechanical properties :
#
#
# Convention : Reuss Voigt Hill
#
# Bulk Modulus (GPa) = 9.39046 32.17655 20.78351
# Shear Modulus (GPa) = 13.55947 22.46108 18.01028
#
# Velocity S-wave (km/s) = 2.51944 3.24263 2.90364
# Velocity P-wave (km/s) = 3.58600 5.39280 4.57940
#
# Compressibility (1/GPa) = 0.10649101
#
# Stress axis : x y z
#
# Youngs Moduli (GPa) = 46.02736 44.19048 23.07438
#
# Poissons Ratio (x) = 0.24967 -0.03057
# Poissons Ratio (y) = 0.26005 -0.31667
# Poissons Ratio (z) = -0.06098 -0.60646
#
# Static dielectric constant tensor:
#      x y z
#    x 1.799820 0.000000 0.001840 
#    y 0.000000 1.808860 0.000000 
#    z 0.001840 0.000000 1.785140 
# 
# From -- ./inp_files/78294.got.cif
#   From: 2010.05.17/outbox.cif.g08.bks.cpg/sg13_40_cif.got.tgz:78294.got - 2010.06.03 16:44:36.
