data_PCOD9228207
_publ_section_title
;
Structure prediction by ZEFSAII (Michael W. Deem and Ramdas Pophale) SiO2 
 PCOD9228207
Probable space group: P 2/C
;
_chemical_formula_sum "Si O2"
_cell_formula_units_Z 20
_cell_length_a 21.981179
_cell_length_b 8.190076
_cell_length_c 5.329715
_cell_angle_alpha 90.000000
_cell_angle_beta 104.725692
_cell_angle_gamma 90.000000
_cell_volume 927.979696
_symmetry_space_group_name_H-M "P 2/C"
_symmetry_group_IT_number 13
_symmetry_cell_setting 'monoclinic'
loop_
_space_group_symop_operation_xyz
x,y,z
-x,y,1/2-z
-x,-y,-z
x,-y,1/2+z
loop_
_atom_site_type_symbol
_atom_site_label
_atom_site_fract_x
_atom_site_fract_y
_atom_site_fract_z
Si Si1 0.912140 0.093854 0.722220
Si Si2 0.224286 0.604776 0.922554
Si Si3 0.777346 0.958851 0.582084
Si Si4 0.500000 0.613203 0.250000
Si Si5 0.631680 0.602574 0.479874
Si Si6 0.000000 0.607850 0.250000
O O1 0.940361 0.270864 0.703510
O O2 0.932283 0.978434 0.511752
O O3 0.836370 0.083794 0.642967
O O4 0.212945 0.503875 0.164347
O O5 0.297699 0.663757 0.990060
O O6 0.191658 0.779721 0.884827
O O7 0.740488 0.999335 0.293185
O O8 0.500000 0.500000 0.500000
O O9 0.567922 0.700348 0.345095
O O10 0.629227 0.543497 0.767236
O O11 0.000000 0.500000 0.500000
#
# Coordination Sequence:
#
# PCOD9228207 Si02
#       6
#     4   4   4   2   4   2
#     4  10  21  41  62  82 113 148 174 207 260 322
#     4  10  19  33  53  79 104 133 178 229 262 298
#     4  10  21  38  56  78 108 147 179 209 262 322
#     4   8  12  20  34  58  92 128 156 196 262 318
#     4   8  14  23  39  64  96 126 161 210 262 304
#     4  12  24  40  64  92 112 136 178 226 260 298
#
# _framework density 21.552195999999999
#
# number of rings (size 3 to 8) (size 9 to 14) (size 15 to 20)
#    0.000    2.400    0.000    3.000    0.000    0.000 
#    0.000   24.000    0.000    0.000    0.000    1.400 
#    0.000    0.000    0.000    0.000    0.000    0.000 
#
# Total GULP energy -111392.431807 kJ/mol
# GULP energy per Si atom -5569.621590 kJ/mol
# Density = 2.150314 g / cm^3
# Si number density = 21.552196 Si / 1000 Ang^3
#
#
#
# Elastic Constant Matrix: (Units=GPa)
#
#
# Indices 1 2 3 4 5 6 
#
# 1 42.3691 -1.1223 1.5349 0.0000 2.9524 0.0000
# 2 -1.1223 106.4171 65.9406 0.0000 -13.0086 0.0000
# 3 1.5349 65.9406 199.9160 0.0000 -38.8795 0.0000
# 4 0.0000 0.0000 0.0000 37.0452 0.0000 -7.3300
# 5 2.9524 -13.0086 -38.8795 0.0000 25.0068 0.0000
# 6 0.0000 0.0000 0.0000 -7.3300 0.0000 6.9705
#
#
#
# Elastic Compliance Matrix: (Units=1/GPa)
#
#
# Indices 1 2 3 4 5 6 
#
# 1 0.023968 0.000451 -0.001201 0.000000 -0.004462 0.000000
# 2 0.000451 0.011820 -0.003894 0.000000 0.000041 0.000000
# 3 -0.001201 -0.003894 0.008499 0.000000 0.011330 0.000000
# 4 0.000000 0.000000 0.000000 0.034087 0.000000 0.035845
# 5 -0.004462 0.000041 0.011330 0.000000 0.058153 0.000000
# 6 0.000000 0.000000 0.000000 0.035845 0.000000 0.181157
#
#
# Mechanical properties :
#
#
# Convention : Reuss Voigt Hill
#
# Bulk Modulus (GPa) = 28.57088 53.48983 41.03035
# Shear Modulus (GPa) = 14.76506 32.62775 23.69640
#
# Velocity S-wave (km/s) = 2.62025 3.89510 3.31945
# Velocity P-wave (km/s) = 4.73705 6.71578 5.81125
#
# Compressibility (1/GPa) = 0.03500067
#
# Stress axis : x y z
#
# Youngs Moduli (GPa) = 41.72150 84.60431 117.65697
#
# Poissons Ratio (x) = -0.03818 0.14126
# Poissons Ratio (y) = -0.01883 0.45817
# Poissons Ratio (z) = 0.05009 0.32946
#
# Static dielectric constant tensor:
#      x y z
#    x 1.922370 0.000000 -0.004970 
#    y 0.000000 1.772170 0.000000 
#    z -0.004970 0.000000 1.888950 
# 
# From -- ./inp_files/7650.got.cif
#   From: 2010.05.17/outbox.cif.g08.bks.cpg/sg13_4_cif.got.tgz:7650.got - 2010.06.03 16:44:36.
