data_PCOD9228800
_publ_section_title
;
Structure prediction by ZEFSAII (Michael W. Deem and Ramdas Pophale) SiO2 
 PCOD9228800
Probable space group: P 2/C
;
_chemical_formula_sum "Si O2"
_cell_formula_units_Z 28
_cell_length_a 19.312828
_cell_length_b 9.959588
_cell_length_c 9.235456
_cell_angle_alpha 90.000000
_cell_angle_beta 45.932564
_cell_angle_gamma 90.000000
_cell_volume 1276.396134
_symmetry_space_group_name_H-M "P 2/C"
_symmetry_group_IT_number 13
_symmetry_cell_setting 'monoclinic'
loop_
_space_group_symop_operation_xyz
x,y,z
-x,y,1/2-z
-x,-y,-z
x,-y,1/2+z
loop_
_atom_site_type_symbol
_atom_site_label
_atom_site_fract_x
_atom_site_fract_y
_atom_site_fract_z
Si Si1 0.733110 0.793562 0.207040
Si Si2 0.550695 0.324239 0.904665
Si Si3 0.168684 0.729139 0.157342
Si Si4 0.887758 0.003566 0.871788
Si Si5 0.971864 0.235822 0.120001
Si Si6 0.193186 0.424715 0.132413
Si Si7 0.384753 0.575728 0.506488
O O1 0.619975 0.802791 0.330506
O O2 0.745094 0.755315 0.356011
O O3 0.808525 0.913196 0.070069
O O4 0.771210 0.671995 0.049397
O O5 0.582675 0.389512 0.704397
O O6 0.435808 0.319559 0.043814
O O7 0.578872 0.432470 0.986324
O O8 0.176294 0.575290 0.102770
O O9 0.069694 0.754966 0.390436
O O10 0.161883 0.851930 0.058843
O O11 0.910636 0.903588 0.699978
O O12 0.000000 0.027184 0.750000
O O13 0.905281 0.358487 0.172624
O O14 0.000000 0.248097 0.250000
O O15 0.270711 0.422976 0.149297
#
# Coordination Sequence:
#
# PCOD9228800 Si02
#       7
#     4   4   4   4   4   4   4
#     4  10  20  38  55  78 116 145 188 240 287 343
#     4   9  17  32  55  83 115 145 180 233 290 347
#     4  12  20  35  56  74 115 152 185 236 287 335
#     4  10  21  36  52  76 106 154 204 227 274 345
#     4  10  19  36  54  73 112 153 190 233 286 336
#     4  10  20  33  53  86 110 145 183 235 296 348
#     4   9  17  30  54  88 112 145 181 228 290 352
#
# _framework density 21.936762000000002
#
# number of rings (size 3 to 8) (size 9 to 14) (size 15 to 20)
#    0.000    2.000    5.714    0.857    0.000    0.571 
#    2.571    0.000    0.000    0.000    0.000   49.000 
#    0.000    0.000    0.000    0.000    0.000    0.000 
#
# Total GULP energy -155899.475335 kJ/mol
# GULP energy per Si atom -5567.838405 kJ/mol
# Density = 2.188683 g / cm^3
# Si number density = 21.936762 Si / 1000 Ang^3
#
#
#
# Elastic Constant Matrix: (Units=GPa)
#
#
# Indices 1 2 3 4 5 6 
#
# 1 116.1698 52.7987 3.9061 0.0000 -28.5104 0.0000
# 2 52.7987 119.7168 -0.0968 0.0000 -19.8019 0.0000
# 3 3.9061 -0.0968 10.4094 0.0000 -8.6612 0.0000
# 4 0.0000 0.0000 0.0000 12.6078 0.0000 -3.0727
# 5 -28.5104 -19.8019 -8.6612 0.0000 25.9043 0.0000
# 6 0.0000 0.0000 0.0000 -3.0727 0.0000 23.7822
#
#
#
# Elastic Compliance Matrix: (Units=1/GPa)
#
#
# Indices 1 2 3 4 5 6 
#
# 1 0.013562 -0.003574 0.006961 0.000000 0.014522 0.000000
# 2 -0.003574 0.011086 0.007236 0.000000 0.006961 0.000000
# 3 0.006961 0.007236 0.144776 0.000000 0.061599 0.000000
# 4 0.000000 0.000000 0.000000 0.081895 0.000000 0.010581
# 5 0.014522 0.006961 0.061599 0.000000 0.080504 0.000000
# 6 0.000000 0.000000 0.000000 0.010581 0.000000 0.043415
#
#
# Mechanical properties :
#
#
# Convention : Reuss Voigt Hill
#
# Bulk Modulus (GPa) = 5.24462 39.94578 22.59520
# Shear Modulus (GPa) = 11.97462 25.10473 18.53968
#
# Velocity S-wave (km/s) = 2.33892 3.38659 2.91029
# Velocity P-wave (km/s) = 3.11288 5.79146 4.64925
#
# Compressibility (1/GPa) = 0.19067148
#
# Stress axis : x y z
#
# Youngs Moduli (GPa) = 73.73369 90.20082 6.90720
#
# Poissons Ratio (x) = 0.32235 -0.04808
# Poissons Ratio (y) = 0.26350 -0.04998
# Poissons Ratio (z) = -0.51325 -0.65269
#
# Static dielectric constant tensor:
#      x y z
#    x 1.901100 0.000000 -0.035010 
#    y 0.000000 1.823670 0.000000 
#    z -0.035010 0.000000 1.918140 
# 
# From -- ./inp_files/40405.got.cif
#   From: 2010.05.17/outbox.cif.g08.bks.cpg/sg13_21_cif.got.tgz:40405.got - 2010.06.03 16:44:36.
