data_PCOD9228902
_publ_section_title
;
Structure prediction by ZEFSAII (Michael W. Deem and Ramdas Pophale) SiO2 
 PCOD9228902
Probable space group: P 2/C
;
_chemical_formula_sum "Si O2"
_cell_formula_units_Z 14
_cell_length_a 16.472670
_cell_length_b 7.767808
_cell_length_c 5.243957
_cell_angle_alpha 90.000000
_cell_angle_beta 87.312950
_cell_angle_gamma 90.000000
_cell_volume 670.260817
_symmetry_space_group_name_H-M "P 2/C"
_symmetry_group_IT_number 13
_symmetry_cell_setting 'monoclinic'
loop_
_space_group_symop_operation_xyz
x,y,z
-x,y,1/2-z
-x,-y,-z
x,-y,1/2+z
loop_
_atom_site_type_symbol
_atom_site_label
_atom_site_fract_x
_atom_site_fract_y
_atom_site_fract_z
Si Si1 0.174115 0.111853 0.772213
Si Si2 0.908805 0.569052 0.054371
Si Si3 0.500000 0.380637 0.750000
Si Si4 0.678433 0.620862 0.235027
O O1 0.098884 0.239432 0.840964
O O2 0.252175 0.235780 0.787791
O O3 0.173294 0.030412 0.493243
O O4 0.869955 0.451499 0.281365
O O5 0.000000 0.500000 0.000000
O O6 0.500000 0.500000 0.500000
O O7 0.411741 0.292440 0.760684
O O8 0.684426 0.508924 0.493484
#
# Coordination Sequence:
#
# PCOD9228902 Si02
#       4
#     4   4   2   4
#     4  12  24  38  57  88 119 146 183 236 289 336
#     4  10  21  41  63  82 107 147 191 227 275 341
#     4   8  16  30  54  84 108 142 198 238 260 310
#     4  10  19  36  60  83 112 154 195 231 271 330
#
# _framework density 20.887392999999999
#
# number of rings (size 3 to 8) (size 9 to 14) (size 15 to 20)
#    0.000    1.714    0.000    5.143    0.000    0.000 
#    0.000   18.571    0.000    0.000    0.000    0.000 
#    0.000    0.000    0.000    0.000    0.000    0.000 
#
# Total GULP energy -78113.791624 kJ/mol
# GULP energy per Si atom -5579.556545 kJ/mol
# Density = 2.083985 g / cm^3
# Si number density = 20.887393 Si / 1000 Ang^3
#
#
#
# Elastic Constant Matrix: (Units=GPa)
#
#
# Indices 1 2 3 4 5 6 
#
# 1 122.9625 29.4807 -4.7695 0.0000 -17.9932 0.0000
# 2 29.4807 62.3718 7.0894 0.0000 -8.8270 0.0000
# 3 -4.7695 7.0894 145.0938 0.0000 -0.2147 0.0000
# 4 0.0000 0.0000 0.0000 44.3073 0.0000 0.9822
# 5 -17.9932 -8.8270 -0.2147 0.0000 22.3849 0.0000
# 6 0.0000 0.0000 0.0000 0.9822 0.0000 16.8111
#
#
#
# Elastic Compliance Matrix: (Units=1/GPa)
#
#
# Indices 1 2 3 4 5 6 
#
# 1 0.010041 -0.003880 0.000529 0.000000 0.006546 0.000000
# 2 -0.003880 0.018578 -0.001029 0.000000 0.004197 0.000000
# 3 0.000529 -0.001029 0.006960 0.000000 0.000086 0.000000
# 4 0.000000 0.000000 0.000000 0.022599 0.000000 -0.001320
# 5 0.006546 0.004197 0.000086 0.000000 0.051591 0.000000
# 6 0.000000 0.000000 0.000000 -0.001320 0.000000 0.059562
#
#
# Mechanical properties :
#
#
# Convention : Reuss Voigt Hill
#
# Bulk Modulus (GPa) = 37.28590 43.78103 40.53347
# Shear Modulus (GPa) = 26.73379 36.60916 31.67147
#
# Velocity S-wave (km/s) = 3.58145 4.19106 3.89819
# Velocity P-wave (km/s) = 5.91541 6.66528 6.30151
#
# Compressibility (1/GPa) = 0.02681979
#
# Stress axis : x y z
#
# Youngs Moduli (GPa) = 99.58953 53.82803 143.68017
#
# Poissons Ratio (x) = 0.20884 -0.07605
# Poissons Ratio (y) = 0.38639 0.14785
# Poissons Ratio (z) = -0.05272 0.05539
#
# Static dielectric constant tensor:
#      x y z
#    x 1.937350 0.000000 0.051570 
#    y 0.000000 1.728240 0.000000 
#    z 0.051570 0.000000 1.806770 
# 
# From -- ./inp_files/5696.got.cif
#   From: 2010.05.17/outbox.cif.g08.bks.cpg/sg13_3_cif.got.tgz:5696.got - 2010.06.03 16:44:36.
