data_PCOD9228371
_publ_section_title
;
Structure prediction by ZEFSAII (Michael W. Deem and Ramdas Pophale) SiO2 
 PCOD9228371
Probable space group: P 2/C
;
_chemical_formula_sum "Si O2"
_cell_formula_units_Z 32
_cell_length_a 22.015694
_cell_length_b 12.365164
_cell_length_c 22.510104
_cell_angle_alpha 90.000000
_cell_angle_beta 17.642796
_cell_angle_gamma 90.000000
_cell_volume 1857.246649
_symmetry_space_group_name_H-M "P 2/C"
_symmetry_group_IT_number 13
_symmetry_cell_setting 'monoclinic'
loop_
_space_group_symop_operation_xyz
x,y,z
-x,y,1/2-z
-x,-y,-z
x,-y,1/2+z
loop_
_atom_site_type_symbol
_atom_site_label
_atom_site_fract_x
_atom_site_fract_y
_atom_site_fract_z
Si Si1 0.087699 0.270745 0.022628
Si Si2 0.089364 0.838597 0.399821
Si Si3 0.141284 0.138278 0.169325
Si Si4 0.683013 0.019895 0.386854
Si Si5 0.467921 0.682892 0.347954
Si Si6 0.367253 0.848333 0.676748
Si Si7 0.286192 0.422602 0.130151
Si Si8 0.615520 0.343580 0.918845
O O1 0.999117 0.223838 0.165815
O O2 0.925819 0.364300 0.156031
O O3 0.087892 0.176707 0.972348
O O4 0.314403 0.305016 0.824311
O O5 0.196556 0.942260 0.270972
O O6 0.206163 0.731931 0.270376
O O7 0.860705 0.841182 0.592475
O O8 0.000000 0.092469 0.250000
O O9 0.201419 0.051710 0.162427
O O10 0.340529 0.204614 0.964608
O O11 0.488416 0.951649 0.586803
O O12 0.629726 0.126497 0.397915
O O13 0.500000 0.646172 0.250000
O O14 0.343384 0.606766 0.509108
O O15 0.483391 0.738181 0.581733
O O16 0.295653 0.550365 0.133306
O O17 0.462689 0.377077 0.008569
#
# Coordination Sequence:
#
# PCOD9228371 Si02
#       8
#     4   4   4   4   4   4   4   4
#     4  11  21  34  54  84 115 146 177 224 274 336
#     4  11  20  33  55  81 114 150 181 216 280 338
#     4  11  22  37  54  81 115 142 183 230 271 321
#     4  10  22  32  53  84 112 150 181 225 276 331
#     4  11  22  37  56  82 111 147 182 221 275 336
#     4  10  19  34  51  80 116 141 180 225 270 329
#     4  10  21  34  54  81 115 139 176 230 272 324
#     4  10  20  34  51  84 112 142 176 224 276 325
#
# _framework density 17.229807000000001
#
# number of rings (size 3 to 8) (size 9 to 14) (size 15 to 20)
#    0.000    1.500    5.000    1.125    3.500    1.500 
#    0.000    0.000    0.000    0.000   19.500    0.000 
#    0.000    0.000    0.000    0.000    0.000    0.000 
#
# Total GULP energy -178353.450567 kJ/mol
# GULP energy per Si atom -5573.545330 kJ/mol
# Density = 1.719059 g / cm^3
# Si number density = 17.229807 Si / 1000 Ang^3
#
#
#
# Elastic Constant Matrix: (Units=GPa)
#
#
# Indices 1 2 3 4 5 6 
#
# 1 91.6966 33.7205 23.2130 0.0000 -11.9913 0.0000
# 2 33.7205 82.2122 26.2146 0.0000 -9.2366 0.0000
# 3 23.2130 26.2146 99.4322 0.0000 -18.0609 0.0000
# 4 0.0000 0.0000 0.0000 19.0412 0.0000 -3.2722
# 5 -11.9913 -9.2366 -18.0609 0.0000 28.2428 0.0000
# 6 0.0000 0.0000 0.0000 -3.2722 0.0000 19.1702
#
#
#
# Elastic Compliance Matrix: (Units=1/GPa)
#
#
# Indices 1 2 3 4 5 6 
#
# 1 0.013398 -0.004713 -0.001281 0.000000 0.003328 0.000000
# 2 -0.004713 0.015081 -0.002651 0.000000 0.001236 0.000000
# 3 -0.001281 -0.002651 0.012218 0.000000 0.006402 0.000000
# 4 0.000000 0.000000 0.000000 0.054105 0.000000 0.009235
# 5 0.003328 0.001236 0.006402 0.000000 0.041319 0.000000
# 6 0.000000 0.000000 0.000000 0.009235 0.000000 0.053741
#
#
# Mechanical properties :
#
#
# Convention : Reuss Voigt Hill
#
# Bulk Modulus (GPa) = 42.72243 48.84858 45.78551
# Shear Modulus (GPa) = 23.26080 25.97037 24.61558
#
# Velocity S-wave (km/s) = 3.67826 3.88660 3.78387
# Velocity P-wave (km/s) = 6.54897 6.96804 6.76175
#
# Compressibility (1/GPa) = 0.02340691
#
# Stress axis : x y z
#
# Youngs Moduli (GPa) = 74.63687 66.30851 81.84624
#
# Poissons Ratio (x) = 0.31252 0.10483
# Poissons Ratio (y) = 0.35177 0.21700
# Poissons Ratio (z) = 0.09559 0.17580
#
# Static dielectric constant tensor:
#      x y z
#    x 1.584760 0.000000 -0.009780 
#    y 0.000000 1.593070 0.000000 
#    z -0.009780 0.000000 1.642150 
# 
# From -- ./inp_files/81805.got.cif
#   From: 2010.05.17/outbox.cif.g08.bks.cpg/sg13_41_cif.got.tgz:81805.got - 2010.06.03 16:44:36.
