data_PCOD9228687
_publ_section_title
;
Structure prediction by ZEFSAII (Michael W. Deem and Ramdas Pophale) SiO2 
 PCOD9228687
Probable space group: P 2/C
;
_chemical_formula_sum "Si O2"
_cell_formula_units_Z 24
_cell_length_a 29.646390
_cell_length_b 8.864872
_cell_length_c 18.940457
_cell_angle_alpha 90.000000
_cell_angle_beta 15.759006
_cell_angle_gamma 90.000000
_cell_volume 1351.920896
_symmetry_space_group_name_H-M "P 2/C"
_symmetry_group_IT_number 13
_symmetry_cell_setting 'monoclinic'
loop_
_space_group_symop_operation_xyz
x,y,z
-x,y,1/2-z
-x,-y,-z
x,-y,1/2+z
loop_
_atom_site_type_symbol
_atom_site_label
_atom_site_fract_x
_atom_site_fract_y
_atom_site_fract_z
Si Si1 0.644576 0.109736 0.318135
Si Si2 0.492530 0.781229 0.842473
Si Si3 0.364007 0.412432 0.253406
Si Si4 0.816287 0.832608 0.095228
Si Si5 0.436284 0.124449 0.766489
Si Si6 0.181434 0.298213 0.057781
O O1 0.680355 0.257342 0.219323
O O2 0.574877 0.159481 0.498972
O O3 0.500000 0.000000 0.500000
O O4 0.805752 0.007925 0.090147
O O5 0.500000 0.739538 0.750000
O O6 0.559091 0.647199 0.789849
O O7 0.589038 0.942544 0.702505
O O8 0.310379 0.812817 0.149442
O O9 0.215743 0.524594 0.498464
O O10 0.500000 0.500000 0.000000
O O11 0.752559 0.758341 0.118234
O O12 0.992796 0.758954 0.845010
O O13 0.500000 0.153253 0.750000
O O14 0.281473 0.221075 0.971159
#
# Coordination Sequence:
#
# PCOD9228687 Si02
#       6
#     4   4   4   4   4   4
#     4  11  17  37  63  84 114 160 212 236 279 368
#     4  10  20  37  60  83 112 163 212 239 285 371
#     4  12  19  34  61  90 118 155 208 245 291 359
#     4  10  20  38  60  85 123 155 195 252 308 346
#     4  10  19  35  59  88 116 161 208 236 289 366
#     4  11  21  35  58  91 125 150 192 260 312 337
#
# _framework density 17.752517999999998
#
# number of rings (size 3 to 8) (size 9 to 14) (size 15 to 20)
#    0.000    1.333    8.333    0.000    0.000    0.667 
#    0.000   15.000    0.000    0.000    0.000    0.000 
#    0.000    0.000    0.000    0.000    0.000    0.000 
#
# Total GULP energy -133609.227995 kJ/mol
# GULP energy per Si atom -5567.051166 kJ/mol
# Density = 1.771211 g / cm^3
# Si number density = 17.752518 Si / 1000 Ang^3
#
#
#
# Elastic Constant Matrix: (Units=GPa)
#
#
# Indices 1 2 3 4 5 6 
#
# 1 146.1879 55.2298 37.8473 0.0000 11.9858 0.0000
# 2 55.2298 129.0718 63.0964 0.0000 -11.9173 0.0000
# 3 37.8473 63.0964 74.4485 0.0000 -5.0312 0.0000
# 4 0.0000 0.0000 0.0000 20.1654 0.0000 2.8065
# 5 11.9858 -11.9173 -5.0312 0.0000 26.1156 0.0000
# 6 0.0000 0.0000 0.0000 2.8065 0.0000 29.7852
#
#
#
# Elastic Compliance Matrix: (Units=1/GPa)
#
#
# Indices 1 2 3 4 5 6 
#
# 1 0.009221 -0.003455 -0.002181 0.000000 -0.006229 0.000000
# 2 -0.003455 0.014932 -0.010468 0.000000 0.006383 0.000000
# 3 -0.002181 -0.010468 0.023463 0.000000 0.000744 0.000000
# 4 0.000000 0.000000 0.000000 0.050249 0.000000 -0.004735
# 5 -0.006229 0.006383 0.000744 0.000000 0.044206 0.000000
# 6 0.000000 0.000000 0.000000 -0.004735 0.000000 0.034020
#
#
# Mechanical properties :
#
#
# Convention : Reuss Voigt Hill
#
# Bulk Modulus (GPa) = 64.89463 73.56170 69.22816
# Shear Modulus (GPa) = 23.42649 28.11557 25.77103
#
# Velocity S-wave (km/s) = 3.63659 3.98395 3.81423
# Velocity P-wave (km/s) = 7.36665 7.91769 7.64714
#
# Compressibility (1/GPa) = 0.01540960
#
# Stress axis : x y z
#
# Youngs Moduli (GPa) = 108.44890 66.96823 42.62092
#
# Poissons Ratio (x) = 0.23136 0.09294
# Poissons Ratio (y) = 0.37466 0.44615
# Poissons Ratio (z) = 0.23648 0.70102
#
# Static dielectric constant tensor:
#      x y z
#    x 1.639370 0.000000 -0.026660 
#    y 0.000000 1.664950 0.000000 
#    z -0.026660 0.000000 1.625850 
# 
# From -- ./inp_files/65902.got.cif
#   From: 2010.05.17/outbox.cif.g08.bks.cpg/sg13_33_cif.got.tgz:65902.got - 2010.06.03 16:44:36.
