data_PCOD9228222
_publ_section_title
;
Structure prediction by ZEFSAII (Michael W. Deem and Ramdas Pophale) SiO2 
 PCOD9228222
Probable space group: P 2/C
;
_chemical_formula_sum "Si O2"
_cell_formula_units_Z 20
_cell_length_a 27.007350
_cell_length_b 7.502127
_cell_length_c 5.080667
_cell_angle_alpha 90.000000
_cell_angle_beta 80.056161
_cell_angle_gamma 90.000000
_cell_volume 1013.942718
_symmetry_space_group_name_H-M "P 2/C"
_symmetry_group_IT_number 13
_symmetry_cell_setting 'monoclinic'
loop_
_space_group_symop_operation_xyz
x,y,z
-x,y,1/2-z
-x,-y,-z
x,-y,1/2+z
loop_
_atom_site_type_symbol
_atom_site_label
_atom_site_fract_x
_atom_site_fract_y
_atom_site_fract_z
Si Si1 0.608170 0.622804 0.212082
Si Si2 0.096031 0.380891 0.221281
Si Si3 0.301086 0.882110 0.502877
Si Si4 0.187749 0.877541 0.524997
Si Si5 0.000000 0.871817 0.750000
Si Si6 0.500000 0.629771 0.250000
O O1 0.609563 0.540807 0.502861
O O2 0.655276 0.746219 0.109117
O O3 0.554438 0.722038 0.213749
O O4 0.093947 0.456140 0.518010
O O5 0.146646 0.270719 0.121618
O O6 0.048955 0.252552 0.212061
O O7 0.244796 0.808799 0.508381
O O8 0.305293 0.951908 0.796750
O O9 0.181735 0.962571 0.242156
O O10 0.000000 0.000000 0.500000
O O11 0.500000 0.500000 0.500000
#
# Coordination Sequence:
#
# PCOD9228222 Si02
#       6
#     4   4   4   4   2   2
#     4  10  19  33  54  76 102 137 180 220 264 321
#     4  12  24  39  60  89 117 140 181 237 272 301
#     4  10  21  36  54  78 110 141 176 222 270 318
#     4  10  21  39  58  78 109 150 183 212 266 335
#     4  12  24  42  64  84 114 156 188 212 266 338
#     4   8  16  30  48  72 100 134 172 216 264 318
#
# _framework density 19.724979999999999
#
# number of rings (size 3 to 8) (size 9 to 14) (size 15 to 20)
#    0.000    1.600    0.000    5.400    0.000    1.600 
#    0.000    1.000    0.000    0.000    0.000    0.000 
#    0.000    0.000    0.000    0.000    0.000    0.000 
#
# Total GULP energy -111728.277304 kJ/mol
# GULP energy per Si atom -5586.413865 kJ/mol
# Density = 1.968009 g / cm^3
# Si number density = 19.724980 Si / 1000 Ang^3
#
#
#
# Elastic Constant Matrix: (Units=GPa)
#
#
# Indices 1 2 3 4 5 6 
#
# 1 140.8067 49.6891 -5.4304 0.0000 -29.7533 0.0000
# 2 49.6891 32.2517 -14.3397 0.0000 -11.2284 0.0000
# 3 -5.4304 -14.3397 73.4300 0.0000 1.3680 0.0000
# 4 0.0000 0.0000 0.0000 35.6977 0.0000 -14.8040
# 5 -29.7533 -11.2284 1.3680 0.0000 30.8356 0.0000
# 6 0.0000 0.0000 0.0000 -14.8040 0.0000 42.2825
#
#
#
# Elastic Compliance Matrix: (Units=1/GPa)
#
#
# Indices 1 2 3 4 5 6 
#
# 1 0.018143 -0.027038 -0.004084 0.000000 0.007842 0.000000
# 2 -0.027038 0.079430 0.013470 0.000000 0.002237 0.000000
# 3 -0.004084 0.013470 0.015942 0.000000 0.000257 0.000000
# 4 0.000000 0.000000 0.000000 0.032771 0.000000 0.011474
# 5 0.007842 0.002237 0.000257 0.000000 0.040800 0.000000
# 6 0.000000 0.000000 0.000000 0.011474 0.000000 0.027668
#
#
# Mechanical properties :
#
#
# Convention : Reuss Voigt Hill
#
# Bulk Modulus (GPa) = 12.78593 34.03625 23.41109
# Shear Modulus (GPa) = 18.10755 36.20111 27.15433
#
# Velocity S-wave (km/s) = 3.03314 4.28868 3.71434
# Velocity P-wave (km/s) = 4.33160 6.46657 5.50360
#
# Compressibility (1/GPa) = 0.07821100
#
# Stress axis : x y z
#
# Youngs Moduli (GPa) = 55.11852 12.58969 62.72701
#
# Poissons Ratio (x) = 0.34040 0.25620
# Poissons Ratio (y) = 1.49028 -0.84495
# Poissons Ratio (z) = 0.22513 -0.16959
#
# Static dielectric constant tensor:
#      x y z
#    x 1.712850 0.000000 -0.007220 
#    y 0.000000 1.651150 0.000000 
#    z -0.007220 0.000000 1.666930 
# 
# From -- ./inp_files/7635.got.cif
#   From: 2010.05.17/outbox.cif.g08.bks.cpg/sg13_4_cif.got.tgz:7635.got - 2010.06.03 16:44:36.
