data_PCOD9228033
_publ_section_title
;
Structure prediction by ZEFSAII (Michael W. Deem and Ramdas Pophale) SiO2 
 PCOD9228033
Probable space group: P 2/C
;
_chemical_formula_sum "Si O2"
_cell_formula_units_Z 32
_cell_length_a 22.466560
_cell_length_b 6.661553
_cell_length_c 24.820242
_cell_angle_alpha 90.000000
_cell_angle_beta 31.985956
_cell_angle_gamma 90.000000
_cell_volume 1967.693188
_symmetry_space_group_name_H-M "P 2/C"
_symmetry_group_IT_number 13
_symmetry_cell_setting 'monoclinic'
loop_
_space_group_symop_operation_xyz
x,y,z
-x,y,1/2-z
-x,-y,-z
x,-y,1/2+z
loop_
_atom_site_type_symbol
_atom_site_label
_atom_site_fract_x
_atom_site_fract_y
_atom_site_fract_z
Si Si1 0.460182 0.283682 0.856810
Si Si2 0.750908 0.941705 0.207501
Si Si3 0.323461 0.589969 0.157963
Si Si4 0.549701 0.860072 0.793597
Si Si5 0.345574 0.501304 0.845479
Si Si6 0.124849 0.669456 0.852093
Si Si7 0.871078 0.605234 0.045276
Si Si8 0.455551 0.555576 0.951095
O O1 0.385290 0.402558 0.870747
O O2 0.586243 0.371219 0.751456
O O3 0.425292 0.348702 0.943322
O O4 0.473633 0.049165 0.835382
O O5 0.651447 0.054023 0.251966
O O6 0.831572 0.105990 0.172656
O O7 0.699990 0.795228 0.292037
O O8 0.820503 0.803201 0.112635
O O9 0.213145 0.453462 0.248342
O O10 0.425605 0.478201 0.110329
O O11 0.365507 0.616730 0.064842
O O12 0.607238 0.724343 0.702757
O O13 0.475624 0.717390 0.888866
O O14 0.215282 0.472661 0.933408
O O15 0.127232 0.562768 0.909073
O O16 0.997413 0.649326 0.929916
#
# Coordination Sequence:
#
# PCOD9228033 Si02
#       8
#     4   4   4   4   4   4   4   4
#     4  10  20  33  50  72 103 136 170 208 251 310
#     4  11  17  31  50  75 105 135 165 202 260 314
#     4  10  20  32  50  75 103 134 170 213 259 306
#     4  11  18  33  52  74 104 138 165 208 257 307
#     4  10  20  33  50  74 104 134 171 207 255 309
#     4  10  19  32  51  73 104 135 166 210 259 303
#     4  10  19  32  49  76 104 132 169 209 255 309
#     4  10  20  33  48  74 105 132 172 212 256 310
#
# _framework density 16.262699000000001
#
# number of rings (size 3 to 8) (size 9 to 14) (size 15 to 20)
#    0.000    1.750    5.000    1.875    0.000    5.500 
#    0.000    0.000    0.000    0.750    0.000    0.000 
#    0.000    0.000    0.000    0.000    0.000    0.000 
#
# Total GULP energy -178412.674878 kJ/mol
# GULP energy per Si atom -5575.396090 kJ/mol
# Density = 1.622568 g / cm^3
# Si number density = 16.262699 Si / 1000 Ang^3
#
#
#
# Elastic Constant Matrix: (Units=GPa)
#
#
# Indices 1 2 3 4 5 6 
#
# 1 77.6108 30.4999 46.7373 0.0000 -14.1388 0.0000
# 2 30.4999 102.3858 37.8451 0.0000 -4.9983 0.0000
# 3 46.7373 37.8451 101.0497 0.0000 -10.9994 0.0000
# 4 0.0000 0.0000 0.0000 8.7415 0.0000 0.0094
# 5 -14.1388 -4.9983 -10.9994 0.0000 23.9404 0.0000
# 6 0.0000 0.0000 0.0000 0.0094 0.0000 19.4925
#
#
#
# Elastic Compliance Matrix: (Units=1/GPa)
#
#
# Indices 1 2 3 4 5 6 
#
# 1 0.019771 -0.002836 -0.007238 0.000000 0.007759 0.000000
# 2 -0.002836 0.011747 -0.003162 0.000000 -0.000675 0.000000
# 3 -0.007238 -0.003162 0.014622 0.000000 0.001783 0.000000
# 4 0.000000 0.000000 0.000000 0.114397 0.000000 -0.000055
# 5 0.007759 -0.000675 0.001783 0.000000 0.047031 0.000000
# 6 0.000000 0.000000 0.000000 -0.000055 0.000000 0.051302
#
#
# Mechanical properties :
#
#
# Convention : Reuss Voigt Hill
#
# Bulk Modulus (GPa) = 50.83761 56.80121 53.81941
# Shear Modulus (GPa) = 17.12927 21.49914 19.31420
#
# Velocity S-wave (km/s) = 3.24896 3.63986 3.44995
# Velocity P-wave (km/s) = 6.73813 7.25727 7.00251
#
# Compressibility (1/GPa) = 0.01967048
#
# Stress axis : x y z
#
# Youngs Moduli (GPa) = 50.57803 85.12555 68.38986
#
# Poissons Ratio (x) = 0.24138 0.49501
# Poissons Ratio (y) = 0.14342 0.21622
# Poissons Ratio (z) = 0.36609 0.26913
#
# Static dielectric constant tensor:
#      x y z
#    x 1.562140 0.000000 -0.002220 
#    y 0.000000 1.587230 0.000000 
#    z -0.002220 0.000000 1.532570 
# 
# From -- ./inp_files/93677.got.cif
#   From: 2010.05.17/outbox.cif.g08.bks.cpg/sg13_47_cif.got.tgz:93677.got - 2010.06.03 16:44:36.
