data_PCOD9228254
_publ_section_title
;
Structure prediction by ZEFSAII (Michael W. Deem and Ramdas Pophale) SiO2 
 PCOD9228254
Probable space group: P 2/C
;
_chemical_formula_sum "Si O2"
_cell_formula_units_Z 28
_cell_length_a 11.509583
_cell_length_b 7.395887
_cell_length_c 20.198987
_cell_angle_alpha 90.000000
_cell_angle_beta 35.481067
_cell_angle_gamma 90.000000
_cell_volume 998.003855
_symmetry_space_group_name_H-M "P 2/C"
_symmetry_group_IT_number 13
_symmetry_cell_setting 'monoclinic'
loop_
_space_group_symop_operation_xyz
x,y,z
-x,y,1/2-z
-x,-y,-z
x,-y,1/2+z
loop_
_atom_site_type_symbol
_atom_site_label
_atom_site_fract_x
_atom_site_fract_y
_atom_site_fract_z
Si Si1 0.894879 0.478734 0.366674
Si Si2 0.198390 0.041374 0.200673
Si Si3 0.690202 0.601064 0.082306
Si Si4 0.232103 0.856218 0.823300
Si Si5 0.228991 0.419488 0.808729
Si Si6 0.410643 0.222650 0.515809
Si Si7 0.686725 0.839195 0.577237
O O1 0.813315 0.341317 0.460556
O O2 0.695388 0.585272 0.437751
O O3 0.000000 0.422265 0.250000
O O4 0.057474 0.602947 0.332643
O O5 0.134252 0.047693 0.306616
O O6 0.000000 0.034006 0.250000
O O7 0.340437 0.875035 0.114299
O O8 0.354904 0.205116 0.109907
O O9 0.791260 0.650520 0.105762
O O10 0.454845 0.642644 0.187371
O O11 0.693676 0.380575 0.078512
O O12 0.226440 0.638627 0.816974
O O13 0.464382 0.899547 0.700331
O O14 0.184949 0.903946 0.920572
O O15 0.301149 0.118589 0.505262
#
# Coordination Sequence:
#
# PCOD9228254 Si02
#       7
#     4   4   4   4   4   4   4
#     4  11  21  32  52  80 114 150 178 219 275 332
#     4  10  19  33  55  76 101 139 180 226 272 323
#     4   8  16  32  52  77 108 144 185 219 259 320
#     4   8  14  27  49  77 100 132 178 219 258 303
#     4   9  17  32  54  78 108 146 185 224 262 314
#     4   9  19  35  53  77 105 138 180 221 276 331
#     4   7  12  27  51  73 101 132 170 220 258 306
#
# _framework density 28.056000999999998
#
# number of rings (size 3 to 8) (size 9 to 14) (size 15 to 20)
#    0.000    3.143    0.000    3.429    0.000    1.143 
#    0.000    2.143    0.000    0.000    0.000   16.000 
#    0.000    0.000    0.000    0.000    0.000    0.000 
#
# Total GULP energy -156461.509563 kJ/mol
# GULP energy per Si atom -5587.911056 kJ/mol
# Density = 2.799214 g / cm^3
# Si number density = 28.056001 Si / 1000 Ang^3
#
#
#
# Elastic Constant Matrix: (Units=GPa)
#
#
# Indices 1 2 3 4 5 6 
#
# 1 184.4094 26.0226 78.9368 0.0000 9.8999 0.0000
# 2 26.0226 49.2662 6.2727 0.0000 0.8902 0.0000
# 3 78.9368 6.2727 151.1698 0.0000 8.9320 0.0000
# 4 0.0000 0.0000 0.0000 20.2001 0.0000 -9.6053
# 5 9.8999 0.8902 8.9320 0.0000 75.9318 0.0000
# 6 0.0000 0.0000 0.0000 -9.6053 0.0000 21.5300
#
#
#
# Elastic Compliance Matrix: (Units=1/GPa)
#
#
# Indices 1 2 3 4 5 6 
#
# 1 0.007559 -0.003503 -0.003772 0.000000 -0.000501 0.000000
# 2 -0.003503 0.022031 0.000910 0.000000 0.000091 0.000000
# 3 -0.003772 0.000910 0.008578 0.000000 -0.000528 0.000000
# 4 0.000000 0.000000 0.000000 0.062835 0.000000 0.028033
# 5 -0.000501 0.000091 -0.000528 0.000000 0.013296 0.000000
# 6 0.000000 0.000000 0.000000 0.028033 0.000000 0.058953
#
#
# Mechanical properties :
#
#
# Convention : Reuss Voigt Hill
#
# Bulk Modulus (GPa) = 39.31328 67.47886 53.39607
# Shear Modulus (GPa) = 25.71206 41.77324 33.74265
#
# Velocity S-wave (km/s) = 3.03058 3.86284 3.47174
# Velocity P-wave (km/s) = 5.12726 6.63318 5.92823
#
# Compressibility (1/GPa) = 0.02543670
#
# Stress axis : x y z
#
# Youngs Moduli (GPa) = 132.30119 45.39100 116.57575
#
# Poissons Ratio (x) = 0.15901 0.43971
# Poissons Ratio (y) = 0.46347 -0.10605
# Poissons Ratio (z) = 0.49903 -0.04129
#
# Static dielectric constant tensor:
#      x y z
#    x 2.255350 0.000000 0.045270 
#    y 0.000000 2.217400 0.000000 
#    z 0.045270 0.000000 2.162300 
# 
# From -- ./inp_files/78392.got.cif
#   From: 2010.05.17/outbox.cif.g08.bks.cpg/sg13_40_cif.got.tgz:78392.got - 2010.06.03 16:44:36.
