data_PCOD9228650
_publ_section_title
;
Structure prediction by ZEFSAII (Michael W. Deem and Ramdas Pophale) SiO2 
 PCOD9228650
Probable space group: P 2/C
;
_chemical_formula_sum "Si O2"
_cell_formula_units_Z 22
_cell_length_a 13.213524
_cell_length_b 8.251484
_cell_length_c 16.639580
_cell_angle_alpha 90.000000
_cell_angle_beta 154.510728
_cell_angle_gamma 90.000000
_cell_volume 780.740853
_symmetry_space_group_name_H-M "P 2/C"
_symmetry_group_IT_number 13
_symmetry_cell_setting 'monoclinic'
loop_
_space_group_symop_operation_xyz
x,y,z
-x,y,1/2-z
-x,-y,-z
x,-y,1/2+z
loop_
_atom_site_type_symbol
_atom_site_label
_atom_site_fract_x
_atom_site_fract_y
_atom_site_fract_z
Si Si1 0.676248 0.736097 0.942877
Si Si2 0.858099 0.569487 0.822550
Si Si3 0.673877 0.633163 0.441407
Si Si4 0.000000 0.848800 0.750000
Si Si5 0.226913 0.756803 0.305737
Si Si6 0.148510 0.061604 0.182389
O O1 0.500000 0.808512 0.750000
O O2 0.588112 0.549576 0.894845
O O3 0.710626 0.796795 0.057786
O O4 0.940692 0.739225 0.097057
O O5 0.769802 0.753593 0.774457
O O6 0.704291 0.419992 0.678823
O O7 0.069025 0.602601 0.911532
O O8 0.000000 0.500000 0.000000
O O9 0.500000 0.705929 0.250000
O O10 0.754824 0.747172 0.571037
O O11 0.010400 0.933481 0.669906
O O12 0.313941 0.906658 0.315194
O O13 0.000000 0.000000 0.000000
#
# Coordination Sequence:
#
# PCOD9228650 Si02
#       6
#     4   4   4   2   4   4
#     4   9  17  32  58  87 115 153 199 244 298 356
#     4  10  19  35  60  89 120 160 200 251 310 362
#     4   9  18  34  61  90 118 157 208 251 300 365
#     4  10  20  36  60  88 118 162 206 246 308 366
#     4  10  19  35  58  83 119 154 192 249 296 352
#     4  11  21  36  61  91 119 158 206 246 305 365
#
# _framework density 28.178366
#
# number of rings (size 3 to 8) (size 9 to 14) (size 15 to 20)
#    0.000    2.182    1.818    4.364    0.000    0.000 
#    0.000    8.182    4.000   14.182    0.000    0.000 
#    0.000    0.000    0.000    0.000    0.000    0.000 
#
# Total GULP energy -122938.183539 kJ/mol
# GULP energy per Si atom -5588.099252 kJ/mol
# Density = 2.811423 g / cm^3
# Si number density = 28.178366 Si / 1000 Ang^3
#
#
#
# Elastic Constant Matrix: (Units=GPa)
#
#
# Indices 1 2 3 4 5 6 
#
# 1 76.8427 50.9595 50.6381 0.0000 -18.6656 0.0000
# 2 50.9595 228.8376 75.2912 0.0000 -10.7977 0.0000
# 3 50.6381 75.2912 201.9749 0.0000 -31.1228 0.0000
# 4 0.0000 0.0000 0.0000 49.9915 0.0000 -15.6704
# 5 -18.6656 -10.7977 -31.1228 0.0000 57.2272 0.0000
# 6 0.0000 0.0000 0.0000 -15.6704 0.0000 41.0185
#
#
#
# Elastic Compliance Matrix: (Units=1/GPa)
#
#
# Indices 1 2 3 4 5 6 
#
# 1 0.017632 -0.002832 -0.002795 0.000000 0.003696 0.000000
# 2 -0.002832 0.005436 -0.001420 0.000000 -0.000670 0.000000
# 3 -0.002795 -0.001420 0.006548 0.000000 0.002382 0.000000
# 4 0.000000 0.000000 0.000000 0.022725 0.000000 0.008682
# 5 0.003696 -0.000670 0.002382 0.000000 0.019849 0.000000
# 6 0.000000 0.000000 0.000000 0.008682 0.000000 0.027696
#
#
# Mechanical properties :
#
#
# Convention : Reuss Voigt Hill
#
# Bulk Modulus (GPa) = 64.42570 95.71477 80.07023
# Shear Modulus (GPa) = 41.96281 51.69854 46.83067
#
# Velocity S-wave (km/s) = 3.86318 4.28797 4.08111
# Velocity P-wave (km/s) = 6.54309 7.65224 7.11930
#
# Compressibility (1/GPa) = 0.01552176
#
# Stress axis : x y z
#
# Youngs Moduli (GPa) = 56.71595 183.95585 152.71674
#
# Poissons Ratio (x) = 0.52102 0.42686
# Poissons Ratio (y) = 0.16064 0.21680
# Poissons Ratio (z) = 0.15853 0.26114
#
# Static dielectric constant tensor:
#      x y z
#    x 2.304050 0.000000 0.021900 
#    y 0.000000 2.547200 0.000000 
#    z 0.021900 0.000000 2.120390 
# 
# From -- ./inp_files/81600.got.cif
#   From: 2010.05.17/outbox.cif.g08.bks.cpg/sg13_41_cif.got.tgz:81600.got - 2010.06.03 16:44:36.
