data_PCOD9228494
_publ_section_title
;
Structure prediction by ZEFSAII (Michael W. Deem and Ramdas Pophale) SiO2 
 PCOD9228494
Probable space group: P 2/C
;
_chemical_formula_sum "Si O2"
_cell_formula_units_Z 26
_cell_length_a 8.076032
_cell_length_b 12.538652
_cell_length_c 12.135170
_cell_angle_alpha 90.000000
_cell_angle_beta 59.463125
_cell_angle_gamma 90.000000
_cell_volume 1058.401312
_symmetry_space_group_name_H-M "P 2/C"
_symmetry_group_IT_number 13
_symmetry_cell_setting 'monoclinic'
loop_
_space_group_symop_operation_xyz
x,y,z
-x,y,1/2-z
-x,-y,-z
x,-y,1/2+z
loop_
_atom_site_type_symbol
_atom_site_label
_atom_site_fract_x
_atom_site_fract_y
_atom_site_fract_z
Si Si1 0.196386 0.809111 0.873317
Si Si2 0.000000 0.050741 0.250000
Si Si3 0.981654 0.646853 0.103373
Si Si4 0.347830 0.919561 0.100195
Si Si5 0.587862 0.304178 0.845335
Si Si6 0.286070 0.479172 0.977839
Si Si7 0.500000 0.356573 0.250000
Si Si8 0.500000 0.975087 0.750000
O O1 0.326464 0.718709 0.769770
O O2 0.354276 0.894878 0.862457
O O3 0.078365 0.871106 0.819640
O O4 0.084100 0.748047 0.008787
O O5 0.143484 0.968599 0.141164
O O6 0.814756 0.680035 0.244091
O O7 0.858328 0.591143 0.047458
O O8 0.134168 0.556212 0.091720
O O9 0.414051 0.798602 0.075777
O O10 0.365380 0.949157 0.224721
O O11 0.500000 0.000000 0.000000
O O12 0.500000 0.291969 0.750000
O O13 0.458058 0.395683 0.947825
O O14 0.402313 0.565325 0.868371
#
# Coordination Sequence:
#
# PCOD9228494 Si02
#       8
#     4   2   4   4   4   4   2   2
#     4   9  19  33  59  84 120 163 210 260 315 374
#     4  10  24  40  54  88 120 166 216 266 312 364
#     4   9  17  29  56  91 120 157 199 252 313 377
#     4  11  24  40  62  88 127 171 213 269 317 369
#     4  10  19  34  57  92 126 159 206 250 309 381
#     4   9  16  29  52  93 119 150 199 249 312 385
#     4   9  14  31  56  90 116 155 202 261 310 394
#     4   9  20  41  56  86 120 161 222 263 310 380
#
# _framework density 24.565353000000002
#
# number of rings (size 3 to 8) (size 9 to 14) (size 15 to 20)
#    0.000    2.462    3.077    0.000    4.308    1.231 
#    0.000    3.077    0.000    1.846    8.000    0.000 
#    0.000    0.000    0.000    0.000    0.000    0.000 
#
# Total GULP energy -144974.447832 kJ/mol
# GULP energy per Si atom -5575.940301 kJ/mol
# Density = 2.450944 g / cm^3
# Si number density = 24.565353 Si / 1000 Ang^3
#
#
#
# Elastic Constant Matrix: (Units=GPa)
#
#
# Indices 1 2 3 4 5 6 
#
# 1 91.2637 55.1791 27.5786 0.0000 -20.6687 0.0000
# 2 55.1791 165.8778 51.1240 0.0000 -24.0967 0.0000
# 3 27.5786 51.1240 95.8450 0.0000 -39.3432 0.0000
# 4 0.0000 0.0000 0.0000 13.7154 0.0000 -7.1073
# 5 -20.6687 -24.0967 -39.3432 0.0000 44.8073 0.0000
# 6 0.0000 0.0000 0.0000 -7.1073 0.0000 37.0417
#
#
#
# Elastic Compliance Matrix: (Units=1/GPa)
#
#
# Indices 1 2 3 4 5 6 
#
# 1 0.014488 -0.004134 -0.000208 0.000000 0.004277 0.000000
# 2 -0.004134 0.008412 -0.003476 0.000000 -0.000435 0.000000
# 3 -0.000208 -0.003476 0.018045 0.000000 0.013879 0.000000
# 4 0.000000 0.000000 0.000000 0.080960 0.000000 0.015534
# 5 0.004277 -0.000435 0.013879 0.000000 0.036243 0.000000
# 6 0.000000 0.000000 0.000000 0.015534 0.000000 0.029977
#
#
# Mechanical properties :
#
#
# Convention : Reuss Voigt Hill
#
# Bulk Modulus (GPa) = 39.51245 68.97221 54.24233
# Shear Modulus (GPa) = 23.56291 33.71985 28.64138
#
# Velocity S-wave (km/s) = 3.10044 3.70896 3.41827
# Velocity P-wave (km/s) = 5.37927 6.81761 6.14070
#
# Compressibility (1/GPa) = 0.02530848
#
# Stress axis : x y z
#
# Youngs Moduli (GPa) = 69.02116 118.88037 55.41821
#
# Poissons Ratio (x) = 0.49146 0.01153
# Poissons Ratio (y) = 0.28534 0.19264
# Poissons Ratio (z) = 0.01436 0.41324
#
# Static dielectric constant tensor:
#      x y z
#    x 2.075550 0.000000 0.021070 
#    y 0.000000 1.929370 0.000000 
#    z 0.021070 0.000000 2.013280 
# 
# From -- ./inp_files/64239.got.cif
#   From: 2010.05.17/outbox.cif.g08.bks.cpg/sg13_33_cif.got.tgz:64239.got - 2010.06.03 16:44:36.
