data_PCOD9228125
_publ_section_title
;
Structure prediction by ZEFSAII (Michael W. Deem and Ramdas Pophale) SiO2 
 PCOD9228125
Probable space group: P 2/C
;
_chemical_formula_sum "Si O2"
_cell_formula_units_Z 24
_cell_length_a 16.638501
_cell_length_b 10.018163
_cell_length_c 11.977863
_cell_angle_alpha 90.000000
_cell_angle_beta 28.223567
_cell_angle_gamma 90.000000
_cell_volume 944.198031
_symmetry_space_group_name_H-M "P 2/C"
_symmetry_group_IT_number 13
_symmetry_cell_setting 'monoclinic'
loop_
_space_group_symop_operation_xyz
x,y,z
-x,y,1/2-z
-x,-y,-z
x,-y,1/2+z
loop_
_atom_site_type_symbol
_atom_site_label
_atom_site_fract_x
_atom_site_fract_y
_atom_site_fract_z
Si Si1 0.747146 0.808075 0.441996
Si Si2 0.657531 0.090422 0.837691
Si Si3 0.798915 0.459498 0.230656
Si Si4 0.207189 0.532862 0.007477
Si Si5 0.823656 0.082237 0.427663
Si Si6 0.121103 0.169995 0.376836
O O1 0.636312 0.807789 0.465050
O O2 0.741618 0.687847 0.533414
O O3 0.711753 0.954067 0.534646
O O4 0.939324 0.810616 0.156422
O O5 0.729049 0.160152 0.639932
O O6 0.796562 0.973170 0.696169
O O7 0.500000 0.000000 0.000000
O O8 0.736735 0.478655 0.436362
O O9 0.776766 0.303880 0.227724
O O10 0.737026 0.519665 0.185182
O O11 0.000000 0.500000 0.000000
O O12 0.000000 0.525488 0.250000
O O13 0.881944 0.168714 0.253242
O O14 0.000000 0.019418 0.250000
#
# Coordination Sequence:
#
# PCOD9228125 Si02
#       6
#     4   4   4   4   4   4
#     4  11  19  34  57  84 115 159 198 251 308 377
#     4  11  24  38  55  87 126 161 204 256 318 383
#     4  10  20  33  54  89 125 155 201 271 316 371
#     4  10  19  32  54  85 124 155 204 255 325 368
#     4  11  19  32  58  83 112 154 201 248 307 374
#     4  11  20  34  57  87 118 156 204 249 312 375
#
# _framework density 25.418396000000001
#
# number of rings (size 3 to 8) (size 9 to 14) (size 15 to 20)
#    0.000    1.333    6.667    2.500    0.000    6.000 
#    0.000    0.000    0.000    1.000    0.000    2.333 
#    0.000    0.000    0.000    0.000    0.000    0.000 
#
# Total GULP energy -133684.578734 kJ/mol
# GULP energy per Si atom -5570.190781 kJ/mol
# Density = 2.536054 g / cm^3
# Si number density = 25.418396 Si / 1000 Ang^3
#
#
#
# Elastic Constant Matrix: (Units=GPa)
#
#
# Indices 1 2 3 4 5 6 
#
# 1 156.2372 21.8900 67.5893 0.0000 67.3532 0.0000
# 2 21.8900 77.3873 0.1508 0.0000 26.0367 0.0000
# 3 67.5893 0.1508 62.0832 0.0000 25.0076 0.0000
# 4 0.0000 0.0000 0.0000 1.8248 0.0000 8.4637
# 5 67.3532 26.0367 25.0076 0.0000 52.8131 0.0000
# 6 0.0000 0.0000 0.0000 8.4637 0.0000 35.8191
#
#
#
# Elastic Compliance Matrix: (Units=1/GPa)
#
#
# Indices 1 2 3 4 5 6 
#
# 1 0.022290 0.000963 -0.015604 0.000000 -0.021513 0.000000
# 2 0.000963 0.016276 0.003260 0.000000 -0.010796 0.000000
# 3 -0.015604 0.003260 0.031780 0.000000 0.003244 0.000000
# 4 0.000000 0.000000 0.000000 -5.712362 0.000000 1.349774
# 5 -0.021513 -0.010796 0.003244 0.000000 0.050157 0.000000
# 6 0.000000 0.000000 0.000000 1.349774 0.000000 -0.291020
#
#
# Mechanical properties :
#
#
# Convention : Reuss Voigt Hill
#
# Bulk Modulus (GPa) = 21.01439 52.77423 36.89431
# Shear Modulus (GPa) = -0.85554 31.82993 15.48719
#
# Velocity S-wave (km/s) = -0.58079 3.54254 2.47106
# Velocity P-wave (km/s) = 2.79921 6.12700 4.76317
#
# Compressibility (1/GPa) = 0.04758643
#
# Stress axis : x y z
#
# Youngs Moduli (GPa) = 44.86323 61.44200 31.46604
#
# Poissons Ratio (x) = -0.05920 0.49098
# Poissons Ratio (y) = -0.04322 -0.10259
# Poissons Ratio (z) = 0.70002 -0.20033
#
# Static dielectric constant tensor:
#      x y z
#    x 2.161700 0.000000 0.073740 
#    y 0.000000 2.048210 0.000000 
#    z 0.073740 0.000000 2.072730 
# 
# From -- ./inp_files/39099.got.cif
#   From: 2010.05.17/outbox.cif.g08.bks.cpg/sg13_20_cif.got.tgz:39099.got - 2010.06.03 16:44:36.
