data_PCOD9228423
_publ_section_title
;
Structure prediction by ZEFSAII (Michael W. Deem and Ramdas Pophale) SiO2 
 PCOD9228423
Probable space group: P 2/C
;
_chemical_formula_sum "Si O2"
_cell_formula_units_Z 20
_cell_length_a 7.532521
_cell_length_b 22.973075
_cell_length_c 8.711992
_cell_angle_alpha 90.000000
_cell_angle_beta 35.357555
_cell_angle_gamma 90.000000
_cell_volume 872.395251
_symmetry_space_group_name_H-M "P 2/C"
_symmetry_group_IT_number 13
_symmetry_cell_setting 'monoclinic'
loop_
_space_group_symop_operation_xyz
x,y,z
-x,y,1/2-z
-x,-y,-z
x,-y,1/2+z
loop_
_atom_site_type_symbol
_atom_site_label
_atom_site_fract_x
_atom_site_fract_y
_atom_site_fract_z
Si Si1 0.578770 0.748988 0.872258
Si Si2 0.655818 0.619018 0.811878
Si Si3 0.183459 0.816988 0.376413
Si Si4 0.860360 0.943990 0.017299
Si Si5 0.855508 0.443288 0.681724
O O1 0.500000 0.743545 0.750000
O O2 0.603171 0.683045 0.915037
O O3 0.900775 0.783145 0.652312
O O4 0.301423 0.783713 0.144238
O O5 0.500000 0.615318 0.750000
O O6 0.007719 0.607225 0.523087
O O7 0.499569 0.570350 0.031639
O O8 0.500000 0.817640 0.250000
O O9 0.089923 0.884269 0.423866
O O10 0.500000 0.953345 0.250000
O O11 0.000000 0.934988 0.750000
O O12 0.000000 0.000000 0.000000
O O13 0.000000 0.440888 0.750000
O O14 0.000000 0.500000 0.500000
#
# Coordination Sequence:
#
# PCOD9228423 Si02
#       5
#     4   4   4   4   4
#     4  11  22  39  64  91 117 159 213 252 288 361
#     4   9  19  35  56  82 113 148 191 245 296 342
#     4  11  23  41  61  89 128 163 192 247 320 363
#     4  11  24  43  65  91 124 163 205 251 303 362
#     4  10  19  34  55  79 111 149 188 237 296 354
#
# _framework density 22.925388000000002
#
# number of rings (size 3 to 8) (size 9 to 14) (size 15 to 20)
#    0.000    1.600    0.000    6.000    0.000    5.600 
#    0.000    4.000    0.000    1.200    0.000    0.000 
#    0.000    0.000    0.000    0.000    0.000    0.000 
#
# Total GULP energy -111750.864274 kJ/mol
# GULP energy per Si atom -5587.543214 kJ/mol
# Density = 2.287321 g / cm^3
# Si number density = 22.925388 Si / 1000 Ang^3
#
#
#
# Elastic Constant Matrix: (Units=GPa)
#
#
# Indices 1 2 3 4 5 6 
#
# 1 28.9302 15.3460 17.6392 0.0000 -7.5097 0.0000
# 2 15.3460 175.0179 78.0930 0.0000 9.9901 0.0000
# 3 17.6392 78.0930 188.8801 0.0000 -4.3616 0.0000
# 4 0.0000 0.0000 0.0000 43.1835 0.0000 0.6773
# 5 -7.5097 9.9901 -4.3616 0.0000 32.6003 0.0000
# 6 0.0000 0.0000 0.0000 0.6773 0.0000 40.0386
#
#
#
# Elastic Compliance Matrix: (Units=1/GPa)
#
#
# Indices 1 2 3 4 5 6 
#
# 1 0.040137 -0.003082 -0.002246 0.000000 0.009890 0.000000
# 2 -0.003082 0.007459 -0.002874 0.000000 -0.003380 0.000000
# 3 -0.002246 -0.002874 0.006722 0.000000 0.001263 0.000000
# 4 0.000000 0.000000 0.000000 0.023163 0.000000 -0.000392
# 5 0.009890 -0.003380 0.001263 0.000000 0.034158 0.000000
# 6 0.000000 0.000000 0.000000 -0.000392 0.000000 0.024983
#
#
# Mechanical properties :
#
#
# Convention : Reuss Voigt Hill
#
# Bulk Modulus (GPa) = 26.37525 68.33163 47.35344
# Shear Modulus (GPa) = 30.18168 41.94781 36.06474
#
# Velocity S-wave (km/s) = 3.63232 4.28220 3.97058
# Velocity P-wave (km/s) = 5.39643 7.37024 6.45918
#
# Compressibility (1/GPa) = 0.03791433
#
# Stress axis : x y z
#
# Youngs Moduli (GPa) = 24.91460 134.05874 148.77243
#
# Poissons Ratio (x) = 0.41314 0.33411
# Poissons Ratio (y) = 0.07678 0.42763
# Poissons Ratio (z) = 0.05595 0.38534
#
# Static dielectric constant tensor:
#      x y z
#    x 1.870720 0.000000 -0.000770 
#    y 0.000000 1.879490 0.000000 
#    z -0.000770 0.000000 1.812340 
# 
# From -- ./inp_files/13779.got.cif
#   From: 2010.05.17/outbox.cif.g08.bks.cpg/sg13_7_cif.got.tgz:13779.got - 2010.06.03 16:44:36.
