data_PCOD9228530
_publ_section_title
;
Structure prediction by ZEFSAII (Michael W. Deem and Ramdas Pophale) SiO2 
 PCOD9228530
Probable space group: P 2/C
;
_chemical_formula_sum "Si O2"
_cell_formula_units_Z 28
_cell_length_a 9.433450
_cell_length_b 9.784304
_cell_length_c 24.313730
_cell_angle_alpha 90.000000
_cell_angle_beta 42.472338
_cell_angle_gamma 90.000000
_cell_volume 1515.327466
_symmetry_space_group_name_H-M "P 2/C"
_symmetry_group_IT_number 13
_symmetry_cell_setting 'monoclinic'
loop_
_space_group_symop_operation_xyz
x,y,z
-x,y,1/2-z
-x,-y,-z
x,-y,1/2+z
loop_
_atom_site_type_symbol
_atom_site_label
_atom_site_fract_x
_atom_site_fract_y
_atom_site_fract_z
Si Si1 0.419682 0.238765 0.109745
Si Si2 0.513198 0.085689 0.917671
Si Si3 0.686160 0.207761 0.235916
Si Si4 0.704318 0.549185 0.474720
Si Si5 0.159982 0.737453 0.574348
Si Si6 0.640305 0.118340 0.759603
Si Si7 0.925925 0.753784 0.333352
O O1 0.336114 0.259956 0.195217
O O2 0.245914 0.270075 0.112747
O O3 0.480155 0.078736 0.084933
O O4 0.617147 0.337864 0.041719
O O5 0.531464 0.138597 0.849840
O O6 0.723287 0.145824 0.886874
O O7 0.307204 0.147940 0.004576
O O8 0.500000 0.260450 0.250000
O O9 0.914919 0.234111 0.146208
O O10 0.661324 0.044294 0.246927
O O11 0.500000 0.500000 0.500000
O O12 0.801308 0.407305 0.466892
O O13 0.855201 0.623798 0.388332
O O14 0.500000 0.173071 0.750000
O O15 0.874177 0.177249 0.695421
O O16 0.000000 0.721395 0.250000
#
# Coordination Sequence:
#
# PCOD9228530 Si02
#       7
#     4   4   4   4   4   4   4
#     4  10  20  36  61  86 114 143 190 237 284 334
#     4  10  19  35  60  90 110 143 189 242 281 327
#     4  10  22  40  57  83 116 154 189 230 283 342
#     4  10  21  35  55  88 116 144 187 233 287 330
#     4  11  21  37  59  86 115 148 187 238 281 333
#     4   9  20  38  57  85 117 148 188 231 286 338
#     4  10  19  34  59  85 113 144 187 239 281 332
#
# _framework density 18.477854000000001
#
# number of rings (size 3 to 8) (size 9 to 14) (size 15 to 20)
#    0.000    2.000    2.857    1.714    2.000    4.571 
#    2.571    3.571    0.000    0.000    0.000    0.000 
#    0.000    0.000    0.000    0.000    0.000    0.000 
#
# Total GULP energy -156176.333522 kJ/mol
# GULP energy per Si atom -5577.726197 kJ/mol
# Density = 1.843580 g / cm^3
# Si number density = 18.477854 Si / 1000 Ang^3
#
#
#
# Elastic Constant Matrix: (Units=GPa)
#
#
# Indices 1 2 3 4 5 6 
#
# 1 99.5465 12.8020 46.4855 0.0000 -14.8941 0.0000
# 2 12.8020 50.9335 32.9166 0.0000 1.5950 0.0000
# 3 46.4855 32.9166 133.4350 0.0000 -20.7021 0.0000
# 4 0.0000 0.0000 0.0000 33.9189 0.0000 -8.8606
# 5 -14.8941 1.5950 -20.7021 0.0000 14.8449 0.0000
# 6 0.0000 0.0000 0.0000 -8.8606 0.0000 8.3678
#
#
#
# Elastic Compliance Matrix: (Units=1/GPa)
#
#
# Indices 1 2 3 4 5 6 
#
# 1 0.012915 -0.001910 -0.002534 0.000000 0.009629 0.000000
# 2 -0.001910 0.025955 -0.008253 0.000000 -0.016214 0.000000
# 3 -0.002534 -0.008253 0.012960 0.000000 0.016418 0.000000
# 4 0.000000 0.000000 0.000000 0.040756 0.000000 0.043156
# 5 0.009629 -0.016214 0.016418 0.000000 0.101662 0.000000
# 6 0.000000 0.000000 0.000000 0.043156 0.000000 0.165203
#
#
# Mechanical properties :
#
#
# Convention : Reuss Voigt Hill
#
# Bulk Modulus (GPa) = 37.82704 52.03590 44.93147
# Shear Modulus (GPa) = 12.70142 24.20707 18.45424
#
# Velocity S-wave (km/s) = 2.62465 3.62340 3.16368
# Velocity P-wave (km/s) = 5.44987 6.76223 6.14120
#
# Compressibility (1/GPa) = 0.02643611
#
# Stress axis : x y z
#
# Youngs Moduli (GPa) = 77.42739 38.52854 77.15917
#
# Poissons Ratio (x) = 0.07359 0.19554
# Poissons Ratio (y) = 0.14788 0.63679
# Poissons Ratio (z) = 0.19622 0.31797
#
# Static dielectric constant tensor:
#      x y z
#    x 1.638380 0.000000 0.018250 
#    y 0.000000 1.655160 0.000000 
#    z 0.018250 0.000000 1.636200 
# 
# From -- ./inp_files/91428.got.cif
#   From: 2010.05.17/outbox.cif.g08.bks.cpg/sg13_46_cif.got.tgz:91428.got - 2010.06.03 16:44:36.
