data_PCOD9228604
_publ_section_title
;
Structure prediction by ZEFSAII (Michael W. Deem and Ramdas Pophale) SiO2 
 PCOD9228604
Probable space group: P 2/C
;
_chemical_formula_sum "Si O2"
_cell_formula_units_Z 28
_cell_length_a 20.692835
_cell_length_b 5.750357
_cell_length_c 16.077689
_cell_angle_alpha 90.000000
_cell_angle_beta 141.982477
_cell_angle_gamma 90.000000
_cell_volume 1178.285019
_symmetry_space_group_name_H-M "P 2/C"
_symmetry_group_IT_number 13
_symmetry_cell_setting 'monoclinic'
loop_
_space_group_symop_operation_xyz
x,y,z
-x,y,1/2-z
-x,-y,-z
x,-y,1/2+z
loop_
_atom_site_type_symbol
_atom_site_label
_atom_site_fract_x
_atom_site_fract_y
_atom_site_fract_z
Si Si1 0.398998 0.083352 0.676017
Si Si2 0.248474 0.538602 0.994890
Si Si3 0.094357 0.585145 0.711255
Si Si4 0.623115 0.296012 0.227455
Si Si5 0.606242 0.282410 0.477655
Si Si6 0.258385 0.087700 0.286362
Si Si7 0.917139 0.195220 0.944133
O O1 0.500000 0.237546 0.750000
O O2 0.287999 0.203350 0.552489
O O3 0.400428 0.970579 0.768014
O O4 0.409159 0.879142 0.619284
O O5 0.131500 0.514301 0.841145
O O6 0.296141 0.402201 0.122886
O O7 0.313527 0.466411 0.978100
O O8 0.173521 0.794105 0.762182
O O9 0.102700 0.376996 0.651593
O O10 0.974931 0.672808 0.577738
O O11 0.504761 0.391974 0.108061
O O12 0.677577 0.289995 0.194243
O O13 0.662706 0.102384 0.596386
O O14 0.188718 0.945827 0.148496
O O15 0.000000 0.000000 0.000000
#
# Coordination Sequence:
#
# PCOD9228604 Si02
#       7
#     4   4   4   4   4   4   4
#     4   9  18  34  53  77 111 157 196 227 273 346
#     4  11  19  36  58  82 112 153 200 237 284 353
#     4  10  20  36  64  86 102 149 202 239 289 355
#     4  10  23  33  53  85 127 152 187 238 297 344
#     4  10  19  35  55  82 115 162 196 226 277 361
#     4  11  20  37  57  86 119 149 191 248 294 343
#     4   9  20  37  61  84 105 138 198 250 292 343
#
# _framework density 23.763349999999999
#
# number of rings (size 3 to 8) (size 9 to 14) (size 15 to 20)
#    0.000    2.000    2.857    2.571    0.000    1.143 
#    0.000    0.714    0.000   20.571    0.000    0.000 
#    0.000    0.000    0.000    0.000    0.000    0.000 
#
# Total GULP energy -156065.165566 kJ/mol
# GULP energy per Si atom -5573.755913 kJ/mol
# Density = 2.370926 g / cm^3
# Si number density = 23.763350 Si / 1000 Ang^3
#
#
#
# Elastic Constant Matrix: (Units=GPa)
#
#
# Indices 1 2 3 4 5 6 
#
# 1 44.7691 -8.1347 3.0967 0.0000 -5.8664 0.0000
# 2 -8.1347 36.1446 16.8430 0.0000 0.6527 0.0000
# 3 3.0967 16.8430 132.5966 0.0000 -4.6426 0.0000
# 4 0.0000 0.0000 0.0000 51.6870 0.0000 -5.4753
# 5 -5.8664 0.6527 -4.6426 0.0000 15.5691 0.0000
# 6 0.0000 0.0000 0.0000 -5.4753 0.0000 17.7592
#
#
#
# Elastic Compliance Matrix: (Units=1/GPa)
#
#
# Indices 1 2 3 4 5 6 
#
# 1 0.024614 0.005854 -0.001013 0.000000 0.008727 0.000000
# 2 0.005854 0.030887 -0.004071 0.000000 -0.000303 0.000000
# 3 -0.001013 -0.004071 0.008160 0.000000 0.002222 0.000000
# 4 0.000000 0.000000 0.000000 0.020000 0.000000 0.006166
# 5 0.008727 -0.000303 0.002222 0.000000 0.068194 0.000000
# 6 0.000000 0.000000 0.000000 0.006166 0.000000 0.058210
#
#
# Mechanical properties :
#
#
# Convention : Reuss Voigt Hill
#
# Bulk Modulus (GPa) = 15.33695 26.34670 20.84182
# Shear Modulus (GPa) = 21.71477 30.45007 26.08242
#
# Velocity S-wave (km/s) = 3.02618 3.58353 3.31658
# Velocity P-wave (km/s) = 4.32185 5.31352 4.84313
#
# Compressibility (1/GPa) = 0.06520202
#
# Stress axis : x y z
#
# Youngs Moduli (GPa) = 40.62693 32.37659 122.54587
#
# Poissons Ratio (x) = -0.18954 0.12413
# Poissons Ratio (y) = -0.23783 0.49884
# Poissons Ratio (z) = 0.04115 0.13179
#
# Static dielectric constant tensor:
#      x y z
#    x 1.951740 0.000000 0.062070 
#    y 0.000000 1.968180 0.000000 
#    z 0.062070 0.000000 2.025320 
# 
# From -- ./inp_files/82330.got.cif
#   From: 2010.05.17/outbox.cif.g08.bks.cpg/sg13_42_cif.got.tgz:82330.got - 2010.06.03 16:44:36.
