data_PCOD9228134
_publ_section_title
;
Structure prediction by ZEFSAII (Michael W. Deem and Ramdas Pophale) SiO2 
 PCOD9228134
Probable space group: P 2/C
;
_chemical_formula_sum "Si O2"
_cell_formula_units_Z 20
_cell_length_a 10.661699
_cell_length_b 18.974533
_cell_length_c 5.299884
_cell_angle_alpha 90.000000
_cell_angle_beta 93.265084
_cell_angle_gamma 90.000000
_cell_volume 1070.430116
_symmetry_space_group_name_H-M "P 2/C"
_symmetry_group_IT_number 13
_symmetry_cell_setting 'monoclinic'
loop_
_space_group_symop_operation_xyz
x,y,z
-x,y,1/2-z
-x,-y,-z
x,-y,1/2+z
loop_
_atom_site_type_symbol
_atom_site_label
_atom_site_fract_x
_atom_site_fract_y
_atom_site_fract_z
Si Si1 0.867727 0.768973 0.675547
Si Si2 0.357765 0.969872 0.450045
Si Si3 0.149588 0.545099 0.256119
Si Si4 0.786491 0.699640 0.153663
Si Si5 0.629013 0.186617 0.414490
O O1 0.855476 0.737772 0.395225
O O2 0.745208 0.814454 0.729746
O O3 0.000000 0.805257 0.750000
O O4 0.858770 0.708475 0.893816
O O5 0.366535 0.886011 0.432287
O O6 0.500000 0.000000 0.500000
O O7 0.296200 0.993993 0.703441
O O8 0.174978 0.495447 0.499024
O O9 0.224381 0.618051 0.284702
O O10 0.000000 0.562662 0.250000
O O11 0.660578 0.745230 0.088108
O O12 0.500000 0.191880 0.250000
#
# Coordination Sequence:
#
# PCOD9228134 Si02
#       5
#     4   4   4   4   4
#     4  10  21  36  58  84 118 153 194 245 295 347
#     4  10  20  34  58  82 117 147 190 249 291 337
#     4  10  19  32  55  84 116 151 197 246 292 340
#     4  10  22  35  60  84 126 151 199 243 300 347
#     4  10  23  37  60  92 117 155 201 239 298 350
#
# _framework density 18.684078
#
# number of rings (size 3 to 8) (size 9 to 14) (size 15 to 20)
#    1.200    0.800    2.000    3.000    2.800    2.400 
#    0.000    0.000    0.000    2.400    0.000    0.000 
#    0.000    0.000    0.000    0.000    0.000    0.000 
#
# Total GULP energy -111344.615895 kJ/mol
# GULP energy per Si atom -5567.230795 kJ/mol
# Density = 1.864155 g / cm^3
# Si number density = 18.684078 Si / 1000 Ang^3
#
#
#
# Elastic Constant Matrix: (Units=GPa)
#
#
# Indices 1 2 3 4 5 6 
#
# 1 69.1805 25.0721 10.7328 0.0000 15.3660 0.0000
# 2 25.0721 127.2492 23.8979 0.0000 14.8803 0.0000
# 3 10.7328 23.8979 121.5601 0.0000 6.9262 0.0000
# 4 0.0000 0.0000 0.0000 -339.7721 0.0000 -294.5740
# 5 15.3660 14.8803 6.9262 0.0000 17.4555 0.0000
# 6 0.0000 0.0000 0.0000 -294.5740 0.0000 -224.8095
#
#
#
# Elastic Compliance Matrix: (Units=1/GPa)
#
#
# Indices 1 2 3 4 5 6 
#
# 1 0.018404 -0.001855 -0.000437 0.000000 -0.014446 0.000000
# 2 -0.001855 0.009128 -0.001310 0.000000 -0.005629 0.000000
# 3 -0.000437 -0.001310 0.008632 0.000000 -0.001924 0.000000
# 4 0.000000 0.000000 0.000000 0.021637 0.000000 -0.028352
# 5 -0.014446 -0.005629 -0.001924 0.000000 0.075567 0.000000
# 6 0.000000 0.000000 0.000000 -0.028352 0.000000 0.032702
#
#
# Mechanical properties :
#
#
# Convention : Reuss Voigt Hill
#
# Bulk Modulus (GPa) = 34.53013 48.59949 41.56481
# Shear Modulus (GPa) = 27.33312 -92.20607 -32.43648
#
# Velocity S-wave (km/s) = 3.82895 -7.03258 -4.17111
# Velocity P-wave (km/s) = 6.17001 6.31469 0.95035
#
# Compressibility (1/GPa) = 0.02896021
#
# Stress axis : x y z
#
# Youngs Moduli (GPa) = 54.33713 109.54905 115.84624
#
# Poissons Ratio (x) = 0.20318 0.05064
# Poissons Ratio (y) = 0.10078 0.15177
# Poissons Ratio (z) = 0.02375 0.14352
#
# Static dielectric constant tensor:
#      x y z
#    x 1.666440 0.000000 -0.024750 
#    y 0.000000 1.631290 0.000000 
#    z -0.024750 0.000000 1.710570 
# 
# From -- ./inp_files/3336.got.cif
#   From: 2010.05.17/outbox.cif.g08.bks.cpg/sg13_2_cif.got.tgz:3336.got - 2010.06.03 16:44:36.
