data_PCOD9228933
_publ_section_title
;
Structure prediction by ZEFSAII (Michael W. Deem and Ramdas Pophale) SiO2 
 PCOD9228933
Probable space group: P 2/C
;
_chemical_formula_sum "Si O2"
_cell_formula_units_Z 26
_cell_length_a 10.298848
_cell_length_b 8.661861
_cell_length_c 15.242824
_cell_angle_alpha 90.000000
_cell_angle_beta 117.127369
_cell_angle_gamma 90.000000
_cell_volume 1210.188185
_symmetry_space_group_name_H-M "P 2/C"
_symmetry_group_IT_number 13
_symmetry_cell_setting 'monoclinic'
loop_
_space_group_symop_operation_xyz
x,y,z
-x,y,1/2-z
-x,-y,-z
x,-y,1/2+z
loop_
_atom_site_type_symbol
_atom_site_label
_atom_site_fract_x
_atom_site_fract_y
_atom_site_fract_z
Si Si1 0.600558 0.118557 0.479137
Si Si2 0.901768 0.293530 0.392251
Si Si3 0.177356 0.896281 0.906513
Si Si4 0.355998 0.429632 0.909273
Si Si5 0.352845 0.283691 0.315053
Si Si6 0.950808 0.386784 0.601654
Si Si7 0.000000 0.133803 0.750000
O O1 0.632256 0.249502 0.562501
O O2 0.509844 0.200886 0.373251
O O3 0.500000 0.000000 0.500000
O O4 0.735328 0.005228 0.498382
O O5 0.755587 0.243690 0.297208
O O6 0.894569 0.310590 0.494366
O O7 0.036901 0.185653 0.404819
O O8 0.943504 0.468764 0.377747
O O9 0.273689 0.773223 0.881634
O O10 0.126886 0.019579 0.817946
O O11 0.363937 0.529493 0.822633
O O12 0.192176 0.454056 0.894714
O O13 0.500000 0.500000 0.000000
O O14 0.027877 0.251222 0.679395
#
# Coordination Sequence:
#
# PCOD9228933 Si02
#       7
#     4   4   4   4   4   4   2
#     4   9  20  35  58  93 121 160 218 262 310 382
#     4  11  23  39  62  96 134 163 212 275 331 384
#     4  11  20  36  61  95 124 165 210 261 326 390
#     4  10  19  36  61  85 114 167 216 256 304 387
#     4  10  19  37  63  90 123 172 215 257 322 391
#     4  11  24  39  61  96 126 167 216 272 324 389
#     4  12  22  36  64  88 124 158 214 256 322 394
#
# _framework density 21.484262000000001
#
# number of rings (size 3 to 8) (size 9 to 14) (size 15 to 20)
#    0.000    1.538    4.615    0.923    0.000    0.615 
#    0.000    3.077    0.000    0.000    0.000    0.000 
#    0.000    0.000    0.000    0.000    0.000    0.000 
#
# Total GULP energy -144778.042797 kJ/mol
# GULP energy per Si atom -5568.386261 kJ/mol
# Density = 2.143536 g / cm^3
# Si number density = 21.484262 Si / 1000 Ang^3
#
#
#
# Elastic Constant Matrix: (Units=GPa)
#
#
# Indices 1 2 3 4 5 6 
#
# 1 29.8423 7.4333 16.3120 0.0000 10.4856 0.0000
# 2 7.4333 117.3928 29.4841 0.0000 1.8757 0.0000
# 3 16.3120 29.4841 99.9828 0.0000 24.5519 0.0000
# 4 0.0000 0.0000 0.0000 33.1912 0.0000 12.1866
# 5 10.4856 1.8757 24.5519 0.0000 22.1577 0.0000
# 6 0.0000 0.0000 0.0000 12.1866 0.0000 31.8129
#
#
#
# Elastic Compliance Matrix: (Units=1/GPa)
#
#
# Indices 1 2 3 4 5 6 
#
# 1 0.041044 -0.001834 -0.001956 0.000000 -0.017100 0.000000
# 2 -0.001834 0.009435 -0.003435 0.000000 0.003875 0.000000
# 3 -0.001956 -0.003435 0.015160 0.000000 -0.015582 0.000000
# 4 0.000000 0.000000 0.000000 0.035060 0.000000 -0.013430
# 5 -0.017100 0.003875 -0.015582 0.000000 0.070160 0.000000
# 6 0.000000 0.000000 0.000000 -0.013430 0.000000 0.036579
#
#
# Mechanical properties :
#
#
# Convention : Reuss Voigt Hill
#
# Bulk Modulus (GPa) = 19.53545 39.29740 29.41642
# Shear Modulus (GPa) = 20.92474 30.36493 25.64483
#
# Velocity S-wave (km/s) = 3.12421 3.76354 3.45868
# Velocity P-wave (km/s) = 4.70393 6.10054 5.44718
#
# Compressibility (1/GPa) = 0.05118898
#
# Stress axis : x y z
#
# Youngs Moduli (GPa) = 24.36396 105.98494 65.96315
#
# Poissons Ratio (x) = 0.19442 0.12903
# Poissons Ratio (y) = 0.04469 0.22657
# Poissons Ratio (z) = 0.04766 0.36403
#
# Static dielectric constant tensor:
#      x y z
#    x 1.819640 0.000000 0.062770 
#    y 0.000000 1.864630 0.000000 
#    z 0.062770 0.000000 1.836080 
# 
# From -- ./inp_files/50171.got.cif
#   From: 2010.05.17/outbox.cif.g08.bks.cpg/sg13_26_cif.got.tgz:50171.got - 2010.06.03 16:44:36.
