data_PCOD9228056
_publ_section_title
;
Structure prediction by ZEFSAII (Michael W. Deem and Ramdas Pophale) SiO2 
 PCOD9228056
Probable space group: P 2/C
;
_chemical_formula_sum "Si O2"
_cell_formula_units_Z 32
_cell_length_a 7.124332
_cell_length_b 10.863438
_cell_length_c 23.895690
_cell_angle_alpha 90.000000
_cell_angle_beta 53.324949
_cell_angle_gamma 90.000000
_cell_volume 1483.285561
_symmetry_space_group_name_H-M "P 2/C"
_symmetry_group_IT_number 13
_symmetry_cell_setting 'monoclinic'
loop_
_space_group_symop_operation_xyz
x,y,z
-x,y,1/2-z
-x,-y,-z
x,-y,1/2+z
loop_
_atom_site_type_symbol
_atom_site_label
_atom_site_fract_x
_atom_site_fract_y
_atom_site_fract_z
Si Si1 0.384546 0.487635 0.694380
Si Si2 0.704435 0.376711 0.555432
Si Si3 0.617419 0.229535 0.305943
Si Si4 0.709030 0.126006 0.051267
Si Si5 0.225271 0.872626 0.506636
Si Si6 0.975232 0.513685 0.345634
Si Si7 0.783203 0.376443 0.988549
Si Si8 0.975148 0.230556 0.346816
O O1 0.583329 0.397341 0.636856
O O2 0.468867 0.629199 0.683999
O O3 0.233671 0.457298 0.776029
O O4 0.195946 0.485997 0.677183
O O5 0.639111 0.250100 0.537053
O O6 0.646738 0.500392 0.530968
O O7 0.983115 0.375129 0.514795
O O8 0.416475 0.143053 0.366459
O O9 0.767475 0.199197 0.223807
O O10 0.805433 0.228833 0.323362
O O11 0.986805 0.125342 0.012223
O O12 0.654505 0.249537 0.025533
O O13 0.647933 0.000128 0.030620
O O14 0.131596 0.854208 0.586165
O O15 0.980825 0.372595 0.366757
O O16 0.875450 0.604271 0.409753
#
# Coordination Sequence:
#
# PCOD9228056 Si02
#       8
#     4   4   4   4   4   4   4   4
#     4   9  18  32  51  77 105 132 166 209 256 302
#     4  10  19  32  51  76 101 128 168 210 248 295
#     4   9  18  33  53  77 103 131 168 211 251 298
#     4  10  21  36  52  74 105 137 169 208 253 301
#     4  10  21  36  52  74 105 137 169 208 253 301
#     4   9  18  32  51  77 105 132 166 209 256 302
#     4  10  19  32  51  76 101 128 168 210 248 295
#     4   9  18  33  53  77 103 131 168 211 251 298
#
# _framework density 21.573727999999999
#
# number of rings (size 3 to 8) (size 9 to 14) (size 15 to 20)
#    0.000    2.500    2.500    1.500    0.000    3.000 
#    0.000    3.750    0.000    7.500    0.000    0.000 
#    0.000    0.000    0.000    0.000    0.000    0.000 
#
# Total GULP energy -178729.399534 kJ/mol
# GULP energy per Si atom -5585.293735 kJ/mol
# Density = 2.152462 g / cm^3
# Si number density = 21.573728 Si / 1000 Ang^3
#
#
#
# Elastic Constant Matrix: (Units=GPa)
#
#
# Indices 1 2 3 4 5 6 
#
# 1 40.5833 12.9793 -2.7003 0.0000 3.1610 0.0000
# 2 12.9793 149.0589 89.9004 0.0000 1.0647 0.0000
# 3 -2.7003 89.9004 155.9737 0.0000 3.7509 0.0000
# 4 0.0000 0.0000 0.0000 29.1227 0.0000 -0.9370
# 5 3.1610 1.0647 3.7509 0.0000 38.9682 0.0000
# 6 0.0000 0.0000 0.0000 -0.9370 0.0000 4.9558
#
#
#
# Elastic Compliance Matrix: (Units=1/GPa)
#
#
# Indices 1 2 3 4 5 6 
#
# 1 0.026269 -0.003953 0.002788 0.000000 -0.002291 0.000000
# 2 -0.003953 0.010882 -0.006356 0.000000 0.000635 0.000000
# 3 0.002788 -0.006356 0.010148 0.000000 -0.001029 0.000000
# 4 0.000000 0.000000 0.000000 0.034548 0.000000 0.006532
# 5 -0.002291 0.000635 -0.001029 0.000000 0.025930 0.000000
# 6 0.000000 0.000000 0.000000 0.006532 0.000000 0.203020
#
#
# Mechanical properties :
#
#
# Convention : Reuss Voigt Hill
#
# Bulk Modulus (GPa) = 31.00036 60.66387 45.83211
# Shear Modulus (GPa) = 14.85496 30.97176 22.91336
#
# Velocity S-wave (km/s) = 2.62690 3.79307 3.26252
# Velocity P-wave (km/s) = 4.85814 6.88212 5.95672
#
# Compressibility (1/GPa) = 0.03225769
#
# Stress axis : x y z
#
# Youngs Moduli (GPa) = 38.06811 91.89809 98.54499
#
# Poissons Ratio (x) = 0.36323 -0.27475
# Poissons Ratio (y) = 0.15046 0.62632
# Poissons Ratio (z) = -0.10613 0.58407
#
# Static dielectric constant tensor:
#      x y z
#    x 1.885160 0.000000 -0.010760 
#    y 0.000000 1.773700 0.000000 
#    z -0.010760 0.000000 1.801040 
# 
# From -- ./inp_files/85122.got.cif
#   From: 2010.05.17/outbox.cif.g08.bks.cpg/sg13_43_cif.got.tgz:85122.got - 2010.06.03 16:44:36.
