data_PCOD9228062
_publ_section_title
;
Structure prediction by ZEFSAII (Michael W. Deem and Ramdas Pophale) SiO2 
 PCOD9228062
Probable space group: P 2/C
;
_chemical_formula_sum "Si O2"
_cell_formula_units_Z 28
_cell_length_a 25.081228
_cell_length_b 8.119744
_cell_length_c 9.122169
_cell_angle_alpha 90.000000
_cell_angle_beta 41.465042
_cell_angle_gamma 90.000000
_cell_volume 1230.138844
_symmetry_space_group_name_H-M "P 2/C"
_symmetry_group_IT_number 13
_symmetry_cell_setting 'monoclinic'
loop_
_space_group_symop_operation_xyz
x,y,z
-x,y,1/2-z
-x,-y,-z
x,-y,1/2+z
loop_
_atom_site_type_symbol
_atom_site_label
_atom_site_fract_x
_atom_site_fract_y
_atom_site_fract_z
Si Si1 0.923996 0.648761 0.514593
Si Si2 0.676622 0.610338 0.304532
Si Si3 0.181867 0.836820 0.133033
Si Si4 0.515210 0.677040 0.544469
Si Si5 0.149870 0.472845 0.073889
Si Si6 0.350483 0.274781 0.303790
Si Si7 0.094108 0.009709 0.058974
O O1 0.863199 0.517781 0.568124
O O2 0.923656 0.610943 0.687345
O O3 0.899527 0.836317 0.540772
O O4 0.000000 0.630868 0.250000
O O5 0.610555 0.712541 0.346756
O O6 0.656833 0.419504 0.302907
O O7 0.667583 0.646855 0.496710
O O8 0.769048 0.629764 0.068774
O O9 0.161972 0.656173 0.113687
O O10 0.130971 0.962339 0.138716
O O11 0.148699 0.860016 0.363937
O O12 0.278360 0.852753 0.925404
O O13 0.500000 0.662284 0.750000
O O14 0.500000 0.500000 0.500000
O O15 0.443126 0.785177 0.624253
O O16 0.000000 0.055936 0.250000
#
# Coordination Sequence:
#
# PCOD9228062 Si02
#       7
#     4   4   4   4   4   4   4
#     4  10  21  35  51  74 106 140 175 218 266 313
#     4   9  16  28  47  76 111 140 167 210 265 318
#     4  10  21  35  53  77 105 139 179 223 263 314
#     4   8  14  25  44  71 106 141 166 204 259 315
#     4  10  19  32  51  78 106 133 172 219 264 313
#     4   9  17  30  49  78 110 139 174 215 265 319
#     4  10  22  39  55  74 102 140 184 223 263 316
#
# _framework density 22.761657
#
# number of rings (size 3 to 8) (size 9 to 14) (size 15 to 20)
#    0.000    2.571    0.000    2.571    0.000    2.857 
#    0.000    0.000    0.000    0.000    0.000   16.000 
#    0.000    0.000    0.000    0.000    0.000    0.000 
#
# Total GULP energy -156069.563715 kJ/mol
# GULP energy per Si atom -5573.912990 kJ/mol
# Density = 2.270985 g / cm^3
# Si number density = 22.761657 Si / 1000 Ang^3
#
#
#
# Elastic Constant Matrix: (Units=GPa)
#
#
# Indices 1 2 3 4 5 6 
#
# 1 106.1709 24.1359 28.5920 0.0000 -19.5244 0.0000
# 2 24.1359 30.2763 20.9414 0.0000 -6.3738 0.0000
# 3 28.5920 20.9414 57.6992 0.0000 -13.8383 0.0000
# 4 0.0000 0.0000 0.0000 1.6492 0.0000 16.3843
# 5 -19.5244 -6.3738 -13.8383 0.0000 46.1696 0.0000
# 6 0.0000 0.0000 0.0000 16.3843 0.0000 1.8517
#
#
#
# Elastic Compliance Matrix: (Units=1/GPa)
#
#
# Indices 1 2 3 4 5 6 
#
# 1 0.012442 -0.007344 -0.002673 0.000000 0.003446 0.000000
# 2 -0.007344 0.048518 -0.014124 0.000000 -0.000641 0.000000
# 3 -0.002673 -0.014124 0.024828 0.000000 0.004361 0.000000
# 4 0.000000 0.000000 0.000000 -0.006977 0.000000 0.061736
# 5 0.003446 -0.000641 0.004361 0.000000 0.024335 0.000000
# 6 0.000000 0.000000 0.000000 0.061736 0.000000 -0.006214
#
#
# Mechanical properties :
#
#
# Convention : Reuss Voigt Hill
#
# Bulk Modulus (GPa) = 26.66253 37.94277 32.30265
# Shear Modulus (GPa) = 31.70265 17.96592 24.83428
#
# Velocity S-wave (km/s) = 3.73608 2.81251 3.30670
# Velocity P-wave (km/s) = 5.50911 5.22041 5.36671
#
# Compressibility (1/GPa) = 0.03750582
#
# Stress axis : x y z
#
# Youngs Moduli (GPa) = 80.37287 20.61102 40.27695
#
# Poissons Ratio (x) = 0.15136 0.10768
# Poissons Ratio (y) = 0.59025 0.56886
# Poissons Ratio (z) = 0.21488 0.29110
#
# Static dielectric constant tensor:
#      x y z
#    x 1.921110 0.000000 -0.077930 
#    y 0.000000 1.832210 0.000000 
#    z -0.077930 0.000000 1.875380 
# 
# From -- ./inp_files/24552.got.cif
#   From: 2010.05.17/outbox.cif.g08.bks.cpg/sg13_13_cif.got.tgz:24552.got - 2010.06.03 16:44:36.
