data_PCOD9228713
_publ_section_title
;
Structure prediction by ZEFSAII (Michael W. Deem and Ramdas Pophale) SiO2 
 PCOD9228713
Probable space group: P 2/C
;
_chemical_formula_sum "Si O2"
_cell_formula_units_Z 16
_cell_length_a 9.186896
_cell_length_b 7.263230
_cell_length_c 17.015529
_cell_angle_alpha 90.000000
_cell_angle_beta 132.736990
_cell_angle_gamma 90.000000
_cell_volume 833.915470
_symmetry_space_group_name_H-M "P 2/C"
_symmetry_group_IT_number 13
_symmetry_cell_setting 'monoclinic'
loop_
_space_group_symop_operation_xyz
x,y,z
-x,y,1/2-z
-x,-y,-z
x,-y,1/2+z
loop_
_atom_site_type_symbol
_atom_site_label
_atom_site_fract_x
_atom_site_fract_y
_atom_site_fract_z
Si Si1 0.836930 0.894013 0.492836
Si Si2 0.884758 0.675367 0.783774
Si Si3 0.473106 0.179528 0.148840
Si Si4 0.224582 0.469607 0.609180
O O1 0.730880 0.734639 0.402592
O O2 0.960224 0.795582 0.607513
O O3 0.669674 0.043406 0.450533
O O4 0.000000 0.000000 0.500000
O O5 0.690709 0.795839 0.693047
O O6 0.792182 0.515459 0.804871
O O7 0.000000 0.607861 0.750000
O O8 0.500000 0.115219 0.250000
O O9 0.360543 0.375399 0.118811
O O10 0.000000 0.500000 0.500000
#
# Coordination Sequence:
#
# PCOD9228713 Si02
#       4
#     4   4   4   4
#     4  11  19  37  66  83 114 155 202 238 285 354
#     4  10  22  39  56  89 129 151 192 253 293 341
#     4  10  19  35  60  88 113 156 204 237 283 349
#     4   9  18  35  59  78 107 154 196 234 281 348
#
# _framework density 19.186599000000001
#
# number of rings (size 3 to 8) (size 9 to 14) (size 15 to 20)
#    0.000    2.000    7.500    0.000    0.000    4.000 
#    0.000    6.250    0.000    0.000    0.000    0.000 
#    0.000    0.000    0.000    0.000    0.000    0.000 
#
# Total GULP energy -89117.489868 kJ/mol
# GULP energy per Si atom -5569.843117 kJ/mol
# Density = 1.914293 g / cm^3
# Si number density = 19.186599 Si / 1000 Ang^3
#
#
#
# Elastic Constant Matrix: (Units=GPa)
#
#
# Indices 1 2 3 4 5 6 
#
# 1 79.8567 37.4888 26.7300 0.0000 14.6639 0.0000
# 2 37.4888 111.4876 34.5766 0.0000 2.2950 0.0000
# 3 26.7300 34.5766 69.5222 0.0000 25.1498 0.0000
# 4 0.0000 0.0000 0.0000 34.8984 0.0000 11.5366
# 5 14.6639 2.2950 25.1498 0.0000 27.2096 0.0000
# 6 0.0000 0.0000 0.0000 11.5366 0.0000 9.8513
#
#
#
# Elastic Compliance Matrix: (Units=1/GPa)
#
#
# Indices 1 2 3 4 5 6 
#
# 1 0.016677 -0.005088 -0.001180 0.000000 -0.007468 0.000000
# 2 -0.005088 0.012848 -0.007562 0.000000 0.008648 0.000000
# 3 -0.001180 -0.007562 0.027249 0.000000 -0.023912 0.000000
# 4 0.000000 0.000000 0.000000 0.046755 0.000000 -0.054754
# 5 -0.007468 0.008648 -0.023912 0.000000 0.062149 0.000000
# 6 0.000000 0.000000 0.000000 -0.054754 0.000000 0.165631
#
#
# Mechanical properties :
#
#
# Convention : Reuss Voigt Hill
#
# Bulk Modulus (GPa) = 34.34799 50.93970 42.64385
# Shear Modulus (GPa) = 13.56213 25.19660 19.37936
#
# Velocity S-wave (km/s) = 2.66156 3.62780 3.18157
# Velocity P-wave (km/s) = 5.23317 6.64493 5.98085
#
# Compressibility (1/GPa) = 0.02911378
#
# Stress axis : x y z
#
# Youngs Moduli (GPa) = 59.96138 77.83439 36.69887
#
# Poissons Ratio (x) = 0.39604 0.04330
# Poissons Ratio (y) = 0.30510 0.27751
# Poissons Ratio (z) = 0.07075 0.58857
#
# Static dielectric constant tensor:
#      x y z
#    x 1.649910 0.000000 0.013790 
#    y 0.000000 1.714650 0.000000 
#    z 0.013790 0.000000 1.728170 
# 
# From -- ./inp_files/45597.got.cif
#   From: 2010.05.17/outbox.cif.g08.bks.cpg/sg13_23_cif.got.tgz:45597.got - 2010.06.03 16:44:36.
