data_PCOD9228354
_publ_section_title
;
Structure prediction by ZEFSAII (Michael W. Deem and Ramdas Pophale) SiO2 
 PCOD9228354
Probable space group: P 2/C
;
_chemical_formula_sum "Si O2"
_cell_formula_units_Z 24
_cell_length_a 14.796111
_cell_length_b 8.932599
_cell_length_c 15.650185
_cell_angle_alpha 90.000000
_cell_angle_beta 143.828463
_cell_angle_gamma 90.000000
_cell_volume 1220.808577
_symmetry_space_group_name_H-M "P 2/C"
_symmetry_group_IT_number 13
_symmetry_cell_setting 'monoclinic'
loop_
_space_group_symop_operation_xyz
x,y,z
-x,y,1/2-z
-x,-y,-z
x,-y,1/2+z
loop_
_atom_site_type_symbol
_atom_site_label
_atom_site_fract_x
_atom_site_fract_y
_atom_site_fract_z
Si Si1 0.326849 0.097052 0.288675
Si Si2 0.332531 0.553626 0.837446
Si Si3 0.305875 0.922981 0.435976
Si Si4 0.678284 0.415316 0.858024
Si Si5 0.313067 0.073536 0.612376
Si Si6 0.821434 0.404166 0.623693
O O1 0.316373 0.270171 0.306263
O O2 0.509609 0.068798 0.424464
O O3 0.255859 0.991998 0.307794
O O4 0.267407 0.043723 0.151199
O O5 0.306785 0.473299 0.727093
O O6 0.217413 0.507601 0.824648
O O7 0.500000 0.500000 0.000000
O O8 0.259997 0.753249 0.418665
O O9 0.252145 0.022234 0.474455
O O10 0.500000 0.417666 0.750000
O O11 0.732284 0.243392 0.902591
O O12 0.760303 0.518689 0.990656
O O13 0.500000 0.072553 0.750000
O O14 0.000000 0.378357 0.750000
#
# Coordination Sequence:
#
# PCOD9228354 Si02
#       6
#     4   4   4   4   4   4
#     4  10  19  33  60  92 116 155 214 265 306 364
#     4  12  22  38  67  95 126 167 215 265 312 383
#     4  10  19  35  57  84 124 161 205 260 314 372
#     4  11  21  39  67  96 127 166 219 270 317 380
#     4   9  19  32  57  92 123 154 204 270 316 363
#     4  12  26  42  62  95 135 172 210 265 333 386
#
# _framework density 19.659101
#
# number of rings (size 3 to 8) (size 9 to 14) (size 15 to 20)
#    0.000    1.333    3.333    3.000    4.667    2.000 
#    0.000    3.333    0.000    4.000    0.000    0.000 
#    0.000    0.000    0.000    0.000    0.000    0.000 
#
# Total GULP energy -134018.597680 kJ/mol
# GULP energy per Si atom -5584.108237 kJ/mol
# Density = 1.961436 g / cm^3
# Si number density = 19.659101 Si / 1000 Ang^3
#
#
#
# Elastic Constant Matrix: (Units=GPa)
#
#
# Indices 1 2 3 4 5 6 
#
# 1 97.0094 35.9637 46.8653 0.0000 -46.9776 0.0000
# 2 35.9637 134.1820 32.6367 0.0000 -37.7968 0.0000
# 3 46.8653 32.6367 51.3364 0.0000 -31.1206 0.0000
# 4 0.0000 0.0000 0.0000 14.8127 0.0000 -23.5530
# 5 -46.9776 -37.7968 -31.1206 0.0000 36.5611 0.0000
# 6 0.0000 0.0000 0.0000 -23.5530 0.0000 28.3021
#
#
#
# Elastic Compliance Matrix: (Units=1/GPa)
#
#
# Indices 1 2 3 4 5 6 
#
# 1 0.030267 0.004052 -0.008454 0.000000 0.035882 0.000000
# 2 0.004052 0.011058 -0.001328 0.000000 0.015507 0.000000
# 3 -0.008454 -0.001328 0.042612 0.000000 0.024035 0.000000
# 4 0.000000 0.000000 0.000000 -0.208851 0.000000 -0.173806
# 5 0.035882 0.015507 0.024035 0.000000 0.109946 0.000000
# 6 0.000000 0.000000 0.000000 -0.173806 0.000000 -0.109308
#
#
# Mechanical properties :
#
#
# Convention : Reuss Voigt Hill
#
# Bulk Modulus (GPa) = 13.79796 57.05103 35.42449
# Shear Modulus (GPa) = -56.39772 27.07266 -14.66253
#
# Velocity S-wave (km/s) = -5.36191 3.71496 -2.73397
# Velocity P-wave (km/s) = 5.59461 6.89089 2.84471
#
# Compressibility (1/GPa) = 0.07247448
#
# Stress axis : x y z
#
# Youngs Moduli (GPa) = 33.03939 90.43458 23.46764
#
# Poissons Ratio (x) = -0.36641 0.19840
# Poissons Ratio (y) = -0.13386 0.03117
# Poissons Ratio (z) = 0.27933 0.12012
#
# Static dielectric constant tensor:
#      x y z
#    x 1.698230 0.000000 0.009140 
#    y 0.000000 1.691520 0.000000 
#    z 0.009140 0.000000 1.690680 
# 
# From -- ./inp_files/53184.got.cif
#   From: 2010.05.17/outbox.cif.g08.bks.cpg/sg13_27_cif.got.tgz:53184.got - 2010.06.03 16:44:36.
