data_PCOD9228433
_publ_section_title
;
Structure prediction by ZEFSAII (Michael W. Deem and Ramdas Pophale) SiO2 
 PCOD9228433
Probable space group: P 2/C
;
_chemical_formula_sum "Si O2"
_cell_formula_units_Z 30
_cell_length_a 12.006651
_cell_length_b 9.794378
_cell_length_c 15.449873
_cell_angle_alpha 90.000000
_cell_angle_beta 55.843952
_cell_angle_gamma 90.000000
_cell_volume 1503.480171
_symmetry_space_group_name_H-M "P 2/C"
_symmetry_group_IT_number 13
_symmetry_cell_setting 'monoclinic'
loop_
_space_group_symop_operation_xyz
x,y,z
-x,y,1/2-z
-x,-y,-z
x,-y,1/2+z
loop_
_atom_site_type_symbol
_atom_site_label
_atom_site_fract_x
_atom_site_fract_y
_atom_site_fract_z
Si Si1 0.146872 0.143405 0.664272
Si Si2 0.991916 0.381630 0.075018
Si Si3 0.543637 0.663908 0.325943
Si Si4 0.500000 0.876156 0.750000
Si Si5 0.410821 0.044297 0.619650
Si Si6 0.267267 0.452685 0.007769
Si Si7 0.805312 0.445716 0.776927
Si Si8 0.776574 0.250901 0.056601
O O1 0.255714 0.042891 0.659131
O O2 0.151878 0.294826 0.708112
O O3 0.179581 0.164266 0.547798
O O4 0.000000 0.089940 0.750000
O O5 0.921185 0.462090 0.184950
O O6 0.895657 0.265267 0.076428
O O7 0.147411 0.350546 0.030067
O O8 0.000000 0.500000 0.000000
O O9 0.500000 0.707280 0.250000
O O10 0.565190 0.796227 0.374049
O O11 0.417681 0.586183 0.419709
O O12 0.682178 0.579077 0.264294
O O13 0.366410 0.795581 0.840965
O O14 0.450237 0.963631 0.688938
O O15 0.500000 0.000000 0.500000
O O16 0.252980 0.476038 0.115586
O O17 0.241562 0.597346 0.973242
#
# Coordination Sequence:
#
# PCOD9228433 Si02
#       8
#     4   4   4   2   4   4   4   4
#     4  10  20  40  66  90 119 167 219 260 316 378
#     4  10  19  34  55  90 127 159 194 250 312 379
#     4  11  22  36  60  90 119 163 215 261 307 376
#     4  12  24  44  64  94 128 168 222 258 328 370
#     4  11  24  45  64  87 127 170 215 275 315 366
#     4  10  21  36  57  93 127 161 199 249 325 378
#     4  10  20  34  57  87 132 162 199 251 316 384
#     4  10  22  36  64  92 125 165 201 263 317 388
#
# _framework density 19.953706
#
# number of rings (size 3 to 8) (size 9 to 14) (size 15 to 20)
#    0.000    1.600    2.000    4.800    2.800    2.133 
#    0.000    2.000    0.000    0.000    0.000    0.000 
#    0.000    0.000    0.000    0.000    0.000    0.000 
#
# Total GULP energy -167390.250928 kJ/mol
# GULP energy per Si atom -5579.675031 kJ/mol
# Density = 1.990829 g / cm^3
# Si number density = 19.953706 Si / 1000 Ang^3
#
#
#
# Elastic Constant Matrix: (Units=GPa)
#
#
# Indices 1 2 3 4 5 6 
#
# 1 114.6753 19.1612 25.1865 0.0000 -15.9661 0.0000
# 2 19.1612 16.0048 13.9680 0.0000 0.4336 0.0000
# 3 25.1865 13.9680 102.7092 0.0000 -4.0089 0.0000
# 4 0.0000 0.0000 0.0000 18.4808 0.0000 -4.3209
# 5 -15.9661 0.4336 -4.0089 0.0000 37.3457 0.0000
# 6 0.0000 0.0000 0.0000 -4.3209 0.0000 23.9743
#
#
#
# Elastic Compliance Matrix: (Units=1/GPa)
#
#
# Indices 1 2 3 4 5 6 
#
# 1 0.011907 -0.013642 -0.000863 0.000000 0.005156 0.000000
# 2 -0.013642 0.086654 -0.008743 0.000000 -0.007777 0.000000
# 3 -0.000863 -0.008743 0.011173 0.000000 0.000932 0.000000
# 4 0.000000 0.000000 0.000000 0.056491 0.000000 0.010181
# 5 0.005156 -0.007777 0.000932 0.000000 0.029172 0.000000
# 6 0.000000 0.000000 0.000000 0.010181 0.000000 0.043546
#
#
# Mechanical properties :
#
#
# Convention : Reuss Voigt Hill
#
# Bulk Modulus (GPa) = 15.81308 38.89117 27.35212
# Shear Modulus (GPa) = 16.31223 27.63174 21.97198
#
# Velocity S-wave (km/s) = 2.86230 3.72532 3.32195
# Velocity P-wave (km/s) = 4.34348 6.16741 5.33398
#
# Compressibility (1/GPa) = 0.06323880
#
# Stress axis : x y z
#
# Youngs Moduli (GPa) = 83.98279 11.54013 89.49881
#
# Poissons Ratio (x) = 0.15743 0.07728
# Poissons Ratio (y) = 1.14566 0.78248
# Poissons Ratio (z) = 0.07252 0.10089
#
# Static dielectric constant tensor:
#      x y z
#    x 1.787090 0.000000 0.001870 
#    y 0.000000 1.681610 0.000000 
#    z 0.001870 0.000000 1.813920 
# 
# From -- ./inp_files/51156.got.cif
#   From: 2010.05.17/outbox.cif.g08.bks.cpg/sg13_26_cif.got.tgz:51156.got - 2010.06.03 16:44:36.
