data_PCOD9228200
_publ_section_title
;
Structure prediction by ZEFSAII (Michael W. Deem and Ramdas Pophale) SiO2 
 PCOD9228200
Probable space group: P 2/C
;
_chemical_formula_sum "Si O2"
_cell_formula_units_Z 28
_cell_length_a 29.002626
_cell_length_b 9.474298
_cell_length_c 8.685441
_cell_angle_alpha 90.000000
_cell_angle_beta 138.437830
_cell_angle_gamma 90.000000
_cell_volume 1583.335203
_symmetry_space_group_name_H-M "P 2/C"
_symmetry_group_IT_number 13
_symmetry_cell_setting 'monoclinic'
loop_
_space_group_symop_operation_xyz
x,y,z
-x,y,1/2-z
-x,-y,-z
x,-y,1/2+z
loop_
_atom_site_type_symbol
_atom_site_label
_atom_site_fract_x
_atom_site_fract_y
_atom_site_fract_z
Si Si1 0.348781 0.667516 0.179749
Si Si2 0.070180 0.826172 0.983350
Si Si3 0.930267 0.856287 0.151038
Si Si4 0.499369 0.658749 0.933563
Si Si5 0.347862 0.649833 0.547240
Si Si6 0.223245 0.169265 0.869098
Si Si7 0.776398 0.853006 0.761695
O O1 0.426666 0.724821 0.334036
O O2 0.344539 0.654185 0.353850
O O3 0.344137 0.511819 0.094414
O O4 0.286087 0.763141 0.964372
O O5 0.064225 0.847858 0.151416
O O6 0.146773 0.766377 0.142171
O O7 0.000000 0.751691 0.750000
O O8 0.071145 0.979586 0.903699
O O9 0.000000 0.793527 0.250000
O O10 0.854344 0.799000 0.913387
O O11 0.500000 0.652373 0.750000
O O12 0.422942 0.714257 0.785908
O O13 0.500000 0.500000 0.000000
O O14 0.284708 0.735350 0.460378
O O15 0.228228 0.014154 0.806898
O O16 0.227955 0.152025 0.064587
#
# Coordination Sequence:
#
# PCOD9228200 Si02
#       7
#     4   4   4   4   4   4   4
#     4  10  19  33  53  75  99 128 162 201 242 289
#     4   9  16  26  43  66  93 123 158 197 236 280
#     4   9  16  26  43  66  93 123 158 197 236 280
#     4   8  16  30  49  72  95 122 160 200 238 282
#     4  10  19  33  53  75  99 128 162 201 242 289
#     4  10  20  33  49  73 102 131 163 201 244 289
#     4  10  20  33  49  73 102 131 163 201 244 289
#
# _framework density 17.684190999999998
#
# number of rings (size 3 to 8) (size 9 to 14) (size 15 to 20)
#    0.000    2.571    0.000    3.429    0.000    4.571 
#    0.000    0.714    0.000    0.857    0.000    6.000 
#    0.000    0.000    0.000    0.000    0.000    0.000 
#
# Total GULP energy -155888.702450 kJ/mol
# GULP energy per Si atom -5567.453659 kJ/mol
# Density = 1.764394 g / cm^3
# Si number density = 17.684191 Si / 1000 Ang^3
#
#
#
# Elastic Constant Matrix: (Units=GPa)
#
#
# Indices 1 2 3 4 5 6 
#
# 1 75.5929 10.5983 41.3943 0.0000 38.9966 0.0000
# 2 10.5983 21.3000 25.1347 0.0000 16.9400 0.0000
# 3 41.3943 25.1347 123.5732 0.0000 43.9941 0.0000
# 4 0.0000 0.0000 0.0000 52.3064 0.0000 14.9082
# 5 38.9966 16.9400 43.9941 0.0000 42.0466 0.0000
# 6 0.0000 0.0000 0.0000 14.9082 0.0000 31.1066
#
#
#
# Elastic Compliance Matrix: (Units=1/GPa)
#
#
# Indices 1 2 3 4 5 6 
#
# 1 0.026681 0.010019 -0.001161 0.000000 -0.027568 0.000000
# 2 0.010019 0.076400 -0.007377 0.000000 -0.032353 0.000000
# 3 -0.001161 -0.007377 0.013610 0.000000 -0.010192 0.000000
# 4 0.000000 0.000000 0.000000 0.022143 0.000000 -0.010612
# 5 -0.027568 -0.032353 -0.010192 0.000000 0.073049 0.000000
# 6 0.000000 0.000000 0.000000 -0.010612 0.000000 0.037234
#
#
# Mechanical properties :
#
#
# Convention : Reuss Voigt Hill
#
# Bulk Modulus (GPa) = 8.35757 41.63563 24.99660
# Shear Modulus (GPa) = 17.48007 34.64785 26.06396
#
# Velocity S-wave (km/s) = 3.14738 4.43115 3.84325
# Velocity P-wave (km/s) = 4.23607 7.05516 5.81891
#
# Compressibility (1/GPa) = 0.11965195
#
# Stress axis : x y z
#
# Youngs Moduli (GPa) = 37.47945 13.08904 73.47427
#
# Poissons Ratio (x) = -0.13114 0.08530
# Poissons Ratio (y) = -0.37550 0.54206
# Poissons Ratio (z) = 0.04351 0.09656
#
# Static dielectric constant tensor:
#      x y z
#    x 1.629150 0.000000 0.046840 
#    y 0.000000 1.555920 0.000000 
#    z 0.046840 0.000000 1.656850 
# 
# From -- ./inp_files/24894.got.cif
#   From: 2010.05.17/outbox.cif.g08.bks.cpg/sg13_13_cif.got.tgz:24894.got - 2010.06.03 16:44:36.
