data_PCOD9228776
_publ_section_title
;
Structure prediction by ZEFSAII (Michael W. Deem and Ramdas Pophale) SiO2 
 PCOD9228776
Probable space group: P 2/C
;
_chemical_formula_sum "Si O2"
_cell_formula_units_Z 20
_cell_length_a 7.865155
_cell_length_b 21.808948
_cell_length_c 5.668138
_cell_angle_alpha 90.000000
_cell_angle_beta 118.193967
_cell_angle_gamma 90.000000
_cell_volume 856.904466
_symmetry_space_group_name_H-M "P 2/C"
_symmetry_group_IT_number 13
_symmetry_cell_setting 'monoclinic'
loop_
_space_group_symop_operation_xyz
x,y,z
-x,y,1/2-z
-x,-y,-z
x,-y,1/2+z
loop_
_atom_site_type_symbol
_atom_site_label
_atom_site_fract_x
_atom_site_fract_y
_atom_site_fract_z
Si Si1 0.702652 0.835486 0.014941
Si Si2 0.724948 0.475544 0.912132
Si Si3 0.000000 0.255403 0.750000
Si Si4 0.725043 0.977558 0.132878
Si Si5 0.500000 0.241362 0.750000
Si Si6 0.203483 0.667991 0.012901
O O1 0.746778 0.906361 0.080861
O O2 0.652372 0.803853 0.230363
O O3 0.872027 0.793661 0.016935
O O4 0.500000 0.831210 0.750000
O O5 0.500000 0.494843 0.750000
O O6 0.805263 0.499734 0.714673
O O7 0.737730 0.402176 0.927689
O O8 0.847932 0.300924 0.771217
O O9 0.801433 0.987849 0.449030
O O10 0.500000 0.000000 0.000000
O O11 0.627732 0.289697 0.985171
O O12 0.000000 0.671709 0.750000
#
# Coordination Sequence:
#
# PCOD9228776 Si02
#       6
#     4   4   2   4   2   4
#     4  11  21  39  66  87 131 168 219 271 335 386
#     4  10  23  44  70 101 132 173 223 274 330 397
#     4  10  26  42  58 102 126 170 226 274 322 404
#     4  10  19  35  63  95 123 167 223 268 324 399
#     4  10  22  40  62  92 120 182 212 270 332 390
#     4  11  23  42  65  93 133 168 226 270 330 397
#
# _framework density 23.339824
#
# number of rings (size 3 to 8) (size 9 to 14) (size 15 to 20)
#    0.000    1.600    3.000    2.400    2.800    0.800 
#    0.000    1.000    0.000    0.000    0.000    0.000 
#    0.000    0.000    0.000    0.000    0.000    0.000 
#
# Total GULP energy -111501.133580 kJ/mol
# GULP energy per Si atom -5575.056679 kJ/mol
# Density = 2.328670 g / cm^3
# Si number density = 23.339824 Si / 1000 Ang^3
#
#
#
# Elastic Constant Matrix: (Units=GPa)
#
#
# Indices 1 2 3 4 5 6 
#
# 1 84.3460 -2.7217 14.5912 0.0000 4.8772 0.0000
# 2 -2.7217 118.3190 28.8346 0.0000 -6.2672 0.0000
# 3 14.5912 28.8346 107.2488 0.0000 -9.3899 0.0000
# 4 0.0000 0.0000 0.0000 27.9368 0.0000 -5.3854
# 5 4.8772 -6.2672 -9.3899 0.0000 21.7858 0.0000
# 6 0.0000 0.0000 0.0000 -5.3854 0.0000 26.4648
#
#
#
# Elastic Compliance Matrix: (Units=1/GPa)
#
#
# Indices 1 2 3 4 5 6 
#
# 1 0.012457 0.000629 -0.002174 0.000000 -0.003545 0.000000
# 2 0.000629 0.009131 -0.002414 0.000000 0.001446 0.000000
# 3 -0.002174 -0.002414 0.010653 0.000000 0.004384 0.000000
# 4 0.000000 0.000000 0.000000 0.037256 0.000000 0.007581
# 5 -0.003545 0.001446 0.004384 0.000000 0.049000 0.000000
# 6 0.000000 0.000000 0.000000 0.007581 0.000000 0.039329
#
#
# Mechanical properties :
#
#
# Convention : Reuss Voigt Hill
#
# Bulk Modulus (GPa) = 41.11482 43.48020 42.29751
# Shear Modulus (GPa) = 28.75992 33.18481 30.97237
#
# Velocity S-wave (km/s) = 3.51412 3.77478 3.64678
# Velocity P-wave (km/s) = 5.84117 6.13745 5.99114
#
# Compressibility (1/GPa) = 0.02432213
#
# Stress axis : x y z
#
# Youngs Moduli (GPa) = 80.27408 109.51661 93.87272
#
# Poissons Ratio (x) = -0.06885 0.20410
# Poissons Ratio (y) = -0.05046 0.22660
# Poissons Ratio (z) = 0.17453 0.26436
#
# Static dielectric constant tensor:
#      x y z
#    x 1.997180 0.000000 0.023930 
#    y 0.000000 1.785910 0.000000 
#    z 0.023930 0.000000 1.966750 
# 
# From -- ./inp_files/1985.got.cif
#   From: 2010.05.17/outbox.cif.g08.bks.cpg/sg13_1_cif.got.tgz:1985.got - 2010.06.03 16:44:36.
