data_PCOD9228612
_publ_section_title
;
Structure prediction by ZEFSAII (Michael W. Deem and Ramdas Pophale) SiO2 
 PCOD9228612
Probable space group: P 2/C
;
_chemical_formula_sum "Si O2"
_cell_formula_units_Z 26
_cell_length_a 5.337229
_cell_length_b 11.532337
_cell_length_c 20.083497
_cell_angle_alpha 90.000000
_cell_angle_beta 91.834740
_cell_angle_gamma 90.000000
_cell_volume 1235.520033
_symmetry_space_group_name_H-M "P 2/C"
_symmetry_group_IT_number 13
_symmetry_cell_setting 'monoclinic'
loop_
_space_group_symop_operation_xyz
x,y,z
-x,y,1/2-z
-x,-y,-z
x,-y,1/2+z
loop_
_atom_site_type_symbol
_atom_site_label
_atom_site_fract_x
_atom_site_fract_y
_atom_site_fract_z
Si Si1 0.183449 0.273618 0.534875
Si Si2 0.842854 0.738753 0.690020
Si Si3 0.028382 0.574878 0.578523
Si Si4 0.481369 0.445112 0.890353
Si Si5 0.430250 0.878252 0.921721
Si Si6 0.500000 0.458538 0.250000
Si Si7 0.817037 0.095280 0.527654
O O1 0.055528 0.377033 0.493223
O O2 0.412540 0.324675 0.579362
O O3 0.279704 0.192480 0.476592
O O4 0.969721 0.195037 0.566990
O O5 0.006346 0.676022 0.634220
O O6 0.648503 0.822176 0.648973
O O7 0.709962 0.631380 0.726512
O O8 0.000000 0.799773 0.750000
O O9 0.805737 0.484038 0.599228
O O10 0.318888 0.537539 0.577624
O O11 0.546237 0.459523 0.813241
O O12 0.371212 0.016219 0.929477
O O13 0.699738 0.857945 0.957312
O O14 0.000000 0.000000 0.500000
#
# Coordination Sequence:
#
# PCOD9228612 Si02
#       7
#     4   4   4   4   4   2   4
#     4  10  21  32  56  80 113 151 183 237 295 340
#     4  10  19  35  56  83 114 153 187 236 292 348
#     4  10  22  34  54  84 119 148 191 232 285 344
#     4  11  22  36  53  82 120 154 194 233 276 354
#     4   9  20  35  57  85 112 143 193 247 300 349
#     4  10  22  34  52  80 124 156 198 232 288 352
#     4   9  19  36  56  81 109 141 188 243 300 348
#
# _framework density 21.043772000000001
#
# number of rings (size 3 to 8) (size 9 to 14) (size 15 to 20)
#    0.000    2.154    1.538    0.923    8.615    1.231 
#    0.000    0.000    0.000    5.538    0.000    0.000 
#    0.000    0.000    0.000    0.000    0.000    0.000 
#
# Total GULP energy -144754.724127 kJ/mol
# GULP energy per Si atom -5567.489389 kJ/mol
# Density = 2.099588 g / cm^3
# Si number density = 21.043772 Si / 1000 Ang^3
#
#
#
# Elastic Constant Matrix: (Units=GPa)
#
#
# Indices 1 2 3 4 5 6 
#
# 1 58.3625 15.0603 10.6332 0.0000 7.4142 0.0000
# 2 15.0603 76.6774 32.1738 0.0000 6.4925 0.0000
# 3 10.6332 32.1738 121.1782 0.0000 17.4312 0.0000
# 4 0.0000 0.0000 0.0000 18.9794 0.0000 15.2160
# 5 7.4142 6.4925 17.4312 0.0000 32.8393 0.0000
# 6 0.0000 0.0000 0.0000 15.2160 0.0000 33.8404
#
#
#
# Elastic Compliance Matrix: (Units=1/GPa)
#
#
# Indices 1 2 3 4 5 6 
#
# 1 0.018445 -0.003220 -0.000277 0.000000 -0.003381 0.000000
# 2 -0.003220 0.015264 -0.003725 0.000000 -0.000313 0.000000
# 3 -0.000277 -0.003725 0.009907 0.000000 -0.004460 0.000000
# 4 0.000000 0.000000 0.000000 0.082388 0.000000 -0.037045
# 5 -0.003381 -0.000313 -0.004460 0.000000 0.033644 0.000000
# 6 0.000000 0.000000 0.000000 -0.037045 0.000000 0.046208
#
#
# Mechanical properties :
#
#
# Convention : Reuss Voigt Hill
#
# Bulk Modulus (GPa) = 34.28051 41.32808 37.80430
# Shear Modulus (GPa) = 21.73682 30.35520 26.04601
#
# Velocity S-wave (km/s) = 3.21742 3.80212 3.52192
# Velocity P-wave (km/s) = 5.48888 6.24152 5.87726
#
# Compressibility (1/GPa) = 0.02917110
#
# Stress axis : x y z
#
# Youngs Moduli (GPa) = 54.21455 65.51492 100.93708
#
# Poissons Ratio (x) = 0.21098 0.02798
# Poissons Ratio (y) = 0.17459 0.37599
# Poissons Ratio (z) = 0.01503 0.24404
#
# Static dielectric constant tensor:
#      x y z
#    x 1.992610 0.000000 0.021090 
#    y 0.000000 1.888520 0.000000 
#    z 0.021090 0.000000 1.779690 
# 
# From -- ./inp_files/83585.got.cif
#   From: 2010.05.17/outbox.cif.g08.bks.cpg/sg13_42_cif.got.tgz:83585.got - 2010.06.03 16:44:36.
