data_PCOD9228344
_publ_section_title
;
Structure prediction by ZEFSAII (Michael W. Deem and Ramdas Pophale) SiO2 
 PCOD9228344
Probable space group: P 2/C
;
_chemical_formula_sum "Si O2"
_cell_formula_units_Z 20
_cell_length_a 6.765796
_cell_length_b 5.007637
_cell_length_c 27.891027
_cell_angle_alpha 90.000000
_cell_angle_beta 53.880333
_cell_angle_gamma 90.000000
_cell_volume 763.331919
_symmetry_space_group_name_H-M "P 2/C"
_symmetry_group_IT_number 13
_symmetry_cell_setting 'monoclinic'
loop_
_space_group_symop_operation_xyz
x,y,z
-x,y,1/2-z
-x,-y,-z
x,-y,1/2+z
loop_
_atom_site_type_symbol
_atom_site_label
_atom_site_fract_x
_atom_site_fract_y
_atom_site_fract_z
Si Si1 0.407908 0.227155 0.163418
Si Si2 0.302337 0.746119 0.240547
Si Si3 0.233103 0.568761 0.014533
Si Si4 0.354463 0.915983 0.440698
Si Si5 0.148774 0.404313 0.628173
O O1 0.410311 0.488023 0.196988
O O2 0.281365 0.343846 0.133767
O O3 0.265164 0.995048 0.211059
O O4 0.649344 0.071231 0.109589
O O5 0.500000 0.844749 0.250000
O O6 0.067129 0.664149 0.304605
O O7 0.262529 0.868233 0.991772
O O8 0.064097 0.547298 0.085732
O O9 0.500000 0.500000 0.000000
O O10 0.210677 0.354380 0.974524
O O11 0.637378 0.819059 0.403929
#
# Coordination Sequence:
#
# PCOD9228344 Si02
#       5
#     4   4   4   4   4
#     4  12  24  41  67  95 126 166 223 268 307 377
#     4  12  29  45  61  92 138 176 210 263 329 379
#     4  10  19  33  59 102 129 151 198 279 322 361
#     4  11  20  36  62 104 124 153 208 279 314 363
#     4  11  24  37  71  96 126 165 219 261 312 382
#
# _framework density 26.200923
#
# number of rings (size 3 to 8) (size 9 to 14) (size 15 to 20)
#    0.000    0.800    6.000    3.600    5.600    0.000 
#    0.000    0.000    0.000    7.200    0.000    0.000 
#    0.000    0.000    0.000    0.000    0.000    0.000 
#
# Total GULP energy -111889.006191 kJ/mol
# GULP energy per Si atom -5594.450310 kJ/mol
# Density = 2.614129 g / cm^3
# Si number density = 26.200923 Si / 1000 Ang^3
#
#
#
# Elastic Constant Matrix: (Units=GPa)
#
#
# Indices 1 2 3 4 5 6 
#
# 1 48.7273 28.1125 26.8463 0.0000 -1.6024 0.0000
# 2 28.1125 195.1955 87.9274 0.0000 6.8411 0.0000
# 3 26.8463 87.9274 187.2530 0.0000 30.7269 0.0000
# 4 0.0000 0.0000 0.0000 57.2337 0.0000 2.7561
# 5 -1.6024 6.8411 30.7269 0.0000 29.6128 0.0000
# 6 0.0000 0.0000 0.0000 2.7561 0.0000 21.5056
#
#
#
# Elastic Compliance Matrix: (Units=1/GPa)
#
#
# Indices 1 2 3 4 5 6 
#
# 1 0.023708 -0.002135 -0.003239 0.000000 0.005137 0.000000
# 2 -0.002135 0.006790 -0.003141 0.000000 0.001575 0.000000
# 3 -0.003239 -0.003141 0.008665 0.000000 -0.008440 0.000000
# 4 0.000000 0.000000 0.000000 0.017581 0.000000 -0.002253
# 5 0.005137 0.001575 -0.008440 0.000000 0.042441 0.000000
# 6 0.000000 0.000000 0.000000 -0.002253 0.000000 0.046788
#
#
# Mechanical properties :
#
#
# Convention : Reuss Voigt Hill
#
# Bulk Modulus (GPa) = 45.18344 79.66092 62.42218
# Shear Modulus (GPa) = 29.34601 40.88971 35.11786
#
# Velocity S-wave (km/s) = 3.35033 3.95476 3.66502
# Velocity P-wave (km/s) = 5.67879 7.16403 6.46421
#
# Compressibility (1/GPa) = 0.02213200
#
# Stress axis : x y z
#
# Youngs Moduli (GPa) = 42.17986 147.27194 115.41315
#
# Poissons Ratio (x) = 0.31448 0.37386
# Poissons Ratio (y) = 0.09007 0.36247
# Poissons Ratio (z) = 0.13663 0.46253
#
# Static dielectric constant tensor:
#      x y z
#    x 2.257890 0.000000 0.016880 
#    y 0.000000 1.992370 0.000000 
#    z 0.016880 0.000000 2.136200 
# 
# From -- ./inp_files/95282.got.cif
#   From: 2010.05.17/outbox.cif.g08.bks.cpg/sg13_48_cif.got.tgz:95282.got - 2010.06.03 16:44:36.
