data_PCOD9228500
_publ_section_title
;
Structure prediction by ZEFSAII (Michael W. Deem and Ramdas Pophale) SiO2 
 PCOD9228500
Probable space group: P 2/C
;
_chemical_formula_sum "Si O2"
_cell_formula_units_Z 20
_cell_length_a 8.598632
_cell_length_b 14.059476
_cell_length_c 8.474454
_cell_angle_alpha 90.000000
_cell_angle_beta 117.006133
_cell_angle_gamma 90.000000
_cell_volume 912.782738
_symmetry_space_group_name_H-M "P 2/C"
_symmetry_group_IT_number 13
_symmetry_cell_setting 'monoclinic'
loop_
_space_group_symop_operation_xyz
x,y,z
-x,y,1/2-z
-x,-y,-z
x,-y,1/2+z
loop_
_atom_site_type_symbol
_atom_site_label
_atom_site_fract_x
_atom_site_fract_y
_atom_site_fract_z
Si Si1 0.297084 0.373828 0.205042
Si Si2 0.371485 0.557223 0.059726
Si Si3 0.956166 0.215757 0.545018
Si Si4 0.689402 0.859776 0.352366
Si Si5 0.812067 0.029365 0.602157
O O1 0.500000 0.351373 0.250000
O O2 0.276498 0.379952 0.385206
O O3 0.263971 0.476740 0.105611
O O4 0.169767 0.295305 0.077995
O O5 0.500000 0.601988 0.250000
O O6 0.500000 0.500000 0.000000
O O7 0.862621 0.111892 0.499294
O O8 0.000000 0.233779 0.750000
O O9 0.144202 0.207634 0.549465
O O10 0.500000 0.815249 0.250000
O O11 0.724041 0.914758 0.204172
O O12 0.700464 0.943110 0.486220
O O13 0.000000 0.993643 0.750000
#
# Coordination Sequence:
#
# PCOD9228500 Si02
#       5
#     4   4   4   4   4
#     4   9  16  31  58  85 115 153 189 239 298 351
#     4   7  13  27  53  86 113 144 187 235 290 354
#     4   9  19  34  52  84 123 157 193 239 289 349
#     4  10  19  34  58  84 113 155 196 237 286 341
#     4   9  18  34  56  81 114 151 190 240 291 347
#
# _framework density 21.911017999999999
#
# number of rings (size 3 to 8) (size 9 to 14) (size 15 to 20)
#    0.000    4.000    0.000    3.000    0.000    0.800 
#    0.000    5.000    0.000   93.600    0.000    1.400 
#    0.000    0.000    0.000   11.200    0.000    0.000 
#
# Total GULP energy -111499.966257 kJ/mol
# GULP energy per Si atom -5574.998313 kJ/mol
# Density = 2.186115 g / cm^3
# Si number density = 21.911018 Si / 1000 Ang^3
#
#
#
# Elastic Constant Matrix: (Units=GPa)
#
#
# Indices 1 2 3 4 5 6 
#
# 1 45.3857 14.5097 25.6158 0.0000 7.3465 0.0000
# 2 14.5097 91.0496 75.4944 0.0000 11.5613 0.0000
# 3 25.6158 75.4944 114.3049 0.0000 -1.8445 0.0000
# 4 0.0000 0.0000 0.0000 38.1734 0.0000 11.6152
# 5 7.3465 11.5613 -1.8445 0.0000 39.1739 0.0000
# 6 0.0000 0.0000 0.0000 11.6152 0.0000 14.1769
#
#
#
# Elastic Compliance Matrix: (Units=1/GPa)
#
#
# Indices 1 2 3 4 5 6 
#
# 1 0.026704 0.003565 -0.008443 0.000000 -0.006458 0.000000
# 2 0.003565 0.027491 -0.019112 0.000000 -0.009682 0.000000
# 3 -0.008443 -0.019112 0.023398 0.000000 0.008326 0.000000
# 4 0.000000 0.000000 0.000000 0.034895 0.000000 -0.028590
# 5 -0.006458 -0.009682 0.008326 0.000000 0.029988 0.000000
# 6 0.000000 0.000000 0.000000 -0.028590 0.000000 0.093961
#
#
# Mechanical properties :
#
#
# Convention : Reuss Voigt Hill
#
# Bulk Modulus (GPa) = 33.76906 53.55334 43.66120
# Shear Modulus (GPa) = 16.99006 27.31285 22.15146
#
# Velocity S-wave (km/s) = 2.78764 3.53446 3.18303
# Velocity P-wave (km/s) = 5.08002 6.41490 5.78608
#
# Compressibility (1/GPa) = 0.02961291
#
# Stress axis : x y z
#
# Youngs Moduli (GPa) = 37.44707 36.37523 42.73875
#
# Poissons Ratio (x) = -0.12969 0.36086
# Poissons Ratio (y) = -0.13351 0.81683
# Poissons Ratio (z) = 0.31618 0.69521
#
# Static dielectric constant tensor:
#      x y z
#    x 1.835780 0.000000 -0.009470 
#    y 0.000000 1.833180 0.000000 
#    z -0.009470 0.000000 1.850840 
# 
# From -- ./inp_files/12898.got.cif
#   From: 2010.05.17/outbox.cif.g08.bks.cpg/sg13_7_cif.got.tgz:12898.got - 2010.06.03 16:44:36.
