data_PCOD9228182
_publ_section_title
;
Structure prediction by ZEFSAII (Michael W. Deem and Ramdas Pophale) SiO2 
 PCOD9228182
Probable space group: P 2/C
;
_chemical_formula_sum "Si O2"
_cell_formula_units_Z 32
_cell_length_a 17.725351
_cell_length_b 20.523196
_cell_length_c 17.054393
_cell_angle_alpha 90.000000
_cell_angle_beta 16.607044
_cell_angle_gamma 90.000000
_cell_volume 1773.159169
_symmetry_space_group_name_H-M "P 2/C"
_symmetry_group_IT_number 13
_symmetry_cell_setting 'monoclinic'
loop_
_space_group_symop_operation_xyz
x,y,z
-x,y,1/2-z
-x,-y,-z
x,-y,1/2+z
loop_
_atom_site_type_symbol
_atom_site_label
_atom_site_fract_x
_atom_site_fract_y
_atom_site_fract_z
Si Si1 0.934977 0.523037 0.905744
Si Si2 0.554765 0.558473 0.007108
Si Si3 0.351352 0.190008 0.565204
Si Si4 0.129605 0.029209 0.542555
Si Si5 0.385309 0.964323 0.039183
Si Si6 0.841075 0.815571 0.481935
Si Si7 0.007741 0.632545 0.149408
Si Si8 0.503740 0.324904 0.438400
O O1 0.000000 0.536819 0.750000
O O2 0.158852 0.550570 0.740188
O O3 0.937388 0.444677 0.913344
O O4 0.657434 0.550351 0.212153
O O5 0.500000 0.500000 0.000000
O O6 0.528426 0.625267 0.985549
O O7 0.404247 0.114388 0.533016
O O8 0.441346 0.250997 0.527541
O O9 0.043259 0.195875 0.852243
O O10 0.541009 0.201788 0.300229
O O11 0.421352 0.011929 0.223553
O O12 0.161322 0.106479 0.526200
O O13 0.000000 0.000206 0.750000
O O14 0.914287 0.021236 0.687866
O O15 0.500000 0.000000 0.000000
O O16 0.000000 0.787562 0.250000
O O17 0.735250 0.651228 0.379155
O O18 0.000000 0.645471 0.250000
O O19 0.236956 0.669339 0.873952
#
# Coordination Sequence:
#
# PCOD9228182 Si02
#       8
#     4   4   4   4   4   4   4   4
#     4  11  22  38  57  78 102 133 174 217 252 299
#     4  12  21  37  57  78 102 135 171 211 257 297
#     4  10  21  32  45  71 101 129 171 203 244 298
#     4   9  17  30  49  75 101 129 166 206 242 293
#     4  10  19  33  52  74 100 136 169 209 250 295
#     4   9  17  30  47  65  97 137 167 194 231 287
#     4  11  22  35  50  75 108 141 170 201 244 297
#     4  12  23  34  51  75 104 139 171 210 251 299
#
# _framework density 18.046885
#
# number of rings (size 3 to 8) (size 9 to 14) (size 15 to 20)
#    0.000    1.500    2.500    3.750    0.000    8.000 
#    0.000    0.000    0.000    0.000    0.000    5.250 
#    0.000    0.000    0.000    0.000    0.000    0.000 
#
# Total GULP energy -178522.100125 kJ/mol
# GULP energy per Si atom -5578.815629 kJ/mol
# Density = 1.800581 g / cm^3
# Si number density = 18.046885 Si / 1000 Ang^3
#
#
#
# Elastic Constant Matrix: (Units=GPa)
#
#
# Indices 1 2 3 4 5 6 
#
# 1 38.8930 20.3683 -14.9086 0.0000 4.1297 0.0000
# 2 20.3683 60.5091 -5.3455 0.0000 2.2132 0.0000
# 3 -14.9086 -5.3455 71.9447 0.0000 1.9251 0.0000
# 4 0.0000 0.0000 0.0000 12.6361 0.0000 -7.2405
# 5 4.1297 2.2132 1.9251 0.0000 22.4210 0.0000
# 6 0.0000 0.0000 0.0000 -7.2405 0.0000 7.3957
#
#
#
# Elastic Compliance Matrix: (Units=1/GPa)
#
#
# Indices 1 2 3 4 5 6 
#
# 1 0.034491 -0.010822 0.006500 0.000000 -0.005843 0.000000
# 2 -0.010822 0.020100 -0.000751 0.000000 0.000074 0.000000
# 3 0.006500 -0.000751 0.015256 0.000000 -0.002433 0.000000
# 4 0.000000 0.000000 0.000000 0.180258 0.000000 0.176473
# 5 -0.005843 0.000074 -0.002433 0.000000 0.045879 0.000000
# 6 0.000000 0.000000 0.000000 0.176473 0.000000 0.307981
#
#
# Mechanical properties :
#
#
# Convention : Reuss Voigt Hill
#
# Bulk Modulus (GPa) = 16.75059 19.06391 17.90725
# Shear Modulus (GPa) = 7.88628 19.90608 13.89618
#
# Velocity S-wave (km/s) = 2.09270 3.32478 2.77791
# Velocity P-wave (km/s) = 3.89115 5.03243 4.49813
#
# Compressibility (1/GPa) = 0.05969938
#
# Stress axis : x y z
#
# Youngs Moduli (GPa) = 28.99296 49.75037 65.54917
#
# Poissons Ratio (x) = 0.53842 -0.42604
# Poissons Ratio (y) = 0.31377 0.04924
# Poissons Ratio (z) = -0.18844 0.03737
#
# Static dielectric constant tensor:
#      x y z
#    x 1.625240 0.000000 0.023330 
#    y 0.000000 1.643710 0.000000 
#    z 0.023330 0.000000 1.636510 
# 
# From -- ./inp_files/53978.got.cif
#   From: 2010.05.17/outbox.cif.g08.bks.cpg/sg13_27_cif.got.tgz:53978.got - 2010.06.03 16:44:36.
