data_PCOD9228430
_publ_section_title
;
Structure prediction by ZEFSAII (Michael W. Deem and Ramdas Pophale) SiO2 
 PCOD9228430
Probable space group: P 2/C
;
_chemical_formula_sum "Si O2"
_cell_formula_units_Z 32
_cell_length_a 5.538422
_cell_length_b 15.065787
_cell_length_c 18.640393
_cell_angle_alpha 90.000000
_cell_angle_beta 54.980304
_cell_angle_gamma 90.000000
_cell_volume 1273.775456
_symmetry_space_group_name_H-M "P 2/C"
_symmetry_group_IT_number 13
_symmetry_cell_setting 'monoclinic'
loop_
_space_group_symop_operation_xyz
x,y,z
-x,y,1/2-z
-x,-y,-z
x,-y,1/2+z
loop_
_atom_site_type_symbol
_atom_site_label
_atom_site_fract_x
_atom_site_fract_y
_atom_site_fract_z
Si Si1 0.784777 0.352639 0.232435
Si Si2 0.292970 0.988171 0.403117
Si Si3 0.750640 0.763113 0.491361
Si Si4 0.847098 0.260801 0.455003
Si Si5 0.653279 0.157179 0.301100
Si Si6 0.591059 0.419876 0.582448
Si Si7 0.104190 0.101698 0.650741
Si Si8 0.891132 0.563649 0.426210
O O1 0.500000 0.399398 0.250000
O O2 0.667236 0.266381 0.297688
O O3 0.000000 0.400781 0.250000
O O4 0.970062 0.317982 0.132957
O O5 0.548049 0.926341 0.397017
O O6 0.139521 0.957598 0.352779
O O7 0.476830 0.079132 0.370300
O O8 0.000000 0.000000 0.500000
O O9 0.404853 0.788188 0.547156
O O10 0.891575 0.809650 0.398589
O O11 0.780358 0.655951 0.481982
O O12 0.924501 0.789766 0.533571
O O13 0.666780 0.321517 0.541767
O O14 0.500000 0.145996 0.250000
O O15 0.000000 0.133827 0.250000
O O16 0.757083 0.484078 0.496429
O O17 0.252265 0.437201 0.626927
O O18 0.760319 0.435816 0.626496
O O19 0.000000 0.112808 0.750000
#
# Coordination Sequence:
#
# PCOD9228430 Si02
#       8
#     4   4   4   4   4   4   4   4
#     4  10  21  34  53  80 113 150 180 218 279 344
#     4  12  26  44  66  89 112 146 199 251 293 350
#     4  10  21  36  57  83 113 147 193 240 278 332
#     4  10  19  34  55  86 117 147 191 237 278 333
#     4  10  21  38  59  81 109 145 180 221 280 348
#     4   8  14  25  47  76 110 143 179 230 277 320
#     4  12  26  44  63  87 121 156 189 240 308 362
#     4   8  14  27  47  76 107 142 184 228 277 322
#
# _framework density 25.122167000000001
#
# number of rings (size 3 to 8) (size 9 to 14) (size 15 to 20)
#    0.000    2.000    0.000    4.125    0.000    6.000 
#    0.000    1.250    0.000    0.750    0.000    1.750 
#    0.000    0.000    0.000    0.000    0.000    0.000 
#
# Total GULP energy -178459.826112 kJ/mol
# GULP energy per Si atom -5576.869566 kJ/mol
# Density = 2.506499 g / cm^3
# Si number density = 25.122167 Si / 1000 Ang^3
#
#
#
# Elastic Constant Matrix: (Units=GPa)
#
#
# Indices 1 2 3 4 5 6 
#
# 1 300.6457 0.0444 23.5774 0.0000 -11.2768 0.0000
# 2 0.0444 70.7271 8.9892 0.0000 0.1462 0.0000
# 3 23.5774 8.9892 72.2434 0.0000 3.5502 0.0000
# 4 0.0000 0.0000 0.0000 41.8826 0.0000 -6.4805
# 5 -11.2768 0.1462 3.5502 0.0000 34.9027 0.0000
# 6 0.0000 0.0000 0.0000 -6.4805 0.0000 5.9635
#
#
#
# Elastic Compliance Matrix: (Units=1/GPa)
#
#
# Indices 1 2 3 4 5 6 
#
# 1 0.003468 0.000149 -0.001211 0.000000 0.001243 0.000000
# 2 0.000149 0.014373 -0.001846 0.000000 0.000176 0.000000
# 3 -0.001211 -0.001846 0.014559 0.000000 -0.001865 0.000000
# 4 0.000000 0.000000 0.000000 0.028702 0.000000 0.031191
# 5 0.001243 0.000176 -0.001865 0.000000 0.029242 0.000000
# 6 0.000000 0.000000 0.000000 0.031191 0.000000 0.201581
#
#
# Mechanical properties :
#
#
# Convention : Reuss Voigt Hill
#
# Bulk Modulus (GPa) = 37.61715 56.53758 47.07736
# Shear Modulus (GPa) = 16.30782 43.95009 30.12896
#
# Velocity S-wave (km/s) = 2.55059 4.18719 3.46684
# Velocity P-wave (km/s) = 4.86623 6.77721 5.89961
#
# Compressibility (1/GPa) = 0.02658362
#
# Stress axis : x y z
#
# Youngs Moduli (GPa) = 288.36919 69.57494 68.68724
#
# Poissons Ratio (x) = -0.01038 0.08321
# Poissons Ratio (y) = -0.04303 0.12678
# Poissons Ratio (z) = 0.34933 0.12842
#
# Static dielectric constant tensor:
#      x y z
#    x 2.118170 0.000000 -0.024280 
#    y 0.000000 1.974450 0.000000 
#    z -0.024280 0.000000 1.971670 
# 
# From -- ./inp_files/74010.got.cif
#   From: 2010.05.17/outbox.cif.g08.bks.cpg/sg13_38_cif.got.tgz:74010.got - 2010.06.03 16:44:36.
