data_PCOD9228298
_publ_section_title
;
Structure prediction by ZEFSAII (Michael W. Deem and Ramdas Pophale) SiO2 
 PCOD9228298
Probable space group: P 2/C
;
_chemical_formula_sum "Si O2"
_cell_formula_units_Z 26
_cell_length_a 11.074458
_cell_length_b 10.520761
_cell_length_c 17.567569
_cell_angle_alpha 90.000000
_cell_angle_beta 32.809928
_cell_angle_gamma 90.000000
_cell_volume 1109.081519
_symmetry_space_group_name_H-M "P 2/C"
_symmetry_group_IT_number 13
_symmetry_cell_setting 'monoclinic'
loop_
_space_group_symop_operation_xyz
x,y,z
-x,y,1/2-z
-x,-y,-z
x,-y,1/2+z
loop_
_atom_site_type_symbol
_atom_site_label
_atom_site_fract_x
_atom_site_fract_y
_atom_site_fract_z
Si Si1 0.000000 0.972233 0.750000
Si Si2 0.566027 0.943134 0.047378
Si Si3 0.500000 0.379325 0.750000
Si Si4 0.000000 0.586433 0.250000
Si Si5 0.009539 0.293229 0.493771
Si Si6 0.300381 0.438228 0.462323
Si Si7 0.161741 0.192590 0.774047
Si Si8 0.568641 0.201814 0.301311
O O1 0.100037 0.070542 0.757873
O O2 0.183740 0.900801 0.603464
O O3 0.421324 0.825733 0.152536
O O4 0.500000 0.000000 0.000000
O O5 0.505452 0.062740 0.132857
O O6 0.510561 0.470932 0.670524
O O7 0.748601 0.318451 0.614491
O O8 0.833832 0.512365 0.393660
O O9 0.882411 0.682599 0.252242
O O10 0.134608 0.404056 0.478201
O O11 0.171400 0.244063 0.341020
O O12 0.985632 0.187809 0.572616
O O13 0.419761 0.306313 0.423578
O O14 0.500000 0.215953 0.250000
#
# Coordination Sequence:
#
# PCOD9228298 Si02
#       8
#     2   4   2   2   4   4   4   4
#     4   9  16  32  58  77 108 151 194 220 270 337
#     4  10  19  33  56  84 112 150 190 228 283 339
#     4  12  22  38  60  80 116 154 188 240 312 332
#     4   9  18  36  64  83 112 143 200 242 276 343
#     4  10  21  37  55  83 115 148 189 240 287 347
#     4  10  19  36  64  85 105 147 198 244 283 345
#     4   9  18  35  54  81 115 146 185 231 284 337
#     4  10  19  35  59  88 109 147 202 239 275 343
#
# _framework density 23.442820999999999
#
# number of rings (size 3 to 8) (size 9 to 14) (size 15 to 20)
#    0.000    2.154    2.308    5.077    0.000    0.615 
#    6.923    3.077    6.769    0.000    0.000    0.000 
#    0.000    0.000    0.000    0.000    0.000    0.000 
#
# Total GULP energy -144793.079886 kJ/mol
# GULP energy per Si atom -5568.964611 kJ/mol
# Density = 2.338946 g / cm^3
# Si number density = 23.442821 Si / 1000 Ang^3
#
#
#
# Elastic Constant Matrix: (Units=GPa)
#
#
# Indices 1 2 3 4 5 6 
#
# 1 29.3488 2.9569 19.2475 0.0000 -14.7593 0.0000
# 2 2.9569 23.2528 19.2510 0.0000 -8.4505 0.0000
# 3 19.2475 19.2510 184.6329 0.0000 -10.5045 0.0000
# 4 0.0000 0.0000 0.0000 25.0167 0.0000 -7.6471
# 5 -14.7593 -8.4505 -10.5045 0.0000 40.1296 0.0000
# 6 0.0000 0.0000 0.0000 -7.6471 0.0000 5.3141
#
#
#
# Elastic Compliance Matrix: (Units=1/GPa)
#
#
# Indices 1 2 3 4 5 6 
#
# 1 0.044461 0.003562 -0.004094 0.000000 0.016031 0.000000
# 2 0.003562 0.050594 -0.005041 0.000000 0.010645 0.000000
# 3 -0.004094 -0.005041 0.006317 0.000000 -0.000914 0.000000
# 4 0.000000 0.000000 0.000000 0.071366 0.000000 0.102698
# 5 0.016031 0.010645 -0.000914 0.000000 0.032818 0.000000
# 6 0.000000 0.000000 0.000000 0.102698 0.000000 0.335964
#
#
# Mechanical properties :
#
#
# Convention : Reuss Voigt Hill
#
# Bulk Modulus (GPa) = 11.08340 35.57169 23.32754
# Shear Modulus (GPa) = 8.58014 27.14402 17.86208
#
# Velocity S-wave (km/s) = 1.91520 3.40646 2.76333
# Velocity P-wave (km/s) = 3.10302 5.53884 4.48929
#
# Compressibility (1/GPa) = 0.09022504
#
# Stress axis : x y z
#
# Youngs Moduli (GPa) = 22.49164 19.76500 158.31359
#
# Poissons Ratio (x) = -0.07040 0.64818
# Poissons Ratio (y) = -0.08011 0.79806
# Poissons Ratio (z) = 0.09209 0.09963
#
# Static dielectric constant tensor:
#      x y z
#    x 1.800370 0.000000 0.009490 
#    y 0.000000 18.409290 0.000000 
#    z 0.009490 0.000000 1.999800 
# 
# From -- ./inp_files/66628.got.cif
#   From: 2010.05.17/outbox.cif.g08.bks.cpg/sg13_34_cif.got.tgz:66628.got - 2010.06.03 16:44:36.
