data_PCOD9228398
_publ_section_title
;
Structure prediction by ZEFSAII (Michael W. Deem and Ramdas Pophale) SiO2 
 PCOD9228398
Probable space group: P 2/C
;
_chemical_formula_sum "Si O2"
_cell_formula_units_Z 28
_cell_length_a 19.551855
_cell_length_b 12.871857
_cell_length_c 10.847115
_cell_angle_alpha 90.000000
_cell_angle_beta 34.035865
_cell_angle_gamma 90.000000
_cell_volume 1527.945399
_symmetry_space_group_name_H-M "P 2/C"
_symmetry_group_IT_number 13
_symmetry_cell_setting 'monoclinic'
loop_
_space_group_symop_operation_xyz
x,y,z
-x,y,1/2-z
-x,-y,-z
x,-y,1/2+z
loop_
_atom_site_type_symbol
_atom_site_label
_atom_site_fract_x
_atom_site_fract_y
_atom_site_fract_z
Si Si1 0.355602 0.606505 0.501576
Si Si2 0.639668 0.833373 0.589752
Si Si3 0.366109 0.373999 0.510653
Si Si4 0.612909 0.193703 0.413142
Si Si5 0.129857 0.089936 0.092511
Si Si6 0.786704 0.027239 0.267427
Si Si7 0.658302 0.744503 0.200130
O O1 0.311840 0.489586 0.588570
O O2 0.346913 0.686356 0.627925
O O3 0.297847 0.668253 0.473612
O O4 0.500000 0.601568 0.250000
O O5 0.500000 0.835690 0.750000
O O6 0.694582 0.720504 0.473623
O O7 0.635683 0.844941 0.741587
O O8 0.712148 0.925244 0.418087
O O9 0.375811 0.328729 0.633600
O O10 0.500000 0.383759 0.250000
O O11 0.691054 0.120310 0.385330
O O12 0.466694 0.196413 0.651670
O O13 0.133266 0.053677 0.230655
O O14 0.000000 0.138084 0.250000
O O15 0.239860 0.172119 0.917533
O O16 0.149964 0.000549 0.958090
#
# Coordination Sequence:
#
# PCOD9228398 Si02
#       7
#     4   4   4   4   4   4   4
#     4   9  21  31  55  86 119 155 184 230 282 353
#     4  11  21  33  54  87 123 154 181 230 290 353
#     4  10  19  34  53  85 125 154 182 226 290 355
#     4  11  21  36  57  91 124 148 189 232 297 352
#     4  12  26  43  60  83 117 158 202 242 288 347
#     4  12  24  40  63  87 117 153 193 246 295 349
#     4  11  21  38  57  87 118 157 190 233 294 344
#
# _framework density 18.325263
#
# number of rings (size 3 to 8) (size 9 to 14) (size 15 to 20)
#    0.000    1.143    7.143    0.429    4.000    2.857 
#    0.000    0.000    0.000    0.857    0.000    0.000 
#    0.000    0.000    0.000    0.000    0.000    0.000 
#
# Total GULP energy -156118.304460 kJ/mol
# GULP energy per Si atom -5575.653731 kJ/mol
# Density = 1.828355 g / cm^3
# Si number density = 18.325263 Si / 1000 Ang^3
#
#
#
# Elastic Constant Matrix: (Units=GPa)
#
#
# Indices 1 2 3 4 5 6 
#
# 1 125.4944 29.7921 29.5982 0.0000 8.5989 0.0000
# 2 29.7921 93.8846 5.8031 0.0000 -10.8632 0.0000
# 3 29.5982 5.8031 21.5119 0.0000 1.3334 0.0000
# 4 0.0000 0.0000 0.0000 4.0612 0.0000 13.2729
# 5 8.5989 -10.8632 1.3334 0.0000 30.8972 0.0000
# 6 0.0000 0.0000 0.0000 13.2729 0.0000 24.2036
#
#
#
# Elastic Compliance Matrix: (Units=1/GPa)
#
#
# Indices 1 2 3 4 5 6 
#
# 1 0.013053 -0.003591 -0.016733 0.000000 -0.004173 0.000000
# 2 -0.003591 0.012322 0.001290 0.000000 0.005276 0.000000
# 3 -0.016733 0.001290 0.069029 0.000000 0.002131 0.000000
# 4 0.000000 0.000000 0.000000 -0.310804 0.000000 0.170441
# 5 -0.004173 0.005276 0.002131 0.000000 0.035290 0.000000
# 6 0.000000 0.000000 0.000000 0.170441 0.000000 -0.052151
#
#
# Mechanical properties :
#
#
# Convention : Reuss Voigt Hill
#
# Bulk Modulus (GPa) = 17.75076 41.25308 29.50192
# Shear Modulus (GPa) = -28.34215 23.54557 -2.39829
#
# Velocity S-wave (km/s) = -3.93697 3.58840 -1.14524
# Velocity P-wave (km/s) = 3.31041 6.30311 3.79279
#
# Compressibility (1/GPa) = 0.05633562
#
# Stress axis : x y z
#
# Youngs Moduli (GPa) = 76.60876 81.15844 14.48676
#
# Poissons Ratio (x) = 0.29142 0.24240
# Poissons Ratio (y) = 0.27508 -0.01868
# Poissons Ratio (z) = 1.28188 -0.10466
#
# Static dielectric constant tensor:
#      x y z
#    x 1.669350 0.000000 0.037650 
#    y 0.000000 1.657280 0.000000 
#    z 0.037650 0.000000 1.646560 
# 
# From -- ./inp_files/40755.got.cif
#   From: 2010.05.17/outbox.cif.g08.bks.cpg/sg13_21_cif.got.tgz:40755.got - 2010.06.03 16:44:36.
