data_PCOD9228828
_publ_section_title
;
Structure prediction by ZEFSAII (Michael W. Deem and Ramdas Pophale) SiO2 
 PCOD9228828
Probable space group: P 2/C
;
_chemical_formula_sum "Si O2"
_cell_formula_units_Z 28
_cell_length_a 16.071299
_cell_length_b 6.636146
_cell_length_c 14.051191
_cell_angle_alpha 90.000000
_cell_angle_beta 52.823085
_cell_angle_gamma 90.000000
_cell_volume 1194.029085
_symmetry_space_group_name_H-M "P 2/C"
_symmetry_group_IT_number 13
_symmetry_cell_setting 'monoclinic'
loop_
_space_group_symop_operation_xyz
x,y,z
-x,y,1/2-z
-x,-y,-z
x,-y,1/2+z
loop_
_atom_site_type_symbol
_atom_site_label
_atom_site_fract_x
_atom_site_fract_y
_atom_site_fract_z
Si Si1 0.518957 0.548319 0.338836
Si Si2 0.639167 0.050737 0.490261
Si Si3 0.053350 0.184110 0.518970
Si Si4 0.588728 0.109206 0.309519
Si Si5 0.665381 0.616424 0.408946
Si Si6 0.229147 0.889304 0.432009
Si Si7 0.139979 0.439585 0.844628
O O1 0.500000 0.644881 0.250000
O O2 0.475117 0.002779 0.387541
O O3 0.592126 0.652570 0.366327
O O4 0.574482 0.334190 0.279966
O O5 0.619401 0.136374 0.399055
O O6 0.689212 0.831779 0.437811
O O7 0.589295 0.501154 0.533552
O O8 0.714626 0.168328 0.508893
O O9 0.106142 0.347552 0.412218
O O10 0.959500 0.316532 0.628433
O O11 0.142251 0.061099 0.512968
O O12 0.000000 0.000000 0.500000
O O13 0.680252 0.996425 0.192128
O O14 0.771357 0.527584 0.294937
O O15 0.184162 0.704546 0.399972
#
# Coordination Sequence:
#
# PCOD9228828 Si02
#       7
#     4   4   4   4   4   4   4
#     4  10  21  38  59  93 133 180 227 277 341 418
#     4  10  21  36  55  92 130 172 222 272 341 401
#     4   9  21  40  69  94 127 170 219 290 355 403
#     4  10  19  36  56  85 131 174 215 279 335 405
#     4  10  20  39  59  92 132 173 227 286 337 410
#     4  11  20  38  65  91 128 181 221 279 341 411
#     4  10  20  39  65  99 126 171 228 282 349 413
#
# _framework density 23.450015
#
# number of rings (size 3 to 8) (size 9 to 14) (size 15 to 20)
#    0.000    2.000    1.429    3.000    0.000    0.000 
#   12.857    0.714    0.000    0.000    3.714    0.000 
#    0.000    0.000    0.000    0.000    0.000    0.000 
#
# Total GULP energy -156635.187152 kJ/mol
# GULP energy per Si atom -5594.113827 kJ/mol
# Density = 2.339664 g / cm^3
# Si number density = 23.450015 Si / 1000 Ang^3
#
#
#
# Elastic Constant Matrix: (Units=GPa)
#
#
# Indices 1 2 3 4 5 6 
#
# 1 107.9538 44.4963 41.2932 0.0000 4.9941 0.0000
# 2 44.4963 100.6268 24.2317 0.0000 -7.6139 0.0000
# 3 41.2932 24.2317 90.6802 0.0000 -8.4531 0.0000
# 4 0.0000 0.0000 0.0000 33.6016 0.0000 -11.8407
# 5 4.9941 -7.6139 -8.4531 0.0000 47.3065 0.0000
# 6 0.0000 0.0000 0.0000 -11.8407 0.0000 35.3530
#
#
#
# Elastic Compliance Matrix: (Units=1/GPa)
#
#
# Indices 1 2 3 4 5 6 
#
# 1 0.013376 -0.004931 -0.005064 0.000000 -0.003111 0.000000
# 2 -0.004931 0.012509 -0.000876 0.000000 0.002377 0.000000
# 3 -0.005064 -0.000876 0.013835 0.000000 0.002866 0.000000
# 4 0.000000 0.000000 0.000000 0.033743 0.000000 0.011301
# 5 -0.003111 0.002377 0.002866 0.000000 0.022362 0.000000
# 6 0.000000 0.000000 0.000000 0.011301 0.000000 0.032071
#
#
# Mechanical properties :
#
#
# Convention : Reuss Voigt Hill
#
# Bulk Modulus (GPa) = 55.61810 57.70033 56.65921
# Shear Modulus (GPa) = 32.12762 35.86821 33.99791
#
# Velocity S-wave (km/s) = 3.70543 3.91520 3.81176
# Velocity P-wave (km/s) = 6.48661 6.71547 6.60203
#
# Compressibility (1/GPa) = 0.01797976
#
# Stress axis : x y z
#
# Youngs Moduli (GPa) = 74.75859 79.94331 72.28211
#
# Poissons Ratio (x) = 0.39420 0.36600
# Poissons Ratio (y) = 0.36863 0.06329
# Poissons Ratio (z) = 0.37854 0.07000
#
# Static dielectric constant tensor:
#      x y z
#    x 1.902680 0.000000 -0.011250 
#    y 0.000000 1.979370 0.000000 
#    z -0.011250 0.000000 1.848810 
# 
# From -- ./inp_files/54435.got.cif
#   From: 2010.05.17/outbox.cif.g08.bks.cpg/sg13_28_cif.got.tgz:54435.got - 2010.06.03 16:44:36.
