data_PCOD9228232
_publ_section_title
;
Structure prediction by ZEFSAII (Michael W. Deem and Ramdas Pophale) SiO2 
 PCOD9228232
Probable space group: P 2/C
;
_chemical_formula_sum "Si O2"
_cell_formula_units_Z 20
_cell_length_a 7.866528
_cell_length_b 13.345233
_cell_length_c 13.593694
_cell_angle_alpha 90.000000
_cell_angle_beta 138.921995
_cell_angle_gamma 90.000000
_cell_volume 937.710764
_symmetry_space_group_name_H-M "P 2/C"
_symmetry_group_IT_number 13
_symmetry_cell_setting 'monoclinic'
loop_
_space_group_symop_operation_xyz
x,y,z
-x,y,1/2-z
-x,-y,-z
x,-y,1/2+z
loop_
_atom_site_type_symbol
_atom_site_label
_atom_site_fract_x
_atom_site_fract_y
_atom_site_fract_z
Si Si1 0.824210 0.162802 0.077822
Si Si2 0.726919 0.029981 0.430410
Si Si3 0.214081 0.241841 0.078501
Si Si4 0.344029 0.551514 0.581661
Si Si5 0.724056 0.369035 0.079214
O O1 0.637536 0.257536 0.012563
O O2 0.000000 0.142064 0.250000
O O3 0.016349 0.204829 0.076060
O O4 0.684476 0.060456 0.987034
O O5 0.500000 0.030167 0.250000
O O6 0.757168 0.144809 0.479536
O O7 0.000000 0.000000 0.500000
O O8 0.500000 0.254893 0.250000
O O9 0.153821 0.352895 0.012518
O O10 0.500000 0.532448 0.750000
O O11 0.238757 0.447616 0.492768
O O12 0.538079 0.588285 0.581262
O O13 0.000000 0.355284 0.250000
#
# Coordination Sequence:
#
# PCOD9228232 Si02
#       5
#     4   4   4   4   4
#     4  10  19  33  54  79 106 138 179 224 271 324
#     4   9  19  36  55  79 110 144 182 222 270 329
#     4   9  17  33  54  74 102 140 176 215 273 327
#     4  10  20  35  54  75 103 140 179 220 269 323
#     4  10  21  35  52  79 108 137 179 224 269 323
#
# _framework density 21.328538000000002
#
# number of rings (size 3 to 8) (size 9 to 14) (size 15 to 20)
#    0.000    2.400    0.000    4.800    0.000    4.000 
#    0.000   23.000    0.000    0.000    0.000    0.000 
#    0.000    0.000    0.000    0.000    0.000    0.000 
#
# Total GULP energy -111497.603117 kJ/mol
# GULP energy per Si atom -5574.880156 kJ/mol
# Density = 2.127999 g / cm^3
# Si number density = 21.328538 Si / 1000 Ang^3
#
#
#
# Elastic Constant Matrix: (Units=GPa)
#
#
# Indices 1 2 3 4 5 6 
#
# 1 56.0201 16.9924 9.0336 0.0000 -6.5299 0.0000
# 2 16.9924 174.2218 60.3742 0.0000 -42.4754 0.0000
# 3 9.0336 60.3742 50.2460 0.0000 -16.4706 0.0000
# 4 0.0000 0.0000 0.0000 -253.9108 0.0000 -358.0436
# 5 -6.5299 -42.4754 -16.4706 0.0000 28.0744 0.0000
# 6 0.0000 0.0000 0.0000 -358.0436 0.0000 -36.8657
#
#
#
# Elastic Compliance Matrix: (Units=1/GPa)
#
#
# Indices 1 2 3 4 5 6 
#
# 1 0.018604 -0.000605 -0.001857 0.000000 0.002323 0.000000
# 2 -0.000605 0.012680 -0.011001 0.000000 0.012591 0.000000
# 3 -0.001857 -0.011001 0.034489 0.000000 0.003159 0.000000
# 4 0.000000 0.000000 0.000000 0.000310 0.000000 -0.003013
# 5 0.002323 0.012591 0.003159 0.000000 0.057062 0.000000
# 6 0.000000 0.000000 0.000000 -0.003013 0.000000 0.002137
#
#
# Mechanical properties :
#
#
# Convention : Reuss Voigt Hill
#
# Bulk Modulus (GPa) = 25.73999 50.36536 38.05267
# Shear Modulus (GPa) = 30.27414 -39.60125 -4.66356
#
# Velocity S-wave (km/s) = 3.77161 -4.31365 -1.48030
# Velocity P-wave (km/s) = 5.57326 1.06993 3.86759
#
# Compressibility (1/GPa) = 0.03885006
#
# Stress axis : x y z
#
# Youngs Moduli (GPa) = 53.75082 78.86126 28.99445
#
# Poissons Ratio (x) = 0.04770 0.05383
# Poissons Ratio (y) = 0.03251 0.31896
# Poissons Ratio (z) = 0.09980 0.86752
#
# Static dielectric constant tensor:
#      x y z
#    x 1.813050 0.000000 -0.021220 
#    y 0.000000 1.880990 0.000000 
#    z -0.021220 0.000000 1.685970 
# 
# From -- ./inp_files/29812.got.cif
#   From: 2010.05.17/outbox.cif.g08.bks.cpg/sg13_15_cif.got.tgz:29812.got - 2010.06.03 16:44:36.
