data_PCOD9228701
_publ_section_title
;
Structure prediction by ZEFSAII (Michael W. Deem and Ramdas Pophale) SiO2 
 PCOD9228701
Probable space group: P 2/C
;
_chemical_formula_sum "Si O2"
_cell_formula_units_Z 24
_cell_length_a 14.975830
_cell_length_b 10.217588
_cell_length_c 20.275940
_cell_angle_alpha 90.000000
_cell_angle_beta 20.756337
_cell_angle_gamma 90.000000
_cell_volume 1099.530330
_symmetry_space_group_name_H-M "P 2/C"
_symmetry_group_IT_number 13
_symmetry_cell_setting 'monoclinic'
loop_
_space_group_symop_operation_xyz
x,y,z
-x,y,1/2-z
-x,-y,-z
x,-y,1/2+z
loop_
_atom_site_type_symbol
_atom_site_label
_atom_site_fract_x
_atom_site_fract_y
_atom_site_fract_z
Si Si1 0.089578 0.015203 0.258068
Si Si2 0.234882 0.183518 0.269936
Si Si3 0.767776 0.621985 0.097774
Si Si4 0.224471 0.879385 0.917745
Si Si5 0.258614 0.279647 0.607095
Si Si6 0.888910 0.619353 0.160766
O O1 0.205329 0.874229 0.159575
O O2 0.000000 0.072224 0.250000
O O3 0.870658 0.983721 0.462870
O O4 0.263286 0.110304 0.180691
O O5 0.233917 0.086346 0.333549
O O6 0.975847 0.263976 0.446430
O O7 0.476488 0.277621 0.113692
O O8 0.500000 0.649607 0.250000
O O9 0.742791 0.598077 0.193527
O O10 0.904175 0.493789 0.974510
O O11 0.500000 0.838840 0.750000
O O12 0.039359 0.755989 0.050431
O O13 0.281325 0.362630 0.657779
O O14 0.000000 0.323194 0.750000
#
# Coordination Sequence:
#
# PCOD9228701 Si02
#       6
#     4   4   4   4   4   4
#     4  10  21  36  55  82 117 155 192 239 293 345
#     4  11  22  36  57  86 120 152 189 238 297 352
#     4  10  22  39  59  85 118 155 191 233 291 350
#     4  10  19  35  60  84 107 149 202 243 283 339
#     4  10  21  38  60  85 111 147 196 246 289 332
#     4   9  20  38  60  82 111 150 193 240 286 338
#
# _framework density 21.827501000000002
#
# number of rings (size 3 to 8) (size 9 to 14) (size 15 to 20)
#    0.000    2.000    0.000    4.500    0.000    5.333 
#    0.000    5.833    0.000    0.000    0.000    0.000 
#    0.000    0.000    0.000    0.000    0.000    0.000 
#
# Total GULP energy -133949.831386 kJ/mol
# GULP energy per Si atom -5581.242974 kJ/mol
# Density = 2.177782 g / cm^3
# Si number density = 21.827501 Si / 1000 Ang^3
#
#
#
# Elastic Constant Matrix: (Units=GPa)
#
#
# Indices 1 2 3 4 5 6 
#
# 1 141.6403 23.2371 62.5255 0.0000 -4.1548 0.0000
# 2 23.2371 30.7219 1.4120 0.0000 0.7979 0.0000
# 3 62.5255 1.4120 109.2269 0.0000 -19.0149 0.0000
# 4 0.0000 0.0000 0.0000 22.1562 0.0000 1.3046
# 5 -4.1548 0.7979 -19.0149 0.0000 30.2470 0.0000
# 6 0.0000 0.0000 0.0000 1.3046 0.0000 10.9647
#
#
#
# Elastic Compliance Matrix: (Units=1/GPa)
#
#
# Indices 1 2 3 4 5 6 
#
# 1 0.011346 -0.008202 -0.006827 0.000000 -0.002517 0.000000
# 2 -0.008202 0.038542 0.004294 0.000000 0.000556 0.000000
# 3 -0.006827 0.004294 0.014401 0.000000 0.008002 0.000000
# 4 0.000000 0.000000 0.000000 0.045453 0.000000 -0.005408
# 5 -0.002517 0.000556 0.008002 0.000000 0.037731 0.000000
# 6 0.000000 0.000000 0.000000 -0.005408 0.000000 0.091845
#
#
# Mechanical properties :
#
#
# Convention : Reuss Voigt Hill
#
# Bulk Modulus (GPa) = 23.35462 50.65981 37.00722
# Shear Modulus (GPa) = 18.17783 25.63453 21.90618
#
# Velocity S-wave (km/s) = 2.88895 3.43069 3.17141
# Velocity P-wave (km/s) = 4.67449 6.24119 5.51377
#
# Compressibility (1/GPa) = 0.04281808
#
# Stress axis : x y z
#
# Youngs Moduli (GPa) = 88.14037 25.94557 69.44119
#
# Poissons Ratio (x) = 0.21281 0.47406
# Poissons Ratio (y) = 0.72295 -0.29817
# Poissons Ratio (z) = 0.60171 -0.11141
#
# Static dielectric constant tensor:
#      x y z
#    x 1.830910 0.000000 0.021270 
#    y 0.000000 1.824390 0.000000 
#    z 0.021270 0.000000 1.851150 
# 
# From -- ./inp_files/80139.got.cif
#   From: 2010.05.17/outbox.cif.g08.bks.cpg/sg13_41_cif.got.tgz:80139.got - 2010.06.03 16:44:36.
