data_PCOD9228684
_publ_section_title
;
Structure prediction by ZEFSAII (Michael W. Deem and Ramdas Pophale) SiO2 
 PCOD9228684
Probable space group: P 2/C
;
_chemical_formula_sum "Si O2"
_cell_formula_units_Z 18
_cell_length_a 7.403579
_cell_length_b 12.439173
_cell_length_c 7.076729
_cell_angle_alpha 90.000000
_cell_angle_beta 77.492387
_cell_angle_gamma 90.000000
_cell_volume 636.259828
_symmetry_space_group_name_H-M "P 2/C"
_symmetry_group_IT_number 13
_symmetry_cell_setting 'monoclinic'
loop_
_space_group_symop_operation_xyz
x,y,z
-x,y,1/2-z
-x,-y,-z
x,-y,1/2+z
loop_
_atom_site_type_symbol
_atom_site_label
_atom_site_fract_x
_atom_site_fract_y
_atom_site_fract_z
Si Si1 0.280862 0.858141 0.337555
Si Si2 0.721447 0.903560 0.731207
Si Si3 0.214996 0.673435 0.888011
Si Si4 0.821151 0.630530 0.063272
Si Si5 0.500000 0.466929 0.250000
O O1 0.500000 0.857791 0.250000
O O2 0.245595 0.866383 0.566808
O O3 0.208434 0.740497 0.312827
O O4 0.208386 0.974101 0.287638
O O5 0.500000 0.908480 0.750000
O O6 0.793933 0.803489 0.590958
O O7 0.210689 0.645932 0.659497
O O8 0.409514 0.624211 0.911793
O O9 0.041473 0.614305 0.019135
O O10 0.674961 0.546763 0.181012
#
# Coordination Sequence:
#
# PCOD9228684 Si02
#       5
#     4   4   4   4   2
#     4  10  19  35  59  87 119 154 193 239 294 353
#     4  10  19  35  59  87 119 154 193 239 294 353
#     4  10  22  38  58  86 118 153 195 245 296 346
#     4  10  22  38  58  86 118 153 195 245 296 346
#     4  12  20  40  62  80 112 156 204 242 290 350
#
# _framework density 28.290330999999998
#
# number of rings (size 3 to 8) (size 9 to 14) (size 15 to 20)
#    0.000    1.778    2.222    4.000    0.000    0.889 
#    0.000    0.000    0.000   12.000    0.000    0.000 
#    0.000    0.000    0.000    0.000    0.000    0.000 
#
# Total GULP energy -100475.045700 kJ/mol
# GULP energy per Si atom -5581.946983 kJ/mol
# Density = 2.822594 g / cm^3
# Si number density = 28.290331 Si / 1000 Ang^3
#
#
#
# Elastic Constant Matrix: (Units=GPa)
#
#
# Indices 1 2 3 4 5 6 
#
# 1 139.4012 51.4613 28.1899 0.0000 -55.9197 0.0000
# 2 51.4613 249.8270 53.9794 0.0000 -53.4537 0.0000
# 3 28.1899 53.9794 113.6981 0.0000 -28.9840 0.0000
# 4 0.0000 0.0000 0.0000 -88.3495 0.0000 -11.1449
# 5 -55.9197 -53.4537 -28.9840 0.0000 64.8954 0.0000
# 6 0.0000 0.0000 0.0000 -11.1449 0.0000 18.0045
#
#
#
# Elastic Compliance Matrix: (Units=1/GPa)
#
#
# Indices 1 2 3 4 5 6 
#
# 1 0.010987 -0.000248 -0.000276 0.000000 0.009140 0.000000
# 2 -0.000248 0.005087 -0.001512 0.000000 0.003301 0.000000
# 3 -0.000276 -0.001512 0.010386 0.000000 0.003155 0.000000
# 4 0.000000 0.000000 0.000000 -0.010499 0.000000 -0.006499
# 5 0.009140 0.003301 0.003155 0.000000 0.027413 0.000000
# 6 0.000000 0.000000 0.000000 -0.006499 0.000000 0.051519
#
#
# Mechanical properties :
#
#
# Convention : Reuss Voigt Hill
#
# Bulk Modulus (GPa) = 44.66824 85.57640 65.12232
# Shear Modulus (GPa) = 46.97971 23.52980 35.25476
#
# Velocity S-wave (km/s) = 4.07950 2.88709 3.53395
# Velocity P-wave (km/s) = 6.16549 6.43652 6.30246
#
# Compressibility (1/GPa) = 0.02238727
#
# Stress axis : x y z
#
# Youngs Moduli (GPa) = 91.01295 196.58563 96.28447
#
# Poissons Ratio (x) = 0.04873 0.02662
# Poissons Ratio (y) = 0.02256 0.14559
# Poissons Ratio (z) = 0.02516 0.29725
#
# Static dielectric constant tensor:
#      x y z
#    x 2.351510 0.000000 0.148980 
#    y 0.000000 2.319540 0.000000 
#    z 0.148980 0.000000 2.249780 
# 
# From -- ./inp_files/11610.got.cif
#   From: 2010.05.17/outbox.cif.g08.bks.cpg/sg13_6_cif.got.tgz:11610.got - 2010.06.03 16:44:36.
