data_PCOD9228565
_publ_section_title
;
Structure prediction by ZEFSAII (Michael W. Deem and Ramdas Pophale) SiO2 
 PCOD9228565
Probable space group: P 2/C
;
_chemical_formula_sum "Si O2"
_cell_formula_units_Z 28
_cell_length_a 5.313079
_cell_length_b 14.566772
_cell_length_c 15.777533
_cell_angle_alpha 90.000000
_cell_angle_beta 76.429181
_cell_angle_gamma 90.000000
_cell_volume 1187.000725
_symmetry_space_group_name_H-M "P 2/C"
_symmetry_group_IT_number 13
_symmetry_cell_setting 'monoclinic'
loop_
_space_group_symop_operation_xyz
x,y,z
-x,y,1/2-z
-x,-y,-z
x,-y,1/2+z
loop_
_atom_site_type_symbol
_atom_site_label
_atom_site_fract_x
_atom_site_fract_y
_atom_site_fract_z
Si Si1 0.787229 0.184783 0.697143
Si Si2 0.786751 0.485861 0.441811
Si Si3 0.535256 0.160130 0.986715
Si Si4 0.263349 0.862306 0.834022
Si Si5 0.122822 0.678994 0.091879
Si Si6 0.949585 0.029141 0.909122
Si Si7 0.065048 0.285791 0.080507
O O1 0.500000 0.176750 0.750000
O O2 0.868817 0.284347 0.658462
O O3 0.854508 0.113565 0.618968
O O4 0.000000 0.157833 0.750000
O O5 0.500000 0.500000 0.500000
O O6 0.810673 0.383161 0.402571
O O7 0.000000 0.500000 0.500000
O O8 0.821415 0.576845 0.382430
O O9 0.641300 0.142422 0.074915
O O10 0.261700 0.206175 0.033337
O O11 0.658221 0.242507 0.918746
O O12 0.657139 0.070021 0.929066
O O13 0.500000 0.873588 0.750000
O O14 0.118647 0.764322 0.837789
O O15 0.054464 0.945280 0.844371
O O16 0.083284 0.685317 0.993750
O O17 0.000000 0.000000 0.000000
#
# Coordination Sequence:
#
# PCOD9228565 Si02
#       7
#     4   4   4   4   4   4   4
#     4  11  25  42  64  93 132 170 211 262 328 391
#     4  10  19  34  63  96 123 158 212 268 317 370
#     4   9  18  35  61  88 115 154 214 259 315 366
#     4  10  21  38  55  83 129 163 206 254 325 384
#     4   9  20  37  61  89 124 161 206 266 317 377
#     4   9  20  42  63  89 120 162 216 267 314 382
#     4  10  20  35  62  93 118 162 214 267 316 381
#
# _framework density 23.588864000000001
#
# number of rings (size 3 to 8) (size 9 to 14) (size 15 to 20)
#    0.000    2.286    1.429    1.286    4.000    1.143 
#    7.714    0.714    3.143    0.000    0.000    0.000 
#    0.000    0.000    0.000    0.000    0.000    0.000 
#
# Total GULP energy -156060.165243 kJ/mol
# GULP energy per Si atom -5573.577330 kJ/mol
# Density = 2.353517 g / cm^3
# Si number density = 23.588864 Si / 1000 Ang^3
#
#
#
# Elastic Constant Matrix: (Units=GPa)
#
#
# Indices 1 2 3 4 5 6 
#
# 1 76.9295 42.1829 39.1536 0.0000 -27.3503 0.0000
# 2 42.1829 197.5272 61.0785 0.0000 -38.1562 0.0000
# 3 39.1536 61.0785 103.1752 0.0000 -30.4609 0.0000
# 4 0.0000 0.0000 0.0000 15.1253 0.0000 -6.8475
# 5 -27.3503 -38.1562 -30.4609 0.0000 43.0227 0.0000
# 6 0.0000 0.0000 0.0000 -6.8475 0.0000 24.0769
#
#
#
# Elastic Compliance Matrix: (Units=1/GPa)
#
#
# Indices 1 2 3 4 5 6 
#
# 1 0.018478 -0.001195 -0.003982 0.000000 0.007868 0.000000
# 2 -0.001195 0.006768 -0.002535 0.000000 0.003448 0.000000
# 3 -0.003982 -0.002535 0.014277 0.000000 0.005329 0.000000
# 4 0.000000 0.000000 0.000000 0.075885 0.000000 0.021582
# 5 0.007868 0.003448 0.005329 0.000000 0.035076 0.000000
# 6 0.000000 0.000000 0.000000 0.021582 0.000000 0.047671
#
#
# Mechanical properties :
#
#
# Convention : Reuss Voigt Hill
#
# Bulk Modulus (GPa) = 41.49534 73.60686 57.55110
# Shear Modulus (GPa) = 22.56200 32.12611 27.34406
#
# Velocity S-wave (km/s) = 3.09604 3.69442 3.40839
# Velocity P-wave (km/s) = 5.51451 7.03350 6.31981
#
# Compressibility (1/GPa) = 0.02409909
#
# Stress axis : x y z
#
# Youngs Moduli (GPa) = 54.11865 147.76229 70.04108
#
# Poissons Ratio (x) = 0.17657 0.27889
# Poissons Ratio (y) = 0.06467 0.17756
# Poissons Ratio (z) = 0.21549 0.37458
#
# Static dielectric constant tensor:
#      x y z
#    x 1.517420 0.000000 -0.218690 
#    y 0.000000 2.016190 0.000000 
#    z -0.218690 0.000000 1.773700 
# 
# From -- ./inp_files/61496.got.cif
#   From: 2010.05.17/outbox.cif.g08.bks.cpg/sg13_31_cif.got.tgz:61496.got - 2010.06.03 16:44:36.
