data_PCOD9228609
_publ_section_title
;
Structure prediction by ZEFSAII (Michael W. Deem and Ramdas Pophale) SiO2 
 PCOD9228609
Probable space group: P 2/C
;
_chemical_formula_sum "Si O2"
_cell_formula_units_Z 28
_cell_length_a 8.050841
_cell_length_b 7.032123
_cell_length_c 29.925860
_cell_angle_alpha 90.000000
_cell_angle_beta 55.823302
_cell_angle_gamma 90.000000
_cell_volume 1401.658294
_symmetry_space_group_name_H-M "P 2/C"
_symmetry_group_IT_number 13
_symmetry_cell_setting 'monoclinic'
loop_
_space_group_symop_operation_xyz
x,y,z
-x,y,1/2-z
-x,-y,-z
x,-y,1/2+z
loop_
_atom_site_type_symbol
_atom_site_label
_atom_site_fract_x
_atom_site_fract_y
_atom_site_fract_z
Si Si1 0.610205 0.518216 0.551842
Si Si2 0.996675 0.761849 0.137345
Si Si3 0.089939 0.179172 0.325168
Si Si4 0.603961 0.568039 0.774490
Si Si5 0.192632 0.462529 0.168963
Si Si6 0.425253 0.203304 0.526346
Si Si7 0.198079 0.567771 0.886340
O O1 0.395416 0.533848 0.609185
O O2 0.592573 0.311566 0.531206
O O3 0.617094 0.666632 0.510503
O O4 0.778638 0.557983 0.563905
O O5 0.040785 0.612814 0.170180
O O6 0.214982 0.811540 0.084228
O O7 0.868294 0.640054 0.121176
O O8 0.899857 0.956146 0.168730
O O9 0.280265 0.266029 0.269684
O O10 0.065628 0.282625 0.377714
O O11 0.904157 0.254652 0.323479
O O12 0.500000 0.448541 0.750000
O O13 0.756373 0.487642 0.787897
O O14 0.417853 0.622122 0.834148
O O15 0.500000 0.000000 0.500000
#
# Coordination Sequence:
#
# PCOD9228609 Si02
#       7
#     4   4   4   4   4   4   4
#     4   9  19  36  57  80 110 148 186 226 277 329
#     4  10  21  36  58  84 112 145 185 230 278 331
#     4  10  19  35  56  81 110 143 181 226 279 333
#     4   9  18  36  56  75 105 142 181 224 274 326
#     4   9  18  36  57  78 109 144 181 229 276 327
#     4  10  20  35  57  85 112 146 188 228 275 334
#     4   9  20  38  56  78 111 147 184 231 279 327
#
# _framework density 19.976338999999999
#
# number of rings (size 3 to 8) (size 9 to 14) (size 15 to 20)
#    0.000    2.571    0.000    1.286    0.000    2.857 
#    0.000   29.286    0.000    0.000    0.000    0.000 
#    0.000    0.000    0.000    0.000    0.000    0.000 
#
# Total GULP energy -155926.509580 kJ/mol
# GULP energy per Si atom -5568.803914 kJ/mol
# Density = 1.993087 g / cm^3
# Si number density = 19.976339 Si / 1000 Ang^3
#
#
#
# Elastic Constant Matrix: (Units=GPa)
#
#
# Indices 1 2 3 4 5 6 
#
# 1 68.2387 4.1477 16.0408 0.0000 31.6995 0.0000
# 2 4.1477 70.0875 -2.0915 0.0000 -5.8023 0.0000
# 3 16.0408 -2.0915 67.5734 0.0000 10.1375 0.0000
# 4 0.0000 0.0000 0.0000 22.0903 0.0000 -5.2485
# 5 31.6995 -5.8023 10.1375 0.0000 40.7891 0.0000
# 6 0.0000 0.0000 0.0000 -5.2485 0.0000 10.7009
#
#
#
# Elastic Compliance Matrix: (Units=1/GPa)
#
#
# Indices 1 2 3 4 5 6 
#
# 1 0.024110 -0.003042 -0.003055 0.000000 -0.018411 0.000000
# 2 -0.003042 0.014823 0.000530 0.000000 0.004341 0.000000
# 3 -0.003055 0.000530 0.015761 0.000000 -0.001467 0.000000
# 4 0.000000 0.000000 0.000000 0.051240 0.000000 0.025131
# 5 -0.018411 0.004341 -0.001467 0.000000 0.039807 0.000000
# 6 0.000000 0.000000 0.000000 0.025131 0.000000 0.105776
#
#
# Mechanical properties :
#
#
# Convention : Reuss Voigt Hill
#
# Bulk Modulus (GPa) = 22.95797 26.89928 24.92863
# Shear Modulus (GPa) = 18.03939 27.23623 22.63781
#
# Velocity S-wave (km/s) = 3.00832 3.69646 3.37000
# Velocity P-wave (km/s) = 4.85635 5.63145 5.25820
#
# Compressibility (1/GPa) = 0.04355786
#
# Stress axis : x y z
#
# Youngs Moduli (GPa) = 41.47649 67.46225 63.44958
#
# Poissons Ratio (x) = 0.20523 0.19387
# Poissons Ratio (y) = 0.12618 -0.03361
# Poissons Ratio (z) = 0.12673 -0.03573
#
# Static dielectric constant tensor:
#      x y z
#    x 1.789870 0.000000 0.000930 
#    y 0.000000 1.675570 0.000000 
#    z 0.000930 0.000000 1.739310 
# 
# From -- ./inp_files/95466.got.cif
#   From: 2010.05.17/outbox.cif.g08.bks.cpg/sg13_48_cif.got.tgz:95466.got - 2010.06.03 16:44:36.
