data_PCOD9228626
_publ_section_title
;
Structure prediction by ZEFSAII (Michael W. Deem and Ramdas Pophale) SiO2 
 PCOD9228626
Probable space group: P 2/C
;
_chemical_formula_sum "Si O2"
_cell_formula_units_Z 30
_cell_length_a 10.879972
_cell_length_b 14.537618
_cell_length_c 8.745327
_cell_angle_alpha 90.000000
_cell_angle_beta 94.996854
_cell_angle_gamma 90.000000
_cell_volume 1377.981526
_symmetry_space_group_name_H-M "P 2/C"
_symmetry_group_IT_number 13
_symmetry_cell_setting 'monoclinic'
loop_
_space_group_symop_operation_xyz
x,y,z
-x,y,1/2-z
-x,-y,-z
x,-y,1/2+z
loop_
_atom_site_type_symbol
_atom_site_label
_atom_site_fract_x
_atom_site_fract_y
_atom_site_fract_z
Si Si1 0.957726 0.838130 0.567974
Si Si2 0.385246 0.257305 0.352970
Si Si3 0.243197 0.315332 0.048859
Si Si4 0.723754 0.933172 0.647906
Si Si5 0.000000 0.495750 0.750000
Si Si6 0.481506 0.400134 0.928629
Si Si7 0.045325 0.366422 0.502113
Si Si8 0.219596 0.109389 0.994368
O O1 0.847965 0.909309 0.568499
O O2 0.000000 0.821491 0.750000
O O3 0.912340 0.738908 0.501960
O O4 0.070029 0.880520 0.483045
O O5 0.500000 0.255791 0.250000
O O6 0.275342 0.294973 0.231421
O O7 0.364270 0.152197 0.403410
O O8 0.421547 0.327668 0.488480
O O9 0.255556 0.214717 0.974773
O O10 0.345777 0.373894 0.975404
O O11 0.104899 0.353714 0.018630
O O12 0.744842 0.920669 0.830153
O O13 0.708841 0.039686 0.607618
O O14 0.921971 0.425993 0.846159
O O15 0.924964 0.565255 0.633806
O O16 0.500000 0.401106 0.750000
O O17 0.500000 0.500000 0.000000
#
# Coordination Sequence:
#
# PCOD9228626 Si02
#       8
#     4   4   4   4   2   4   4   4
#     4   9  17  34  56  76 113 152 184 230 282 337
#     4   9  20  39  60  83 112 149 192 236 288 338
#     4   9  20  40  60  79 115 154 185 238 292 336
#     4  10  19  35  57  83 110 152 186 232 286 340
#     4  10  22  34  54  80 116 148 194 232 278 344
#     4  11  23  41  61  87 114 145 193 241 282 339
#     4  10  20  38  53  81 115 150 191 234 284 343
#     4   9  19  34  56  83 115 145 189 229 286 341
#
# _framework density 21.770972
#
# number of rings (size 3 to 8) (size 9 to 14) (size 15 to 20)
#    0.000    2.400    0.667    2.400    0.000    3.200 
#    9.600    6.667    0.000    0.000    0.000    0.000 
#    0.000    0.000    0.000    0.000    0.000    0.000 
#
# Total GULP energy -167386.990585 kJ/mol
# GULP energy per Si atom -5579.566353 kJ/mol
# Density = 2.172142 g / cm^3
# Si number density = 21.770972 Si / 1000 Ang^3
#
#
#
# Elastic Constant Matrix: (Units=GPa)
#
#
# Indices 1 2 3 4 5 6 
#
# 1 39.6004 25.1842 7.8313 0.0000 -0.7936 0.0000
# 2 25.1842 149.2472 45.3891 0.0000 -4.0466 0.0000
# 3 7.8313 45.3891 64.3445 0.0000 -8.4176 0.0000
# 4 0.0000 0.0000 0.0000 38.3994 0.0000 -17.4218
# 5 -0.7936 -4.0466 -8.4176 0.0000 15.0252 0.0000
# 6 0.0000 0.0000 0.0000 -17.4218 0.0000 20.6284
#
#
#
# Elastic Compliance Matrix: (Units=1/GPa)
#
#
# Indices 1 2 3 4 5 6 
#
# 1 0.028289 -0.004747 -0.000071 0.000000 0.000176 0.000000
# 2 -0.004747 0.009346 -0.006170 0.000000 -0.001191 0.000000
# 3 -0.000071 -0.006170 0.021242 0.000000 0.010235 0.000000
# 4 0.000000 0.000000 0.000000 0.042219 0.000000 0.035657
# 5 0.000176 -0.001191 0.010235 0.000000 0.071977 0.000000
# 6 0.000000 0.000000 0.000000 0.035657 0.000000 0.078591
#
#
# Mechanical properties :
#
#
# Convention : Reuss Voigt Hill
#
# Bulk Modulus (GPa) = 27.10158 45.55568 36.32863
# Shear Modulus (GPa) = 17.48613 26.46310 21.97461
#
# Velocity S-wave (km/s) = 2.83713 3.49022 3.18048
# Velocity P-wave (km/s) = 4.81746 6.10021 5.49638
#
# Compressibility (1/GPa) = 0.03689822
#
# Stress axis : x y z
#
# Youngs Moduli (GPa) = 35.34967 107.00239 47.07743
#
# Poissons Ratio (x) = 0.50794 0.00336
# Poissons Ratio (y) = 0.16780 0.29049
# Poissons Ratio (z) = 0.00253 0.66025
#
# Static dielectric constant tensor:
#      x y z
#    x 1.836240 0.000000 0.007980 
#    y 0.000000 1.790340 0.000000 
#    z 0.007980 0.000000 1.762630 
# 
# From -- ./inp_files/16500.got.cif
#   From: 2010.05.17/outbox.cif.g08.bks.cpg/sg13_9_cif.got.tgz:16500.got - 2010.06.03 16:44:36.
