data_PCOD9228827
_publ_section_title
;
Structure prediction by ZEFSAII (Michael W. Deem and Ramdas Pophale) SiO2 
 PCOD9228827
Probable space group: P 2/C
;
_chemical_formula_sum "Si O2"
_cell_formula_units_Z 32
_cell_length_a 16.438221
_cell_length_b 11.206518
_cell_length_c 14.874665
_cell_angle_alpha 90.000000
_cell_angle_beta 35.629683
_cell_angle_gamma 90.000000
_cell_volume 1596.252290
_symmetry_space_group_name_H-M "P 2/C"
_symmetry_group_IT_number 13
_symmetry_cell_setting 'monoclinic'
loop_
_space_group_symop_operation_xyz
x,y,z
-x,y,1/2-z
-x,-y,-z
x,-y,1/2+z
loop_
_atom_site_type_symbol
_atom_site_label
_atom_site_fract_x
_atom_site_fract_y
_atom_site_fract_z
Si Si1 0.842828 0.408919 0.876480
Si Si2 0.421626 0.240758 0.416729
Si Si3 0.854067 0.186377 0.354936
Si Si4 0.109618 0.610115 0.818453
Si Si5 0.528420 0.732064 0.331722
Si Si6 0.577435 0.970928 0.085988
Si Si7 0.400916 0.612506 0.601215
Si Si8 0.192010 0.388588 0.949090
O O1 0.863661 0.505159 0.777933
O O2 0.000000 0.358996 0.750000
O O3 0.723845 0.312958 0.961278
O O4 0.795825 0.490091 0.004043
O O5 0.500000 0.245007 0.250000
O O6 0.522572 0.304347 0.396798
O O7 0.401523 0.104213 0.467078
O O8 0.875135 0.261545 0.244777
O O9 0.724582 0.096960 0.466015
O O10 0.832639 0.285621 0.452490
O O11 0.000000 0.124204 0.250000
O O12 0.238611 0.596497 0.770341
O O13 0.945880 0.604621 0.988960
O O14 0.500000 0.726849 0.250000
O O15 0.522163 0.869755 0.368881
O O16 0.406614 0.668808 0.496185
O O17 0.669205 0.658976 0.223309
O O18 0.500000 0.988557 0.250000
O O19 0.500000 0.500000 0.500000
#
# Coordination Sequence:
#
# PCOD9228827 Si02
#       8
#     4   4   4   4   4   4   4   4
#     4   9  18  35  58  85 118 152 192 242 298 355
#     4  11  26  40  56  83 123 165 192 237 296 347
#     4   9  15  29  57  88 113 145 192 243 290 338
#     4   9  17  34  54  89 116 140 192 248 296 344
#     4  11  20  36  63  90 113 149 195 246 288 343
#     4  10  19  36  56  85 115 152 203 235 282 352
#     4  12  24  37  60  89 118 151 199 244 290 362
#     4   9  17  30  61  87 113 146 185 251 301 334
#
# _framework density 20.046956000000002
#
# number of rings (size 3 to 8) (size 9 to 14) (size 15 to 20)
#    0.000    2.000    5.000    2.250    1.750    1.000 
#    0.000    1.875    0.000    0.750    0.000    0.000 
#    0.000    0.000    0.000    0.000    0.000    0.000 
#
# Total GULP energy -178404.202066 kJ/mol
# GULP energy per Si atom -5575.131315 kJ/mol
# Density = 2.000133 g / cm^3
# Si number density = 20.046956 Si / 1000 Ang^3
#
#
#
# Elastic Constant Matrix: (Units=GPa)
#
#
# Indices 1 2 3 4 5 6 
#
# 1 95.8432 47.4986 45.0948 0.0000 -33.2630 0.0000
# 2 47.4986 112.6909 45.7835 0.0000 -23.8067 0.0000
# 3 45.0948 45.7835 102.1980 0.0000 -40.0904 0.0000
# 4 0.0000 0.0000 0.0000 17.3832 0.0000 5.5768
# 5 -33.2630 -23.8067 -40.0904 0.0000 49.5547 0.0000
# 6 0.0000 0.0000 0.0000 5.5768 0.0000 -1.2695
#
#
#
# Elastic Compliance Matrix: (Units=1/GPa)
#
#
# Indices 1 2 3 4 5 6 
#
# 1 0.016094 -0.004343 -0.002544 0.000000 0.006658 0.000000
# 2 -0.004343 0.012141 -0.003484 0.000000 0.000099 0.000000
# 3 -0.002544 -0.003484 0.016321 0.000000 0.009823 0.000000
# 4 0.000000 0.000000 0.000000 0.023877 0.000000 0.104888
# 5 0.006658 0.000099 0.009823 0.000000 0.032644 0.000000
# 6 0.000000 0.000000 0.000000 0.104888 0.000000 -0.326941
#
#
# Mechanical properties :
#
#
# Convention : Reuss Voigt Hill
#
# Bulk Modulus (GPa) = 41.99102 65.27620 53.63361
# Shear Modulus (GPa) = -25.35701 24.62402 -0.36650
#
# Velocity S-wave (km/s) = -3.56037 3.50854 -0.42804
# Velocity P-wave (km/s) = 2.02240 7.00325 5.15439
#
# Compressibility (1/GPa) = 0.02381462
#
# Stress axis : x y z
#
# Youngs Moduli (GPa) = 62.13544 82.36729 61.26924
#
# Poissons Ratio (x) = 0.35776 0.15585
# Poissons Ratio (y) = 0.26988 0.21344
# Poissons Ratio (z) = 0.15805 0.28694
#
# Static dielectric constant tensor:
#      x y z
#    x 1.763630 0.000000 -0.007250 
#    y 0.000000 1.724150 0.000000 
#    z -0.007250 0.000000 1.739950 
# 
# From -- ./inp_files/53709.got.cif
#   From: 2010.05.17/outbox.cif.g08.bks.cpg/sg13_27_cif.got.tgz:53709.got - 2010.06.03 16:44:36.
