data_PCOD9228953
_publ_section_title
;
Structure prediction by ZEFSAII (Michael W. Deem and Ramdas Pophale) SiO2 
 PCOD9228953
Probable space group: P 2/C
;
_chemical_formula_sum "Si O2"
_cell_formula_units_Z 26
_cell_length_a 9.887636
_cell_length_b 9.731253
_cell_length_c 13.506379
_cell_angle_alpha 90.000000
_cell_angle_beta 61.693795
_cell_angle_gamma 90.000000
_cell_volume 1144.176512
_symmetry_space_group_name_H-M "P 2/C"
_symmetry_group_IT_number 13
_symmetry_cell_setting 'monoclinic'
loop_
_space_group_symop_operation_xyz
x,y,z
-x,y,1/2-z
-x,-y,-z
x,-y,1/2+z
loop_
_atom_site_type_symbol
_atom_site_label
_atom_site_fract_x
_atom_site_fract_y
_atom_site_fract_z
Si Si1 0.500000 0.236961 0.750000
Si Si2 0.077795 0.742681 0.495220
Si Si3 0.175645 0.634145 0.664985
Si Si4 0.821522 0.045079 0.812697
Si Si5 0.257263 0.182405 0.307108
Si Si6 0.202530 0.345886 0.755389
Si Si7 0.311122 0.975571 0.431610
O O1 0.366431 0.330053 0.751955
O O2 0.560964 0.134744 0.643126
O O3 0.180067 0.672629 0.547444
O O4 0.087162 0.657986 0.389706
O O5 0.903707 0.765358 0.589947
O O6 0.155694 0.892096 0.451252
O O7 0.284504 0.713034 0.706419
O O8 0.189255 0.475780 0.689674
O O9 0.000000 0.676977 0.750000
O O10 0.819054 0.206857 0.798082
O O11 0.000000 0.001510 0.750000
O O12 0.752590 0.962170 0.746144
O O13 0.727770 0.001367 0.941221
O O14 0.348355 0.124873 0.370666
#
# Coordination Sequence:
#
# PCOD9228953 Si02
#       7
#     2   4   4   4   4   4   4
#     4  10  24  44  58  84 128 174 208 248 296 344
#     4  10  19  36  62  87 128 155 192 264 318 356
#     4  10  22  38  60  93 127 156 198 253 322 371
#     4  12  20  34  66  98 117 153 204 257 321 364
#     4  11  19  36  62  96 121 154 198 256 322 362
#     4  11  24  40  59  87 128 166 209 244 299 374
#     4  11  21  37  62  92 123 162 206 255 297 360
#
# _framework density 22.723766999999999
#
# number of rings (size 3 to 8) (size 9 to 14) (size 15 to 20)
#    0.000    1.231    6.154    2.308    0.000    4.308 
#    0.000    3.846    0.000    0.000    0.000    0.000 
#    0.000    0.000    0.000    0.000    0.000    0.000 
#
# Total GULP energy -145044.412997 kJ/mol
# GULP energy per Si atom -5578.631269 kJ/mol
# Density = 2.267205 g / cm^3
# Si number density = 22.723767 Si / 1000 Ang^3
#
#
#
# Elastic Constant Matrix: (Units=GPa)
#
#
# Indices 1 2 3 4 5 6 
#
# 1 39.2406 1.0650 3.7192 0.0000 0.6595 0.0000
# 2 1.0650 127.6115 38.8447 0.0000 20.8184 0.0000
# 3 3.7192 38.8447 129.9765 0.0000 23.1152 0.0000
# 4 0.0000 0.0000 0.0000 5.6537 0.0000 59.8646
# 5 0.6595 20.8184 23.1152 0.0000 18.6313 0.0000
# 6 0.0000 0.0000 0.0000 59.8646 0.0000 -29.3345
#
#
#
# Elastic Compliance Matrix: (Units=1/GPa)
#
#
# Indices 1 2 3 4 5 6 
#
# 1 0.025553 0.000011 -0.000733 0.000000 -0.000007 0.000000
# 2 0.000011 0.009739 -0.001252 0.000000 -0.009330 0.000000
# 3 -0.000733 -0.001252 0.010054 0.000000 -0.011049 0.000000
# 4 0.000000 0.000000 0.000000 0.007823 0.000000 0.015966
# 5 -0.000007 -0.009330 -0.011049 0.000000 0.077806 0.000000
# 6 0.000000 0.000000 0.000000 0.015966 0.000000 -0.001508
#
#
# Mechanical properties :
#
#
# Convention : Reuss Voigt Hill
#
# Bulk Modulus (GPa) = 24.15550 42.67627 33.41589
# Shear Modulus (GPa) = 33.96394 15.87007 24.91700
#
# Velocity S-wave (km/s) = 3.87026 2.64558 3.31496
# Velocity P-wave (km/s) = 5.53398 5.30597 5.42118
#
# Compressibility (1/GPa) = 0.04139843
#
# Stress axis : x y z
#
# Youngs Moduli (GPa) = 39.13418 102.67670 99.46606
#
# Poissons Ratio (x) = -0.00114 0.07293
# Poissons Ratio (y) = -0.00043 0.12451
# Poissons Ratio (z) = 0.02869 0.12853
#
# Static dielectric constant tensor:
#      x y z
#    x 1.990530 0.000000 0.093910 
#    y 0.000000 1.845690 0.000000 
#    z 0.093910 0.000000 2.002380 
# 
# From -- ./inp_files/49892.got.cif
#   From: 2010.05.17/outbox.cif.g08.bks.cpg/sg13_25_cif.got.tgz:49892.got - 2010.06.03 16:44:36.
