data_PCOD9228002
_publ_section_title
;
Structure prediction by ZEFSAII (Michael W. Deem and Ramdas Pophale) SiO2 
 PCOD9228002
Probable space group: P 2/C
;
_chemical_formula_sum "Si O2"
_cell_formula_units_Z 26
_cell_length_a 6.453155
_cell_length_b 8.857230
_cell_length_c 21.516422
_cell_angle_alpha 90.000000
_cell_angle_beta 86.892980
_cell_angle_gamma 90.000000
_cell_volume 1228.008028
_symmetry_space_group_name_H-M "P 2/C"
_symmetry_group_IT_number 13
_symmetry_cell_setting 'monoclinic'
loop_
_space_group_symop_operation_xyz
x,y,z
-x,y,1/2-z
-x,-y,-z
x,-y,1/2+z
loop_
_atom_site_type_symbol
_atom_site_label
_atom_site_fract_x
_atom_site_fract_y
_atom_site_fract_z
Si Si1 0.959470 0.428992 0.914821
Si Si2 0.689661 0.396607 0.515327
Si Si3 0.555945 0.848737 0.939956
Si Si4 0.095611 0.918935 0.060160
Si Si5 0.195108 0.113272 0.359241
Si Si6 0.500000 0.800590 0.750000
Si Si7 0.182345 0.335688 0.164374
O O1 0.867083 0.554485 0.963468
O O2 0.874598 0.491946 0.851229
O O3 0.894310 0.261948 0.937880
O O4 0.207858 0.427777 0.919997
O O5 0.500000 0.500000 0.500000
O O6 0.614311 0.227774 0.504392
O O7 0.320535 0.849753 0.920972
O O8 0.665016 0.736667 0.889404
O O9 0.679754 0.004618 0.934283
O O10 0.946922 0.971402 0.119619
O O11 0.000000 0.000000 0.000000
O O12 0.375087 0.102278 0.304059
O O13 0.030534 0.240348 0.340219
O O14 0.682415 0.698629 0.777078
#
# Coordination Sequence:
#
# PCOD9228002 Si02
#       7
#     4   4   4   4   4   2   4
#     4  10  21  35  52  85 125 154 196 237 295 361
#     4  10  19  31  53  79 116 165 197 236 282 347
#     4   9  19  34  53  84 116 159 201 227 290 361
#     4  11  22  36  55  88 136 168 189 233 298 379
#     4  10  21  37  62  87 114 155 204 251 299 354
#     4  10  20  40  68  86 100 146 216 266 302 348
#     4   9  19  37  62  84 108 143 200 260 299 343
#
# _framework density 21.172499999999999
#
# number of rings (size 3 to 8) (size 9 to 14) (size 15 to 20)
#    0.000    2.154    1.538    1.385    4.308    1.846 
#    0.000    0.000    0.000   22.154    0.000    0.000 
#    0.000    0.000    0.000    0.000    0.000    0.000 
#
# Total GULP energy -144798.548049 kJ/mol
# GULP energy per Si atom -5569.174925 kJ/mol
# Density = 2.112431 g / cm^3
# Si number density = 21.172500 Si / 1000 Ang^3
#
#
#
# Elastic Constant Matrix: (Units=GPa)
#
#
# Indices 1 2 3 4 5 6 
#
# 1 124.4098 33.1107 32.6913 0.0000 23.0947 0.0000
# 2 33.1107 110.1996 29.7120 0.0000 13.0408 0.0000
# 3 32.6913 29.7120 68.7363 0.0000 15.7338 0.0000
# 4 0.0000 0.0000 0.0000 17.1481 0.0000 2.5423
# 5 23.0947 13.0408 15.7338 0.0000 48.6743 0.0000
# 6 0.0000 0.0000 0.0000 2.5423 0.0000 18.4302
#
#
#
# Elastic Compliance Matrix: (Units=1/GPa)
#
#
# Indices 1 2 3 4 5 6 
#
# 1 0.009948 -0.001734 -0.003248 0.000000 -0.003206 0.000000
# 2 -0.001734 0.010666 -0.003585 0.000000 -0.000876 0.000000
# 3 -0.003248 -0.003585 0.018434 0.000000 -0.003457 0.000000
# 4 0.000000 0.000000 0.000000 0.059533 0.000000 -0.008212
# 5 -0.003206 -0.000876 -0.003457 0.000000 0.023418 0.000000
# 6 0.000000 0.000000 0.000000 -0.008212 0.000000 0.055392
#
#
# Mechanical properties :
#
#
# Convention : Reuss Voigt Hill
#
# Bulk Modulus (GPa) = 45.63376 54.93041 50.28209
# Shear Modulus (GPa) = 24.77341 30.70596 27.73968
#
# Velocity S-wave (km/s) = 3.42435 3.81238 3.62356
# Velocity P-wave (km/s) = 6.10205 6.73643 6.42707
#
# Compressibility (1/GPa) = 0.02191360
#
# Stress axis : x y z
#
# Youngs Moduli (GPa) = 100.52295 93.75832 54.24694
#
# Poissons Ratio (x) = 0.16257 0.17620
# Poissons Ratio (y) = 0.17430 0.19449
# Poissons Ratio (z) = 0.32650 0.33614
#
# Static dielectric constant tensor:
#      x y z
#    x 1.842240 0.000000 0.013640 
#    y 0.000000 1.778960 0.000000 
#    z 0.013640 0.000000 1.899600 
# 
# From -- ./inp_files/90272.got.cif
#   From: 2010.05.17/outbox.cif.g08.bks.cpg/sg13_46_cif.got.tgz:90272.got - 2010.06.03 16:44:36.
