data_PCOD9228522
_publ_section_title
;
Structure prediction by ZEFSAII (Michael W. Deem and Ramdas Pophale) SiO2 
 PCOD9228522
Probable space group: P 2/C
;
_chemical_formula_sum "Si O2"
_cell_formula_units_Z 32
_cell_length_a 22.266545
_cell_length_b 7.874911
_cell_length_c 20.263933
_cell_angle_alpha 90.000000
_cell_angle_beta 153.643136
_cell_angle_gamma 90.000000
_cell_volume 1577.490528
_symmetry_space_group_name_H-M "P 2/C"
_symmetry_group_IT_number 13
_symmetry_cell_setting 'monoclinic'
loop_
_space_group_symop_operation_xyz
x,y,z
-x,y,1/2-z
-x,-y,-z
x,-y,1/2+z
loop_
_atom_site_type_symbol
_atom_site_label
_atom_site_fract_x
_atom_site_fract_y
_atom_site_fract_z
Si Si1 0.079486 0.670800 0.422802
Si Si2 0.713885 0.411080 0.129539
Si Si3 0.698548 0.061148 0.560167
Si Si4 0.222058 0.391814 0.931565
Si Si5 0.009196 0.052189 0.180580
Si Si6 0.028468 0.645575 0.950578
Si Si7 0.256432 0.255342 0.763075
Si Si8 0.503502 0.878723 0.067634
O O1 0.193379 0.616809 0.481328
O O2 0.062436 0.875167 0.414427
O O3 0.089689 0.539437 0.493059
O O4 0.930555 0.624338 0.247543
O O5 0.713671 0.459993 0.050720
O O6 0.683453 0.579060 0.142057
O O7 0.608551 0.268202 0.045623
O O8 0.867739 0.365780 0.299590
O O9 0.701632 0.221061 0.515005
O O10 0.738985 0.120723 0.673749
O O11 0.828209 0.948562 0.670167
O O12 0.550225 0.982042 0.422105
O O13 0.000000 0.054612 0.250000
O O14 0.949817 0.217569 0.086723
O O15 0.105769 0.713609 0.090237
O O16 0.348526 0.201511 0.791924
O O17 0.500000 0.000000 0.000000
#
# Coordination Sequence:
#
# PCOD9228522 Si02
#       8
#     4   4   4   4   4   4   4   4
#     4   9  17  33  51  84 120 137 185 237 287 332
#     4  10  19  34  59  79 108 153 194 228 285 338
#     4   9  17  35  56  81 110 147 191 234 276 337
#     4   8  15  30  54  81 106 139 183 245 270 327
#     4  11  20  33  59  88 116 147 194 238 286 337
#     4  11  23  34  57  92 118 150 183 239 303 338
#     4  10  22  38  53  83 123 148 187 236 291 349
#     4  10  20  36  55  82 110 154 199 230 271 348
#
# _framework density 20.285385000000002
#
# number of rings (size 3 to 8) (size 9 to 14) (size 15 to 20)
#    0.000    2.250    3.750    1.500    3.500    0.500 
#    4.500    0.000    0.000    3.000    0.000    0.000 
#    0.000    0.000    0.000    0.000    0.000    0.000 
#
# Total GULP energy -178183.078782 kJ/mol
# GULP energy per Si atom -5568.221212 kJ/mol
# Density = 2.023921 g / cm^3
# Si number density = 20.285385 Si / 1000 Ang^3
#
#
#
# Elastic Constant Matrix: (Units=GPa)
#
#
# Indices 1 2 3 4 5 6 
#
# 1 90.8833 36.7566 21.1170 0.0000 35.7542 0.0000
# 2 36.7566 78.6510 5.5235 0.0000 7.9753 0.0000
# 3 21.1170 5.5235 17.0020 0.0000 13.4798 0.0000
# 4 0.0000 0.0000 0.0000 15.5181 0.0000 11.0765
# 5 35.7542 7.9753 13.4798 0.0000 24.6098 0.0000
# 6 0.0000 0.0000 0.0000 11.0765 0.0000 26.0015
#
#
#
# Elastic Compliance Matrix: (Units=1/GPa)
#
#
# Indices 1 2 3 4 5 6 
#
# 1 0.032817 -0.010799 -0.003933 0.000000 -0.042024 0.000000
# 2 -0.010799 0.016724 -0.000287 0.000000 0.010427 0.000000
# 3 -0.003933 -0.000287 0.104627 0.000000 -0.051501 0.000000
# 4 0.000000 0.000000 0.000000 0.092597 0.000000 -0.039446
# 5 -0.042024 0.010427 -0.051501 0.000000 0.126519 0.000000
# 6 0.000000 0.000000 0.000000 -0.039446 0.000000 0.055263
#
#
# Mechanical properties :
#
#
# Convention : Reuss Voigt Hill
#
# Bulk Modulus (GPa) = 8.05614 34.81449 21.43531
# Shear Modulus (GPa) = 10.00072 21.43515 15.71794
#
# Velocity S-wave (km/s) = 2.22277 3.25419 2.78662
# Velocity P-wave (km/s) = 3.25079 5.59636 4.57640
#
# Compressibility (1/GPa) = 0.12412897
#
# Stress axis : x y z
#
# Youngs Moduli (GPa) = 30.47167 59.79381 9.55774
#
# Poissons Ratio (x) = 0.64573 0.03759
# Poissons Ratio (y) = 0.32907 0.00275
# Poissons Ratio (z) = 0.11985 0.01718
#
# Static dielectric constant tensor:
#      x y z
#    x 1.775310 0.000000 0.019910 
#    y 0.000000 1.810040 0.000000 
#    z 0.019910 0.000000 1.697610 
# 
# From -- ./inp_files/81701.got.cif
#   From: 2010.05.17/outbox.cif.g08.bks.cpg/sg13_41_cif.got.tgz:81701.got - 2010.06.03 16:44:36.
