data_PCOD9228855
_publ_section_title
;
Structure prediction by ZEFSAII (Michael W. Deem and Ramdas Pophale) SiO2 
 PCOD9228855
Probable space group: P 2/C
;
_chemical_formula_sum "Si O2"
_cell_formula_units_Z 24
_cell_length_a 12.370874
_cell_length_b 9.084184
_cell_length_c 16.014956
_cell_angle_alpha 90.000000
_cell_angle_beta 47.060291
_cell_angle_gamma 90.000000
_cell_volume 1317.544303
_symmetry_space_group_name_H-M "P 2/C"
_symmetry_group_IT_number 13
_symmetry_cell_setting 'monoclinic'
loop_
_space_group_symop_operation_xyz
x,y,z
-x,y,1/2-z
-x,-y,-z
x,-y,1/2+z
loop_
_atom_site_type_symbol
_atom_site_label
_atom_site_fract_x
_atom_site_fract_y
_atom_site_fract_z
Si Si1 0.194813 0.353247 0.404263
Si Si2 0.348150 0.085707 0.799746
Si Si3 0.140009 0.687415 0.470755
Si Si4 0.380147 0.815339 0.669621
Si Si5 0.167350 0.851315 0.630555
Si Si6 0.710582 0.864783 0.514883
O O1 0.202049 0.526073 0.418787
O O2 0.319948 0.291170 0.275222
O O3 0.201375 0.267891 0.489072
O O4 0.036299 0.318350 0.446424
O O5 0.500000 0.162525 0.750000
O O6 0.359944 0.984109 0.712446
O O7 0.324544 0.968260 0.886509
O O8 0.214037 0.197706 0.867994
O O9 0.179345 0.753099 0.540676
O O10 0.281052 0.795409 0.640452
O O11 0.555084 0.803423 0.563042
O O12 0.000000 0.842445 0.750000
O O13 0.207640 0.021600 0.588649
#
# Coordination Sequence:
#
# PCOD9228855 Si02
#       6
#     4   4   4   4   4   4
#     4  10  20  36  55  77 108 147 186 223 269 325
#     4   8  17  32  54  79 103 136 181 225 266 319
#     4  10  21  35  53  80 111 144 183 226 268 326
#     4  10  19  36  58  82 108 140 183 231 277 321
#     4  11  21  35  56  83 113 146 180 226 281 318
#     4   9  20  35  56  81 108 141 181 227 267 326
#
# _framework density 18.215707999999999
#
# number of rings (size 3 to 8) (size 9 to 14) (size 15 to 20)
#    0.000    2.333    1.667    2.000    2.333    3.333 
#    0.000    3.333    0.000    0.000    0.000    0.000 
#    0.000    0.000    0.000    0.000    0.000    0.000 
#
# Total GULP energy -133722.849912 kJ/mol
# GULP energy per Si atom -5571.785413 kJ/mol
# Density = 1.817425 g / cm^3
# Si number density = 18.215708 Si / 1000 Ang^3
#
#
#
# Elastic Constant Matrix: (Units=GPa)
#
#
# Indices 1 2 3 4 5 6 
#
# 1 95.1094 42.4380 18.6949 0.0000 2.1997 0.0000
# 2 42.4380 75.8482 25.0170 0.0000 -11.4419 0.0000
# 3 18.6949 25.0170 29.5244 0.0000 1.8259 0.0000
# 4 0.0000 0.0000 0.0000 -3.4354 0.0000 25.2935
# 5 2.1997 -11.4419 1.8259 0.0000 16.1445 0.0000
# 6 0.0000 0.0000 0.0000 25.2935 0.0000 -9.0520
#
#
#
# Elastic Compliance Matrix: (Units=1/GPa)
#
#
# Indices 1 2 3 4 5 6 
#
# 1 0.015120 -0.009403 -0.001074 0.000000 -0.008603 0.000000
# 2 -0.009403 0.028510 -0.019670 0.000000 0.023711 0.000000
# 3 -0.001074 -0.019670 0.052437 0.000000 -0.019725 0.000000
# 4 0.000000 0.000000 0.000000 0.014872 0.000000 0.041556
# 5 -0.008603 0.023711 -0.019725 0.000000 0.082148 0.000000
# 6 0.000000 0.000000 0.000000 0.041556 0.000000 0.005644
#
#
# Mechanical properties :
#
#
# Convention : Reuss Voigt Hill
#
# Bulk Modulus (GPa) = 27.95432 41.42022 34.68727
# Shear Modulus (GPa) = 18.45352 8.35354 13.40353
#
# Velocity S-wave (km/s) = 3.18631 2.14379 2.71555
# Velocity P-wave (km/s) = 5.37739 5.37735 5.37737
#
# Compressibility (1/GPa) = 0.03577264
#
# Stress axis : x y z
#
# Youngs Moduli (GPa) = 66.13708 35.07528 19.07041
#
# Poissons Ratio (x) = 0.32982 0.02049
# Poissons Ratio (y) = 0.62191 0.37511
# Poissons Ratio (z) = 0.07105 0.68992
#
# Static dielectric constant tensor:
#      x y z
#    x 1.646470 0.000000 -0.010990 
#    y 0.000000 1.611150 0.000000 
#    z -0.010990 0.000000 1.645000 
# 
# From -- ./inp_files/65901.got.cif
#   From: 2010.05.17/outbox.cif.g08.bks.cpg/sg13_33_cif.got.tgz:65901.got - 2010.06.03 16:44:36.
