data_PCOD9228540
_publ_section_title
;
Structure prediction by ZEFSAII (Michael W. Deem and Ramdas Pophale) SiO2 
 PCOD9228540
Probable space group: P 2/C
;
_chemical_formula_sum "Si O2"
_cell_formula_units_Z 22
_cell_length_a 8.972324
_cell_length_b 11.944040
_cell_length_c 12.377602
_cell_angle_alpha 90.000000
_cell_angle_beta 63.578909
_cell_angle_gamma 90.000000
_cell_volume 1187.904676
_symmetry_space_group_name_H-M "P 2/C"
_symmetry_group_IT_number 13
_symmetry_cell_setting 'monoclinic'
loop_
_space_group_symop_operation_xyz
x,y,z
-x,y,1/2-z
-x,-y,-z
x,-y,1/2+z
loop_
_atom_site_type_symbol
_atom_site_label
_atom_site_fract_x
_atom_site_fract_y
_atom_site_fract_z
Si Si1 0.500000 0.223492 0.250000
Si Si2 0.343413 0.627629 0.611309
Si Si3 0.599099 0.390633 0.829922
Si Si4 0.211871 0.922437 0.775608
Si Si5 0.849015 0.183908 0.415704
Si Si6 0.302596 0.167790 0.799099
O O1 0.554440 0.303570 0.330688
O O2 0.656258 0.139320 0.189435
O O3 0.307375 0.503867 0.666895
O O4 0.463665 0.625289 0.468251
O O5 0.179429 0.695014 0.629126
O O6 0.500000 0.409897 0.750000
O O7 0.704851 0.278116 0.773891
O O8 0.250790 0.893907 0.637533
O O9 0.033531 0.866571 0.857321
O O10 0.217130 0.055031 0.785409
O O11 0.774259 0.189130 0.558494
O O12 0.500000 0.145841 0.750000
#
# Coordination Sequence:
#
# PCOD9228540 Si02
#       6
#     2   4   4   4   4   4
#     4  10  20  34  58  86 112 162 210 248 290 368
#     4  10  19  35  61  90 120 156 208 247 308 360
#     4  10  19  34  59  92 123 159 199 256 296 370
#     4  10  22  37  58  87 121 164 207 251 304 362
#     4  10  21  38  60  85 127 163 197 263 307 353
#     4  11  20  36  59  92 121 161 203 246 312 366
#
# _framework density 18.520005000000001
#
# number of rings (size 3 to 8) (size 9 to 14) (size 15 to 20)
#    0.000    1.818    5.455    0.545    0.000    2.182 
#    0.000    0.000    0.000   40.364    0.000    0.000 
#    0.000    0.000    0.000    0.000    0.000    0.000 
#
# Total GULP energy -122536.071999 kJ/mol
# GULP energy per Si atom -5569.821454 kJ/mol
# Density = 1.847785 g / cm^3
# Si number density = 18.520005 Si / 1000 Ang^3
#
#
#
# Elastic Constant Matrix: (Units=GPa)
#
#
# Indices 1 2 3 4 5 6 
#
# 1 78.7722 59.6387 20.1469 0.0000 -8.5155 0.0000
# 2 59.6387 193.1793 52.9468 0.0000 -2.4674 0.0000
# 3 20.1469 52.9468 97.1998 0.0000 0.7463 0.0000
# 4 0.0000 0.0000 0.0000 16.7288 0.0000 3.5188
# 5 -8.5155 -2.4674 0.7463 0.0000 15.0967 0.0000
# 6 0.0000 0.0000 0.0000 3.5188 0.0000 29.6625
#
#
#
# Elastic Compliance Matrix: (Units=1/GPa)
#
#
# Indices 1 2 3 4 5 6 
#
# 1 0.017819 -0.005115 -0.000978 0.000000 0.009263 0.000000
# 2 -0.005115 0.007573 -0.003054 0.000000 -0.001496 0.000000
# 3 -0.000978 -0.003054 0.012167 0.000000 -0.001653 0.000000
# 4 0.000000 0.000000 0.000000 0.061307 0.000000 -0.007273
# 5 0.009263 -0.001496 -0.001653 0.000000 0.071302 0.000000
# 6 0.000000 0.000000 0.000000 -0.007273 0.000000 0.034575
#
#
# Mechanical properties :
#
#
# Convention : Reuss Voigt Hill
#
# Bulk Modulus (GPa) = 51.90608 70.51290 61.20949
# Shear Modulus (GPa) = 21.79041 28.05886 24.92463
#
# Velocity S-wave (km/s) = 3.43386 3.89660 3.67252
# Velocity P-wave (km/s) = 6.61889 7.64207 7.14881
#
# Compressibility (1/GPa) = 0.01926556
#
# Stress axis : x y z
#
# Youngs Moduli (GPa) = 56.12075 132.04137 82.18921
#
# Poissons Ratio (x) = 0.67533 0.08042
# Poissons Ratio (y) = 0.28703 0.25099
# Poissons Ratio (z) = 0.05491 0.40323
#
# Static dielectric constant tensor:
#      x y z
#    x 1.636400 0.000000 0.007610 
#    y 0.000000 1.687810 0.000000 
#    z 0.007610 0.000000 1.644850 
# 
# From -- ./inp_files/29093.got.cif
#   From: 2010.05.17/outbox.cif.g08.bks.cpg/sg13_15_cif.got.tgz:29093.got - 2010.06.03 16:44:36.
