data_PCOD9228712
_publ_section_title
;
Structure prediction by ZEFSAII (Michael W. Deem and Ramdas Pophale) SiO2 
 PCOD9228712
Probable space group: P 2/C
;
_chemical_formula_sum "Si O2"
_cell_formula_units_Z 26
_cell_length_a 10.939540
_cell_length_b 7.464124
_cell_length_c 15.654766
_cell_angle_alpha 90.000000
_cell_angle_beta 123.149768
_cell_angle_gamma 90.000000
_cell_volume 1070.228607
_symmetry_space_group_name_H-M "P 2/C"
_symmetry_group_IT_number 13
_symmetry_cell_setting 'monoclinic'
loop_
_space_group_symop_operation_xyz
x,y,z
-x,y,1/2-z
-x,-y,-z
x,-y,1/2+z
loop_
_atom_site_type_symbol
_atom_site_label
_atom_site_fract_x
_atom_site_fract_y
_atom_site_fract_z
Si Si1 0.790998 0.214907 0.272671
Si Si2 0.053316 0.796045 0.508137
Si Si3 0.709577 0.355297 0.058771
Si Si4 0.882393 0.799739 0.282075
Si Si5 0.696801 0.981974 0.470960
Si Si6 0.365076 0.729295 0.427233
Si Si7 0.500000 0.086893 0.250000
O O1 0.901521 0.294642 0.385773
O O2 0.778665 0.311423 0.177270
O O3 0.628351 0.197910 0.251683
O O4 0.850924 0.012414 0.280969
O O5 0.948193 0.721987 0.394688
O O6 0.206092 0.854517 0.524817
O O7 0.000000 0.000000 0.500000
O O8 0.706955 0.567056 0.045527
O O9 0.771461 0.209545 0.015668
O O10 0.536757 0.306542 0.990161
O O11 0.726875 0.720406 0.194995
O O12 0.000000 0.777643 0.250000
O O13 0.652633 0.069973 0.543952
O O14 0.572684 0.969009 0.352377
#
# Coordination Sequence:
#
# PCOD9228712 Si02
#       7
#     4   4   4   4   4   4   2
#     4  10  19  35  60  87 119 153 200 246 290 357
#     4   9  20  34  61  87 117 160 195 234 299 356
#     4  11  22  38  61  93 112 150 208 243 294 344
#     4  11  19  36  60  86 118 159 197 239 292 349
#     4  11  19  39  63  85 119 155 195 246 295 347
#     4  11  22  35  62  87 119 150 194 252 286 345
#     4  10  20  32  64  88 114 164 188 236 318 342
#
# _framework density 24.293873000000001
#
# number of rings (size 3 to 8) (size 9 to 14) (size 15 to 20)
#    0.000    1.538    4.615    1.385    0.000    0.000 
#    0.000    5.385   20.308    0.000    0.000    0.000 
#    0.000    0.000    0.000    0.000    0.000    0.000 
#
# Total GULP energy -144997.523369 kJ/mol
# GULP energy per Si atom -5576.827822 kJ/mol
# Density = 2.423858 g / cm^3
# Si number density = 24.293873 Si / 1000 Ang^3
#
#
#
# Elastic Constant Matrix: (Units=GPa)
#
#
# Indices 1 2 3 4 5 6 
#
# 1 22.6657 -3.4743 26.6124 0.0000 12.5204 0.0000
# 2 -3.4743 103.7461 30.9255 0.0000 2.6689 0.0000
# 3 26.6124 30.9255 232.5199 0.0000 24.4541 0.0000
# 4 0.0000 0.0000 0.0000 1.6088 0.0000 -3.1863
# 5 12.5204 2.6689 24.4541 0.0000 24.5954 0.0000
# 6 0.0000 0.0000 0.0000 -3.1863 0.0000 -5.7908
#
#
#
# Elastic Compliance Matrix: (Units=1/GPa)
#
#
# Indices 1 2 3 4 5 6 
#
# 1 0.067248 0.004561 -0.005194 0.000000 -0.029564 0.000000
# 2 0.004561 0.010348 -0.001715 0.000000 -0.001739 0.000000
# 3 -0.005194 -0.001715 0.005389 0.000000 -0.002528 0.000000
# 4 0.000000 0.000000 0.000000 0.297443 0.000000 -0.163664
# 5 -0.029564 -0.001739 -0.002528 0.000000 0.058410 0.000000
# 6 0.000000 0.000000 0.000000 -0.163664 0.000000 -0.082633
#
#
# Mechanical properties :
#
#
# Convention : Reuss Voigt Hill
#
# Bulk Modulus (GPa) = 12.77342 51.89545 32.33443
# Shear Modulus (GPa) = 12.92001 24.40722 18.66362
#
# Velocity S-wave (km/s) = 2.30863 3.17308 2.77473
# Velocity P-wave (km/s) = 3.51790 5.90191 4.85840
#
# Compressibility (1/GPa) = 0.07828759
#
# Stress axis : x y z
#
# Youngs Moduli (GPa) = 14.87037 96.63966 185.55639
#
# Poissons Ratio (x) = -0.44076 0.96379
# Poissons Ratio (y) = -0.06782 0.31830
# Poissons Ratio (z) = 0.07724 0.16577
#
# Static dielectric constant tensor:
#      x y z
#    x 2.306380 0.000000 -0.049450 
#    y 0.000000 1.992540 0.000000 
#    z -0.049450 0.000000 1.963280 
# 
# From -- ./inp_files/50160.got.cif
#   From: 2010.05.17/outbox.cif.g08.bks.cpg/sg13_26_cif.got.tgz:50160.got - 2010.06.03 16:44:36.
