data_PCOD9228703
_publ_section_title
;
Structure prediction by ZEFSAII (Michael W. Deem and Ramdas Pophale) SiO2 
 PCOD9228703
Probable space group: P 2/C
;
_chemical_formula_sum "Si O2"
_cell_formula_units_Z 16
_cell_length_a 7.102589
_cell_length_b 10.830959
_cell_length_c 11.522145
_cell_angle_alpha 90.000000
_cell_angle_beta 137.106253
_cell_angle_gamma 90.000000
_cell_volume 603.302308
_symmetry_space_group_name_H-M "P 2/C"
_symmetry_group_IT_number 13
_symmetry_cell_setting 'monoclinic'
loop_
_space_group_symop_operation_xyz
x,y,z
-x,y,1/2-z
-x,-y,-z
x,-y,1/2+z
loop_
_atom_site_type_symbol
_atom_site_label
_atom_site_fract_x
_atom_site_fract_y
_atom_site_fract_z
Si Si1 0.720524 0.545567 0.192182
Si Si2 0.581005 0.193270 0.565169
Si Si3 0.769308 0.279747 0.296994
Si Si4 0.931491 0.876681 0.400844
O O1 0.634568 0.686060 0.171721
O O2 0.771325 0.429864 0.298890
O O3 0.000000 0.559865 0.250000
O O4 0.500000 0.500000 0.000000
O O5 0.311687 0.224989 0.366528
O O6 0.824204 0.163937 0.580067
O O7 0.655073 0.095335 0.698825
O O8 0.500000 0.246550 0.250000
O O9 0.034911 0.225712 0.481794
O O10 0.000000 0.000000 0.500000
#
# Coordination Sequence:
#
# PCOD9228703 Si02
#       4
#     4   4   4   4
#     4  10  19  38  65  92 129 167 197 262 333 372
#     4   9  19  39  58  83 127 156 197 270 318 356
#     4   9  20  37  62  92 122 164 204 254 320 384
#     4  10  19  35  60  84 115 170 211 248 310 372
#
# _framework density 26.520703999999999
#
# number of rings (size 3 to 8) (size 9 to 14) (size 15 to 20)
#    0.000    2.500    2.500    0.000    0.000    2.000 
#    4.500    0.000   11.000    0.000    0.000    0.000 
#    0.000    0.000    0.000    0.000    0.000    0.000 
#
# Total GULP energy -89112.972723 kJ/mol
# GULP energy per Si atom -5569.560795 kJ/mol
# Density = 2.646034 g / cm^3
# Si number density = 26.520704 Si / 1000 Ang^3
#
#
#
# Elastic Constant Matrix: (Units=GPa)
#
#
# Indices 1 2 3 4 5 6 
#
# 1 75.5356 14.5272 43.9540 0.0000 -6.6813 0.0000
# 2 14.5272 97.6064 37.1182 0.0000 -18.8348 0.0000
# 3 43.9540 37.1182 196.1611 0.0000 -21.9931 0.0000
# 4 0.0000 0.0000 0.0000 53.2254 0.0000 -7.7086
# 5 -6.6813 -18.8348 -21.9931 0.0000 42.6364 0.0000
# 6 0.0000 0.0000 0.0000 -7.7086 0.0000 28.5151
#
#
#
# Elastic Compliance Matrix: (Units=1/GPa)
#
#
# Indices 1 2 3 4 5 6 
#
# 1 0.015327 -0.001002 -0.003211 0.000000 0.000303 0.000000
# 2 -0.001002 0.011799 -0.001530 0.000000 0.004266 0.000000
# 3 -0.003211 -0.001530 0.006341 0.000000 0.002092 0.000000
# 4 0.000000 0.000000 0.000000 0.019554 0.000000 0.005286
# 5 0.000303 0.004266 0.002092 0.000000 0.026465 0.000000
# 6 0.000000 0.000000 0.000000 0.005286 0.000000 0.036498
#
#
# Mechanical properties :
#
#
# Convention : Reuss Voigt Hill
#
# Bulk Modulus (GPa) = 45.49048 62.27799 53.88423
# Shear Modulus (GPa) = 37.09293 43.12228 40.10760
#
# Velocity S-wave (km/s) = 3.74390 4.03673 3.89307
# Velocity P-wave (km/s) = 5.98991 6.72760 6.36945
#
# Compressibility (1/GPa) = 0.02198262
#
# Stress axis : x y z
#
# Youngs Moduli (GPa) = 65.24623 84.75025 157.69538
#
# Poissons Ratio (x) = 0.08489 0.50632
# Poissons Ratio (y) = 0.06535 0.24127
# Poissons Ratio (z) = 0.20949 0.12966
#
# Static dielectric constant tensor:
#      x y z
#    x 2.140040 0.000000 -0.010900 
#    y 0.000000 2.465410 0.000000 
#    z -0.010900 0.000000 2.099890 
# 
# From -- ./inp_files/28568.got.cif
#   From: 2010.05.17/outbox.cif.g08.bks.cpg/sg13_15_cif.got.tgz:28568.got - 2010.06.03 16:44:36.
