data_PCOD9228519
_publ_section_title
;
Structure prediction by ZEFSAII (Michael W. Deem and Ramdas Pophale) SiO2 
 PCOD9228519
Probable space group: P 2/C
;
_chemical_formula_sum "Si O2"
_cell_formula_units_Z 32
_cell_length_a 8.346844
_cell_length_b 22.780287
_cell_length_c 14.789892
_cell_angle_alpha 90.000000
_cell_angle_beta 29.603886
_cell_angle_gamma 90.000000
_cell_volume 1389.230073
_symmetry_space_group_name_H-M "P 2/C"
_symmetry_group_IT_number 13
_symmetry_cell_setting 'monoclinic'
loop_
_space_group_symop_operation_xyz
x,y,z
-x,y,1/2-z
-x,-y,-z
x,-y,1/2+z
loop_
_atom_site_type_symbol
_atom_site_label
_atom_site_fract_x
_atom_site_fract_y
_atom_site_fract_z
Si Si1 0.227463 0.769448 0.305524
Si Si2 0.108366 0.647380 0.427082
Si Si3 0.062558 0.580699 0.617755
Si Si4 0.177781 0.546681 0.259113
Si Si5 0.666528 0.083482 0.573361
Si Si6 0.655266 0.191080 0.442682
Si Si7 0.314966 0.132052 0.436469
Si Si8 0.046282 0.013728 0.829705
O O1 0.500000 0.773085 0.250000
O O2 0.030298 0.710064 0.422930
O O3 0.994777 0.825290 0.422925
O O4 0.403990 0.768472 0.121174
O O5 0.500000 0.647749 0.250000
O O6 0.975972 0.631399 0.590096
O O7 0.026993 0.593288 0.402072
O O8 0.441728 0.562035 0.429583
O O9 0.000000 0.599499 0.750000
O O10 0.868933 0.520973 0.690775
O O11 0.000000 0.552504 0.250000
O O12 0.500000 0.097223 0.750000
O O13 0.719078 0.138804 0.484033
O O14 0.403592 0.040096 0.658639
O O15 0.982991 0.042590 0.423827
O O16 0.511082 0.161456 0.423351
O O17 0.000000 0.219397 0.250000
O O18 0.500000 0.130922 0.250000
O O19 0.185894 0.068473 0.531344
O O20 0.000000 0.993188 0.750000
#
# Coordination Sequence:
#
# PCOD9228519 Si02
#       8
#     4   4   4   4   4   4   4   4
#     4  11  23  48  70  93 130 172 225 283 339 393
#     4   9  21  39  64  91 126 173 220 272 327 386
#     4  10  19  36  60  94 137 175 217 263 326 387
#     4  10  19  34  58  94 132 178 216 263 320 383
#     4  12  26  42  68 100 136 174 210 269 334 403
#     4  12  26  44  72  98 130 172 221 273 339 406
#     4  12  26  45  68  98 131 173 220 273 332 404
#     4  12  24  44  65  97 138 172 215 269 329 396
#
# _framework density 23.034341000000001
#
# number of rings (size 3 to 8) (size 9 to 14) (size 15 to 20)
#    0.000    1.000    2.500    4.875    3.500    1.000 
#    0.000   13.750    0.000    0.000    0.000    0.000 
#    0.000    0.000    0.000    0.000    0.000    0.000 
#
# Total GULP energy -179128.920164 kJ/mol
# GULP energy per Si atom -5597.778755 kJ/mol
# Density = 2.298191 g / cm^3
# Si number density = 23.034341 Si / 1000 Ang^3
#
#
#
# Elastic Constant Matrix: (Units=GPa)
#
#
# Indices 1 2 3 4 5 6 
#
# 1 75.1246 30.0794 30.4705 0.0000 21.7256 0.0000
# 2 30.0794 102.6422 41.6470 0.0000 37.1082 0.0000
# 3 30.4705 41.6470 124.4864 0.0000 28.4786 0.0000
# 4 0.0000 0.0000 0.0000 35.2472 0.0000 3.9632
# 5 21.7256 37.1082 28.4786 0.0000 35.4864 0.0000
# 6 0.0000 0.0000 0.0000 3.9632 0.0000 26.6456
#
#
#
# Elastic Compliance Matrix: (Units=1/GPa)
#
#
# Indices 1 2 3 4 5 6 
#
# 1 0.016777 -0.001569 -0.001969 0.000000 -0.007051 0.000000
# 2 -0.001569 0.016159 -0.001686 0.000000 -0.014584 0.000000
# 3 -0.001969 -0.001686 0.010289 0.000000 -0.005289 0.000000
# 4 0.000000 0.000000 0.000000 0.028854 0.000000 -0.004292
# 5 -0.007051 -0.014584 -0.005289 0.000000 0.051992 0.000000
# 6 0.000000 0.000000 0.000000 -0.004292 0.000000 0.038168
#
#
# Mechanical properties :
#
#
# Convention : Reuss Voigt Hill
#
# Bulk Modulus (GPa) = 30.50732 56.29410 43.40071
# Shear Modulus (GPa) = 27.23161 32.81290 30.02226
#
# Velocity S-wave (km/s) = 3.44207 3.77838 3.61414
# Velocity P-wave (km/s) = 5.39167 6.59751 6.02483
#
# Compressibility (1/GPa) = 0.03277902
#
# Stress axis : x y z
#
# Youngs Moduli (GPa) = 59.60590 61.88565 97.19340
#
# Poissons Ratio (x) = 0.09707 0.19134
# Poissons Ratio (y) = 0.09349 0.16383
# Poissons Ratio (z) = 0.11734 0.10431
#
# Static dielectric constant tensor:
#      x y z
#    x 1.883920 0.000000 -0.020880 
#    y 0.000000 1.848960 0.000000 
#    z -0.020880 0.000000 1.932560 
# 
# From -- ./inp_files/48301.got.cif
#   From: 2010.05.17/outbox.cif.g08.bks.cpg/sg13_25_cif.got.tgz:48301.got - 2010.06.03 16:44:36.
