data_PCOD9228019
_publ_section_title
;
Structure prediction by ZEFSAII (Michael W. Deem and Ramdas Pophale) SiO2 
 PCOD9228019
Probable space group: P 2/C
;
_chemical_formula_sum "Si O2"
_cell_formula_units_Z 16
_cell_length_a 14.457164
_cell_length_b 6.915925
_cell_length_c 19.092140
_cell_angle_alpha 90.000000
_cell_angle_beta 19.872669
_cell_angle_gamma 90.000000
_cell_volume 648.901440
_symmetry_space_group_name_H-M "P 2/C"
_symmetry_group_IT_number 13
_symmetry_cell_setting 'monoclinic'
loop_
_space_group_symop_operation_xyz
x,y,z
-x,y,1/2-z
-x,-y,-z
x,-y,1/2+z
loop_
_atom_site_type_symbol
_atom_site_label
_atom_site_fract_x
_atom_site_fract_y
_atom_site_fract_z
Si Si1 0.974632 0.755206 0.582897
Si Si2 0.273547 0.596727 0.611601
Si Si3 0.567006 0.936617 0.328576
Si Si4 0.479564 0.343320 0.345359
O O1 0.782553 0.643793 0.663609
O O2 0.266687 0.806677 0.344825
O O3 0.801249 0.957731 0.708708
O O4 0.962850 0.648515 0.665079
O O5 0.500000 0.500000 0.500000
O O6 0.376932 0.801427 0.508926
O O7 0.281603 0.457907 0.538361
O O8 0.415866 0.113973 0.398441
O O9 0.500000 0.395781 0.250000
#
# Coordination Sequence:
#
# PCOD9228019 Si02
#       4
#     4   4   4   4
#     4   8  18  35  56  80  98 143 183 219 261 313
#     4  10  19  31  57  81 102 135 182 224 264 315
#     4   9  18  35  55  78 107 134 185 222 259 323
#     4   9  19  33  52  80 107 146 175 220 278 316
#
# _framework density 24.657059
#
# number of rings (size 3 to 8) (size 9 to 14) (size 15 to 20)
#    1.500    1.500    0.000    0.750    0.000    5.000 
#    0.000    0.000    0.000   30.000    0.000    0.000 
#    0.000    0.000    0.000    0.000    0.000    0.000 
#
# Total GULP energy -89335.371653 kJ/mol
# GULP energy per Si atom -5583.460728 kJ/mol
# Density = 2.460094 g / cm^3
# Si number density = 24.657059 Si / 1000 Ang^3
#
#
#
# Elastic Constant Matrix: (Units=GPa)
#
#
# Indices 1 2 3 4 5 6 
#
# 1 112.4406 55.8461 81.7028 0.0000 43.0599 0.0000
# 2 55.8461 100.0466 62.1178 0.0000 33.4359 0.0000
# 3 81.7028 62.1178 171.1290 0.0000 60.1650 0.0000
# 4 0.0000 0.0000 0.0000 20.2966 0.0000 34.9346
# 5 43.0599 33.4359 60.1650 0.0000 41.4249 0.0000
# 6 0.0000 0.0000 0.0000 34.9346 0.0000 16.6680
#
#
#
# Elastic Compliance Matrix: (Units=1/GPa)
#
#
# Indices 1 2 3 4 5 6 
#
# 1 0.017027 -0.004322 -0.003197 0.000000 -0.009568 0.000000
# 2 -0.004322 0.015209 -0.001473 0.000000 -0.005644 0.000000
# 3 -0.003197 -0.001473 0.012911 0.000000 -0.014240 0.000000
# 4 0.000000 0.000000 0.000000 -0.018895 0.000000 0.039603
# 5 -0.009568 -0.005644 -0.014240 0.000000 0.059322 0.000000
# 6 0.000000 0.000000 0.000000 0.039603 0.000000 -0.023009
#
#
# Mechanical properties :
#
#
# Convention : Reuss Voigt Hill
#
# Bulk Modulus (GPa) = 36.81456 86.99441 61.90449
# Shear Modulus (GPa) = 55.80222 27.94121 41.87171
#
# Velocity S-wave (km/s) = 4.76240 3.36995 4.12535
# Velocity P-wave (km/s) = 6.72337 7.10636 6.91752
#
# Compressibility (1/GPa) = 0.02716316
#
# Stress axis : x y z
#
# Youngs Moduli (GPa) = 58.72986 65.75239 77.45520
#
# Poissons Ratio (x) = 0.28420 0.24759
# Poissons Ratio (y) = 0.25384 0.11407
# Poissons Ratio (z) = 0.18774 0.09684
#
# Static dielectric constant tensor:
#      x y z
#    x 2.001390 0.000000 0.009300 
#    y 0.000000 1.966640 0.000000 
#    z 0.009300 0.000000 1.830940 
# 
# From -- ./inp_files/69372.got.cif
#   From: 2010.05.17/outbox.cif.g08.bks.cpg/sg13_35_cif.got.tgz:69372.got - 2010.06.03 16:44:36.
