data_PCOD9228113
_publ_section_title
;
Structure prediction by ZEFSAII (Michael W. Deem and Ramdas Pophale) SiO2 
 PCOD9228113
Probable space group: P 2/C
;
_chemical_formula_sum "Si O2"
_cell_formula_units_Z 32
_cell_length_a 5.189198
_cell_length_b 16.117820
_cell_length_c 22.851032
_cell_angle_alpha 90.000000
_cell_angle_beta 63.321953
_cell_angle_gamma 90.000000
_cell_volume 1707.764778
_symmetry_space_group_name_H-M "P 2/C"
_symmetry_group_IT_number 13
_symmetry_cell_setting 'monoclinic'
loop_
_space_group_symop_operation_xyz
x,y,z
-x,y,1/2-z
-x,-y,-z
x,-y,1/2+z
loop_
_atom_site_type_symbol
_atom_site_label
_atom_site_fract_x
_atom_site_fract_y
_atom_site_fract_z
Si Si1 0.850611 0.078923 0.937584
Si Si2 0.406429 0.978444 0.911801
Si Si3 0.753199 0.166837 0.322458
Si Si4 0.853749 0.251397 0.429261
Si Si5 0.162016 0.749543 0.018519
Si Si6 0.655702 0.346679 0.294143
Si Si7 0.270559 0.574084 0.595018
Si Si8 0.138338 0.562972 0.033341
O O1 0.638817 0.046546 0.909095
O O2 0.134504 0.022980 0.910732
O O3 0.918044 0.176427 0.929698
O O4 0.695713 0.063569 0.016543
O O5 0.547345 0.909913 0.855961
O O6 0.895046 0.191160 0.370357
O O7 0.589341 0.251664 0.319759
O O8 0.000000 0.149581 0.250000
O O9 0.511053 0.250189 0.478803
O O10 0.921143 0.345603 0.401593
O O11 0.033520 0.229740 0.467802
O O12 0.036007 0.658065 0.045773
O O13 0.500000 0.367945 0.250000
O O14 0.606782 0.408255 0.353321
O O15 0.000000 0.347455 0.250000
O O16 0.535995 0.575020 0.522893
O O17 0.124060 0.486629 0.595850
O O18 0.000000 0.500000 0.000000
#
# Coordination Sequence:
#
# PCOD9228113 Si02
#       8
#     4   4   4   4   4   4   4   4
#     4  10  21  35  54  76 106 145 183 225 277 332
#     4  10  21  36  53  77 106 143 186 226 272 330
#     4  10  22  36  55  80 113 148 190 226 274 338
#     4  10  20  32  51  76 110 150 180 213 276 332
#     4  11  20  34  54  77 111 146 182 224 279 337
#     4  10  23  38  56  81 115 158 191 221 272 342
#     4   9  20  34  50  79 116 152 184 229 270 340
#     4  10  19  32  53  82 115 149 185 226 290 331
#
# _framework density 18.737943000000001
#
# number of rings (size 3 to 8) (size 9 to 14) (size 15 to 20)
#    0.000    2.000    2.500    0.750    5.250    8.000 
#    0.000    0.000    0.000    0.000    0.000    0.875 
#    3.750    0.000    0.000    0.000    0.000    0.000 
#
# Total GULP energy -178658.660153 kJ/mol
# GULP energy per Si atom -5583.083130 kJ/mol
# Density = 1.869529 g / cm^3
# Si number density = 18.737943 Si / 1000 Ang^3
#
#
#
# Elastic Constant Matrix: (Units=GPa)
#
#
# Indices 1 2 3 4 5 6 
#
# 1 78.0953 24.1884 24.4814 0.0000 12.6894 0.0000
# 2 24.1884 127.1783 44.7244 0.0000 1.3016 0.0000
# 3 24.4814 44.7244 68.2492 0.0000 5.7168 0.0000
# 4 0.0000 0.0000 0.0000 23.4297 0.0000 3.8378
# 5 12.6894 1.3016 5.7168 0.0000 26.9078 0.0000
# 6 0.0000 0.0000 0.0000 3.8378 0.0000 15.7451
#
#
#
# Elastic Compliance Matrix: (Units=1/GPa)
#
#
# Indices 1 2 3 4 5 6 
#
# 1 0.015582 -0.001457 -0.004098 0.000000 -0.006407 0.000000
# 2 -0.001457 0.010378 -0.006407 0.000000 0.001546 0.000000
# 3 -0.004098 -0.006407 0.020498 0.000000 -0.002113 0.000000
# 4 0.000000 0.000000 0.000000 0.044456 0.000000 -0.010836
# 5 -0.006407 0.001546 -0.002113 0.000000 0.040560 0.000000
# 6 0.000000 0.000000 0.000000 -0.010836 0.000000 0.066153
#
#
# Mechanical properties :
#
#
# Convention : Reuss Voigt Hill
#
# Bulk Modulus (GPa) = 44.37969 51.14568 47.76268
# Shear Modulus (GPa) = 21.82826 25.22508 23.52667
#
# Velocity S-wave (km/s) = 3.41680 3.67304 3.54724
# Velocity P-wave (km/s) = 6.26912 6.73371 6.50556
#
# Compressibility (1/GPa) = 0.02253283
#
# Stress axis : x y z
#
# Youngs Moduli (GPa) = 64.17750 96.36205 48.78537
#
# Poissons Ratio (x) = 0.14039 0.19992
# Poissons Ratio (y) = 0.09350 0.31259
# Poissons Ratio (z) = 0.26299 0.61743
#
# Static dielectric constant tensor:
#      x y z
#    x 2.175780 0.000000 0.033760 
#    y 0.000000 1.721900 0.000000 
#    z 0.033760 0.000000 1.646740 
# 
# From -- ./inp_files/73919.got.cif
#   From: 2010.05.17/outbox.cif.g08.bks.cpg/sg13_37_cif.got.tgz:73919.got - 2010.06.03 16:44:36.
