data_PCOD9228105
_publ_section_title
;
Structure prediction by ZEFSAII (Michael W. Deem and Ramdas Pophale) SiO2 
 PCOD9228105
Probable space group: P 2/C
;
_chemical_formula_sum "Si O2"
_cell_formula_units_Z 28
_cell_length_a 37.211561
_cell_length_b 6.862117
_cell_length_c 5.179886
_cell_angle_alpha 90.000000
_cell_angle_beta 106.056731
_cell_angle_gamma 90.000000
_cell_volume 1271.084174
_symmetry_space_group_name_H-M "P 2/C"
_symmetry_group_IT_number 13
_symmetry_cell_setting 'monoclinic'
loop_
_space_group_symop_operation_xyz
x,y,z
-x,y,1/2-z
-x,-y,-z
x,-y,1/2+z
loop_
_atom_site_type_symbol
_atom_site_label
_atom_site_fract_x
_atom_site_fract_y
_atom_site_fract_z
Si Si1 0.000000 0.861174 0.750000
Si Si2 0.266194 0.867053 0.729444
Si Si3 0.653290 0.873810 0.507433
Si Si4 0.579812 0.370477 0.978224
Si Si5 0.158214 0.282995 0.675775
Si Si6 0.500000 0.360904 0.750000
Si Si7 0.919235 0.135809 0.132924
Si Si8 0.189151 0.282897 0.237302
O O1 0.959581 0.759070 0.679689
O O2 0.000000 0.000000 0.500000
O O3 0.230921 0.730493 0.714647
O O4 0.264431 0.961839 0.442709
O O5 0.306893 0.771728 0.855274
O O6 0.616681 0.751368 0.496013
O O7 0.652971 0.052292 0.712312
O O8 0.580056 0.453595 0.269348
O O9 0.540406 0.258528 0.846797
O O10 0.116420 0.270997 0.487083
O O11 0.185353 0.193165 0.513452
O O12 0.173793 0.499855 0.753042
O O13 0.161875 0.193691 0.967088
O O14 0.500000 0.500000 0.500000
O O15 0.917607 0.968555 0.907809
#
# Coordination Sequence:
#
# PCOD9228105 Si02
#       8
#     2   4   4   4   4   2   4   4
#     4   8  16  30  48  74 106 132 168 210 246 294
#     4  10  21  37  57  76 101 138 176 215 269 322
#     4  10  21  38  56  80 114 144 178 236 287 330
#     4  10  19  35  56  85 109 149 192 229 270 337
#     4  10  21  35  52  75 107 136 168 217 263 293
#     4   8  16  30  52  76 114 144 182 230 272 316
#     4  10  19  32  53  80 105 137 173 209 251 305
#     4  10  21  37  51  73 104 137 169 214 262 312
#
# _framework density 22.028441000000001
#
# number of rings (size 3 to 8) (size 9 to 14) (size 15 to 20)
#    0.000    2.286    0.000    2.571    0.000    3.429 
#    5.143    0.714    0.000    3.429    0.000    0.000 
#    0.000    0.000    0.000    0.000    0.000    0.000 
#
# Total GULP energy -156133.574884 kJ/mol
# GULP energy per Si atom -5576.199103 kJ/mol
# Density = 2.197830 g / cm^3
# Si number density = 22.028441 Si / 1000 Ang^3
#
#
#
# Elastic Constant Matrix: (Units=GPa)
#
#
# Indices 1 2 3 4 5 6 
#
# 1 150.6377 6.6416 25.7204 0.0000 43.3685 0.0000
# 2 6.6416 34.3893 -9.0365 0.0000 16.1382 0.0000
# 3 25.7204 -9.0365 104.2032 0.0000 -11.8191 0.0000
# 4 0.0000 0.0000 0.0000 12.9286 0.0000 13.2632
# 5 43.3685 16.1382 -11.8191 0.0000 74.0514 0.0000
# 6 0.0000 0.0000 0.0000 13.2632 0.0000 25.9322
#
#
#
# Elastic Compliance Matrix: (Units=1/GPa)
#
#
# Indices 1 2 3 4 5 6 
#
# 1 0.008710 0.000214 -0.002765 0.000000 -0.005589 0.000000
# 2 0.000214 0.032831 0.002005 0.000000 -0.006960 0.000000
# 3 -0.002765 0.002005 0.010782 0.000000 0.002904 0.000000
# 4 0.000000 0.000000 0.000000 0.162732 0.000000 -0.083230
# 5 -0.005589 -0.006960 0.002904 0.000000 0.018758 0.000000
# 6 0.000000 0.000000 0.000000 -0.083230 0.000000 0.081131
#
#
# Mechanical properties :
#
#
# Convention : Reuss Voigt Hill
#
# Bulk Modulus (GPa) = 19.51974 37.32015 28.41995
# Shear Modulus (GPa) = 15.00988 40.30942 27.65965
#
# Velocity S-wave (km/s) = 2.61317 4.28235 3.54734
# Velocity P-wave (km/s) = 4.24090 6.43661 5.45047
#
# Compressibility (1/GPa) = 0.05123018
#
# Stress axis : x y z
#
# Youngs Moduli (GPa) = 114.80648 30.45944 92.74380
#
# Poissons Ratio (x) = -0.00652 0.25647
# Poissons Ratio (y) = -0.02457 -0.18593
# Poissons Ratio (z) = 0.31748 -0.06106
#
# Static dielectric constant tensor:
#      x y z
#    x 1.868390 0.000000 0.005060 
#    y 0.000000 1.188500 0.000000 
#    z 0.005060 0.000000 1.861800 
# 
# From -- ./inp_files/8116.got.cif
#   From: 2010.05.17/outbox.cif.g08.bks.cpg/sg13_5_cif.got.tgz:8116.got - 2010.06.03 16:44:36.
