data_PCOD9228733
_publ_section_title
;
Structure prediction by ZEFSAII (Michael W. Deem and Ramdas Pophale) SiO2 
 PCOD9228733
Probable space group: P 2/C
;
_chemical_formula_sum "Si O2"
_cell_formula_units_Z 26
_cell_length_a 7.980912
_cell_length_b 12.482782
_cell_length_c 13.516251
_cell_angle_alpha 90.000000
_cell_angle_beta 70.009954
_cell_angle_gamma 90.000000
_cell_volume 1265.416307
_symmetry_space_group_name_H-M "P 2/C"
_symmetry_group_IT_number 13
_symmetry_cell_setting 'monoclinic'
loop_
_space_group_symop_operation_xyz
x,y,z
-x,y,1/2-z
-x,-y,-z
x,-y,1/2+z
loop_
_atom_site_type_symbol
_atom_site_label
_atom_site_fract_x
_atom_site_fract_y
_atom_site_fract_z
Si Si1 0.500000 0.026609 0.750000
Si Si2 0.805415 0.864776 0.321093
Si Si3 0.385566 0.087444 0.460185
Si Si4 0.857235 0.413654 0.362042
Si Si5 0.691174 0.550261 0.091361
Si Si6 0.285914 0.380784 0.685553
Si Si7 0.518980 0.679596 0.629889
O O1 0.356179 0.090849 0.714046
O O2 0.614604 0.957104 0.649961
O O3 0.787117 0.902460 0.437846
O O4 0.778722 0.738246 0.316992
O O5 0.000000 0.898658 0.250000
O O6 0.448669 0.210840 0.436318
O O7 0.500000 0.000000 0.500000
O O8 0.840547 0.404708 0.485186
O O9 0.837349 0.540147 0.350913
O O10 0.670859 0.365145 0.364495
O O11 0.000000 0.375765 0.250000
O O12 0.727270 0.581755 0.197451
O O13 0.493428 0.601399 0.111473
O O14 0.656936 0.421038 0.091960
O O15 0.500000 0.704603 0.750000
#
# Coordination Sequence:
#
# PCOD9228733 Si02
#       7
#     2   4   4   4   4   4   4
#     4  10  22  42  66  86 124 162 212 270 320 374
#     4  11  23  40  64  95 123 162 211 260 318 377
#     4  10  22  41  67  89 116 163 211 265 320 370
#     4  11  22  35  54  92 130 157 194 248 298 368
#     4  10  19  35  61  85 121 170 200 233 299 374
#     4  10  19  37  58  87 121 162 203 241 295 371
#     4  11  19  39  62  83 116 163 208 243 304 371
#
# _framework density 20.546596999999998
#
# number of rings (size 3 to 8) (size 9 to 14) (size 15 to 20)
#    0.000    1.538    3.846    5.077    0.000    2.462 
#    2.769    3.077    0.000    0.000    0.000    0.000 
#    0.000    0.000    0.000    0.000    0.000    0.000 
#
# Total GULP energy -144859.516962 kJ/mol
# GULP energy per Si atom -5571.519883 kJ/mol
# Density = 2.049983 g / cm^3
# Si number density = 20.546597 Si / 1000 Ang^3
#
#
#
# Elastic Constant Matrix: (Units=GPa)
#
#
# Indices 1 2 3 4 5 6 
#
# 1 31.9799 -0.9122 20.6000 0.0000 -9.6993 0.0000
# 2 -0.9122 69.0509 29.4127 0.0000 -4.7850 0.0000
# 3 20.6000 29.4127 190.4740 0.0000 -16.1918 0.0000
# 4 0.0000 0.0000 0.0000 36.2195 0.0000 21.2337
# 5 -9.6993 -4.7850 -16.1918 0.0000 31.3775 0.0000
# 6 0.0000 0.0000 0.0000 21.2337 0.0000 27.3451
#
#
#
# Elastic Compliance Matrix: (Units=1/GPa)
#
#
# Indices 1 2 3 4 5 6 
#
# 1 0.036626 0.002675 -0.003532 0.000000 0.009907 0.000000
# 2 0.002675 0.015739 -0.002558 0.000000 0.001907 0.000000
# 3 -0.003532 -0.002558 0.006172 0.000000 0.001703 0.000000
# 4 0.000000 0.000000 0.000000 0.050681 0.000000 -0.039354
# 5 0.009907 0.001907 0.001703 0.000000 0.036102 0.000000
# 6 0.000000 0.000000 0.000000 -0.039354 0.000000 0.067128
#
#
# Mechanical properties :
#
#
# Convention : Reuss Voigt Hill
#
# Bulk Modulus (GPa) = 19.33968 43.30064 31.32016
# Shear Modulus (GPa) = 21.14053 35.14871 28.14462
#
# Velocity S-wave (km/s) = 3.21114 4.14053 3.70509
# Velocity P-wave (km/s) = 4.81472 6.63165 5.79484
#
# Compressibility (1/GPa) = 0.05170717
#
# Stress axis : x y z
#
# Youngs Moduli (GPa) = 27.30312 63.53649 162.02843
#
# Poissons Ratio (x) = -0.16995 0.57229
# Poissons Ratio (y) = -0.07303 0.41440
# Poissons Ratio (z) = 0.09644 0.16250
#
# Static dielectric constant tensor:
#      x y z
#    x 1.746150 0.000000 0.000120 
#    y 0.000000 1.747860 0.000000 
#    z 0.000120 0.000000 1.830220 
# 
# From -- ./inp_files/46797.got.cif
#   From: 2010.05.17/outbox.cif.g08.bks.cpg/sg13_24_cif.got.tgz:46797.got - 2010.06.03 16:44:36.
