data_PCOD9228798
_publ_section_title
;
Structure prediction by ZEFSAII (Michael W. Deem and Ramdas Pophale) SiO2 
 PCOD9228798
Probable space group: P 2/C
;
_chemical_formula_sum "Si O2"
_cell_formula_units_Z 30
_cell_length_a 23.366617
_cell_length_b 11.396656
_cell_length_c 8.916547
_cell_angle_alpha 90.000000
_cell_angle_beta 141.571720
_cell_angle_gamma 90.000000
_cell_volume 1475.826270
_symmetry_space_group_name_H-M "P 2/C"
_symmetry_group_IT_number 13
_symmetry_cell_setting 'monoclinic'
loop_
_space_group_symop_operation_xyz
x,y,z
-x,y,1/2-z
-x,-y,-z
x,-y,1/2+z
loop_
_atom_site_type_symbol
_atom_site_label
_atom_site_fract_x
_atom_site_fract_y
_atom_site_fract_z
Si Si1 0.624260 0.594965 0.770340
Si Si2 0.117472 0.776783 0.284084
Si Si3 0.259045 0.218234 0.819746
Si Si4 0.500000 0.547660 0.250000
Si Si5 0.892441 0.567176 0.007460
Si Si6 0.779851 0.591377 0.482745
Si Si7 0.932939 0.109475 0.347241
Si Si8 0.821156 0.988533 0.889567
O O1 0.564260 0.617791 0.497920
O O2 0.563215 0.532730 0.772951
O O3 0.664588 0.712733 0.926296
O O4 0.701041 0.498007 0.878458
O O5 0.168920 0.754505 0.235905
O O6 0.128909 0.674760 0.426427
O O7 0.169464 0.890872 0.461406
O O8 0.007161 0.790344 0.033977
O O9 0.255204 0.283108 0.649958
O O10 0.264095 0.075822 0.815596
O O11 0.828449 0.464608 0.938411
O O12 0.000000 0.538653 0.250000
O O13 0.856876 0.598549 0.769507
O O14 0.857306 0.083529 0.319927
O O15 0.890961 0.089500 0.097611
O O16 0.000000 0.000000 0.500000
#
# Coordination Sequence:
#
# PCOD9228798 Si02
#       8
#     4   4   4   2   4   4   4   4
#     4  11  21  44  66 103 125 156 192 261 327 410
#     4  11  23  38  57  82 124 174 229 279 304 346
#     4  12  24  38  63  90 130 163 203 267 330 378
#     4  10  22  40  78  96 130 146 198 254 336 418
#     4  12  24  40  54  83 126 187 230 257 305 362
#     4  12  24  42  60  87 136 166 212 268 321 380
#     4  10  19  36  53  79 116 161 232 281 303 332
#     4  11  22  38  56  86 120 170 223 283 311 343
#
# _framework density 20.327597000000001
#
# number of rings (size 3 to 8) (size 9 to 14) (size 15 to 20)
#    0.000    0.800    6.667    2.800    3.733    0.000 
#    0.000    0.000    0.000    0.000    0.000    2.800 
#    0.000    0.000    0.000    0.000    0.000    0.000 
#
# Total GULP energy -167238.535284 kJ/mol
# GULP energy per Si atom -5574.617843 kJ/mol
# Density = 2.028133 g / cm^3
# Si number density = 20.327597 Si / 1000 Ang^3
#
#
#
# Elastic Constant Matrix: (Units=GPa)
#
#
# Indices 1 2 3 4 5 6 
#
# 1 73.3854 19.2324 29.3427 0.0000 -5.5461 0.0000
# 2 19.2324 67.8592 16.0570 0.0000 12.3558 0.0000
# 3 29.3427 16.0570 106.3819 0.0000 -10.0775 0.0000
# 4 0.0000 0.0000 0.0000 -85.4380 0.0000 67.5693
# 5 -5.5461 12.3558 -10.0775 0.0000 22.9826 0.0000
# 6 0.0000 0.0000 0.0000 67.5693 0.0000 -20.7442
#
#
#
# Elastic Compliance Matrix: (Units=1/GPa)
#
#
# Indices 1 2 3 4 5 6 
#
# 1 0.016635 -0.004855 -0.003368 0.000000 0.005148 0.000000
# 2 -0.004855 0.019056 -0.002732 0.000000 -0.012614 0.000000
# 3 -0.003368 -0.002732 0.011272 0.000000 0.005599 0.000000
# 4 0.000000 0.000000 0.000000 0.007427 0.000000 0.024190
# 5 0.005148 -0.012614 0.005599 0.000000 0.053990 0.000000
# 6 0.000000 0.000000 0.000000 0.024190 0.000000 0.030587
#
#
# Mechanical properties :
#
#
# Convention : Reuss Voigt Hill
#
# Bulk Modulus (GPa) = 39.91621 41.87673 40.89647
# Shear Modulus (GPa) = 29.54634 -4.44029 12.55303
#
# Velocity S-wave (km/s) = 3.81663 -1.47956 2.48772
# Velocity P-wave (km/s) = 6.25310 4.21033 5.33048
#
# Compressibility (1/GPa) = 0.02505248
#
# Stress axis : x y z
#
# Youngs Moduli (GPa) = 60.11548 52.47806 88.71755
#
# Poissons Ratio (x) = 0.25478 0.29879
# Poissons Ratio (y) = 0.29185 0.24238
# Poissons Ratio (z) = 0.20246 0.14337
#
# Static dielectric constant tensor:
#      x y z
#    x 1.671640 0.000000 0.092010 
#    y 0.000000 1.630070 0.000000 
#    z 0.092010 0.000000 1.680040 
# 
# From -- ./inp_files/24143.got.cif
#   From: 2010.05.17/outbox.cif.g08.bks.cpg/sg13_13_cif.got.tgz:24143.got - 2010.06.03 16:44:36.
