data_PCOD9228240
_publ_section_title
;
Structure prediction by ZEFSAII (Michael W. Deem and Ramdas Pophale) SiO2 
 PCOD9228240
Probable space group: P 2/C
;
_chemical_formula_sum "Si O2"
_cell_formula_units_Z 32
_cell_length_a 5.101098
_cell_length_b 14.670081
_cell_length_c 21.783289
_cell_angle_alpha 90.000000
_cell_angle_beta 75.574992
_cell_angle_gamma 90.000000
_cell_volume 1578.729894
_symmetry_space_group_name_H-M "P 2/C"
_symmetry_group_IT_number 13
_symmetry_cell_setting 'monoclinic'
loop_
_space_group_symop_operation_xyz
x,y,z
-x,y,1/2-z
-x,-y,-z
x,-y,1/2+z
loop_
_atom_site_type_symbol
_atom_site_label
_atom_site_fract_x
_atom_site_fract_y
_atom_site_fract_z
Si Si1 0.277843 0.600204 0.982615
Si Si2 0.082523 0.843552 0.672876
Si Si3 0.291201 0.869743 0.206653
Si Si4 0.608527 0.671072 0.314026
Si Si5 0.175640 0.332569 0.085875
Si Si6 0.207481 0.430527 0.907912
Si Si7 0.062509 0.486996 0.181116
Si Si8 0.575748 0.956667 0.673386
O O1 0.541750 0.663245 0.967540
O O2 0.319664 0.496031 0.955092
O O3 0.065367 0.642061 0.946034
O O4 0.099113 0.592130 0.054434
O O5 0.087346 0.754347 0.630527
O O6 0.386687 0.880684 0.655105
O O7 0.000000 0.828040 0.750000
O O8 0.882043 0.920856 0.656359
O O9 0.500000 0.853693 0.250000
O O10 0.248988 0.768353 0.182895
O O11 0.000000 0.903318 0.250000
O O12 0.455297 0.945748 0.158162
O O13 0.500000 0.666495 0.250000
O O14 0.372128 0.657257 0.377873
O O15 0.795998 0.583274 0.313637
O O16 0.221164 0.414278 0.131761
O O17 0.195348 0.489480 0.845980
O O18 0.000000 0.444237 0.250000
O O19 0.500000 0.959099 0.750000
#
# Coordination Sequence:
#
# PCOD9228240 Si02
#       8
#     4   4   4   4   4   4   4   4
#     4  10  23  38  56  76 107 151 199 238 265 309
#     4  10  19  33  54  82 109 142 180 227 282 338
#     4  10  20  33  52  80 116 148 181 220 274 346
#     4  11  21  34  54  83 118 152 182 223 282 345
#     4  11  22  37  55  81 110 147 189 230 277 326
#     4  10  22  37  54  77 109 153 194 231 269 324
#     4  11  21  34  53  80 119 148 177 221 282 336
#     4   9  17  32  52  76 109 142 176 221 277 332
#
# _framework density 20.269458
#
# number of rings (size 3 to 8) (size 9 to 14) (size 15 to 20)
#    0.000    1.750    2.500    3.375    3.500    1.500 
#    0.000    1.875    0.000    0.000    0.000    5.250 
#    0.000    0.000    0.000    0.000    0.000    0.000 
#
# Total GULP energy -178355.310962 kJ/mol
# GULP energy per Si atom -5573.603468 kJ/mol
# Density = 2.022332 g / cm^3
# Si number density = 20.269458 Si / 1000 Ang^3
#
#
#
# Elastic Constant Matrix: (Units=GPa)
#
#
# Indices 1 2 3 4 5 6 
#
# 1 83.5295 16.2923 13.9545 0.0000 -5.5892 0.0000
# 2 16.2923 89.3809 16.2736 0.0000 -4.0824 0.0000
# 3 13.9545 16.2736 68.5214 0.0000 -3.5916 0.0000
# 4 0.0000 0.0000 0.0000 -18.0339 0.0000 -19.0334
# 5 -5.5892 -4.0824 -3.5916 0.0000 30.9712 0.0000
# 6 0.0000 0.0000 0.0000 -19.0334 0.0000 21.4073
#
#
#
# Elastic Compliance Matrix: (Units=1/GPa)
#
#
# Indices 1 2 3 4 5 6 
#
# 1 0.012805 -0.001874 -0.002067 0.000000 0.001824 0.000000
# 2 -0.001874 0.012015 -0.002421 0.000000 0.000965 0.000000
# 3 -0.002067 -0.002421 0.015649 0.000000 0.001123 0.000000
# 4 0.000000 0.000000 0.000000 -0.028607 0.000000 -0.025435
# 5 0.001824 0.000965 0.001123 0.000000 0.032875 0.000000
# 6 0.000000 0.000000 0.000000 -0.025435 0.000000 0.024099
#
#
# Mechanical properties :
#
#
# Convention : Reuss Voigt Hill
#
# Bulk Modulus (GPa) = 36.04489 37.16362 36.60426
# Shear Modulus (GPa) = 55.06153 19.86302 37.46227
#
# Velocity S-wave (km/s) = 5.21764 3.13381 4.30375
# Velocity P-wave (km/s) = 7.35662 5.60972 6.54174
#
# Compressibility (1/GPa) = 0.02774318
#
# Stress axis : x y z
#
# Youngs Moduli (GPa) = 78.09590 83.23199 63.90277
#
# Poissons Ratio (x) = 0.15601 0.13208
# Poissons Ratio (y) = 0.14638 0.15472
# Poissons Ratio (z) = 0.16142 0.20152
#
# Static dielectric constant tensor:
#      x y z
#    x 1.920030 0.000000 0.152680 
#    y 0.000000 1.778460 0.000000 
#    z 0.152680 0.000000 2.000410 
# 
# From -- ./inp_files/73915.got.cif
#   From: 2010.05.17/outbox.cif.g08.bks.cpg/sg13_37_cif.got.tgz:73915.got - 2010.06.03 16:44:36.
