data_PCOD9228628
_publ_section_title
;
Structure prediction by ZEFSAII (Michael W. Deem and Ramdas Pophale) SiO2 
 PCOD9228628
Probable space group: P 2/C
;
_chemical_formula_sum "Si O2"
_cell_formula_units_Z 26
_cell_length_a 26.171921
_cell_length_b 12.703349
_cell_length_c 14.271353
_cell_angle_alpha 90.000000
_cell_angle_beta 17.359186
_cell_angle_gamma 90.000000
_cell_volume 1415.666631
_symmetry_space_group_name_H-M "P 2/C"
_symmetry_group_IT_number 13
_symmetry_cell_setting 'monoclinic'
loop_
_space_group_symop_operation_xyz
x,y,z
-x,y,1/2-z
-x,-y,-z
x,-y,1/2+z
loop_
_atom_site_type_symbol
_atom_site_label
_atom_site_fract_x
_atom_site_fract_y
_atom_site_fract_z
Si Si1 0.500000 0.254591 0.750000
Si Si2 0.074494 0.261504 0.264600
Si Si3 0.044567 0.260262 0.815781
Si Si4 0.753483 0.943618 0.578756
Si Si5 0.617205 0.865625 0.210503
Si Si6 0.000000 0.441916 0.250000
Si Si7 0.000000 0.910577 0.750000
Si Si8 0.232893 0.636307 0.832657
O O1 0.381329 0.175888 0.897852
O O2 0.583489 0.331335 0.526615
O O3 0.979006 0.167335 0.375454
O O4 0.002012 0.278269 0.495361
O O5 0.051416 0.366529 0.245172
O O6 0.270408 0.220136 0.929663
O O7 0.105908 0.141297 0.695738
O O8 0.195173 0.331243 0.505759
O O9 0.886905 0.291173 0.024789
O O10 0.706535 0.023012 0.576635
O O11 0.579864 0.884697 0.914476
O O12 0.837022 0.016061 0.513300
O O13 0.841437 0.519632 0.550791
#
# Coordination Sequence:
#
# PCOD9228628 Si02
#       8
#     2   4   4   4   4   2   2   4
#     4  12  20  40  54  84 118 148 186 246 282 342
#     4  10  20  39  60  85 114 153 191 241 286 338
#     4  10  19  35  57  84 115 144 194 234 270 339
#     4  10  20  36  53  87 120 155 195 223 277 341
#     4  10  22  34  56  82 121 154 185 231 283 333
#     4   9  22  43  62  82 112 143 198 241 296 348
#     4   9  20  33  60  86 120 157 196 229 272 336
#     4  10  22  36  61  85 110 150 189 245 288 338
#
# _framework density 18.365905000000001
#
# number of rings (size 3 to 8) (size 9 to 14) (size 15 to 20)
#    0.000    2.154    3.077    0.923    0.000    6.154 
#    0.000    2.308    0.000    0.000    0.000    0.000 
#    0.000    0.000    0.000    0.000    0.000    0.000 
#
# Total GULP energy -144767.259587 kJ/mol
# GULP energy per Si atom -5567.971523 kJ/mol
# Density = 1.832410 g / cm^3
# Si number density = 18.365905 Si / 1000 Ang^3
#
#
#
# Elastic Constant Matrix: (Units=GPa)
#
#
# Indices 1 2 3 4 5 6 
#
# 1 111.3876 55.4207 40.7939 0.0000 7.1870 0.0000
# 2 55.4207 123.4059 47.7394 0.0000 -1.2290 0.0000
# 3 40.7939 47.7394 62.8582 0.0000 12.9129 0.0000
# 4 0.0000 0.0000 0.0000 14.3194 0.0000 -3.2950
# 5 7.1870 -1.2290 12.9129 0.0000 28.0044 0.0000
# 6 0.0000 0.0000 0.0000 -3.2950 0.0000 20.8752
#
#
#
# Elastic Compliance Matrix: (Units=1/GPa)
#
#
# Indices 1 2 3 4 5 6 
#
# 1 0.012835 -0.003728 -0.005289 0.000000 -0.001019 0.000000
# 2 -0.003728 0.013227 -0.008773 0.000000 0.005583 0.000000
# 3 -0.005289 -0.008773 0.028504 0.000000 -0.012171 0.000000
# 4 0.000000 0.000000 0.000000 0.072468 0.000000 0.011438
# 5 -0.001019 0.005583 -0.012171 0.000000 0.041827 0.000000
# 6 0.000000 0.000000 0.000000 0.011438 0.000000 0.049709
#
#
# Mechanical properties :
#
#
# Convention : Reuss Voigt Hill
#
# Bulk Modulus (GPa) = 52.66929 65.06220 58.86574
# Shear Modulus (GPa) = 19.19530 22.88632 21.04081
#
# Velocity S-wave (km/s) = 3.23640 3.53389 3.38841
# Velocity P-wave (km/s) = 6.53496 7.22174 6.88692
#
# Compressibility (1/GPa) = 0.01898640
#
# Stress axis : x y z
#
# Youngs Moduli (GPa) = 77.90893 75.60244 35.08235
#
# Poissons Ratio (x) = 0.28188 0.18555
# Poissons Ratio (y) = 0.29048 0.30777
# Poissons Ratio (z) = 0.41206 0.66325
#
# Static dielectric constant tensor:
#      x y z
#    x 1.635420 0.000000 -0.014140 
#    y 0.000000 1.637290 0.000000 
#    z -0.014140 0.000000 1.707870 
# 
# From -- ./inp_files/59583.got.cif
#   From: 2010.05.17/outbox.cif.g08.bks.cpg/sg13_30_cif.got.tgz:59583.got - 2010.06.03 16:44:36.
