data_PCOD9228699
_publ_section_title
;
Structure prediction by ZEFSAII (Michael W. Deem and Ramdas Pophale) SiO2 
 PCOD9228699
Probable space group: P 2/C
;
_chemical_formula_sum "Si O2"
_cell_formula_units_Z 26
_cell_length_a 15.778212
_cell_length_b 17.338464
_cell_length_c 5.107290
_cell_angle_alpha 90.000000
_cell_angle_beta 114.410301
_cell_angle_gamma 90.000000
_cell_volume 1272.304444
_symmetry_space_group_name_H-M "P 2/C"
_symmetry_group_IT_number 13
_symmetry_cell_setting 'monoclinic'
loop_
_space_group_symop_operation_xyz
x,y,z
-x,y,1/2-z
-x,-y,-z
x,-y,1/2+z
loop_
_atom_site_type_symbol
_atom_site_label
_atom_site_fract_x
_atom_site_fract_y
_atom_site_fract_z
Si Si1 0.887322 0.043046 0.800700
Si Si2 0.500000 0.445271 0.750000
Si Si3 0.000000 0.270503 0.750000
Si Si4 0.326218 0.669489 0.071401
Si Si5 0.604799 0.844803 0.309740
Si Si6 0.000000 0.829480 0.750000
Si Si7 0.793195 0.700831 0.076072
Si Si8 0.287776 0.873923 0.553443
O O1 0.778511 0.059146 0.633728
O O2 0.912828 0.027203 0.529164
O O3 0.926825 0.115818 0.008718
O O4 0.500000 0.500000 0.500000
O O5 0.592083 0.392436 0.849426
O O6 0.904520 0.310859 0.722422
O O7 0.965822 0.222051 0.450296
O O8 0.375811 0.753410 0.131694
O O9 0.263156 0.667425 0.250066
O O10 0.255060 0.665950 0.740403
O O11 0.500000 0.863255 0.250000
O O12 0.675448 0.883366 0.606494
O O13 0.628381 0.865195 0.042787
O O14 0.770395 0.793204 0.037630
#
# Coordination Sequence:
#
# PCOD9228699 Si02
#       8
#     4   2   2   4   4   2   4   4
#     4  12  24  39  55  75 111 157 198 245 308 381
#     4  12  24  40  66 100 140 176 194 234 290 348
#     4  12  22  37  62  90 122 157 196 264 324 356
#     4  10  21  38  57  93 126 160 201 234 290 364
#     4  10  19  35  60  83 111 143 186 246 303 357
#     4  12  24  37  56  82 118 147 206 246 308 396
#     4  10  21  36  60  85 123 158 196 258 304 349
#     4  10  21  35  55  81 107 146 195 247 308 353
#
# _framework density 20.435362000000001
#
# number of rings (size 3 to 8) (size 9 to 14) (size 15 to 20)
#    0.000    1.231    2.308    4.615    4.308    0.000 
#    0.000    0.000    0.000    9.231    0.000   10.769 
#    0.000    0.000    0.000    0.000    0.000    0.000 
#
# Total GULP energy -145231.841944 kJ/mol
# GULP energy per Si atom -5585.840075 kJ/mol
# Density = 2.038885 g / cm^3
# Si number density = 20.435362 Si / 1000 Ang^3
#
#
#
# Elastic Constant Matrix: (Units=GPa)
#
#
# Indices 1 2 3 4 5 6 
#
# 1 110.5272 15.3438 34.1830 0.0000 0.3331 0.0000
# 2 15.3438 34.7708 33.4301 0.0000 0.2925 0.0000
# 3 34.1830 33.4301 104.3709 0.0000 -21.8150 0.0000
# 4 0.0000 0.0000 0.0000 16.9280 0.0000 0.8846
# 5 0.3331 0.2925 -21.8150 0.0000 43.1179 0.0000
# 6 0.0000 0.0000 0.0000 0.8846 0.0000 17.2054
#
#
#
# Elastic Compliance Matrix: (Units=1/GPa)
#
#
# Indices 1 2 3 4 5 6 
#
# 1 0.010258 -0.001349 -0.003290 0.000000 -0.001735 0.000000
# 2 -0.001349 0.044252 -0.015424 0.000000 -0.008093 0.000000
# 3 -0.003290 -0.015424 0.017474 0.000000 0.008971 0.000000
# 4 0.000000 0.000000 0.000000 0.059233 0.000000 -0.003046
# 5 -0.001735 -0.008093 0.008971 0.000000 0.027799 0.000000
# 6 0.000000 0.000000 0.000000 -0.003046 0.000000 0.058278
#
#
# Mechanical properties :
#
#
# Convention : Reuss Voigt Hill
#
# Bulk Modulus (GPa) = 31.38883 46.17585 38.78234
# Shear Modulus (GPa) = 18.65400 26.56438 22.60919
#
# Velocity S-wave (km/s) = 3.02458 3.60935 3.32983
# Velocity P-wave (km/s) = 5.25270 6.32574 5.81403
#
# Compressibility (1/GPa) = 0.03185847
#
# Stress axis : x y z
#
# Youngs Moduli (GPa) = 97.48929 22.59775 57.22744
#
# Poissons Ratio (x) = 0.03048 0.18828
# Poissons Ratio (y) = 0.13148 0.88267
# Poissons Ratio (z) = 0.32075 0.34855
#
# Static dielectric constant tensor:
#      x y z
#    x 1.786320 0.000000 -0.024900 
#    y 0.000000 1.731610 0.000000 
#    z -0.024900 0.000000 1.728240 
# 
# From -- ./inp_files/5297.got.cif
#   From: 2010.05.17/outbox.cif.g08.bks.cpg/sg13_3_cif.got.tgz:5297.got - 2010.06.03 16:44:36.
