data_PCOD9228837
_publ_section_title
;
Structure prediction by ZEFSAII (Michael W. Deem and Ramdas Pophale) SiO2 
 PCOD9228837
Probable space group: P 2/C
;
_chemical_formula_sum "Si O2"
_cell_formula_units_Z 26
_cell_length_a 13.044363
_cell_length_b 6.187352
_cell_length_c 27.105845
_cell_angle_alpha 90.000000
_cell_angle_beta 150.882855
_cell_angle_gamma 90.000000
_cell_volume 1064.534938
_symmetry_space_group_name_H-M "P 2/C"
_symmetry_group_IT_number 13
_symmetry_cell_setting 'monoclinic'
loop_
_space_group_symop_operation_xyz
x,y,z
-x,y,1/2-z
-x,-y,-z
x,-y,1/2+z
loop_
_atom_site_type_symbol
_atom_site_label
_atom_site_fract_x
_atom_site_fract_y
_atom_site_fract_z
Si Si1 0.337862 0.304946 0.940463
Si Si2 0.770845 0.535205 0.793034
Si Si3 0.978424 0.664779 0.685814
Si Si4 0.841722 0.223018 0.990398
Si Si5 0.404283 0.912502 0.028983
Si Si6 0.845015 0.143781 0.884478
Si Si7 0.500000 0.781905 0.750000
O O1 0.116738 0.422430 0.851703
O O2 0.385128 0.166045 0.009178
O O3 0.500000 0.500000 0.000000
O O4 0.388607 0.159950 0.913904
O O5 0.777740 0.283090 0.809365
O O6 0.563372 0.633644 0.730731
O O7 0.807444 0.632230 0.754421
O O8 0.986082 0.623687 0.910899
O O9 0.805481 0.814114 0.586243
O O10 0.000000 0.745986 0.750000
O O11 0.625589 0.194185 0.929949
O O12 0.833208 0.283969 0.929427
O O13 0.936356 0.978287 0.032250
O O14 0.693460 0.945055 0.834095
#
# Coordination Sequence:
#
# PCOD9228837 Si02
#       7
#     4   4   4   4   4   4   2
#     4   9  18  35  55  79 112 147 192 233 280 333
#     4  10  20  38  59  79 118 152 186 240 288 339
#     4  10  21  37  56  85 113 154 196 228 283 348
#     4   9  19  34  59  87 103 148 196 232 292 346
#     4   9  18  36  56  81 115 147 186 248 281 326
#     4  10  19  36  57  81 115 145 191 238 285 348
#     4  10  22  38  50  84 116 148 190 226 298 342
#
# _framework density 24.42381
#
# number of rings (size 3 to 8) (size 9 to 14) (size 15 to 20)
#    0.000    2.462    0.000    1.846    0.000    0.615 
#   13.846    0.000    0.000    0.000    0.000    0.000 
#    0.000    0.000    0.000    0.000    0.000    0.000 
#
# Total GULP energy -145092.546976 kJ/mol
# GULP energy per Si atom -5580.482576 kJ/mol
# Density = 2.436822 g / cm^3
# Si number density = 24.423810 Si / 1000 Ang^3
#
#
#
# Elastic Constant Matrix: (Units=GPa)
#
#
# Indices 1 2 3 4 5 6 
#
# 1 140.1090 11.5884 6.7709 0.0000 12.4136 0.0000
# 2 11.5884 69.9936 11.4990 0.0000 8.1214 0.0000
# 3 6.7709 11.4990 27.8801 0.0000 -7.8851 0.0000
# 4 0.0000 0.0000 0.0000 14.8127 0.0000 8.1097
# 5 12.4136 8.1214 -7.8851 0.0000 30.2392 0.0000
# 6 0.0000 0.0000 0.0000 8.1097 0.0000 19.5678
#
#
#
# Elastic Compliance Matrix: (Units=1/GPa)
#
#
# Indices 1 2 3 4 5 6 
#
# 1 0.007634 -0.000375 -0.002761 0.000000 -0.003753 0.000000
# 2 -0.000375 0.016511 -0.008561 0.000000 -0.006513 0.000000
# 3 -0.002761 -0.008561 0.044308 0.000000 0.014986 0.000000
# 4 0.000000 0.000000 0.000000 0.087323 0.000000 -0.036190
# 5 -0.003753 -0.006513 0.014986 0.000000 0.040267 0.000000
# 6 0.000000 0.000000 0.000000 -0.036190 0.000000 0.066103
#
#
# Mechanical properties :
#
#
# Convention : Reuss Voigt Hill
#
# Bulk Modulus (GPa) = 22.19276 33.07771 27.63524
# Shear Modulus (GPa) = 16.63562 26.79889 21.71726
#
# Velocity S-wave (km/s) = 2.61266 3.31606 2.98515
# Velocity P-wave (km/s) = 4.26704 5.31360 4.81881
#
# Compressibility (1/GPa) = 0.04505973
#
# Stress axis : x y z
#
# Youngs Moduli (GPa) = 130.98835 60.56495 22.56952
#
# Poissons Ratio (x) = 0.02271 0.06231
# Poissons Ratio (y) = 0.04911 0.19321
# Poissons Ratio (z) = 0.36164 0.51849
#
# Static dielectric constant tensor:
#      x y z
#    x 2.077000 0.000000 -0.036280 
#    y 0.000000 1.983650 0.000000 
#    z -0.036280 0.000000 1.989040 
# 
# From -- ./inp_files/96902.got.cif
#   From: 2010.05.17/outbox.cif.g08.bks.cpg/sg13_49_cif.got.tgz:96902.got - 2010.06.03 16:44:36.
