data_PCOD9228420
_publ_section_title
;
Structure prediction by ZEFSAII (Michael W. Deem and Ramdas Pophale) SiO2 
 PCOD9228420
Probable space group: P 2/C
;
_chemical_formula_sum "Si O2"
_cell_formula_units_Z 22
_cell_length_a 20.497587
_cell_length_b 5.711256
_cell_length_c 19.406425
_cell_angle_alpha 90.000000
_cell_angle_beta 20.127823
_cell_angle_gamma 90.000000
_cell_volume 781.779661
_symmetry_space_group_name_H-M "P 2/C"
_symmetry_group_IT_number 13
_symmetry_cell_setting 'monoclinic'
loop_
_space_group_symop_operation_xyz
x,y,z
-x,y,1/2-z
-x,-y,-z
x,-y,1/2+z
loop_
_atom_site_type_symbol
_atom_site_label
_atom_site_fract_x
_atom_site_fract_y
_atom_site_fract_z
Si Si1 0.721397 0.302394 0.523126
Si Si2 0.799737 0.861808 0.591964
Si Si3 0.773478 0.629847 0.130062
Si Si4 0.000000 0.089015 0.750000
Si Si5 0.320813 0.551323 0.577104
Si Si6 0.613678 0.947610 0.456810
O O1 0.500000 0.261266 0.750000
O O2 0.800751 0.361132 0.519525
O O3 0.828423 0.072495 0.393483
O O4 0.738744 0.485166 0.443745
O O5 0.844528 0.114033 0.580711
O O6 0.903589 0.823506 0.416036
O O7 0.567981 0.894201 0.811392
O O8 0.843038 0.620072 0.588730
O O9 0.546837 0.596485 0.361810
O O10 0.263228 0.817814 0.653326
O O11 0.282221 0.303590 0.651230
O O12 0.500000 0.000000 0.500000
#
# Coordination Sequence:
#
# PCOD9228420 Si02
#       6
#     4   4   4   2   4   4
#     4   9  18  34  55  83 117 148 182 224 279 342
#     4   9  18  31  49  77 104 137 179 216 265 324
#     4   8  16  30  48  73 107 137 169 214 267 327
#     4  10  20  34  58  84 118 150 178 224 284 344
#     4   9  18  31  51  78 106 140 183 230 273 322
#     4  10  19  34  55  77 105 145 190 231 273 320
#
# _framework density 28.140920999999999
#
# number of rings (size 3 to 8) (size 9 to 14) (size 15 to 20)
#    0.000    2.909    0.000    1.636    0.000    5.818 
#    0.000   13.636    0.000    2.182    0.000    0.000 
#    0.000    0.000    0.000    0.000    0.000    0.000 
#
# Total GULP energy -122669.017472 kJ/mol
# GULP energy per Si atom -5575.864431 kJ/mol
# Density = 2.807687 g / cm^3
# Si number density = 28.140921 Si / 1000 Ang^3
#
#
#
# Elastic Constant Matrix: (Units=GPa)
#
#
# Indices 1 2 3 4 5 6 
#
# 1 61.1834 22.8392 -0.9752 0.0000 18.6109 0.0000
# 2 22.8392 316.2420 22.7373 0.0000 12.2130 0.0000
# 3 -0.9752 22.7373 124.5914 0.0000 1.7598 0.0000
# 4 0.0000 0.0000 0.0000 13.2786 0.0000 17.3659
# 5 18.6109 12.2130 1.7598 0.0000 25.4038 0.0000
# 6 0.0000 0.0000 0.0000 17.3659 0.0000 19.1515
#
#
#
# Elastic Compliance Matrix: (Units=1/GPa)
#
#
# Indices 1 2 3 4 5 6 
#
# 1 0.021349 -0.000995 0.000563 0.000000 -0.015200 0.000000
# 2 -0.000995 0.003309 -0.000600 0.000000 -0.000820 0.000000
# 3 0.000563 -0.000600 0.008150 0.000000 -0.000689 0.000000
# 4 0.000000 0.000000 0.000000 -0.405145 0.000000 0.367371
# 5 -0.015200 -0.000820 -0.000689 0.000000 0.050942 0.000000
# 6 0.000000 0.000000 0.000000 0.367371 0.000000 -0.280904
#
#
# Mechanical properties :
#
#
# Convention : Reuss Voigt Hill
#
# Bulk Modulus (GPa) = 32.52730 65.69103 49.10917
# Shear Modulus (GPa) = -8.47474 42.06116 16.79321
#
# Velocity S-wave (km/s) = -1.73726 3.87028 2.44551
# Velocity P-wave (km/s) = 2.74949 6.58531 5.04609
#
# Compressibility (1/GPa) = 0.03074341
#
# Stress axis : x y z
#
# Youngs Moduli (GPa) = 46.84170 302.22200 122.70118
#
# Poissons Ratio (x) = 0.30080 -0.06913
# Poissons Ratio (y) = 0.04662 0.07363
# Poissons Ratio (z) = -0.02639 0.18135
#
# Static dielectric constant tensor:
#      x y z
#    x 2.202150 0.000000 0.072810 
#    y 0.000000 2.330350 0.000000 
#    z 0.072810 0.000000 2.229400 
# 
# From -- ./inp_files/88706.got.cif
#   From: 2010.05.17/outbox.cif.g08.bks.cpg/sg13_45_cif.got.tgz:88706.got - 2010.06.03 16:44:36.
