data_PCOD9228966
_publ_section_title
;
Structure prediction by ZEFSAII (Michael W. Deem and Ramdas Pophale) SiO2 
 PCOD9228966
Probable space group: P 2/C
;
_chemical_formula_sum "Si O2"
_cell_formula_units_Z 16
_cell_length_a 7.878702
_cell_length_b 5.138974
_cell_length_c 20.323976
_cell_angle_alpha 90.000000
_cell_angle_beta 131.649203
_cell_angle_gamma 90.000000
_cell_volume 614.883318
_symmetry_space_group_name_H-M "P 2/C"
_symmetry_group_IT_number 13
_symmetry_cell_setting 'monoclinic'
loop_
_space_group_symop_operation_xyz
x,y,z
-x,y,1/2-z
-x,-y,-z
x,-y,1/2+z
loop_
_atom_site_type_symbol
_atom_site_label
_atom_site_fract_x
_atom_site_fract_y
_atom_site_fract_z
Si Si1 0.348727 0.752003 0.449452
Si Si2 0.757988 0.505489 0.706657
Si Si3 0.630506 0.858496 0.853825
Si Si4 0.870254 0.358078 0.883344
O O1 0.500000 0.500000 0.500000
O O2 0.270952 0.721403 0.353866
O O3 0.125464 0.736544 0.437203
O O4 0.500000 0.000000 0.500000
O O5 0.557839 0.716179 0.650691
O O6 0.000000 0.631512 0.750000
O O7 0.768836 0.388394 0.782808
O O8 0.500000 0.870836 0.750000
O O9 0.835036 0.648101 0.901698
O O10 0.730797 0.145164 0.888915
#
# Coordination Sequence:
#
# PCOD9228966 Si02
#       4
#     4   4   4   4
#     4  11  24  42  61  89 128 170 210 256 310 374
#     4   9  21  41  67  94 124 166 214 260 313 376
#     4  10  19  36  62  94 122 153 203 263 312 363
#     4  10  21  39  63  91 122 159 206 259 312 369
#
# _framework density 26.021198999999999
#
# number of rings (size 3 to 8) (size 9 to 14) (size 15 to 20)
#    0.000    2.000    0.000    3.750    0.000    6.000 
#    0.000   27.500    0.000    0.000    0.000    0.000 
#    0.000    0.000    0.000    0.000    0.000    0.000 
#
# Total GULP energy -89718.239404 kJ/mol
# GULP energy per Si atom -5607.389963 kJ/mol
# Density = 2.596197 g / cm^3
# Si number density = 26.021199 Si / 1000 Ang^3
#
#
#
# Elastic Constant Matrix: (Units=GPa)
#
#
# Indices 1 2 3 4 5 6 
#
# 1 145.2793 41.7218 33.4196 0.0000 27.1019 0.0000
# 2 41.7218 162.9781 30.6879 0.0000 19.9487 0.0000
# 3 33.4196 30.6879 78.3365 0.0000 3.0201 0.0000
# 4 0.0000 0.0000 0.0000 27.3675 0.0000 12.4223
# 5 27.1019 19.9487 3.0201 0.0000 59.2048 0.0000
# 6 0.0000 0.0000 0.0000 12.4223 0.0000 36.4119
#
#
#
# Elastic Compliance Matrix: (Units=1/GPa)
#
#
# Indices 1 2 3 4 5 6 
#
# 1 0.008557 -0.001206 -0.003049 0.000000 -0.003355 0.000000
# 2 -0.001206 0.007067 -0.002188 0.000000 -0.001718 0.000000
# 3 -0.003049 -0.002188 0.014870 0.000000 0.001374 0.000000
# 4 0.000000 0.000000 0.000000 0.043235 0.000000 -0.014750
# 5 -0.003355 -0.001718 0.001374 0.000000 0.018935 0.000000
# 6 0.000000 0.000000 0.000000 -0.014750 0.000000 0.032496
#
#
# Mechanical properties :
#
#
# Convention : Reuss Voigt Hill
#
# Bulk Modulus (GPa) = 56.78879 66.47250 61.63064
# Shear Modulus (GPa) = 34.74312 43.31448 39.02880
#
# Velocity S-wave (km/s) = 3.65798 4.08436 3.87704
# Velocity P-wave (km/s) = 6.30179 6.91691 6.61650
#
# Compressibility (1/GPa) = 0.01760911
#
# Stress axis : x y z
#
# Youngs Moduli (GPa) = 116.86591 141.51034 67.24890
#
# Poissons Ratio (x) = 0.17063 0.20503
# Poissons Ratio (y) = 0.14091 0.14712
# Poissons Ratio (z) = 0.35630 0.30958
#
# Static dielectric constant tensor:
#      x y z
#    x 2.035320 0.000000 -0.042630 
#    y 0.000000 1.935890 0.000000 
#    z -0.042630 0.000000 2.129010 
# 
# From -- ./inp_files/74747.got.cif
#   From: 2010.05.17/outbox.cif.g08.bks.cpg/sg13_38_cif.got.tgz:74747.got - 2010.06.03 16:44:36.
