data_PCOD9228324
_publ_section_title
;
Structure prediction by ZEFSAII (Michael W. Deem and Ramdas Pophale) SiO2 
 PCOD9228324
Probable space group: P 2/C
;
_chemical_formula_sum "Si O2"
_cell_formula_units_Z 32
_cell_length_a 13.626590
_cell_length_b 18.861880
_cell_length_c 10.424188
_cell_angle_alpha 90.000000
_cell_angle_beta 145.533687
_cell_angle_gamma 90.000000
_cell_volume 1516.249491
_symmetry_space_group_name_H-M "P 2/C"
_symmetry_group_IT_number 13
_symmetry_cell_setting 'monoclinic'
loop_
_space_group_symop_operation_xyz
x,y,z
-x,y,1/2-z
-x,-y,-z
x,-y,1/2+z
loop_
_atom_site_type_symbol
_atom_site_label
_atom_site_fract_x
_atom_site_fract_y
_atom_site_fract_z
Si Si1 0.085341 0.046506 0.477320
Si Si2 0.894065 0.527317 0.760646
Si Si3 0.651867 0.410559 0.559750
Si Si4 0.907331 0.184725 0.855502
Si Si5 0.702447 0.346353 0.337535
Si Si6 0.414515 0.960535 0.789636
Si Si7 0.724252 0.812698 0.885592
Si Si8 0.980976 0.658562 0.507423
O O1 0.143938 0.118642 0.611227
O O2 0.000000 0.068979 0.250000
O O3 0.223899 0.990679 0.576767
O O4 0.000000 0.000000 0.500000
O O5 0.708710 0.489363 0.577434
O O6 0.898999 0.612790 0.766920
O O7 0.000000 0.502590 0.750000
O O8 0.000000 0.500000 0.000000
O O9 0.696552 0.364370 0.481163
O O10 0.453279 0.396086 0.383125
O O11 0.795878 0.381395 0.812068
O O12 0.779560 0.190929 0.595227
O O13 0.097935 0.171950 0.999655
O O14 0.934082 0.258751 0.960241
O O15 0.654258 0.263962 0.269747
O O16 0.895587 0.351662 0.486632
O O17 0.500000 0.981777 0.750000
O O18 0.405337 0.875967 0.786052
O O19 0.500000 0.000000 0.000000
#
# Coordination Sequence:
#
# PCOD9228324 Si02
#       8
#     4   4   4   4   4   4   4   4
#     4  12  24  43  65  91 127 172 227 270 324 409
#     4  10  21  38  64  90 128 168 212 264 324 395
#     4  10  19  33  57  90 128 168 207 266 325 379
#     4  10  20  37  67  93 123 174 219 279 321 395
#     4  10  20  33  60  96 126 162 221 270 316 390
#     4  12  26  40  62  95 136 174 217 278 349 395
#     4  10  20  37  63  96 130 166 222 275 332 391
#     4  10  20  37  58  89 128 164 214 265 325 383
#
# _framework density 21.104704999999999
#
# number of rings (size 3 to 8) (size 9 to 14) (size 15 to 20)
#    0.000    1.500    2.500    4.125    1.750    2.000 
#    0.000    1.250    0.000    0.000    0.000    0.000 
#    0.000    0.000    0.000    0.000    0.000    0.000 
#
# Total GULP energy -178284.329069 kJ/mol
# GULP energy per Si atom -5571.385283 kJ/mol
# Density = 2.105667 g / cm^3
# Si number density = 21.104705 Si / 1000 Ang^3
#
#
#
# Elastic Constant Matrix: (Units=GPa)
#
#
# Indices 1 2 3 4 5 6 
#
# 1 78.7429 12.3535 3.0331 0.0000 -4.5746 0.0000
# 2 12.3535 140.3789 16.4788 0.0000 -9.3235 0.0000
# 3 3.0331 16.4788 47.5593 0.0000 -0.0650 0.0000
# 4 0.0000 0.0000 0.0000 36.0056 0.0000 -0.7962
# 5 -4.5746 -9.3235 -0.0650 0.0000 28.5155 0.0000
# 6 0.0000 0.0000 0.0000 -0.7962 0.0000 26.5442
#
#
#
# Elastic Compliance Matrix: (Units=1/GPa)
#
#
# Indices 1 2 3 4 5 6 
#
# 1 0.012973 -0.000967 -0.000490 0.000000 0.001764 0.000000
# 2 -0.000967 0.007669 -0.002592 0.000000 0.002346 0.000000
# 3 -0.000490 -0.002592 0.021955 0.000000 -0.000876 0.000000
# 4 0.000000 0.000000 0.000000 0.027792 0.000000 0.000834
# 5 0.001764 0.002346 -0.000876 0.000000 0.036117 0.000000
# 6 0.000000 0.000000 0.000000 0.000834 0.000000 0.037698
#
#
# Mechanical properties :
#
#
# Convention : Reuss Voigt Hill
#
# Bulk Modulus (GPa) = 28.98733 36.71243 32.84988
# Shear Modulus (GPa) = 30.52497 33.86743 32.19620
#
# Velocity S-wave (km/s) = 3.80723 4.01026 3.91006
# Velocity P-wave (km/s) = 5.75252 6.23506 5.99865
#
# Compressibility (1/GPa) = 0.03449783
#
# Stress axis : x y z
#
# Youngs Moduli (GPa) = 77.08558 130.39825 45.54844
#
# Poissons Ratio (x) = 0.12609 0.02231
# Poissons Ratio (y) = 0.07454 0.11807
# Poissons Ratio (z) = 0.03776 0.33803
#
# Static dielectric constant tensor:
#      x y z
#    x 1.831580 0.000000 0.069570 
#    y 0.000000 1.796260 0.000000 
#    z 0.069570 0.000000 1.846690 
# 
# From -- ./inp_files/37719.got.cif
#   From: 2010.05.17/outbox.cif.g08.bks.cpg/sg13_19_cif.got.tgz:37719.got - 2010.06.03 16:44:36.
