data_PCOD9228520
_publ_section_title
;
Structure prediction by ZEFSAII (Michael W. Deem and Ramdas Pophale) SiO2 
 PCOD9228520
Probable space group: P 2/C
;
_chemical_formula_sum "Si O2"
_cell_formula_units_Z 16
_cell_length_a 5.181118
_cell_length_b 9.431795
_cell_length_c 16.348971
_cell_angle_alpha 90.000000
_cell_angle_beta 122.712200
_cell_angle_gamma 90.000000
_cell_volume 672.215563
_symmetry_space_group_name_H-M "P 2/C"
_symmetry_group_IT_number 13
_symmetry_cell_setting 'monoclinic'
loop_
_space_group_symop_operation_xyz
x,y,z
-x,y,1/2-z
-x,-y,-z
x,-y,1/2+z
loop_
_atom_site_type_symbol
_atom_site_label
_atom_site_fract_x
_atom_site_fract_y
_atom_site_fract_z
Si Si1 0.000000 0.681995 0.750000
Si Si2 0.361141 0.442737 0.890444
Si Si3 0.500000 0.149678 0.250000
Si Si4 0.040225 0.353191 0.557771
Si Si5 0.678542 0.074416 0.455703
O O1 0.721298 0.581424 0.674442
O O2 0.829573 0.767877 0.793926
O O3 0.599632 0.330019 0.895365
O O4 0.033517 0.379760 0.860275
O O5 0.500000 0.500000 0.000000
O O6 0.513805 0.070671 0.339476
O O7 0.000000 0.500000 0.500000
O O8 0.791803 0.235684 0.491169
O O9 0.500000 0.000000 0.500000
O O10 0.000000 0.000000 0.500000
#
# Coordination Sequence:
#
# PCOD9228520 Si02
#       5
#     2   4   2   4   4
#     4  12  22  38  70 106 136 186 244 298 354 432
#     4  10  19  34  58  95 133 166 216 287 350 404
#     4  12  24  44  70 100 140 192 252 296 350 448
#     4  10  20  39  65  95 134 176 222 286 356 422
#     4  12  26  46  72 103 142 193 242 298 364 432
#
# _framework density 23.80189
#
# number of rings (size 3 to 8) (size 9 to 14) (size 15 to 20)
#    0.000    1.000    0.000   10.500    0.000    0.000 
#    0.000    5.000    0.000    0.000    0.000    0.000 
#    0.000    0.000    0.000    0.000    0.000    0.000 
#
# Total GULP energy -89147.403361 kJ/mol
# GULP energy per Si atom -5571.712710 kJ/mol
# Density = 2.374772 g / cm^3
# Si number density = 23.801890 Si / 1000 Ang^3
#
#
#
# Elastic Constant Matrix: (Units=GPa)
#
#
# Indices 1 2 3 4 5 6 
#
# 1 214.7454 42.4618 44.7104 0.0000 -44.3832 0.0000
# 2 42.4618 98.7603 49.0930 0.0000 -7.8235 0.0000
# 3 44.7104 49.0930 109.1182 0.0000 -17.7542 0.0000
# 4 0.0000 0.0000 0.0000 28.6348 0.0000 -3.4054
# 5 -44.3832 -7.8235 -17.7542 0.0000 43.2163 0.0000
# 6 0.0000 0.0000 0.0000 -3.4054 0.0000 48.4847
#
#
#
# Elastic Compliance Matrix: (Units=1/GPa)
#
#
# Indices 1 2 3 4 5 6 
#
# 1 0.006424 -0.001885 -0.000821 0.000000 0.005918 0.000000
# 2 -0.001885 0.013596 -0.005636 0.000000 -0.001790 0.000000
# 3 -0.000821 -0.005636 0.012574 0.000000 0.003302 0.000000
# 4 0.000000 0.000000 0.000000 0.035217 0.000000 0.002473
# 5 0.005918 -0.001790 0.003302 0.000000 0.030250 0.000000
# 6 0.000000 0.000000 0.000000 0.002473 0.000000 0.020799
#
#
# Mechanical properties :
#
#
# Convention : Reuss Voigt Hill
#
# Bulk Modulus (GPa) = 62.85489 77.23937 70.04713
# Shear Modulus (GPa) = 35.50014 43.15775 39.32894
#
# Velocity S-wave (km/s) = 3.86616 4.26280 4.06932
# Velocity P-wave (km/s) = 6.81135 7.53326 7.18138
#
# Compressibility (1/GPa) = 0.01590966
#
# Stress axis : x y z
#
# Youngs Moduli (GPa) = 155.67786 73.55340 79.53194
#
# Poissons Ratio (x) = 0.13863 0.06530
# Poissons Ratio (y) = 0.29342 0.44821
# Poissons Ratio (z) = 0.12782 0.41452
#
# Static dielectric constant tensor:
#      x y z
#    x 2.879480 0.000000 0.199230 
#    y 0.000000 -3.492880 0.000000 
#    z 0.199230 0.000000 1.950060 
# 
# From -- ./inp_files/43295.got.cif
#   From: 2010.05.17/outbox.cif.g08.bks.cpg/sg13_22_cif.got.tgz:43295.got - 2010.06.03 16:44:36.
