data_PCOD9228999
_publ_section_title
;
Structure prediction by ZEFSAII (Michael W. Deem and Ramdas Pophale) SiO2 
 PCOD9228999
Probable space group: P 2/C
;
_chemical_formula_sum "Si O2"
_cell_formula_units_Z 20
_cell_length_a 8.304730
_cell_length_b 22.769742
_cell_length_c 5.323252
_cell_angle_alpha 90.000000
_cell_angle_beta 114.051155
_cell_angle_gamma 90.000000
_cell_volume 919.216839
_symmetry_space_group_name_H-M "P 2/C"
_symmetry_group_IT_number 13
_symmetry_cell_setting 'monoclinic'
loop_
_space_group_symop_operation_xyz
x,y,z
-x,y,1/2-z
-x,-y,-z
x,-y,1/2+z
loop_
_atom_site_type_symbol
_atom_site_label
_atom_site_fract_x
_atom_site_fract_y
_atom_site_fract_z
Si Si1 0.647806 0.706500 0.030479
Si Si2 0.000000 0.758404 0.250000
Si Si3 0.193988 0.537579 0.821918
Si Si4 0.853990 0.865512 0.460071
Si Si5 0.500000 0.813117 0.250000
Si Si6 0.000000 0.040126 0.750000
Si Si7 0.500000 0.610444 0.250000
O O1 0.573262 0.768406 0.088123
O O2 0.645870 0.655653 0.233313
O O3 0.839795 0.719638 0.048786
O O4 0.500000 0.685060 0.750000
O O5 0.073353 0.802880 0.088403
O O6 0.194946 0.513247 0.538281
O O7 0.000000 0.567122 0.750000
O O8 0.376895 0.571738 0.990205
O O9 0.661465 0.852898 0.444317
O O10 0.847646 0.912108 0.226106
O O11 0.000000 0.886566 0.750000
O O12 0.000000 0.000000 0.500000
#
# Coordination Sequence:
#
# PCOD9228999 Si02
#       7
#     4   2   4   4   2   2   2
#     4  10  21  36  56  87 128 157 196 255 303 369
#     4   9  20  36  56  88 118 164 206 241 306 368
#     4  10  23  43  66  90 119 159 209 257 301 366
#     4  10  19  36  66  85 119 168 205 254 304 364
#     4   9  20  38  58  94 118 158 216 245 300 370
#     4  11  22  40  62  92 128 162 206 259 318 364
#     4  11  24  36  60  90 118 160 200 253 318 358
#
# _framework density 21.757653999999999
#
# number of rings (size 3 to 8) (size 9 to 14) (size 15 to 20)
#    0.000    2.000    1.000    1.800    2.800    1.600 
#    1.800    3.000    0.000    0.000    0.000    0.000 
#    0.000    0.000    0.000    0.000    0.000    0.000 
#
# Total GULP energy -111354.881967 kJ/mol
# GULP energy per Si atom -5567.744098 kJ/mol
# Density = 2.170813 g / cm^3
# Si number density = 21.757654 Si / 1000 Ang^3
#
#
#
# Elastic Constant Matrix: (Units=GPa)
#
#
# Indices 1 2 3 4 5 6 
#
# 1 93.6531 30.7138 26.2871 0.0000 27.8715 0.0000
# 2 30.7138 56.0285 13.7872 0.0000 12.0163 0.0000
# 3 26.2871 13.7872 76.4163 0.0000 12.7270 0.0000
# 4 0.0000 0.0000 0.0000 35.1150 0.0000 -16.7076
# 5 27.8715 12.0163 12.7270 0.0000 38.9035 0.0000
# 6 0.0000 0.0000 0.0000 -16.7076 0.0000 -9.9408
#
#
#
# Elastic Compliance Matrix: (Units=1/GPa)
#
#
# Indices 1 2 3 4 5 6 
#
# 1 0.016144 -0.006259 -0.002982 0.000000 -0.008657 0.000000
# 2 -0.006259 0.022045 -0.001520 0.000000 -0.001828 0.000000
# 3 -0.002982 -0.001520 0.014756 0.000000 -0.002221 0.000000
# 4 0.000000 0.000000 0.000000 0.015824 0.000000 -0.026595
# 5 -0.008657 -0.001828 -0.002221 0.000000 0.033198 0.000000
# 6 0.000000 0.000000 0.000000 -0.026595 0.000000 -0.055897
#
#
# Mechanical properties :
#
#
# Convention : Reuss Voigt Hill
#
# Bulk Modulus (GPa) = 31.82435 40.85268 36.33851
# Shear Modulus (GPa) = 64.04684 23.16953 43.60819
#
# Velocity S-wave (km/s) = 5.43142 3.26681 4.48176
# Velocity P-wave (km/s) = 7.34795 5.74860 6.59692
#
# Compressibility (1/GPa) = 0.03142248
#
# Stress axis : x y z
#
# Youngs Moduli (GPa) = 61.94298 45.36124 67.76754
#
# Poissons Ratio (x) = 0.28393 0.20211
# Poissons Ratio (y) = 0.38772 0.10300
# Poissons Ratio (z) = 0.18474 0.06894
#
# Static dielectric constant tensor:
#      x y z
#    x 1.856370 0.000000 -0.035460 
#    y 0.000000 1.802910 0.000000 
#    z -0.035460 0.000000 1.866010 
# 
# From -- ./inp_files/1831.got.cif
#   From: 2010.05.17/outbox.cif.g08.bks.cpg/sg13_1_cif.got.tgz:1831.got - 2010.06.03 16:44:36.
