data_PCOD9228844
_publ_section_title
;
Structure prediction by ZEFSAII (Michael W. Deem and Ramdas Pophale) SiO2 
 PCOD9228844
Probable space group: P 2/C
;
_chemical_formula_sum "Si O2"
_cell_formula_units_Z 18
_cell_length_a 7.573535
_cell_length_b 22.359158
_cell_length_c 5.279817
_cell_angle_alpha 90.000000
_cell_angle_beta 66.008699
_cell_angle_gamma 90.000000
_cell_volume 816.831477
_symmetry_space_group_name_H-M "P 2/C"
_symmetry_group_IT_number 13
_symmetry_cell_setting 'monoclinic'
loop_
_space_group_symop_operation_xyz
x,y,z
-x,y,1/2-z
-x,-y,-z
x,-y,1/2+z
loop_
_atom_site_type_symbol
_atom_site_label
_atom_site_fract_x
_atom_site_fract_y
_atom_site_fract_z
Si Si1 0.000000 0.040677 0.750000
Si Si2 0.764914 0.671142 0.896963
Si Si3 0.377424 0.877964 0.070441
Si Si4 0.235771 0.464469 0.103819
Si Si5 0.233843 0.256960 0.604297
O O1 0.185669 0.082941 0.665452
O O2 0.000000 0.000000 0.500000
O O3 0.693936 0.603412 0.905624
O O4 0.711430 0.714680 0.697685
O O5 0.000000 0.668473 0.750000
O O6 0.712964 0.698470 0.198846
O O7 0.500000 0.891077 0.250000
O O8 0.322914 0.807862 0.097455
O O9 0.500000 0.891241 0.750000
O O10 0.291088 0.507084 0.303388
O O11 0.000000 0.462167 0.250000
O O12 0.000000 0.250697 0.750000
#
# Coordination Sequence:
#
# PCOD9228844 Si02
#       5
#     2   4   4   4   4
#     4  12  28  50  76 106 144 184 222 268 324 384
#     4   9  17  27  48  76 110 163 212 261 329 394
#     4  12  26  45  72 104 139 179 226 275 328 389
#     4   9  15  23  36  62 106 153 201 260 322 383
#     4  10  19  36  57  84 123 163 212 268 328 387
#
# _framework density 22.036370000000002
#
# number of rings (size 3 to 8) (size 9 to 14) (size 15 to 20)
#    0.000    1.778    1.111    4.000    0.000    8.000 
#    0.000    0.000    0.000    0.000    0.000    0.000 
#    0.000   62.222    0.000    0.000    0.000    0.000 
#
# Total GULP energy -100846.946539 kJ/mol
# GULP energy per Si atom -5602.608141 kJ/mol
# Density = 2.198621 g / cm^3
# Si number density = 22.036370 Si / 1000 Ang^3
#
#
#
# Elastic Constant Matrix: (Units=GPa)
#
#
# Indices 1 2 3 4 5 6 
#
# 1 142.7348 57.5768 48.6662 0.0000 9.5678 0.0000
# 2 57.5768 154.9829 55.5583 0.0000 16.5130 0.0000
# 3 48.6662 55.5583 125.5878 0.0000 44.5764 0.0000
# 4 0.0000 0.0000 0.0000 49.2439 0.0000 27.2177
# 5 9.5678 16.5130 44.5764 0.0000 38.9122 0.0000
# 6 0.0000 0.0000 0.0000 27.2177 0.0000 -36.5477
#
#
#
# Elastic Compliance Matrix: (Units=1/GPa)
#
#
# Indices 1 2 3 4 5 6 
#
# 1 0.008937 -0.002405 -0.003339 0.000000 0.002649 0.000000
# 2 -0.002405 0.008342 -0.002885 0.000000 0.000356 0.000000
# 3 -0.003339 -0.002885 0.016527 0.000000 -0.016887 0.000000
# 4 0.000000 0.000000 0.000000 0.014386 0.000000 0.010713
# 5 0.002649 0.000356 -0.016887 0.000000 0.044242 0.000000
# 6 0.000000 0.000000 0.000000 0.010713 0.000000 -0.019383
#
#
# Mechanical properties :
#
#
# Convention : Reuss Voigt Hill
#
# Bulk Modulus (GPa) = 60.43230 82.98980 71.71105
# Shear Modulus (GPa) = 52.17859 27.75531 39.96695
#
# Velocity S-wave (km/s) = 4.87132 3.55283 4.26335
# Velocity P-wave (km/s) = 7.68916 7.38730 7.53974
#
# Compressibility (1/GPa) = 0.01654744
#
# Stress axis : x y z
#
# Youngs Moduli (GPa) = 111.89082 119.87384 60.50855
#
# Poissons Ratio (x) = 0.28834 0.20205
# Poissons Ratio (y) = 0.26914 0.17455
# Poissons Ratio (z) = 0.37363 0.34579
#
# Static dielectric constant tensor:
#      x y z
#    x 1.828210 0.000000 -0.049300 
#    y 0.000000 1.737490 0.000000 
#    z -0.049300 0.000000 1.756730 
# 
# From -- ./inp_files/1947.got.cif
#   From: 2010.05.17/outbox.cif.g08.bks.cpg/sg13_1_cif.got.tgz:1947.got - 2010.06.03 16:44:36.
