data_PCOD9228369
_publ_section_title
;
Structure prediction by ZEFSAII (Michael W. Deem and Ramdas Pophale) SiO2 
 PCOD9228369
Probable space group: P 2/C
;
_chemical_formula_sum "Si O2"
_cell_formula_units_Z 32
_cell_length_a 20.754992
_cell_length_b 13.271847
_cell_length_c 9.484999
_cell_angle_alpha 90.000000
_cell_angle_beta 44.884646
_cell_angle_gamma 90.000000
_cell_volume 1843.741781
_symmetry_space_group_name_H-M "P 2/C"
_symmetry_group_IT_number 13
_symmetry_cell_setting 'monoclinic'
loop_
_space_group_symop_operation_xyz
x,y,z
-x,y,1/2-z
-x,-y,-z
x,-y,1/2+z
loop_
_atom_site_type_symbol
_atom_site_label
_atom_site_fract_x
_atom_site_fract_y
_atom_site_fract_z
Si Si1 0.591844 0.115569 0.540601
Si Si2 0.106613 0.602813 0.421985
Si Si3 0.793181 0.198940 0.780131
Si Si4 0.352947 0.067258 0.347637
Si Si5 0.895610 0.393026 0.238191
Si Si6 0.788806 0.791481 0.775464
Si Si7 0.183154 0.068450 0.023967
Si Si8 0.097863 0.870049 0.142242
O O1 0.500000 0.159542 0.750000
O O2 0.586271 0.100350 0.379988
O O3 0.681239 0.183116 0.436449
O O4 0.605667 0.007842 0.599506
O O5 0.180748 0.684422 0.257576
O O6 0.116254 0.497343 0.326962
O O7 0.115799 0.591166 0.576527
O O8 0.002191 0.639806 0.554136
O O9 0.798665 0.156495 0.614157
O O10 0.874163 0.143527 0.740109
O O11 0.699061 0.159607 0.995225
O O12 0.273330 0.000194 0.398512
O O13 0.824940 0.311210 0.287387
O O14 0.828410 0.805672 0.558718
O O15 0.833388 0.880593 0.800344
O O16 0.108385 0.988257 0.092679
O O17 0.000000 0.832311 0.250000
#
# Coordination Sequence:
#
# PCOD9228369 Si02
#       8
#     4   4   4   4   4   4   4   4
#     4  11  21  35  57  83 111 150 188 228 276 327
#     4  10  22  37  56  81 105 147 187 229 280 326
#     4  11  19  35  54  73 109 145 183 222 272 326
#     4  10  19  35  53  80 113 142 180 228 267 328
#     4  10  22  38  55  78 111 140 189 238 273 325
#     4  11  21  37  54  76 112 146 185 229 276 321
#     4  10  19  34  51  72 109 146 184 218 266 320
#     4  11  22  31  48  76 110 149 183 217 262 326
#
# _framework density 17.356010000000001
#
# number of rings (size 3 to 8) (size 9 to 14) (size 15 to 20)
#    0.000    1.500    5.000    2.625    1.750    3.000 
#    0.000    0.000    0.000    0.000    0.000    4.375 
#    0.000    0.000    0.000    0.000    0.000    0.000 
#
# Total GULP energy -178429.121453 kJ/mol
# GULP energy per Si atom -5575.910045 kJ/mol
# Density = 1.731651 g / cm^3
# Si number density = 17.356010 Si / 1000 Ang^3
#
#
#
# Elastic Constant Matrix: (Units=GPa)
#
#
# Indices 1 2 3 4 5 6 
#
# 1 45.3476 22.3389 27.3992 0.0000 -5.2104 0.0000
# 2 22.3389 76.9313 29.8354 0.0000 -6.2204 0.0000
# 3 27.3992 29.8354 57.5287 0.0000 -6.5898 0.0000
# 4 0.0000 0.0000 0.0000 20.9732 0.0000 6.1396
# 5 -5.2104 -6.2204 -6.5898 0.0000 28.3117 0.0000
# 6 0.0000 0.0000 0.0000 6.1396 0.0000 18.9620
#
#
#
# Elastic Compliance Matrix: (Units=1/GPa)
#
#
# Indices 1 2 3 4 5 6 
#
# 1 0.032136 -0.004160 -0.012920 0.000000 0.001993 0.000000
# 2 -0.004160 0.016886 -0.006615 0.000000 0.001405 0.000000
# 3 -0.012920 -0.006615 0.027254 0.000000 0.002513 0.000000
# 4 0.000000 0.000000 0.000000 0.052672 0.000000 -0.017055
# 5 0.001993 0.001405 0.002513 0.000000 0.036581 0.000000
# 6 0.000000 0.000000 0.000000 -0.017055 0.000000 0.058259
#
#
# Mechanical properties :
#
#
# Convention : Reuss Voigt Hill
#
# Bulk Modulus (GPa) = 34.61788 37.66161 36.13974
# Shear Modulus (GPa) = 17.80579 20.33166 19.06872
#
# Velocity S-wave (km/s) = 3.20647 3.42635 3.31823
# Velocity P-wave (km/s) = 5.80497 6.11554 5.96227
#
# Compressibility (1/GPa) = 0.02888681
#
# Stress axis : x y z
#
# Youngs Moduli (GPa) = 31.11743 59.22230 36.69127
#
# Poissons Ratio (x) = 0.24636 0.47405
# Poissons Ratio (y) = 0.12944 0.24271
# Poissons Ratio (z) = 0.40203 0.39176
#
# Static dielectric constant tensor:
#      x y z
#    x 1.601330 0.000000 -0.004880 
#    y 0.000000 1.574490 0.000000 
#    z -0.004880 0.000000 1.617020 
# 
# From -- ./inp_files/23355.got.cif
#   From: 2010.05.17/outbox.cif.g08.bks.cpg/sg13_12_cif.got.tgz:23355.got - 2010.06.03 16:44:36.
