data_PCOD9228808
_publ_section_title
;
Structure prediction by ZEFSAII (Michael W. Deem and Ramdas Pophale) SiO2 
 PCOD9228808
Probable space group: P 2/C
;
_chemical_formula_sum "Si O2"
_cell_formula_units_Z 30
_cell_length_a 20.696249
_cell_length_b 14.088317
_cell_length_c 8.600860
_cell_angle_alpha 90.000000
_cell_angle_beta 42.501996
_cell_angle_gamma 90.000000
_cell_volume 1694.308504
_symmetry_space_group_name_H-M "P 2/C"
_symmetry_group_IT_number 13
_symmetry_cell_setting 'monoclinic'
loop_
_space_group_symop_operation_xyz
x,y,z
-x,y,1/2-z
-x,-y,-z
x,-y,1/2+z
loop_
_atom_site_type_symbol
_atom_site_label
_atom_site_fract_x
_atom_site_fract_y
_atom_site_fract_z
Si Si1 0.366447 0.920790 0.224532
Si Si2 0.500000 0.969430 0.250000
Si Si3 0.944070 0.266284 0.125557
Si Si4 0.196050 0.938926 0.099993
Si Si5 0.145656 0.377081 0.792750
Si Si6 0.213975 0.788172 0.344869
Si Si7 0.887662 0.579299 0.493198
Si Si8 0.918659 0.919521 0.492613
O O1 0.437102 0.907020 0.243871
O O2 0.301228 0.832155 0.288543
O O3 0.294396 0.005495 0.400156
O O4 0.430286 0.962408 0.972135
O O5 0.878519 0.226034 0.380346
O O6 0.881400 0.340535 0.136347
O O7 0.964205 0.175671 0.981316
O O8 0.042489 0.321736 0.989374
O O9 0.198637 0.861964 0.231367
O O10 0.162357 0.899903 0.993083
O O11 0.124263 0.018036 0.295100
O O12 0.223017 0.312351 0.742405
O O13 0.162392 0.393103 0.579699
O O14 0.138868 0.477864 0.889630
O O15 0.000000 0.573901 0.250000
O O16 0.000000 0.972204 0.250000
#
# Coordination Sequence:
#
# PCOD9228808 Si02
#       8
#     4   2   4   4   4   4   4   4
#     4  11  21  40  59  83 106 144 180 235 290 343
#     4  10  22  40  66  80 102 142 186 226 300 364
#     4  11  21  35  51  78 112 159 202 240 274 318
#     4  12  22  38  51  75 114 154 189 240 281 317
#     4  11  22  36  56  80 113 157 200 244 282 324
#     4  12  22  35  55  82 113 149 187 238 285 327
#     4  10  19  36  55  78 108 157 205 250 284 312
#     4  12  22  33  47  71 110 161 205 227 260 324
#
# _framework density 17.706339
#
# number of rings (size 3 to 8) (size 9 to 14) (size 15 to 20)
#    0.000    0.800    4.000    6.800    0.000    1.067 
#    0.000    0.000    0.000    0.000    0.000    0.000 
#    0.000   12.800    0.000    0.000    0.000    0.000 
#
# Total GULP energy -167510.302040 kJ/mol
# GULP energy per Si atom -5583.676735 kJ/mol
# Density = 1.766604 g / cm^3
# Si number density = 17.706339 Si / 1000 Ang^3
#
#
#
# Elastic Constant Matrix: (Units=GPa)
#
#
# Indices 1 2 3 4 5 6 
#
# 1 99.1194 10.3892 20.9097 0.0000 19.4656 0.0000
# 2 10.3892 59.9944 29.0258 0.0000 8.9738 0.0000
# 3 20.9097 29.0258 87.4703 0.0000 10.4131 0.0000
# 4 0.0000 0.0000 0.0000 30.5528 0.0000 9.7667
# 5 19.4656 8.9738 10.4131 0.0000 24.3741 0.0000
# 6 0.0000 0.0000 0.0000 9.7667 0.0000 34.0250
#
#
#
# Elastic Compliance Matrix: (Units=1/GPa)
#
#
# Indices 1 2 3 4 5 6 
#
# 1 0.012246 0.000150 -0.001903 0.000000 -0.009022 0.000000
# 2 0.000150 0.020391 -0.006210 0.000000 -0.004974 0.000000
# 3 -0.001903 -0.006210 0.014218 0.000000 -0.002268 0.000000
# 4 0.000000 0.000000 0.000000 0.036037 0.000000 -0.010344
# 5 -0.009022 -0.004974 -0.002268 0.000000 0.051033 0.000000
# 6 0.000000 0.000000 0.000000 -0.010344 0.000000 0.032359
#
#
# Mechanical properties :
#
#
# Convention : Reuss Voigt Hill
#
# Bulk Modulus (GPa) = 32.33298 40.80372 36.56835
# Shear Modulus (GPa) = 25.97123 30.20768 28.08945
#
# Velocity S-wave (km/s) = 3.83401 4.13490 3.98729
# Velocity P-wave (km/s) = 6.15628 6.77431 6.47268
#
# Compressibility (1/GPa) = 0.03092817
#
# Stress axis : x y z
#
# Youngs Moduli (GPa) = 81.65624 49.04192 70.33288
#
# Poissons Ratio (x) = -0.00733 0.13385
# Poissons Ratio (y) = -0.01221 0.43677
# Poissons Ratio (z) = 0.15540 0.30455
#
# Static dielectric constant tensor:
#      x y z
#    x 1.677340 0.000000 0.013370 
#    y 0.000000 1.616400 0.000000 
#    z 0.013370 0.000000 1.644260 
# 
# From -- ./inp_files/24120.got.cif
#   From: 2010.05.17/outbox.cif.g08.bks.cpg/sg13_13_cif.got.tgz:24120.got - 2010.06.03 16:44:36.
