data_PCOD9228373
_publ_section_title
;
Structure prediction by ZEFSAII (Michael W. Deem and Ramdas Pophale) SiO2 
 PCOD9228373
Probable space group: P 2/C
;
_chemical_formula_sum "Si O2"
_cell_formula_units_Z 32
_cell_length_a 15.420862
_cell_length_b 8.223496
_cell_length_c 30.077455
_cell_angle_alpha 90.000000
_cell_angle_beta 152.991303
_cell_angle_gamma 90.000000
_cell_volume 1732.137412
_symmetry_space_group_name_H-M "P 2/C"
_symmetry_group_IT_number 13
_symmetry_cell_setting 'monoclinic'
loop_
_space_group_symop_operation_xyz
x,y,z
-x,y,1/2-z
-x,-y,-z
x,-y,1/2+z
loop_
_atom_site_type_symbol
_atom_site_label
_atom_site_fract_x
_atom_site_fract_y
_atom_site_fract_z
Si Si1 0.175222 0.388770 0.429305
Si Si2 0.468029 0.482138 0.126292
Si Si3 0.126491 0.901808 0.184747
Si Si4 0.827616 0.599380 0.239888
Si Si5 0.256632 0.948967 0.013708
Si Si6 0.395901 0.836586 0.850033
Si Si7 0.493389 0.778900 0.299243
Si Si8 0.217733 0.642631 0.849949
O O1 0.275812 0.509499 0.509898
O O2 0.189011 0.213586 0.457833
O O3 0.278278 0.371363 0.428557
O O4 0.966524 0.460673 0.323779
O O5 0.620011 0.584798 0.166637
O O6 0.544579 0.299627 0.159261
O O7 0.460110 0.589972 0.166966
O O8 0.092026 0.771505 0.208526
O O9 0.286448 0.828865 0.224567
O O10 0.220737 0.059000 0.251053
O O11 0.931289 0.940994 0.070291
O O12 0.800797 0.541256 0.177442
O O13 0.353826 0.888712 0.103875
O O14 0.424346 0.042466 0.063908
O O15 0.342034 0.744696 0.871394
O O16 0.500000 0.804411 0.250000
O O17 0.000000 0.711436 0.750000
#
# Coordination Sequence:
#
# PCOD9228373 Si02
#       8
#     4   4   4   4   4   4   4   4
#     4  10  19  34  52  74 105 144 187 220 255 311
#     4   9  18  34  54  71  99 139 176 213 266 322
#     4  10  19  35  56  78 110 141 174 219 271 322
#     4   9  18  32  51  72 100 142 178 211 255 306
#     4  10  20  34  56  81 109 146 177 218 276 319
#     4  10  20  34  53  79 108 140 177 220 269 314
#     4   9  20  37  57  81 106 136 178 222 266 327
#     4   9  18  33  51  74 108 146 187 225 255 298
#
# _framework density 18.474284000000001
#
# number of rings (size 3 to 8) (size 9 to 14) (size 15 to 20)
#    0.000    2.500    0.000    3.750    0.000    3.000 
#    0.000   10.625    0.000   25.500    0.000    0.000 
#    0.000    0.000    0.000    0.000    0.000    0.000 
#
# Total GULP energy -178200.708109 kJ/mol
# GULP energy per Si atom -5568.772128 kJ/mol
# Density = 1.843224 g / cm^3
# Si number density = 18.474284 Si / 1000 Ang^3
#
#
#
# Elastic Constant Matrix: (Units=GPa)
#
#
# Indices 1 2 3 4 5 6 
#
# 1 72.3379 15.6961 22.2131 0.0000 -23.2957 0.0000
# 2 15.6961 78.8925 14.5170 0.0000 -11.9331 0.0000
# 3 22.2131 14.5170 84.9711 0.0000 -4.0983 0.0000
# 4 0.0000 0.0000 0.0000 19.4184 0.0000 10.1890
# 5 -23.2957 -11.9331 -4.0983 0.0000 25.2468 0.0000
# 6 0.0000 0.0000 0.0000 10.1890 0.0000 20.4519
#
#
#
# Elastic Compliance Matrix: (Units=1/GPa)
#
#
# Indices 1 2 3 4 5 6 
#
# 1 0.021386 -0.000580 -0.004589 0.000000 0.018714 0.000000
# 2 -0.000580 0.014026 -0.001966 0.000000 0.005776 0.000000
# 3 -0.004589 -0.001966 0.013158 0.000000 -0.003028 0.000000
# 4 0.000000 0.000000 0.000000 0.069724 0.000000 -0.034736
# 5 0.018714 0.005776 -0.003028 0.000000 0.059115 0.000000
# 6 0.000000 0.000000 0.000000 -0.034736 0.000000 0.066200
#
#
# Mechanical properties :
#
#
# Convention : Reuss Voigt Hill
#
# Bulk Modulus (GPa) = 29.15431 37.89489 33.52460
# Shear Modulus (GPa) = 18.56576 25.27509 21.92042
#
# Velocity S-wave (km/s) = 3.17354 3.70283 3.44835
# Velocity P-wave (km/s) = 5.40775 6.23201 5.83445
#
# Compressibility (1/GPa) = 0.03430025
#
# Stress axis : x y z
#
# Youngs Moduli (GPa) = 46.76033 71.29504 75.99794
#
# Poissons Ratio (x) = 0.04133 0.34875
# Poissons Ratio (y) = 0.02711 0.14943
# Poissons Ratio (z) = 0.21458 0.14018
#
# Static dielectric constant tensor:
#      x y z
#    x 1.631580 0.000000 0.017130 
#    y 0.000000 1.683100 0.000000 
#    z 0.017130 0.000000 1.659070 
# 
# From -- ./inp_files/96970.got.cif
#   From: 2010.05.17/outbox.cif.g08.bks.cpg/sg13_49_cif.got.tgz:96970.got - 2010.06.03 16:44:36.
