data_PCOD9228234
_publ_section_title
;
Structure prediction by ZEFSAII (Michael W. Deem and Ramdas Pophale) SiO2 
 PCOD9228234
Probable space group: P 2/C
;
_chemical_formula_sum "Si O2"
_cell_formula_units_Z 24
_cell_length_a 24.430377
_cell_length_b 4.975352
_cell_length_c 25.898408
_cell_angle_alpha 90.000000
_cell_angle_beta 156.399767
_cell_angle_gamma 90.000000
_cell_volume 1260.288215
_symmetry_space_group_name_H-M "P 2/C"
_symmetry_group_IT_number 13
_symmetry_cell_setting 'monoclinic'
loop_
_space_group_symop_operation_xyz
x,y,z
-x,y,1/2-z
-x,-y,-z
x,-y,1/2+z
loop_
_atom_site_type_symbol
_atom_site_label
_atom_site_fract_x
_atom_site_fract_y
_atom_site_fract_z
Si Si1 0.804025 0.601385 0.238546
Si Si2 0.426506 0.236964 0.239450
Si Si3 0.580820 0.742011 0.129508
Si Si4 0.971467 0.914596 0.915167
Si Si5 0.734734 0.755623 0.367377
Si Si6 0.582161 0.229321 0.479519
O O1 0.684632 0.716773 0.172442
O O2 0.854842 0.313202 0.303983
O O3 0.927505 0.809047 0.350464
O O4 0.730641 0.643859 0.119813
O O5 0.500000 0.309901 0.250000
O O6 0.318327 0.462176 0.163783
O O7 0.540137 0.205509 0.383112
O O8 0.339684 0.964278 0.159146
O O9 0.671446 0.824160 0.256747
O O10 0.522244 0.446731 0.087541
O O11 0.454675 0.949516 0.023540
O O12 0.105635 0.796057 0.003506
O O13 0.000000 0.000000 0.000000
#
# Coordination Sequence:
#
# PCOD9228234 Si02
#       6
#     4   4   4   4   4   4
#     4  12  22  34  55  79 120 156 185 222 277 336
#     4  10  21  39  64  83 105 141 188 250 292 321
#     4  10  19  33  54  79 114 147 185 230 276 335
#     4  12  24  36  55  81 121 160 188 214 267 349
#     4  10  21  36  57  84 112 142 192 230 274 337
#     4  10  21  35  54  84 111 144 190 237 285 329
#
# _framework density 19.043264000000001
#
# number of rings (size 3 to 8) (size 9 to 14) (size 15 to 20)
#    0.000    1.333    1.667    5.000    4.667    0.000 
#    0.000    0.000    0.000    6.000    0.000    0.000 
#    0.000    0.000    0.000    0.000    0.000    0.000 
#
# Total GULP energy -133814.982855 kJ/mol
# GULP energy per Si atom -5575.624286 kJ/mol
# Density = 1.899992 g / cm^3
# Si number density = 19.043264 Si / 1000 Ang^3
#
#
#
# Elastic Constant Matrix: (Units=GPa)
#
#
# Indices 1 2 3 4 5 6 
#
# 1 60.0643 -0.4238 22.8965 0.0000 0.9628 0.0000
# 2 -0.4238 80.9414 4.5721 0.0000 -7.1638 0.0000
# 3 22.8965 4.5721 73.4702 0.0000 -5.3216 0.0000
# 4 0.0000 0.0000 0.0000 27.1079 0.0000 0.4460
# 5 0.9628 -7.1638 -5.3216 0.0000 12.8401 0.0000
# 6 0.0000 0.0000 0.0000 0.4460 0.0000 18.2022
#
#
#
# Elastic Compliance Matrix: (Units=1/GPa)
#
#
# Indices 1 2 3 4 5 6 
#
# 1 0.019093 0.000102 -0.006244 0.000000 -0.003962 0.000000
# 2 0.000102 0.013003 -0.000326 0.000000 0.007112 0.000000
# 3 -0.006244 -0.000326 0.016080 0.000000 0.006951 0.000000
# 4 0.000000 0.000000 0.000000 0.036905 0.000000 -0.000904
# 5 -0.003962 0.007112 0.006951 0.000000 0.085027 0.000000
# 6 0.000000 0.000000 0.000000 -0.000904 0.000000 0.054961
#
#
# Mechanical properties :
#
#
# Convention : Reuss Voigt Hill
#
# Bulk Modulus (GPa) = 28.37550 29.84061 29.10805
# Shear Modulus (GPa) = 20.01993 24.12542 22.07268
#
# Velocity S-wave (km/s) = 3.24587 3.56318 3.40822
# Velocity P-wave (km/s) = 5.38335 5.71246 5.55035
#
# Compressibility (1/GPa) = 0.03524167
#
# Stress axis : x y z
#
# Youngs Moduli (GPa) = 52.37486 76.90523 62.18717
#
# Poissons Ratio (x) = -0.00784 0.38827
# Poissons Ratio (y) = -0.00534 0.02026
# Poissons Ratio (z) = 0.32701 0.02506
#
# Static dielectric constant tensor:
#      x y z
#    x 1.665360 0.000000 -0.051430 
#    y 0.000000 1.685850 0.000000 
#    z -0.051430 0.000000 1.732210 
# 
# From -- ./inp_files/89432.got.cif
#   From: 2010.05.17/outbox.cif.g08.bks.cpg/sg13_45_cif.got.tgz:89432.got - 2010.06.03 16:44:36.
