data_PCOD9228925
_publ_section_title
;
Structure prediction by ZEFSAII (Michael W. Deem and Ramdas Pophale) SiO2 
 PCOD9228925
Probable space group: P 2/C
;
_chemical_formula_sum "Si O2"
_cell_formula_units_Z 30
_cell_length_a 11.362106
_cell_length_b 15.166919
_cell_length_c 16.661088
_cell_angle_alpha 90.000000
_cell_angle_beta 148.225538
_cell_angle_gamma 90.000000
_cell_volume 1511.894155
_symmetry_space_group_name_H-M "P 2/C"
_symmetry_group_IT_number 13
_symmetry_cell_setting 'monoclinic'
loop_
_space_group_symop_operation_xyz
x,y,z
-x,y,1/2-z
-x,-y,-z
x,-y,1/2+z
loop_
_atom_site_type_symbol
_atom_site_label
_atom_site_fract_x
_atom_site_fract_y
_atom_site_fract_z
Si Si1 0.955016 0.175433 0.318272
Si Si2 0.349771 0.187409 0.804471
Si Si3 0.331113 0.576815 0.878509
Si Si4 0.524314 0.244993 0.446959
Si Si5 0.122429 0.623892 0.928015
Si Si6 0.106448 0.868614 0.400743
Si Si7 0.668538 0.949529 0.422357
Si Si8 0.500000 0.680462 0.250000
O O1 0.037784 0.275166 0.379854
O O2 0.108119 0.109844 0.458473
O O3 0.000000 0.154264 0.250000
O O4 0.692745 0.181510 0.185495
O O5 0.520114 0.105192 0.899887
O O6 0.413234 0.254319 0.770071
O O7 0.097452 0.151986 0.658051
O O8 0.386972 0.234869 0.910708
O O9 0.451394 0.653812 0.898179
O O10 0.247930 0.613895 0.916108
O O11 0.093001 0.560067 0.696554
O O12 0.500000 0.500000 0.000000
O O13 0.720531 0.212092 0.503764
O O14 0.301328 0.619832 0.101955
O O15 0.000000 0.880945 0.250000
O O16 0.244553 0.955557 0.501863
O O17 0.500000 0.954656 0.250000
#
# Coordination Sequence:
#
# PCOD9228925 Si02
#       8
#     4   4   4   4   4   4   4   2
#     4  11  16  34  64  83 115 154 215 254 287 351
#     4  11  21  39  61  89 116 161 212 250 311 357
#     4  10  19  38  64  93 123 148 207 254 302 372
#     4  10  20  40  63  88 118 158 203 255 317 360
#     4  10  19  36  60  98 116 158 199 250 300 365
#     4  10  26  40  55  83 125 162 209 254 310 368
#     4  12  23  37  55  88 118 164 208 262 301 350
#     4  12  18  40  68  86 124 162 204 252 296 380
#
# _framework density 19.842658
#
# number of rings (size 3 to 8) (size 9 to 14) (size 15 to 20)
#    0.000    1.333    7.333    0.400    1.867    1.600 
#   12.000    0.667    0.000    0.000    0.000    0.000 
#    0.000    0.000    0.000    0.000    0.000    0.000 
#
# Total GULP energy -167393.222932 kJ/mol
# GULP energy per Si atom -5579.774098 kJ/mol
# Density = 1.979750 g / cm^3
# Si number density = 19.842658 Si / 1000 Ang^3
#
#
#
# Elastic Constant Matrix: (Units=GPa)
#
#
# Indices 1 2 3 4 5 6 
#
# 1 36.8879 9.6299 24.4903 0.0000 19.5603 0.0000
# 2 9.6299 64.0214 47.9625 0.0000 20.2579 0.0000
# 3 24.4903 47.9625 155.7641 0.0000 15.2495 0.0000
# 4 0.0000 0.0000 0.0000 40.0634 0.0000 7.0703
# 5 19.5603 20.2579 15.2495 0.0000 28.9216 0.0000
# 6 0.0000 0.0000 0.0000 7.0703 0.0000 0.5300
#
#
#
# Elastic Compliance Matrix: (Units=1/GPa)
#
#
# Indices 1 2 3 4 5 6 
#
# 1 0.047959 0.009075 -0.006893 0.000000 -0.035158 0.000000
# 2 0.009075 0.026455 -0.007547 0.000000 -0.020688 0.000000
# 3 -0.006893 -0.007547 0.009336 0.000000 0.005026 0.000000
# 4 0.000000 0.000000 0.000000 -0.018429 0.000000 0.245864
# 5 -0.035158 -0.020688 0.005026 0.000000 0.070195 0.000000
# 6 0.000000 0.000000 0.000000 0.245864 0.000000 -1.393175
#
#
# Mechanical properties :
#
#
# Convention : Reuss Voigt Hill
#
# Bulk Modulus (GPa) = 13.69507 46.75988 30.22747
# Shear Modulus (GPa) = -4.08968 25.54238 10.72635
#
# Velocity S-wave (km/s) = -1.43720 3.59171 2.32754
# Velocity P-wave (km/s) = 2.04029 6.38882 4.74235
#
# Compressibility (1/GPa) = 0.07301897
#
# Stress axis : x y z
#
# Youngs Moduli (GPa) = 20.85107 37.79969 107.11652
#
# Poissons Ratio (x) = -0.34302 0.73832
# Poissons Ratio (y) = -0.18921 0.80845
# Poissons Ratio (z) = 0.14372 0.28529
#
# Static dielectric constant tensor:
#      x y z
#    x 1.703330 0.000000 0.000400 
#    y 0.000000 1.686390 0.000000 
#    z 0.000400 0.000000 1.792330 
# 
# From -- ./inp_files/66872.got.cif
#   From: 2010.05.17/outbox.cif.g08.bks.cpg/sg13_34_cif.got.tgz:66872.got - 2010.06.03 16:44:36.
