data_PCOD9228109
_publ_section_title
;
Structure prediction by ZEFSAII (Michael W. Deem and Ramdas Pophale) SiO2 
 PCOD9228109
Probable space group: P 2/C
;
_chemical_formula_sum "Si O2"
_cell_formula_units_Z 32
_cell_length_a 26.569678
_cell_length_b 6.576573
_cell_length_c 14.050055
_cell_angle_alpha 90.000000
_cell_angle_beta 147.664460
_cell_angle_gamma 90.000000
_cell_volume 1313.159627
_symmetry_space_group_name_H-M "P 2/C"
_symmetry_group_IT_number 13
_symmetry_cell_setting 'monoclinic'
loop_
_space_group_symop_operation_xyz
x,y,z
-x,y,1/2-z
-x,-y,-z
x,-y,1/2+z
loop_
_atom_site_type_symbol
_atom_site_label
_atom_site_fract_x
_atom_site_fract_y
_atom_site_fract_z
Si Si1 0.968333 0.342173 0.092067
Si Si2 0.383931 0.096691 0.214028
Si Si3 0.595662 0.166194 0.936529
Si Si4 0.009840 0.767466 0.088069
Si Si5 0.579037 0.819814 0.059941
Si Si6 0.230315 0.758456 0.202054
Si Si7 0.189037 0.991718 0.446893
Si Si8 0.204134 0.153025 0.274207
O O1 0.000000 0.275480 0.250000
O O2 0.025723 0.539502 0.151816
O O3 0.975393 0.214213 0.003507
O O4 0.856912 0.389919 0.924403
O O5 0.471050 0.244906 0.376032
O O6 0.397928 0.018046 0.130143
O O7 0.398006 0.887065 0.296893
O O8 0.277951 0.159023 0.070971
O O9 0.500000 0.279049 0.750000
O O10 0.699348 0.266216 0.101130
O O11 0.585402 0.041999 0.017817
O O12 0.087901 0.894041 0.268767
O O13 0.899466 0.804876 0.930975
O O14 0.663535 0.690211 0.150567
O O15 0.224397 0.917872 0.278765
O O16 0.202600 0.903415 0.068970
O O17 0.198029 0.160427 0.378338
#
# Coordination Sequence:
#
# PCOD9228109 Si02
#       8
#     4   4   4   4   4   4   4   4
#     4  11  25  41  54  75 108 151 179 219 275 334
#     4   8  14  25  44  74 113 131 162 215 270 314
#     4   8  14  25  43  71 103 129 160 211 267 310
#     4  11  24  39  54  78 111 145 183 223 271 326
#     4   8  14  26  43  74 108 134 165 210 267 317
#     4  10  20  32  56  80 108 141 179 223 268 319
#     4  10  19  32  56  86 110 139 180 229 273 316
#     4  10  19  32  53  81 103 135 179 227 265 312
#
# _framework density 24.368704999999999
#
# number of rings (size 3 to 8) (size 9 to 14) (size 15 to 20)
#    0.000    2.500    1.250    1.125    3.500    0.000 
#    0.000    0.000    0.000    0.000    6.500    0.875 
#    0.000    0.000    0.000    0.000    0.000    0.000 
#
# Total GULP energy -178197.185632 kJ/mol
# GULP energy per Si atom -5568.662051 kJ/mol
# Density = 2.431324 g / cm^3
# Si number density = 24.368705 Si / 1000 Ang^3
#
#
#
# Elastic Constant Matrix: (Units=GPa)
#
#
# Indices 1 2 3 4 5 6 
#
# 1 84.3604 13.5431 40.3635 0.0000 9.0806 0.0000
# 2 13.5431 22.5995 16.4709 0.0000 4.3776 0.0000
# 3 40.3635 16.4709 181.4999 0.0000 48.2725 0.0000
# 4 0.0000 0.0000 0.0000 6.9425 0.0000 5.2544
# 5 9.0806 4.3776 48.2725 0.0000 66.8783 0.0000
# 6 0.0000 0.0000 0.0000 5.2544 0.0000 14.6331
#
#
#
# Elastic Compliance Matrix: (Units=1/GPa)
#
#
# Indices 1 2 3 4 5 6 
#
# 1 0.014143 -0.006621 -0.002659 0.000000 0.000433 0.000000
# 2 -0.006621 0.050482 -0.003056 0.000000 -0.000200 0.000000
# 3 -0.002659 -0.003056 0.007709 0.000000 -0.005003 0.000000
# 4 0.000000 0.000000 0.000000 0.197796 0.000000 -0.071024
# 5 0.000433 -0.000200 -0.005003 0.000000 0.018518 0.000000
# 6 0.000000 0.000000 0.000000 -0.071024 0.000000 0.093841
#
#
# Mechanical properties :
#
#
# Convention : Reuss Voigt Hill
#
# Bulk Modulus (GPa) = 20.98100 47.69053 34.33576
# Shear Modulus (GPa) = 11.81897 32.22959 22.02428
#
# Velocity S-wave (km/s) = 2.20467 3.64068 3.00958
# Velocity P-wave (km/s) = 3.88707 6.10619 5.11834
#
# Compressibility (1/GPa) = 0.04766218
#
# Stress axis : x y z
#
# Youngs Moduli (GPa) = 70.70801 19.80895 129.71753
#
# Poissons Ratio (x) = 0.13115 0.34497
# Poissons Ratio (y) = 0.46815 0.39637
# Poissons Ratio (z) = 0.18804 0.06053
#
# Static dielectric constant tensor:
#      x y z
#    x 1.951190 0.000000 0.073320 
#    y 0.000000 1.909390 0.000000 
#    z 0.073320 0.000000 2.051190 
# 
# From -- ./inp_files/59529.got.cif
#   From: 2010.05.17/outbox.cif.g08.bks.cpg/sg13_30_cif.got.tgz:59529.got - 2010.06.03 16:44:36.
