data_PCOD9228824
_publ_section_title
;
Structure prediction by ZEFSAII (Michael W. Deem and Ramdas Pophale) SiO2 
 PCOD9228824
Probable space group: P 2/C
;
_chemical_formula_sum "Si O2"
_cell_formula_units_Z 26
_cell_length_a 14.770496
_cell_length_b 9.179395
_cell_length_c 14.739927
_cell_angle_alpha 90.000000
_cell_angle_beta 32.221912
_cell_angle_gamma 90.000000
_cell_volume 1065.600685
_symmetry_space_group_name_H-M "P 2/C"
_symmetry_group_IT_number 13
_symmetry_cell_setting 'monoclinic'
loop_
_space_group_symop_operation_xyz
x,y,z
-x,y,1/2-z
-x,-y,-z
x,-y,1/2+z
loop_
_atom_site_type_symbol
_atom_site_label
_atom_site_fract_x
_atom_site_fract_y
_atom_site_fract_z
Si Si1 0.505137 0.072433 0.650953
Si Si2 0.401499 0.303192 0.076405
Si Si3 0.036641 0.725039 0.857948
Si Si4 0.156983 0.964316 0.170088
Si Si5 0.000000 0.532017 0.250000
Si Si6 0.394590 0.430986 0.435176
Si Si7 0.826603 0.089122 0.646685
O O1 0.500000 0.160882 0.750000
O O2 0.549195 0.160980 0.522761
O O3 0.667133 0.972390 0.531649
O O4 0.324437 0.008527 0.776242
O O5 0.406877 0.423070 0.989490
O O6 0.205321 0.299635 0.273479
O O7 0.515104 0.324660 0.068488
O O8 0.092685 0.869275 0.751468
O O9 0.000329 0.580845 0.833645
O O10 0.869444 0.767204 0.054599
O O11 0.000000 0.898871 0.250000
O O12 0.199771 0.884323 0.226386
O O13 0.807847 0.599704 0.410285
O O14 0.500000 0.439129 0.250000
O O15 0.000000 0.000000 0.500000
#
# Coordination Sequence:
#
# PCOD9228824 Si02
#       7
#     4   4   4   4   2   4   4
#     4  11  21  34  62  89 116 164 204 247 297 357
#     4   9  21  38  57  90 119 150 204 257 295 369
#     4   9  18  34  57  85 119 148 195 247 288 352
#     4  10  19  36  56  84 124 153 197 243 291 353
#     4  10  20  36  64  94 114 154 208 250 300 372
#     4  10  21  40  61  87 124 155 199 260 318 361
#     4  10  21  34  55  90 121 154 194 246 300 350
#
# _framework density 24.399386
#
# number of rings (size 3 to 8) (size 9 to 14) (size 15 to 20)
#    0.000    2.154    0.769    2.769    6.462    0.000 
#    2.769    3.846    0.000    6.462    0.000    0.000 
#    0.000    0.000    0.000    0.000    0.000    0.000 
#
# Total GULP energy -144953.557303 kJ/mol
# GULP energy per Si atom -5575.136819 kJ/mol
# Density = 2.434385 g / cm^3
# Si number density = 24.399386 Si / 1000 Ang^3
#
#
#
# Elastic Constant Matrix: (Units=GPa)
#
#
# Indices 1 2 3 4 5 6 
#
# 1 211.3367 25.1373 105.2089 0.0000 -36.0994 0.0000
# 2 25.1373 24.9983 20.5477 0.0000 -10.5580 0.0000
# 3 105.2089 20.5477 126.7549 0.0000 -20.2735 0.0000
# 4 0.0000 0.0000 0.0000 23.2297 0.0000 -1.5288
# 5 -36.0994 -10.5580 -20.2735 0.0000 46.7659 0.0000
# 6 0.0000 0.0000 0.0000 -1.5288 0.0000 33.6269
#
#
#
# Elastic Compliance Matrix: (Units=1/GPa)
#
#
# Indices 1 2 3 4 5 6 
#
# 1 0.008747 -0.002080 -0.006359 0.000000 0.003526 0.000000
# 2 -0.002080 0.049388 -0.005107 0.000000 0.007331 0.000000
# 3 -0.006359 -0.005107 0.013996 0.000000 0.000006 0.000000
# 4 0.000000 0.000000 0.000000 0.043178 0.000000 0.001963
# 5 0.003526 0.007331 0.000006 0.000000 0.025762 0.000000
# 6 0.000000 0.000000 0.000000 0.001963 0.000000 0.029827
#
#
# Mechanical properties :
#
#
# Convention : Reuss Voigt Hill
#
# Bulk Modulus (GPa) = 22.20299 73.87531 48.03915
# Shear Modulus (GPa) = 23.47363 34.87088 29.17225
#
# Velocity S-wave (km/s) = 3.10507 3.78454 3.46152
# Velocity P-wave (km/s) = 4.68774 7.03137 5.97558
#
# Compressibility (1/GPa) = 0.04503898
#
# Stress axis : x y z
#
# Youngs Moduli (GPa) = 114.32164 20.24775 71.44659
#
# Poissons Ratio (x) = 0.04211 0.45435
# Poissons Ratio (y) = 0.23775 0.36491
# Poissons Ratio (z) = 0.72701 0.10342
#
# Static dielectric constant tensor:
#      x y z
#    x 1.953640 0.000000 -0.020640 
#    y 0.000000 2.044900 0.000000 
#    z -0.020640 0.000000 2.083030 
# 
# From -- ./inp_files/53638.got.cif
#   From: 2010.05.17/outbox.cif.g08.bks.cpg/sg13_27_cif.got.tgz:53638.got - 2010.06.03 16:44:36.
