data_PCOD9228059
_publ_section_title
;
Structure prediction by ZEFSAII (Michael W. Deem and Ramdas Pophale) SiO2 
 PCOD9228059
Probable space group: P 2/C
;
_chemical_formula_sum "Si O2"
_cell_formula_units_Z 20
_cell_length_a 9.394630
_cell_length_b 14.981059
_cell_length_c 15.982222
_cell_angle_alpha 90.000000
_cell_angle_beta 152.207497
_cell_angle_gamma 90.000000
_cell_volume 1048.812024
_symmetry_space_group_name_H-M "P 2/C"
_symmetry_group_IT_number 13
_symmetry_cell_setting 'monoclinic'
loop_
_space_group_symop_operation_xyz
x,y,z
-x,y,1/2-z
-x,-y,-z
x,-y,1/2+z
loop_
_atom_site_type_symbol
_atom_site_label
_atom_site_fract_x
_atom_site_fract_y
_atom_site_fract_z
Si Si1 0.267038 0.271995 0.049152
Si Si2 0.865766 0.712867 0.772838
Si Si3 0.715007 0.928729 0.943335
Si Si4 0.135915 0.598745 0.063097
Si Si5 0.116160 0.081569 0.216738
O O1 0.500000 0.274493 0.250000
O O2 0.496570 0.293533 0.091748
O O3 0.145848 0.170669 0.981040
O O4 0.003742 0.341627 0.934018
O O5 0.000000 0.700165 0.750000
O O6 0.940008 0.815440 0.837911
O O7 0.016679 0.645074 0.916126
O O8 0.500000 0.934019 0.750000
O O9 0.476091 0.933538 0.895493
O O10 0.945711 0.009615 0.071206
O O11 0.500000 0.596599 0.250000
O O12 0.000000 0.500000 0.000000
O O13 0.000000 0.071201 0.250000
#
# Coordination Sequence:
#
# PCOD9228059 Si02
#       5
#     4   4   4   4   4
#     4   8  17  35  54  76 110 146 180 220 267 315
#     4   9  19  37  58  80 110 145 180 220 266 315
#     4  10  19  32  51  76 107 145 184 221 257 307
#     4  11  22  39  61  83 105 137 176 222 274 327
#     4  10  20  33  51  77 111 147 178 217 267 310
#
# _framework density 19.069196000000002
#
# number of rings (size 3 to 8) (size 9 to 14) (size 15 to 20)
#    0.000    2.400    0.000    4.200    0.000    2.400 
#    0.000    5.000    0.000    0.000    0.000    0.000 
#    0.000    0.000    0.000    0.000    0.000    0.000 
#
# Total GULP energy -111551.051674 kJ/mol
# GULP energy per Si atom -5577.552584 kJ/mol
# Density = 1.902579 g / cm^3
# Si number density = 19.069196 Si / 1000 Ang^3
#
#
#
# Elastic Constant Matrix: (Units=GPa)
#
#
# Indices 1 2 3 4 5 6 
#
# 1 120.4257 59.2274 27.9089 0.0000 32.7709 0.0000
# 2 59.2274 176.0718 80.9470 0.0000 21.6310 0.0000
# 3 27.9089 80.9470 66.0650 0.0000 25.8583 0.0000
# 4 0.0000 0.0000 0.0000 24.8257 0.0000 8.2953
# 5 32.7709 21.6310 25.8583 0.0000 27.0691 0.0000
# 6 0.0000 0.0000 0.0000 8.2953 0.0000 30.5097
#
#
#
# Elastic Compliance Matrix: (Units=1/GPa)
#
#
# Indices 1 2 3 4 5 6 
#
# 1 0.016632 -0.008908 0.014348 0.000000 -0.026723 0.000000
# 2 -0.008908 0.018870 -0.028233 0.000000 0.022675 0.000000
# 3 0.014348 -0.028233 0.066501 0.000000 -0.058336 0.000000
# 4 0.000000 0.000000 0.000000 0.044306 0.000000 -0.012046
# 5 -0.026723 0.022675 -0.058336 0.000000 0.106902 0.000000
# 6 0.000000 0.000000 0.000000 -0.012046 0.000000 0.036052
#
#
# Mechanical properties :
#
#
# Convention : Reuss Voigt Hill
#
# Bulk Modulus (GPa) = 17.72488 77.63656 47.68072
# Shear Modulus (GPa) = 14.13813 29.44618 21.79215
#
# Velocity S-wave (km/s) = 2.72584 3.93386 3.38419
# Velocity P-wave (km/s) = 4.38431 7.83806 6.35048
#
# Compressibility (1/GPa) = 0.05641789
#
# Stress axis : x y z
#
# Youngs Moduli (GPa) = 60.12562 52.99416 15.03734
#
# Poissons Ratio (x) = 0.47208 -0.21576
# Poissons Ratio (y) = 0.53561 0.42455
# Poissons Ratio (z) = -0.86271 1.49618
#
# Static dielectric constant tensor:
#      x y z
#    x 1.728270 0.000000 0.017230 
#    y 0.000000 1.659990 0.000000 
#    z 0.017230 0.000000 1.642220 
# 
# From -- ./inp_files/64484.got.cif
#   From: 2010.05.17/outbox.cif.g08.bks.cpg/sg13_33_cif.got.tgz:64484.got - 2010.06.03 16:44:36.
