data_PCOD9228603
_publ_section_title
;
Structure prediction by ZEFSAII (Michael W. Deem and Ramdas Pophale) SiO2 
 PCOD9228603
Probable space group: P 2/C
;
_chemical_formula_sum "Si O2"
_cell_formula_units_Z 28
_cell_length_a 8.305892
_cell_length_b 8.788418
_cell_length_c 30.255706
_cell_angle_alpha 90.000000
_cell_angle_beta 39.434940
_cell_angle_gamma 90.000000
_cell_volume 1402.864982
_symmetry_space_group_name_H-M "P 2/C"
_symmetry_group_IT_number 13
_symmetry_cell_setting 'monoclinic'
loop_
_space_group_symop_operation_xyz
x,y,z
-x,y,1/2-z
-x,-y,-z
x,-y,1/2+z
loop_
_atom_site_type_symbol
_atom_site_label
_atom_site_fract_x
_atom_site_fract_y
_atom_site_fract_z
Si Si1 0.613647 0.731848 0.487927
Si Si2 0.854869 0.793239 0.157958
Si Si3 0.364899 0.702973 0.849850
Si Si4 0.626480 0.887568 0.568872
Si Si5 0.500000 0.953689 0.750000
Si Si6 0.794863 0.412877 0.489369
Si Si7 0.500000 0.529887 0.250000
Si Si8 0.779939 0.199083 0.570544
O O1 0.515701 0.851376 0.544615
O O2 0.733046 0.588150 0.490608
O O3 0.393268 0.676733 0.503068
O O4 0.845582 0.796322 0.410343
O O5 0.746490 0.636071 0.199139
O O6 0.750148 0.794828 0.129419
O O7 0.730706 0.931097 0.211102
O O8 0.465620 0.767726 0.874841
O O9 0.390812 0.847959 0.811851
O O10 0.503159 0.572233 0.793159
O O11 0.079862 0.639878 0.917474
O O12 0.928264 0.851966 0.499543
O O13 0.610385 0.061697 0.587418
O O14 0.744349 0.354570 0.550204
#
# Coordination Sequence:
#
# PCOD9228603 Si02
#       8
#     4   4   4   4   2   4   2   4
#     4  10  21  35  54  80 110 137 170 221 270 313
#     4  10  19  35  55  82 102 138 179 218 259 309
#     4  10  19  35  55  82 102 138 179 218 259 309
#     4   9  18  32  53  78 104 133 176 223 261 304
#     4  10  20  34  56  76 110 138 174 222 250 308
#     4  10  21  35  54  80 110 137 170 221 270 313
#     4  10  20  30  56  80 102 142 182 214 250 308
#     4   9  18  32  53  78 104 133 176 223 261 304
#
# _framework density 19.959156
#
# number of rings (size 3 to 8) (size 9 to 14) (size 15 to 20)
#    0.000    2.286    2.857    0.000    4.000    2.286 
#    0.000    0.000    0.000   10.286    0.000    0.000 
#    0.000    0.000    0.000    0.000    0.000    0.000 
#
# Total GULP energy -156148.222322 kJ/mol
# GULP energy per Si atom -5576.722226 kJ/mol
# Density = 1.991373 g / cm^3
# Si number density = 19.959156 Si / 1000 Ang^3
#
#
#
# Elastic Constant Matrix: (Units=GPa)
#
#
# Indices 1 2 3 4 5 6 
#
# 1 36.2855 8.4696 10.7715 0.0000 2.5726 0.0000
# 2 8.4696 78.0991 29.6666 0.0000 0.7288 0.0000
# 3 10.7715 29.6666 76.9287 0.0000 13.4122 0.0000
# 4 0.0000 0.0000 0.0000 21.6643 0.0000 5.0100
# 5 2.5726 0.7288 13.4122 0.0000 7.9727 0.0000
# 6 0.0000 0.0000 0.0000 5.0100 0.0000 24.0333
#
#
#
# Elastic Compliance Matrix: (Units=1/GPa)
#
#
# Indices 1 2 3 4 5 6 
#
# 1 0.029140 -0.002244 -0.002280 0.000000 -0.005362 0.000000
# 2 -0.002244 0.016007 -0.008108 0.000000 0.012900 0.000000
# 3 -0.002280 -0.008108 0.022906 0.000000 -0.037056 0.000000
# 4 0.000000 0.000000 0.000000 0.048497 0.000000 -0.010110
# 5 -0.005362 0.012900 -0.037056 0.000000 0.188317 0.000000
# 6 0.000000 0.000000 0.000000 -0.010110 0.000000 0.043716
#
#
# Mechanical properties :
#
#
# Convention : Reuss Voigt Hill
#
# Bulk Modulus (GPa) = 23.37047 32.12543 27.74795
# Shear Modulus (GPa) = 12.88297 20.22779 16.55538
#
# Velocity S-wave (km/s) = 2.54336 3.18694 2.88316
# Velocity P-wave (km/s) = 4.51215 5.44726 5.00161
#
# Compressibility (1/GPa) = 0.04278904
#
# Stress axis : x y z
#
# Youngs Moduli (GPa) = 34.31713 62.47256 43.65756
#
# Poissons Ratio (x) = 0.14019 0.09953
# Poissons Ratio (y) = 0.07701 0.35397
# Poissons Ratio (z) = 0.07824 0.50651
#
# Static dielectric constant tensor:
#      x y z
#    x 1.698470 0.000000 0.024480 
#    y 0.000000 1.761540 0.000000 
#    z 0.024480 0.000000 1.717030 
# 
# From -- ./inp_files/69322.got.cif
#   From: 2010.05.17/outbox.cif.g08.bks.cpg/sg13_35_cif.got.tgz:69322.got - 2010.06.03 16:44:36.
