data_PCOD9228691
_publ_section_title
;
Structure prediction by ZEFSAII (Michael W. Deem and Ramdas Pophale) SiO2 
 PCOD9228691
Probable space group: P 2/C
;
_chemical_formula_sum "Si O2"
_cell_formula_units_Z 24
_cell_length_a 17.139594
_cell_length_b 19.851227
_cell_length_c 5.006176
_cell_angle_alpha 90.000000
_cell_angle_beta 128.567339
_cell_angle_gamma 90.000000
_cell_volume 1331.778111
_symmetry_space_group_name_H-M "P 2/C"
_symmetry_group_IT_number 13
_symmetry_cell_setting 'monoclinic'
loop_
_space_group_symop_operation_xyz
x,y,z
-x,y,1/2-z
-x,-y,-z
x,-y,1/2+z
loop_
_atom_site_type_symbol
_atom_site_label
_atom_site_fract_x
_atom_site_fract_y
_atom_site_fract_z
Si Si1 0.705117 0.676059 0.028457
Si Si2 0.500000 0.720833 0.750000
Si Si3 0.000000 0.274170 0.750000
Si Si4 0.500000 0.950026 0.750000
Si Si5 0.778144 0.242194 0.191168
Si Si6 0.406395 0.841986 0.241409
Si Si7 0.802262 0.456202 0.939526
Si Si8 0.000000 0.372724 0.250000
O O1 0.755229 0.728546 0.346962
O O2 0.729851 0.602147 0.184084
O O3 0.586116 0.682326 0.782188
O O4 0.745482 0.699154 0.828277
O O5 0.444028 0.770648 0.430251
O O6 0.018859 0.323602 0.539591
O O7 0.897272 0.233359 0.479124
O O8 0.410368 0.897585 0.486104
O O9 0.500000 0.000000 0.500000
O O10 0.704986 0.177796 0.092056
O O11 0.500000 0.862695 0.250000
O O12 0.791639 0.519744 0.719748
O O13 0.909011 0.421322 0.125305
#
# Coordination Sequence:
#
# PCOD9228691 Si02
#       8
#     4   2   2   2   4   4   4   2
#     4  11  21  37  55  77 104 140 185 234 296 338
#     4   9  20  34  58  82 106 143 182 236 284 339
#     4  12  20  37  56  84 112 139 182 230 302 336
#     4  11  22  36  58  90 132 157 182 220 258 309
#     4  11  21  35  57  83 114 144 180 237 282 339
#     4  10  19  35  59  90 117 149 188 219 272 326
#     4  12  23  37  51  73 101 138 188 234 286 357
#     4  12  22  37  54  74 102 139 184 234 290 356
#
# _framework density 18.021018999999999
#
# number of rings (size 3 to 8) (size 9 to 14) (size 15 to 20)
#    0.000    1.000    5.833    2.500    0.000    0.000 
#    0.000    0.833    0.000    0.000    0.000    1.167 
#    0.000    0.167    0.000    0.000    0.000    0.000 
#
# Total GULP energy -133741.623770 kJ/mol
# GULP energy per Si atom -5572.567657 kJ/mol
# Density = 1.798000 g / cm^3
# Si number density = 18.021019 Si / 1000 Ang^3
#
#
#
# Elastic Constant Matrix: (Units=GPa)
#
#
# Indices 1 2 3 4 5 6 
#
# 1 37.5709 3.7117 13.8209 0.0000 13.9826 0.0000
# 2 3.7117 62.0199 22.1351 0.0000 18.2657 0.0000
# 3 13.8209 22.1351 69.8262 0.0000 13.2612 0.0000
# 4 0.0000 0.0000 0.0000 19.3320 0.0000 -14.7638
# 5 13.9826 18.2657 13.2612 0.0000 48.9029 0.0000
# 6 0.0000 0.0000 0.0000 -14.7638 0.0000 12.2119
#
#
#
# Elastic Compliance Matrix: (Units=1/GPa)
#
#
# Indices 1 2 3 4 5 6 
#
# 1 0.031525 0.002555 -0.005437 0.000000 -0.008494 0.000000
# 2 0.002555 0.019915 -0.005554 0.000000 -0.006663 0.000000
# 3 -0.005437 -0.005554 0.017363 0.000000 -0.001080 0.000000
# 4 0.000000 0.000000 0.000000 0.674263 0.000000 0.815161
# 5 -0.008494 -0.006663 -0.001080 0.000000 0.025659 0.000000
# 6 0.000000 0.000000 0.000000 0.815161 0.000000 1.067390
#
#
# Mechanical properties :
#
#
# Convention : Reuss Voigt Hill
#
# Bulk Modulus (GPa) = 19.25543 27.63915 23.44729
# Shear Modulus (GPa) = 2.67337 24.73930 13.70634
#
# Velocity S-wave (km/s) = 1.21930 3.70915 2.76084
# Velocity P-wave (km/s) = 3.56236 5.80640 4.81688
#
# Compressibility (1/GPa) = 0.05193341
#
# Stress axis : x y z
#
# Youngs Moduli (GPa) = 31.72081 50.21232 57.59408
#
# Poissons Ratio (x) = -0.12831 0.31312
# Poissons Ratio (y) = -0.08106 0.31985
# Poissons Ratio (z) = 0.17246 0.27886
#
# Static dielectric constant tensor:
#      x y z
#    x 1.706630 0.000000 0.020990 
#    y 0.000000 1.613010 0.000000 
#    z 0.020990 0.000000 1.727340 
# 
# From -- ./inp_files/5126.got.cif
#   From: 2010.05.17/outbox.cif.g08.bks.cpg/sg13_3_cif.got.tgz:5126.got - 2010.06.03 16:44:36.
