data_PCOD9228304
_publ_section_title
;
Structure prediction by ZEFSAII (Michael W. Deem and Ramdas Pophale) SiO2 
 PCOD9228304
Probable space group: P 2/C
;
_chemical_formula_sum "Si O2"
_cell_formula_units_Z 20
_cell_length_a 8.145003
_cell_length_b 7.860357
_cell_length_c 22.603937
_cell_angle_alpha 90.000000
_cell_angle_beta 32.901082
_cell_angle_gamma 90.000000
_cell_volume 786.085198
_symmetry_space_group_name_H-M "P 2/C"
_symmetry_group_IT_number 13
_symmetry_cell_setting 'monoclinic'
loop_
_space_group_symop_operation_xyz
x,y,z
-x,y,1/2-z
-x,-y,-z
x,-y,1/2+z
loop_
_atom_site_type_symbol
_atom_site_label
_atom_site_fract_x
_atom_site_fract_y
_atom_site_fract_z
Si Si1 0.818295 0.098927 0.218934
Si Si2 0.904177 0.147259 0.484547
Si Si3 0.634121 0.709615 0.310669
Si Si4 0.524386 0.131076 0.420361
Si Si5 0.780721 0.622782 0.402234
O O1 0.588977 0.190601 0.333697
O O2 0.150018 0.125846 0.147310
O O3 0.727795 0.897828 0.255478
O O4 0.853235 0.163280 0.141299
O O5 0.621566 0.054382 0.537393
O O6 0.732263 0.293348 0.573948
O O7 0.000000 0.000000 0.500000
O O8 0.724630 0.677140 0.351612
O O9 0.859505 0.583319 0.206570
O O10 0.283841 0.238813 0.528417
O O11 0.500000 0.500000 0.500000
#
# Coordination Sequence:
#
# PCOD9228304 Si02
#       5
#     4   4   4   4   4
#     4  10  19  33  62  86 121 149 190 262 326 350
#     4  11  21  35  60  91 122 157 189 245 326 379
#     4  10  21  36  55  92 121 148 203 252 302 370
#     4  10  19  33  56  86 119 148 195 254 304 359
#     4  11  21  36  58  84 122 164 205 249 297 346
#
# _framework density 25.442532
#
# number of rings (size 3 to 8) (size 9 to 14) (size 15 to 20)
#    0.000    1.600    4.000    5.400    0.000    6.400 
#    0.000    0.000    0.000    1.200    0.000    0.000 
#    0.000    0.000    0.000    0.000    0.000    0.000 
#
# Total GULP energy -111336.259183 kJ/mol
# GULP energy per Si atom -5566.812959 kJ/mol
# Density = 2.538462 g / cm^3
# Si number density = 25.442532 Si / 1000 Ang^3
#
#
#
# Elastic Constant Matrix: (Units=GPa)
#
#
# Indices 1 2 3 4 5 6 
#
# 1 44.0163 -9.8799 28.9509 0.0000 11.1572 0.0000
# 2 -9.8799 28.2101 35.7167 0.0000 -3.0960 0.0000
# 3 28.9509 35.7167 280.0786 0.0000 7.7530 0.0000
# 4 0.0000 0.0000 0.0000 19.0725 0.0000 -22.7314
# 5 11.1572 -3.0960 7.7530 0.0000 28.7774 0.0000
# 6 0.0000 0.0000 0.0000 -22.7314 0.0000 8.1685
#
#
#
# Elastic Compliance Matrix: (Units=1/GPa)
#
#
# Indices 1 2 3 4 5 6 
#
# 1 0.032328 0.016942 -0.005245 0.000000 -0.009298 0.000000
# 2 0.016942 0.052223 -0.008448 0.000000 0.001326 0.000000
# 3 -0.005245 -0.008448 0.005197 0.000000 -0.000276 0.000000
# 4 0.000000 0.000000 0.000000 -0.022632 0.000000 -0.062981
# 5 -0.009298 0.001326 -0.000276 0.000000 0.038571 0.000000
# 6 0.000000 0.000000 0.000000 -0.062981 0.000000 -0.052844
#
#
# Mechanical properties :
#
#
# Convention : Reuss Voigt Hill
#
# Bulk Modulus (GPa) = 10.38984 51.32006 30.85495
# Shear Modulus (GPa) = 63.75347 31.03815 47.39581
#
# Velocity S-wave (km/s) = 5.01121 3.49654 4.32077
# Velocity P-wave (km/s) = 6.12989 6.04283 6.08651
#
# Compressibility (1/GPa) = 0.09624788
#
# Stress axis : x y z
#
# Youngs Moduli (GPa) = 30.93274 19.14871 192.40127
#
# Poissons Ratio (x) = -0.32442 1.00911
# Poissons Ratio (y) = -0.52407 1.62533
# Poissons Ratio (z) = 0.16224 0.16176
#
# Static dielectric constant tensor:
#      x y z
#    x 2.065680 0.000000 -0.009210 
#    y 0.000000 2.263980 0.000000 
#    z -0.009210 0.000000 2.149850 
# 
# From -- ./inp_files/75506.got.cif
#   From: 2010.05.17/outbox.cif.g08.bks.cpg/sg13_38_cif.got.tgz:75506.got - 2010.06.03 16:44:36.
