data_PCOD9228516
_publ_section_title
;
Structure prediction by ZEFSAII (Michael W. Deem and Ramdas Pophale) SiO2 
 PCOD9228516
Probable space group: P 2/C
;
_chemical_formula_sum "Si O2"
_cell_formula_units_Z 30
_cell_length_a 16.034305
_cell_length_b 9.602414
_cell_length_c 12.773143
_cell_angle_alpha 90.000000
_cell_angle_beta 46.814969
_cell_angle_gamma 90.000000
_cell_volume 1433.982000
_symmetry_space_group_name_H-M "P 2/C"
_symmetry_group_IT_number 13
_symmetry_cell_setting 'monoclinic'
loop_
_space_group_symop_operation_xyz
x,y,z
-x,y,1/2-z
-x,-y,-z
x,-y,1/2+z
loop_
_atom_site_type_symbol
_atom_site_label
_atom_site_fract_x
_atom_site_fract_y
_atom_site_fract_z
Si Si1 0.246044 0.294130 0.857796
Si Si2 0.089650 0.185207 0.498663
Si Si3 0.500799 0.352496 0.563163
Si Si4 0.676515 0.705805 0.758082
Si Si5 0.654175 0.486357 0.087763
Si Si6 0.042882 0.874146 0.597367
Si Si7 0.000000 0.402188 0.750000
Si Si8 0.806120 0.467546 0.778553
O O1 0.377478 0.292616 0.702343
O O2 0.251759 0.416661 0.937818
O O3 0.172560 0.348348 0.823366
O O4 0.175637 0.168989 0.966399
O O5 0.227593 0.188163 0.363967
O O6 0.061643 0.303993 0.609467
O O7 0.033595 0.193169 0.430269
O O8 0.040918 0.040651 0.584852
O O9 0.500000 0.500000 0.500000
O O10 0.575654 0.252512 0.424239
O O11 0.569373 0.403138 0.606616
O O12 0.621805 0.622270 0.706249
O O13 0.750532 0.594512 0.763283
O O14 0.712470 0.410173 0.940781
O O15 0.000000 0.837022 0.750000
O O16 0.083536 0.494754 0.748172
#
# Coordination Sequence:
#
# PCOD9228516 Si02
#       8
#     4   4   4   4   4   4   2   4
#     4  11  22  38  59  91 125 164 211 252 312 379
#     4  11  24  44  65  89 124 168 220 266 314 369
#     4  11  20  35  60  93 130 161 201 249 317 389
#     4  10  22  37  59  95 126 163 207 254 319 384
#     4  10  19  34  58  91 123 166 197 248 315 380
#     4  11  26  44  65  89 119 173 225 266 313 367
#     4  12  20  38  64  90 132 168 208 256 328 374
#     4  10  21  34  57  94 127 162 196 259 320 385
#
# _framework density 20.920763000000001
#
# number of rings (size 3 to 8) (size 9 to 14) (size 15 to 20)
#    0.000    1.333    7.333    0.400    3.733    1.600 
#    0.000    0.667    0.000    0.000   10.400    0.000 
#    0.000    0.000    0.000    0.000    0.000    0.000 
#
# Total GULP energy -167124.843063 kJ/mol
# GULP energy per Si atom -5570.828102 kJ/mol
# Density = 2.087315 g / cm^3
# Si number density = 20.920763 Si / 1000 Ang^3
#
#
#
# Elastic Constant Matrix: (Units=GPa)
#
#
# Indices 1 2 3 4 5 6 
#
# 1 118.1768 6.4620 30.6619 0.0000 16.9270 0.0000
# 2 6.4620 20.8016 16.6079 0.0000 5.7160 0.0000
# 3 30.6619 16.6079 102.7409 0.0000 11.4110 0.0000
# 4 0.0000 0.0000 0.0000 26.6374 0.0000 -4.4729
# 5 16.9270 5.7160 11.4110 0.0000 40.2984 0.0000
# 6 0.0000 0.0000 0.0000 -4.4729 0.0000 13.8886
#
#
#
# Elastic Compliance Matrix: (Units=1/GPa)
#
#
# Indices 1 2 3 4 5 6 
#
# 1 0.009584 -0.000089 -0.002478 0.000000 -0.003311 0.000000
# 2 -0.000089 0.056393 -0.008471 0.000000 -0.005563 0.000000
# 3 -0.002478 -0.008471 0.011970 0.000000 -0.001147 0.000000
# 4 0.000000 0.000000 0.000000 0.039687 0.000000 0.012781
# 5 -0.003311 -0.005563 -0.001147 0.000000 0.027320 0.000000
# 6 0.000000 0.000000 0.000000 0.012781 0.000000 0.076118
#
#
# Mechanical properties :
#
#
# Convention : Reuss Voigt Hill
#
# Bulk Modulus (GPa) = 17.89882 38.79812 28.34847
# Shear Modulus (GPa) = 19.10065 28.69738 23.89901
#
# Velocity S-wave (km/s) = 3.02487 3.70769 3.38355
# Velocity P-wave (km/s) = 4.55783 6.07576 5.37069
#
# Compressibility (1/GPa) = 0.05586960
#
# Stress axis : x y z
#
# Youngs Moduli (GPa) = 104.34027 17.73274 83.54528
#
# Poissons Ratio (x) = 0.00158 0.20703
# Poissons Ratio (y) = 0.00927 0.70775
# Poissons Ratio (z) = 0.25857 0.15022
#
# Static dielectric constant tensor:
#      x y z
#    x 1.821160 0.000000 -0.048520 
#    y 0.000000 1.720410 0.000000 
#    z -0.048520 0.000000 1.860460 
# 
# From -- ./inp_files/37172.got.cif
#   From: 2010.05.17/outbox.cif.g08.bks.cpg/sg13_19_cif.got.tgz:37172.got - 2010.06.03 16:44:36.
