data_PCOD9228928
_publ_section_title
;
Structure prediction by ZEFSAII (Michael W. Deem and Ramdas Pophale) SiO2 
 PCOD9228928
Probable space group: P 2/C
;
_chemical_formula_sum "Si O2"
_cell_formula_units_Z 28
_cell_length_a 17.674777
_cell_length_b 8.446803
_cell_length_c 16.985608
_cell_angle_alpha 90.000000
_cell_angle_beta 152.585741
_cell_angle_gamma 90.000000
_cell_volume 1167.568215
_symmetry_space_group_name_H-M "P 2/C"
_symmetry_group_IT_number 13
_symmetry_cell_setting 'monoclinic'
loop_
_space_group_symop_operation_xyz
x,y,z
-x,y,1/2-z
-x,-y,-z
x,-y,1/2+z
loop_
_atom_site_type_symbol
_atom_site_label
_atom_site_fract_x
_atom_site_fract_y
_atom_site_fract_z
Si Si1 0.000000 0.809917 0.250000
Si Si2 0.333504 0.234428 0.291826
Si Si3 0.187322 0.630405 0.807896
Si Si4 0.500000 0.739222 0.250000
Si Si5 0.220221 0.934037 0.906588
Si Si6 0.013155 0.348938 0.593650
Si Si7 0.471225 0.558002 0.640850
Si Si8 0.181251 0.936073 0.195467
O O1 0.019303 0.710685 0.189595
O O2 0.149158 0.933751 0.398217
O O3 0.318697 0.293959 0.368085
O O4 0.477473 0.324953 0.380607
O O5 0.313698 0.043159 0.270820
O O6 0.167428 0.302591 0.100026
O O7 0.112850 0.778285 0.785063
O O8 0.055911 0.532094 0.637766
O O9 0.290335 0.510275 0.957236
O O10 0.624111 0.851154 0.410623
O O11 0.431139 0.608323 0.250086
O O12 0.225046 0.020256 0.826330
O O13 0.149830 0.251183 0.669873
O O14 0.500000 0.646881 0.750000
O O15 0.000000 0.000000 0.000000
#
# Coordination Sequence:
#
# PCOD9228928 Si02
#       8
#     2   4   4   2   4   4   4   4
#     4  10  22  34  54  80 120 154 188 234 304 340
#     4  10  19  36  61  82 110 160 192 235 296 342
#     4  10  20  36  60  84 117 146 199 242 288 344
#     4   8  18  34  54  78 118 140 192 252 282 340
#     4   9  18  36  55  82 110 156 190 241 288 350
#     4  10  21  35  56  88 118 149 191 244 286 349
#     4   9  20  35  55  87 119 146 191 249 292 342
#     4   8  17  35  56  79 118 151 192 235 286 345
#
# _framework density 23.981468
#
# number of rings (size 3 to 8) (size 9 to 14) (size 15 to 20)
#    0.429    2.286    0.000    0.857    2.000    1.714 
#    0.000    7.857    0.000    0.000    0.000    0.000 
#    0.000    0.000    0.000    0.000    0.000    0.000 
#
# Total GULP energy -155949.264603 kJ/mol
# GULP energy per Si atom -5569.616593 kJ/mol
# Density = 2.392688 g / cm^3
# Si number density = 23.981468 Si / 1000 Ang^3
#
#
#
# Elastic Constant Matrix: (Units=GPa)
#
#
# Indices 1 2 3 4 5 6 
#
# 1 58.6180 15.4919 -4.9680 0.0000 -9.2298 0.0000
# 2 15.4919 80.5996 16.8906 0.0000 2.3270 0.0000
# 3 -4.9680 16.8906 64.2767 0.0000 -23.8355 0.0000
# 4 0.0000 0.0000 0.0000 35.1897 0.0000 -0.2260
# 5 -9.2298 2.3270 -23.8355 0.0000 19.6269 0.0000
# 6 0.0000 0.0000 0.0000 -0.2260 0.0000 21.1449
#
#
#
# Elastic Compliance Matrix: (Units=1/GPa)
#
#
# Indices 1 2 3 4 5 6 
#
# 1 0.026734 -0.009878 0.017753 0.000000 0.035303 0.000000
# 2 -0.009878 0.018076 -0.014610 0.000000 -0.024531 0.000000
# 3 0.017753 -0.014610 0.044587 0.000000 0.064228 0.000000
# 4 0.000000 0.000000 0.000000 0.028419 0.000000 0.000304
# 5 0.035303 -0.024531 0.064228 0.000000 0.148461 0.000000
# 6 0.000000 0.000000 0.000000 0.000304 0.000000 0.047296
#
#
# Mechanical properties :
#
#
# Convention : Reuss Voigt Hill
#
# Bulk Modulus (GPa) = 13.17078 28.70257 20.93667
# Shear Modulus (GPa) = 14.19042 26.93097 20.56070
#
# Velocity S-wave (km/s) = 2.43518 3.35474 2.93124
# Velocity P-wave (km/s) = 3.66207 5.19619 4.49506
#
# Compressibility (1/GPa) = 0.07592567
#
# Stress axis : x y z
#
# Youngs Moduli (GPa) = 37.40622 55.32307 22.42824
#
# Poissons Ratio (x) = 0.54648 -0.39817
# Poissons Ratio (y) = 0.36950 0.32768
# Poissons Ratio (z) = -0.66408 0.80829
#
# Static dielectric constant tensor:
#      x y z
#    x 2.024560 0.000000 0.007070 
#    y 0.000000 1.938990 0.000000 
#    z 0.007070 0.000000 1.954620 
# 
# From -- ./inp_files/69720.got.cif
#   From: 2010.05.17/outbox.cif.g08.bks.cpg/sg13_35_cif.got.tgz:69720.got - 2010.06.03 16:44:36.
