data_PCOD9228428
_publ_section_title
;
Structure prediction by ZEFSAII (Michael W. Deem and Ramdas Pophale) SiO2 
 PCOD9228428
Probable space group: P 2/C
;
_chemical_formula_sum "Si O2"
_cell_formula_units_Z 20
_cell_length_a 7.983565
_cell_length_b 22.360212
_cell_length_c 9.020513
_cell_angle_alpha 90.000000
_cell_angle_beta 146.501296
_cell_angle_gamma 90.000000
_cell_volume 888.748077
_symmetry_space_group_name_H-M "P 2/C"
_symmetry_group_IT_number 13
_symmetry_cell_setting 'monoclinic'
loop_
_space_group_symop_operation_xyz
x,y,z
-x,y,1/2-z
-x,-y,-z
x,-y,1/2+z
loop_
_atom_site_type_symbol
_atom_site_label
_atom_site_fract_x
_atom_site_fract_y
_atom_site_fract_z
Si Si1 0.829217 0.126960 0.284588
Si Si2 0.651468 0.944559 0.199653
Si Si3 0.242674 0.262902 0.294302
Si Si4 0.850949 0.664425 0.295385
Si Si5 0.175718 0.452307 0.533349
O O1 0.001842 0.076708 0.512563
O O2 0.000000 0.124392 0.250000
O O3 0.807048 0.196169 0.308720
O O4 0.486771 0.109184 0.996938
O O5 0.500000 0.947868 0.250000
O O6 0.500000 0.000000 0.000000
O O7 0.578127 0.286151 0.586769
O O8 0.000000 0.266634 0.250000
O O9 0.130692 0.307516 0.088669
O O10 0.756645 0.607119 0.320925
O O11 0.000000 0.646828 0.250000
O O12 0.500000 0.481753 0.750000
O O13 0.000000 0.500000 0.500000
O O14 0.000000 0.438891 0.250000
#
# Coordination Sequence:
#
# PCOD9228428 Si02
#       5
#     4   4   4   4   4
#     4   9  19  35  58  85 115 155 207 260 313 377
#     4  10  19  34  55  83 117 156 201 254 315 382
#     4  11  22  41  67  92 122 169 222 270 321 390
#     4  12  25  42  64  96 134 171 212 269 332 391
#     4  12  26  46  71 100 134 175 222 273 328 392
#
# _framework density 22.503564999999998
#
# number of rings (size 3 to 8) (size 9 to 14) (size 15 to 20)
#    0.000    1.200    0.000    7.200    0.000    4.800 
#    0.000    4.000    0.000    1.200    0.000    0.000 
#    0.000    0.000    0.000    0.000    0.000    0.000 
#
# Total GULP energy -111524.480280 kJ/mol
# GULP energy per Si atom -5576.224014 kJ/mol
# Density = 2.245235 g / cm^3
# Si number density = 22.503565 Si / 1000 Ang^3
#
#
#
# Elastic Constant Matrix: (Units=GPa)
#
#
# Indices 1 2 3 4 5 6 
#
# 1 81.3961 20.8969 28.9318 0.0000 -0.9281 0.0000
# 2 20.8969 83.9747 9.0781 0.0000 -6.7162 0.0000
# 3 28.9318 9.0781 100.6822 0.0000 3.3763 0.0000
# 4 0.0000 0.0000 0.0000 41.9796 0.0000 -32.9362
# 5 -0.9281 -6.7162 3.3763 0.0000 29.8617 0.0000
# 6 0.0000 0.0000 0.0000 -32.9362 0.0000 -68.1689
#
#
#
# Elastic Compliance Matrix: (Units=1/GPa)
#
#
# Indices 1 2 3 4 5 6 
#
# 1 0.014481 -0.003170 -0.003881 0.000000 0.000176 0.000000
# 2 -0.003170 0.012964 -0.000354 0.000000 0.002857 0.000000
# 3 -0.003881 -0.000354 0.011128 0.000000 -0.001458 0.000000
# 4 0.000000 0.000000 0.000000 0.017273 0.000000 -0.008346
# 5 0.000176 0.002857 -0.001458 0.000000 0.034301 0.000000
# 6 0.000000 0.000000 0.000000 -0.008346 0.000000 -0.010637
#
#
# Mechanical properties :
#
#
# Convention : Reuss Voigt Hill
#
# Bulk Modulus (GPa) = 42.08178 42.65183 42.36680
# Shear Modulus (GPa) = 48.90396 14.54423 31.72410
#
# Velocity S-wave (km/s) = 4.66678 2.54502 3.75872
# Velocity P-wave (km/s) = 6.91224 5.25649 6.14043
#
# Compressibility (1/GPa) = 0.02376326
#
# Stress axis : x y z
#
# Youngs Moduli (GPa) = 69.05600 77.13709 89.86035
#
# Poissons Ratio (x) = 0.24452 0.34878
# Poissons Ratio (y) = 0.21890 0.03179
# Poissons Ratio (z) = 0.26803 0.02729
#
# Static dielectric constant tensor:
#      x y z
#    x 1.846810 0.000000 -0.025030 
#    y 0.000000 1.872430 0.000000 
#    z -0.025030 0.000000 1.800980 
# 
# From -- ./inp_files/13845.got.cif
#   From: 2010.05.17/outbox.cif.g08.bks.cpg/sg13_7_cif.got.tgz:13845.got - 2010.06.03 16:44:36.
