data_PCOD9228597
_publ_section_title
;
Structure prediction by ZEFSAII (Michael W. Deem and Ramdas Pophale) SiO2 
 PCOD9228597
Probable space group: P 2/C
;
_chemical_formula_sum "Si O2"
_cell_formula_units_Z 28
_cell_length_a 7.860533
_cell_length_b 19.275341
_cell_length_c 18.160271
_cell_angle_alpha 90.000000
_cell_angle_beta 147.399769
_cell_angle_gamma 90.000000
_cell_volume 1482.460622
_symmetry_space_group_name_H-M "P 2/C"
_symmetry_group_IT_number 13
_symmetry_cell_setting 'monoclinic'
loop_
_space_group_symop_operation_xyz
x,y,z
-x,y,1/2-z
-x,-y,-z
x,-y,1/2+z
loop_
_atom_site_type_symbol
_atom_site_label
_atom_site_fract_x
_atom_site_fract_y
_atom_site_fract_z
Si Si1 0.862546 0.089351 0.379804
Si Si2 0.904974 0.206556 0.800202
Si Si3 0.194241 0.661025 0.680813
Si Si4 0.752885 0.776044 0.501861
Si Si5 0.721732 0.566381 0.589075
Si Si6 0.865767 0.936428 0.361410
Si Si7 0.523030 0.708203 0.950136
O O1 0.500000 0.112344 0.250000
O O2 0.094818 0.148466 0.436873
O O3 0.942620 0.073934 0.493845
O O4 0.902225 0.016524 0.350952
O O5 0.533259 0.222820 0.660781
O O6 0.951152 0.126355 0.839029
O O7 0.000000 0.216522 0.750000
O O8 0.135120 0.255874 0.931370
O O9 0.500000 0.634249 0.750000
O O10 0.320508 0.699513 0.801575
O O11 0.015822 0.721504 0.572366
O O12 0.936733 0.601229 0.603268
O O13 0.641546 0.750676 0.542665
O O14 0.500000 0.500000 0.500000
O O15 0.485517 0.628702 0.525778
O O16 0.000000 0.552995 0.750000
O O17 0.500000 0.928907 0.250000
#
# Coordination Sequence:
#
# PCOD9228597 Si02
#       7
#     4   4   4   4   4   4   4
#     4  10  21  34  55  81 104 146 190 235 295 347
#     4  10  21  36  54  78 109 145 188 238 285 338
#     4  10  21  37  58  88 119 147 190 236 279 332
#     4  10  19  35  55  79 110 145 189 232 287 341
#     4   9  19  38  62  85 116 156 187 222 276 335
#     4  10  20  37  55  73 110 143 189 242 291 345
#     4   9  21  38  56  83 114 147 186 232 278 339
#
# _framework density 18.887515
#
# number of rings (size 3 to 8) (size 9 to 14) (size 15 to 20)
#    0.000    2.286    1.429    1.714    4.000    2.857 
#    0.000    7.143    0.000    0.857    0.000    0.000 
#    0.000    0.000    0.000    0.000    0.000    0.000 
#
# Total GULP energy -155906.058234 kJ/mol
# GULP energy per Si atom -5568.073508 kJ/mol
# Density = 1.884453 g / cm^3
# Si number density = 18.887515 Si / 1000 Ang^3
#
#
#
# Elastic Constant Matrix: (Units=GPa)
#
#
# Indices 1 2 3 4 5 6 
#
# 1 26.7936 29.8880 23.9344 0.0000 5.6944 0.0000
# 2 29.8880 141.3784 58.3556 0.0000 22.7481 0.0000
# 3 23.9344 58.3556 108.6410 0.0000 23.3806 0.0000
# 4 0.0000 0.0000 0.0000 38.5848 0.0000 11.7996
# 5 5.6944 22.7481 23.3806 0.0000 24.1037 0.0000
# 6 0.0000 0.0000 0.0000 11.7996 0.0000 14.4262
#
#
#
# Elastic Compliance Matrix: (Units=1/GPa)
#
#
# Indices 1 2 3 4 5 6 
#
# 1 0.053120 -0.008503 -0.007787 0.000000 0.003029 0.000000
# 2 -0.008503 0.010922 -0.002790 0.000000 -0.005593 0.000000
# 3 -0.007787 -0.002790 0.014479 0.000000 -0.009572 0.000000
# 4 0.000000 0.000000 0.000000 0.034562 0.000000 -0.028269
# 5 0.003029 -0.005593 -0.009572 0.000000 0.055335 0.000000
# 6 0.000000 0.000000 0.000000 -0.028269 0.000000 0.092441
#
#
# Mechanical properties :
#
#
# Convention : Reuss Voigt Hill
#
# Bulk Modulus (GPa) = 24.77659 55.68544 40.23101
# Shear Modulus (GPa) = 16.00146 26.39861 21.20003
#
# Velocity S-wave (km/s) = 2.91382 3.74260 3.35391
# Velocity P-wave (km/s) = 4.94641 6.94426 6.02867
#
# Compressibility (1/GPa) = 0.04036068
#
# Stress axis : x y z
#
# Youngs Moduli (GPa) = 18.82540 91.55646 69.06703
#
# Poissons Ratio (x) = 0.77849 0.53784
# Poissons Ratio (y) = 0.16007 0.19269
# Poissons Ratio (z) = 0.14660 0.25543
#
# Static dielectric constant tensor:
#      x y z
#    x 1.697710 0.000000 0.027170 
#    y 0.000000 1.655560 0.000000 
#    z 0.027170 0.000000 1.657440 
# 
# From -- ./inp_files/67007.got.cif
#   From: 2010.05.17/outbox.cif.g08.bks.cpg/sg13_34_cif.got.tgz:67007.got - 2010.06.03 16:44:36.
