data_PCOD9228159
_publ_section_title
;
Structure prediction by ZEFSAII (Michael W. Deem and Ramdas Pophale) SiO2 
 PCOD9228159
Probable space group: P 2/C
;
_chemical_formula_sum "Si O2"
_cell_formula_units_Z 30
_cell_length_a 21.739316
_cell_length_b 14.038786
_cell_length_c 8.712264
_cell_angle_alpha 90.000000
_cell_angle_beta 141.025476
_cell_angle_gamma 90.000000
_cell_volume 1672.398184
_symmetry_space_group_name_H-M "P 2/C"
_symmetry_group_IT_number 13
_symmetry_cell_setting 'monoclinic'
loop_
_space_group_symop_operation_xyz
x,y,z
-x,y,1/2-z
-x,-y,-z
x,-y,1/2+z
loop_
_atom_site_type_symbol
_atom_site_label
_atom_site_fract_x
_atom_site_fract_y
_atom_site_fract_z
Si Si1 0.269065 0.237336 0.532662
Si Si2 0.397548 0.638201 0.488331
Si Si3 0.131464 0.597767 0.754779
Si Si4 0.664725 0.516557 0.838373
Si Si5 0.609318 0.687635 0.524790
Si Si6 0.365138 0.059679 0.626786
Si Si7 0.416790 0.881801 0.883111
Si Si8 0.000000 0.497064 0.750000
O O1 0.326938 0.278609 0.792548
O O2 0.166337 0.292790 0.331209
O O3 0.326921 0.274930 0.493568
O O4 0.279386 0.123899 0.533038
O O5 0.356457 0.570597 0.544040
O O6 0.408300 0.567117 0.361984
O O7 0.500000 0.674898 0.750000
O O8 0.072033 0.569030 0.488535
O O9 0.064146 0.563619 0.763930
O O10 0.230812 0.535208 0.953133
O O11 0.657655 0.596656 0.694407
O O12 0.602434 0.770183 0.640441
O O13 0.500000 0.671240 0.250000
O O14 0.379599 0.077947 0.474985
O O15 0.364296 0.947509 0.657363
O O16 0.466654 0.099971 0.897840
#
# Coordination Sequence:
#
# PCOD9228159 Si02
#       8
#     4   4   4   4   4   4   4   2
#     4  10  19  33  49  70 101 127 171 207 244 277
#     4  11  21  31  42  66  95 139 172 199 231 280
#     4  10  20  35  52  74  94 126 154 207 254 313
#     4  11  21  32  48  66 100 127 169 207 243 282
#     4  11  18  31  47  69 100 142 174 206 230 276
#     4   9  17  31  46  66  96 133 167 212 230 277
#     4   9  17  30  46  66  95 135 176 196 241 261
#     4  10  20  36  56  70  96 120 158 198 276 322
#
# _framework density 17.938310999999999
#
# number of rings (size 3 to 8) (size 9 to 14) (size 15 to 20)
#    0.000    1.867    2.667    5.600    0.000    1.067 
#    2.400    0.000    0.000    0.000    0.000    0.000 
#    0.000   36.267    0.000    0.000    0.000    0.000 
#
# Total GULP energy -167415.424048 kJ/mol
# GULP energy per Si atom -5580.514135 kJ/mol
# Density = 1.789748 g / cm^3
# Si number density = 17.938311 Si / 1000 Ang^3
#
#
#
# Elastic Constant Matrix: (Units=GPa)
#
#
# Indices 1 2 3 4 5 6 
#
# 1 34.4252 8.1290 16.3634 0.0000 -3.2058 0.0000
# 2 8.1290 50.2295 27.5509 0.0000 -3.0037 0.0000
# 3 16.3634 27.5509 74.1111 0.0000 3.3064 0.0000
# 4 0.0000 0.0000 0.0000 -5.2211 0.0000 -4.2513
# 5 -3.2058 -3.0037 3.3064 0.0000 17.4111 0.0000
# 6 0.0000 0.0000 0.0000 -4.2513 0.0000 28.2533
#
#
#
# Elastic Compliance Matrix: (Units=1/GPa)
#
#
# Indices 1 2 3 4 5 6 
#
# 1 0.033462 -0.000929 -0.007373 0.000000 0.007401 0.000000
# 2 -0.000929 0.025700 -0.009621 0.000000 0.006090 0.000000
# 3 -0.007373 -0.009621 0.018993 0.000000 -0.006624 0.000000
# 4 0.000000 0.000000 0.000000 -0.170625 0.000000 -0.025674
# 5 0.007401 0.006090 -0.006624 0.000000 0.061106 0.000000
# 6 0.000000 0.000000 0.000000 -0.025674 0.000000 0.031531
#
#
# Mechanical properties :
#
#
# Convention : Reuss Voigt Hill
#
# Bulk Modulus (GPa) = 23.63504 29.20582 26.42043
# Shear Modulus (GPa) = 99.77102 15.20349 57.48725
#
# Velocity S-wave (km/s) = 7.46590 2.91442 5.66717
# Velocity P-wave (km/s) = 9.35542 5.25754 7.58833
#
# Compressibility (1/GPa) = 0.04231007
#
# Stress axis : x y z
#
# Youngs Moduli (GPa) = 29.88491 38.91054 52.65037
#
# Poissons Ratio (x) = 0.03613 0.38820
# Poissons Ratio (y) = 0.02775 0.50653
# Poissons Ratio (z) = 0.22035 0.37434
#
# Static dielectric constant tensor:
#      x y z
#    x 1.645950 0.000000 -0.032760 
#    y 0.000000 1.673520 0.000000 
#    z -0.032760 0.000000 1.619740 
# 
# From -- ./inp_files/23500.got.cif
#   From: 2010.05.17/outbox.cif.g08.bks.cpg/sg13_12_cif.got.tgz:23500.got - 2010.06.03 16:44:36.
