data_PCOD9228318
_publ_section_title
;
Structure prediction by ZEFSAII (Michael W. Deem and Ramdas Pophale) SiO2 
 PCOD9228318
Probable space group: P 2/C
;
_chemical_formula_sum "Si O2"
_cell_formula_units_Z 30
_cell_length_a 17.624302
_cell_length_b 5.272741
_cell_length_c 29.826995
_cell_angle_alpha 90.000000
_cell_angle_beta 32.200326
_cell_angle_gamma 90.000000
_cell_volume 1477.026122
_symmetry_space_group_name_H-M "P 2/C"
_symmetry_group_IT_number 13
_symmetry_cell_setting 'monoclinic'
loop_
_space_group_symop_operation_xyz
x,y,z
-x,y,1/2-z
-x,-y,-z
x,-y,1/2+z
loop_
_atom_site_type_symbol
_atom_site_label
_atom_site_fract_x
_atom_site_fract_y
_atom_site_fract_z
Si Si1 0.500000 0.500000 0.250000
Si Si2 0.167915 0.148806 0.027473
Si Si3 0.339661 0.880189 0.630401
Si Si4 0.339661 0.119811 0.029938
Si Si5 0.683186 0.324761 0.738335
Si Si6 0.832085 0.851196 0.695387
Si Si7 0.500000 0.500000 0.404373
Si Si8 0.683186 0.675241 0.578479
O O1 0.399036 0.655947 0.267179
O O2 0.399037 0.344053 0.333785
O O3 0.229794 0.062740 0.045241
O O4 0.000000 0.186207 0.113609
O O5 0.241319 0.407894 0.972599
O O6 0.212004 0.911696 0.974685
O O7 0.286309 0.918021 0.606845
O O8 0.229795 0.937260 0.724965
O O9 0.376230 0.589195 0.624630
O O10 0.500000 0.000000 0.552240
O O11 0.376230 0.410805 0.999140
O O12 0.758681 0.592109 0.713917
O O13 0.563316 0.297647 0.837432
O O14 0.787997 0.088307 0.686689
O O15 0.436684 0.297646 0.400748
#
# Coordination Sequence:
#
# PCOD9228318 Si02
#       8
#     2   4   4   4   4   4   4   4
#     4  10  24  42  72  98 118 142 208 254 304 352
#     4  11  23  41  60  87 128 166 196 237 304 367
#     4  10  19  33  57  87 117 157 209 256 288 337
#     4  10  19  33  57  87 117 157 209 256 288 337
#     4  10  22  39  64  90 117 157 198 249 301 359
#     4  11  23  41  60  87 128 166 196 237 304 367
#     4   9  17  33  57  84 120 150 203 257 303 339
#     4  10  22  39  64  90 117 157 198 249 301 359
#
# _framework density 20.311081999999999
#
# number of rings (size 3 to 8) (size 9 to 14) (size 15 to 20)
#    0.000    1.867    2.667    1.200    0.000    2.667 
#    0.000    4.000    0.000    3.200    0.000    0.000 
#    0.000    0.000    0.000    0.000    0.000    0.000 
#
# Total GULP energy -167083.030648 kJ/mol
# GULP energy per Si atom -5569.434355 kJ/mol
# Density = 2.026485 g / cm^3
# Si number density = 20.311082 Si / 1000 Ang^3
#
#
#
# Elastic Constant Matrix: (Units=GPa)
#
#
# Indices 1 2 3 4 5 6 
#
# 1 121.4754 39.1793 68.8059 0.0000 11.9763 0.0000
# 2 39.1793 85.8611 36.7851 0.0000 2.4170 0.0000
# 3 68.8059 36.7851 110.3032 0.0000 -0.6980 0.0000
# 4 0.0000 0.0000 0.0000 19.9423 0.0000 -5.0932
# 5 11.9763 2.4170 -0.6980 0.0000 33.2001 0.0000
# 6 0.0000 0.0000 0.0000 -5.0932 0.0000 14.8976
#
#
#
# Elastic Compliance Matrix: (Units=1/GPa)
#
#
# Indices 1 2 3 4 5 6 
#
# 1 0.014135 -0.002936 -0.007870 0.000000 -0.005051 0.000000
# 2 -0.002936 0.014237 -0.002917 0.000000 -0.000039 0.000000
# 3 -0.007870 -0.002917 0.014969 0.000000 0.003366 0.000000
# 4 0.000000 0.000000 0.000000 0.054942 0.000000 0.018784
# 5 -0.005051 -0.000039 0.003366 0.000000 0.032016 0.000000
# 6 0.000000 0.000000 0.000000 0.018784 0.000000 0.073547
#
#
# Mechanical properties :
#
#
# Convention : Reuss Voigt Hill
#
# Bulk Modulus (GPa) = 62.91039 67.46450 65.18744
# Shear Modulus (GPa) = 21.13368 25.13261 23.13314
#
# Velocity S-wave (km/s) = 3.22918 3.52146 3.37848
# Velocity P-wave (km/s) = 6.70404 7.05847 6.88354
#
# Compressibility (1/GPa) = 0.01589563
#
# Stress axis : x y z
#
# Youngs Moduli (GPa) = 70.74833 70.23882 66.80440
#
# Poissons Ratio (x) = 0.20622 0.52574
# Poissons Ratio (y) = 0.20771 0.19485
# Poissons Ratio (z) = 0.55678 0.20487
#
# Static dielectric constant tensor:
#      x y z
#    x 1.730470 0.000000 0.004210 
#    y 0.000000 1.886860 0.000000 
#    z 0.004210 0.000000 1.726300 
# 
# From -- ./inp_files/97172.got.cif
#   From: 2010.05.17/outbox.cif.g08.bks.cpg/sg13_49_cif.got.tgz:97172.got - 2010.06.03 16:44:36.
