data_PCOD9228084
_publ_section_title
;
Structure prediction by ZEFSAII (Michael W. Deem and Ramdas Pophale) SiO2 
 PCOD9228084
Probable space group: P 2/C
;
_chemical_formula_sum "Si O2"
_cell_formula_units_Z 26
_cell_length_a 5.585276
_cell_length_b 12.094339
_cell_length_c 22.180153
_cell_angle_alpha 90.000000
_cell_angle_beta 66.183465
_cell_angle_gamma 90.000000
_cell_volume 1370.685960
_symmetry_space_group_name_H-M "P 2/C"
_symmetry_group_IT_number 13
_symmetry_cell_setting 'monoclinic'
loop_
_space_group_symop_operation_xyz
x,y,z
-x,y,1/2-z
-x,-y,-z
x,-y,1/2+z
loop_
_atom_site_type_symbol
_atom_site_label
_atom_site_fract_x
_atom_site_fract_y
_atom_site_fract_z
Si Si1 0.916768 0.325618 0.519772
Si Si2 0.500000 0.732781 0.250000
Si Si3 0.286486 0.122361 0.461237
Si Si4 0.991098 0.142615 0.679134
Si Si5 0.219028 0.486871 0.060007
Si Si6 0.852314 0.053053 0.422576
Si Si7 0.635937 0.653440 0.362092
O O1 0.885472 0.369131 0.453671
O O2 0.629132 0.308651 0.576650
O O3 0.122842 0.226278 0.503481
O O4 0.028282 0.425115 0.548380
O O5 0.300897 0.815726 0.303437
O O6 0.609752 0.657441 0.292476
O O7 0.603234 0.129488 0.429629
O O8 0.131848 0.104047 0.413982
O O9 0.234075 0.016345 0.509257
O O10 0.000000 0.125334 0.750000
O O11 0.160758 0.249446 0.645220
O O12 0.092439 0.036560 0.634374
O O13 0.268520 0.535116 0.121706
O O14 0.500000 0.500000 0.000000
#
# Coordination Sequence:
#
# PCOD9228084 Si02
#       7
#     4   2   4   4   4   4   4
#     4  10  20  34  52  80 112 150 185 233 284 350
#     4  10  20  32  52  78 110 150 184 230 292 342
#     4  10  22  33  55  78 119 147 187 228 284 332
#     4  10  22  35  55  78 114 148 186 232 282 345
#     4   9  19  32  53  76 111 144 180 226 284 336
#     4  10  22  35  51  83 111 154 184 232 278 338
#     4  10  19  32  52  79 113 147 182 233 283 351
#
# _framework density 18.968603000000002
#
# number of rings (size 3 to 8) (size 9 to 14) (size 15 to 20)
#    0.000    2.154    0.000    2.769   15.077    0.000 
#    0.000    0.000    0.000    0.000    0.000    9.692 
#    4.615    0.000    0.000    0.000    0.000    0.000 
#
# Total GULP energy -144739.478810 kJ/mol
# GULP energy per Si atom -5566.903031 kJ/mol
# Density = 1.892543 g / cm^3
# Si number density = 18.968603 Si / 1000 Ang^3
#
#
#
# Elastic Constant Matrix: (Units=GPa)
#
#
# Indices 1 2 3 4 5 6 
#
# 1 116.4235 35.0611 23.6655 0.0000 -13.7580 0.0000
# 2 35.0611 26.3576 4.4548 0.0000 -2.0139 0.0000
# 3 23.6655 4.4548 39.3735 0.0000 5.0208 0.0000
# 4 0.0000 0.0000 0.0000 18.5872 0.0000 6.7453
# 5 -13.7580 -2.0139 5.0208 0.0000 32.9892 0.0000
# 6 0.0000 0.0000 0.0000 6.7453 0.0000 16.3946
#
#
#
# Elastic Compliance Matrix: (Units=1/GPa)
#
#
# Indices 1 2 3 4 5 6 
#
# 1 0.017882 -0.021645 -0.009261 0.000000 0.007546 0.000000
# 2 -0.021645 0.065190 0.006402 0.000000 -0.006022 0.000000
# 3 -0.009261 0.006402 0.031290 0.000000 -0.008234 0.000000
# 4 0.000000 0.000000 0.000000 0.063243 0.000000 -0.026020
# 5 0.007546 -0.006022 -0.008234 0.000000 0.034345 0.000000
# 6 0.000000 0.000000 0.000000 -0.026020 0.000000 0.071701
#
#
# Mechanical properties :
#
#
# Convention : Reuss Voigt Hill
#
# Bulk Modulus (GPa) = 15.30149 34.27973 24.79061
# Shear Modulus (GPa) = 14.10658 21.52574 17.81616
#
# Velocity S-wave (km/s) = 2.73001 3.37235 3.06803
# Velocity P-wave (km/s) = 4.24518 5.76842 5.06440
#
# Compressibility (1/GPa) = 0.06535313
#
# Stress axis : x y z
#
# Youngs Moduli (GPa) = 55.92226 15.33982 31.95915
#
# Poissons Ratio (x) = 0.33203 0.29598
# Poissons Ratio (y) = 1.21043 -0.20460
# Poissons Ratio (z) = 0.51791 -0.09820
#
# Static dielectric constant tensor:
#      x y z
#    x 1.703090 0.000000 0.066290 
#    y 0.000000 1.676010 0.000000 
#    z 0.066290 0.000000 1.641180 
# 
# From -- ./inp_files/73368.got.cif
#   From: 2010.05.17/outbox.cif.g08.bks.cpg/sg13_37_cif.got.tgz:73368.got - 2010.06.03 16:44:36.
