data_PCOD9228607
_publ_section_title
;
Structure prediction by ZEFSAII (Michael W. Deem and Ramdas Pophale) SiO2 
 PCOD9228607
Probable space group: P 2/C
;
_chemical_formula_sum "Si O2"
_cell_formula_units_Z 30
_cell_length_a 19.201902
_cell_length_b 8.692326
_cell_length_c 9.596533
_cell_angle_alpha 90.000000
_cell_angle_beta 100.831474
_cell_angle_gamma 90.000000
_cell_volume 1573.213070
_symmetry_space_group_name_H-M "P 2/C"
_symmetry_group_IT_number 13
_symmetry_cell_setting 'monoclinic'
loop_
_space_group_symop_operation_xyz
x,y,z
-x,y,1/2-z
-x,-y,-z
x,-y,1/2+z
loop_
_atom_site_type_symbol
_atom_site_label
_atom_site_fract_x
_atom_site_fract_y
_atom_site_fract_z
Si Si1 0.907211 0.388532 0.964255
Si Si2 0.212869 0.608293 0.487143
Si Si3 0.303949 0.325225 0.524731
Si Si4 0.795824 0.794229 0.288187
Si Si5 0.000000 0.517973 0.750000
Si Si6 0.447311 0.496397 0.107597
Si Si7 0.690756 0.973517 0.660970
Si Si8 0.651301 0.798182 0.904843
O O1 0.860591 0.237238 0.916165
O O2 0.957296 0.419496 0.849942
O O3 0.851517 0.532157 0.952604
O O4 0.947883 0.387299 0.127252
O O5 0.256534 0.462191 0.443925
O O6 0.186190 0.711750 0.349997
O O7 0.273371 0.707997 0.587233
O O8 0.270667 0.291975 0.663682
O O9 0.383543 0.384052 0.565283
O O10 0.298425 0.171909 0.433928
O O11 0.765542 0.962126 0.246938
O O12 0.500000 0.536542 0.250000
O O13 0.409244 0.330878 0.114727
O O14 0.500000 0.500000 0.000000
O O15 0.644959 0.917299 0.775194
O O16 0.658002 0.108185 0.552016
#
# Coordination Sequence:
#
# PCOD9228607 Si02
#       8
#     4   4   4   4   2   4   4   4
#     4  10  19  35  55  93 124 168 196 254 289 354
#     4   9  20  34  61  88 121 147 208 262 300 347
#     4  10  22  36  63  86 117 152 203 258 307 353
#     4  10  20  36  58  91 120 153 202 254 310 350
#     4  10  20  32  56  90 140 158 206 246 296 340
#     4  11  25  42  63  87 117 163 206 247 305 375
#     4  11  21  39  60  90 121 156 187 263 311 363
#     4  10  23  39  62  89 123 154 202 255 313 357
#
# _framework density 19.069253
#
# number of rings (size 3 to 8) (size 9 to 14) (size 15 to 20)
#    0.000    1.867    2.667    0.800   11.200    0.000 
#    0.000    3.333    0.000    0.000    0.000   31.733 
#    0.000    0.000    0.000    0.000    0.000    0.000 
#
# Total GULP energy -167267.759359 kJ/mol
# GULP energy per Si atom -5575.591979 kJ/mol
# Density = 1.902585 g / cm^3
# Si number density = 19.069253 Si / 1000 Ang^3
#
#
#
# Elastic Constant Matrix: (Units=GPa)
#
#
# Indices 1 2 3 4 5 6 
#
# 1 95.1858 27.9423 33.1054 0.0000 -1.6982 0.0000
# 2 27.9423 84.7927 16.7840 0.0000 7.9919 0.0000
# 3 33.1054 16.7840 66.4427 0.0000 -15.8821 0.0000
# 4 0.0000 0.0000 0.0000 6.8001 0.0000 -5.9910
# 5 -1.6982 7.9919 -15.8821 0.0000 23.6381 0.0000
# 6 0.0000 0.0000 0.0000 -5.9910 0.0000 15.5552
#
#
#
# Elastic Compliance Matrix: (Units=1/GPa)
#
#
# Indices 1 2 3 4 5 6 
#
# 1 0.013637 -0.002944 -0.006647 0.000000 -0.002491 0.000000
# 2 -0.002944 0.014280 -0.003985 0.000000 -0.007717 0.000000
# 3 -0.006647 -0.003985 0.023323 0.000000 0.016540 0.000000
# 4 0.000000 0.000000 0.000000 0.222583 0.000000 0.085726
# 5 -0.002491 -0.007717 0.016540 0.000000 0.055848 0.000000
# 6 0.000000 0.000000 0.000000 0.085726 0.000000 0.097304
#
#
# Mechanical properties :
#
#
# Convention : Reuss Voigt Hill
#
# Bulk Modulus (GPa) = 41.51308 44.67607 43.09457
# Shear Modulus (GPa) = 10.81891 20.43799 15.62845
#
# Velocity S-wave (km/s) = 2.38449 3.27735 2.86591
# Velocity P-wave (km/s) = 5.42199 6.14822 5.79649
#
# Compressibility (1/GPa) = 0.02408879
#
# Stress axis : x y z
#
# Youngs Moduli (GPa) = 73.32949 70.02983 42.87693
#
# Poissons Ratio (x) = 0.20613 0.28498
# Poissons Ratio (y) = 0.21585 0.17087
# Poissons Ratio (z) = 0.48739 0.27908
#
# Static dielectric constant tensor:
#      x y z
#    x 1.665500 0.000000 0.014340 
#    y 0.000000 1.668970 0.000000 
#    z 0.014340 0.000000 1.689580 
# 
# From -- ./inp_files/22790.got.cif
#   From: 2010.05.17/outbox.cif.g08.bks.cpg/sg13_12_cif.got.tgz:22790.got - 2010.06.03 16:44:36.
