data_PCOD9228178
_publ_section_title
;
Structure prediction by ZEFSAII (Michael W. Deem and Ramdas Pophale) SiO2 
 PCOD9228178
Probable space group: P 2/C
;
_chemical_formula_sum "Si O2"
_cell_formula_units_Z 30
_cell_length_a 6.410505
_cell_length_b 11.408069
_cell_length_c 27.839090
_cell_angle_alpha 90.000000
_cell_angle_beta 56.090494
_cell_angle_gamma 90.000000
_cell_volume 1689.645169
_symmetry_space_group_name_H-M "P 2/C"
_symmetry_group_IT_number 13
_symmetry_cell_setting 'monoclinic'
loop_
_space_group_symop_operation_xyz
x,y,z
-x,y,1/2-z
-x,-y,-z
x,-y,1/2+z
loop_
_atom_site_type_symbol
_atom_site_label
_atom_site_fract_x
_atom_site_fract_y
_atom_site_fract_z
Si Si1 0.013105 0.810900 0.192572
Si Si2 0.541560 0.998613 0.851943
Si Si3 0.430918 0.704690 0.494517
Si Si4 0.845639 0.163156 0.551131
Si Si5 0.072548 0.568530 0.941282
Si Si6 0.500000 0.050959 0.750000
Si Si7 0.353653 0.202985 0.437527
Si Si8 0.959114 0.357935 0.899270
O O1 0.045219 0.701608 0.152414
O O2 0.000000 0.773180 0.250000
O O3 0.748108 0.869786 0.213036
O O4 0.229966 0.912482 0.163324
O O5 0.524606 0.875054 0.881034
O O6 0.285956 0.062534 0.901761
O O7 0.539579 0.983210 0.794810
O O8 0.364266 0.782655 0.456946
O O9 0.508078 0.781567 0.529791
O O10 0.667755 0.623394 0.451243
O O11 0.179849 0.636953 0.539413
O O12 0.087927 0.141584 0.486317
O O13 0.937552 0.259797 0.577378
O O14 0.278568 0.668348 0.926455
O O15 0.114789 0.473734 0.893760
O O16 0.000000 0.500000 0.000000
#
# Coordination Sequence:
#
# PCOD9228178 Si02
#       8
#     4   4   4   4   4   2   4   4
#     4  10  22  37  58  86 107 149 195 241 304 333
#     4  11  21  38  58  84 114 148 193 235 292 341
#     4  10  19  33  51  84 116 153 185 222 273 352
#     4  10  19  33  55  87 116 151 176 226 292 341
#     4  11  20  34  55  83 116 156 190 215 282 345
#     4  10  22  40  62  78 112 144 194 250 282 344
#     4  10  23  34  52  87 119 156 187 222 278 353
#     4  11  19  34  57  81 117 148 184 237 283 336
#
# _framework density 17.755206999999999
#
# number of rings (size 3 to 8) (size 9 to 14) (size 15 to 20)
#    0.000    1.600    6.667    0.800    0.000    2.667 
#    0.000    0.000    0.000    2.400    0.000    0.000 
#    0.000    0.000    0.000    0.000    0.000    0.000 
#
# Total GULP energy -167123.462659 kJ/mol
# GULP energy per Si atom -5570.782089 kJ/mol
# Density = 1.771480 g / cm^3
# Si number density = 17.755207 Si / 1000 Ang^3
#
#
#
# Elastic Constant Matrix: (Units=GPa)
#
#
# Indices 1 2 3 4 5 6 
#
# 1 83.2916 18.2736 24.8672 0.0000 13.4886 0.0000
# 2 18.2736 65.3818 44.1461 0.0000 13.5656 0.0000
# 3 24.8672 44.1461 78.8943 0.0000 17.8028 0.0000
# 4 0.0000 0.0000 0.0000 22.1527 0.0000 1.1088
# 5 13.4886 13.5656 17.8028 0.0000 25.4686 0.0000
# 6 0.0000 0.0000 0.0000 1.1088 0.0000 8.4431
#
#
#
# Elastic Compliance Matrix: (Units=1/GPa)
#
#
# Indices 1 2 3 4 5 6 
#
# 1 0.013825 -0.001047 -0.002666 0.000000 -0.004901 0.000000
# 2 -0.001047 0.025033 -0.012815 0.000000 -0.003821 0.000000
# 3 -0.002666 -0.012815 0.022353 0.000000 -0.007387 0.000000
# 4 0.000000 0.000000 0.000000 0.045440 0.000000 -0.005968
# 5 -0.004901 -0.003821 -0.007387 0.000000 0.049059 0.000000
# 6 0.000000 0.000000 0.000000 -0.005968 0.000000 0.119224
#
#
# Mechanical properties :
#
#
# Convention : Reuss Voigt Hill
#
# Bulk Modulus (GPa) = 35.51726 44.68237 40.09981
# Shear Modulus (GPa) = 15.75415 20.56492 18.15954
#
# Velocity S-wave (km/s) = 2.98199 3.40700 3.20155
# Velocity P-wave (km/s) = 5.64833 6.37944 6.02498
#
# Compressibility (1/GPa) = 0.02815533
#
# Stress axis : x y z
#
# Youngs Moduli (GPa) = 72.33103 39.94696 44.73605
#
# Poissons Ratio (x) = 0.04183 0.11926
# Poissons Ratio (y) = 0.07575 0.57330
# Poissons Ratio (z) = 0.19282 0.51193
#
# Static dielectric constant tensor:
#      x y z
#    x 1.630020 0.000000 0.002470 
#    y 0.000000 1.639380 0.000000 
#    z 0.002470 0.000000 1.622760 
# 
# From -- ./inp_files/90476.got.cif
#   From: 2010.05.17/outbox.cif.g08.bks.cpg/sg13_46_cif.got.tgz:90476.got - 2010.06.03 16:44:36.
