data_PCOD9228680
_publ_section_title
;
Structure prediction by ZEFSAII (Michael W. Deem and Ramdas Pophale) SiO2 
 PCOD9228680
Probable space group: P 2/C
;
_chemical_formula_sum "Si O2"
_cell_formula_units_Z 28
_cell_length_a 24.843759
_cell_length_b 9.644397
_cell_length_c 8.319495
_cell_angle_alpha 90.000000
_cell_angle_beta 43.549494
_cell_angle_gamma 90.000000
_cell_volume 1373.398434
_symmetry_space_group_name_H-M "P 2/C"
_symmetry_group_IT_number 13
_symmetry_cell_setting 'monoclinic'
loop_
_space_group_symop_operation_xyz
x,y,z
-x,y,1/2-z
-x,-y,-z
x,-y,1/2+z
loop_
_atom_site_type_symbol
_atom_site_label
_atom_site_fract_x
_atom_site_fract_y
_atom_site_fract_z
Si Si1 0.670915 0.612963 0.901207
Si Si2 0.500000 0.944295 0.750000
Si Si3 0.415999 0.168252 0.729718
Si Si4 0.890717 0.377886 0.716915
Si Si5 0.758531 0.401095 0.537012
Si Si6 0.731759 0.885368 0.182772
Si Si7 0.000000 0.446618 0.750000
Si Si8 0.245916 0.827782 0.008684
O O1 0.681280 0.461485 0.797590
O O2 0.697889 0.722030 0.707698
O O3 0.596947 0.685063 0.150417
O O4 0.734928 0.605450 0.903177
O O5 0.434230 0.052267 0.826119
O O6 0.520126 0.852026 0.549950
O O7 0.338743 0.137452 0.791306
O O8 0.940257 0.452464 0.471853
O O9 0.951132 0.355189 0.730595
O O10 0.827375 0.491422 0.911102
O O11 0.836908 0.248278 0.787058
O O12 0.783773 0.249584 0.535819
O O13 0.715043 0.869170 0.407250
O O14 0.765174 0.035289 0.073252
#
# Coordination Sequence:
#
# PCOD9228680 Si02
#       8
#     4   2   4   4   4   4   2   4
#     4  10  20  35  57  86 114 143 186 239 285 333
#     4  10  20  38  58  82 124 162 192 228 266 352
#     4  10  21  35  58  88 116 155 195 228 284 338
#     4  10  20  36  57  84 110 149 194 226 281 339
#     4  10  19  35  59  85 114 144 184 241 293 335
#     4  11  21  35  59  87 116 144 183 246 300 336
#     4  10  20  34  58  80 114 156 190 226 264 354
#     4  11  21  34  56  86 115 141 185 244 290 334
#
# _framework density 20.387384000000001
#
# number of rings (size 3 to 8) (size 9 to 14) (size 15 to 20)
#    0.000    1.714    0.000    7.714    0.000    1.143 
#    0.000    0.000    0.000   24.857    0.000    0.000 
#    0.000    0.000    0.000    0.000    0.000    0.000 
#
# Total GULP energy -156025.644240 kJ/mol
# GULP energy per Si atom -5572.344437 kJ/mol
# Density = 2.034098 g / cm^3
# Si number density = 20.387384 Si / 1000 Ang^3
#
#
#
# Elastic Constant Matrix: (Units=GPa)
#
#
# Indices 1 2 3 4 5 6 
#
# 1 107.3140 3.0638 3.5400 0.0000 16.1464 0.0000
# 2 3.0638 3.1290 -44.9326 0.0000 -19.0443 0.0000
# 3 3.5400 -44.9326 17.1673 0.0000 -2.5281 0.0000
# 4 0.0000 0.0000 0.0000 30.8895 0.0000 0.6942
# 5 16.1464 -19.0443 -2.5281 0.0000 30.8677 0.0000
# 6 0.0000 0.0000 0.0000 0.6942 0.0000 14.5306
#
#
#
# Elastic Compliance Matrix: (Units=1/GPa)
#
#
# Indices 1 2 3 4 5 6 
#
# 1 0.009749 0.001888 0.002381 0.000000 -0.003739 0.000000
# 2 0.001888 -0.006984 -0.019685 0.000000 -0.006909 0.000000
# 3 0.002381 -0.019685 0.004317 0.000000 -0.013037 0.000000
# 4 0.000000 0.000000 0.000000 0.032408 0.000000 -0.001548
# 5 -0.003739 -0.006909 -0.013037 0.000000 0.029022 0.000000
# 6 0.000000 0.000000 0.000000 -0.001548 0.000000 0.068894
#
#
# Mechanical properties :
#
#
# Convention : Reuss Voigt Hill
#
# Bulk Modulus (GPa) = -42.10679 5.66142 -18.22268
# Shear Modulus (GPa) = 31.18723 26.32016 28.75369
#
# Velocity S-wave (km/s) = 3.91542 3.59695 3.75956
# Velocity P-wave (km/s) = 0.50744 4.47590 3.14453
#
# Compressibility (1/GPa) = -0.02374914
#
# Stress axis : x y z
#
# Youngs Moduli (GPa) = 102.57862 -143.19399 231.63370
#
# Poissons Ratio (x) = 0.27038 -0.55155
# Poissons Ratio (y) = -0.19369 4.55971
# Poissons Ratio (z) = -0.24425 -2.81878
#
# Static dielectric constant tensor:
#      x y z
#    x 1.724580 0.000000 0.000940 
#    y 0.000000 1.756740 0.000000 
#    z 0.000940 0.000000 1.800260 
# 
# From -- ./inp_files/24570.got.cif
#   From: 2010.05.17/outbox.cif.g08.bks.cpg/sg13_13_cif.got.tgz:24570.got - 2010.06.03 16:44:36.
