data_PCOD9228582
_publ_section_title
;
Structure prediction by ZEFSAII (Michael W. Deem and Ramdas Pophale) SiO2 
 PCOD9228582
Probable space group: P 2/C
;
_chemical_formula_sum "Si O2"
_cell_formula_units_Z 16
_cell_length_a 7.051314
_cell_length_b 15.084814
_cell_length_c 7.716389
_cell_angle_alpha 90.000000
_cell_angle_beta 54.372785
_cell_angle_gamma 90.000000
_cell_volume 667.145766
_symmetry_space_group_name_H-M "P 2/C"
_symmetry_group_IT_number 13
_symmetry_cell_setting 'monoclinic'
loop_
_space_group_symop_operation_xyz
x,y,z
-x,y,1/2-z
-x,-y,-z
x,-y,1/2+z
loop_
_atom_site_type_symbol
_atom_site_label
_atom_site_fract_x
_atom_site_fract_y
_atom_site_fract_z
Si Si1 0.748958 0.299304 0.711209
Si Si2 0.742761 0.505657 0.227207
Si Si3 0.252335 0.107778 0.788448
Si Si4 0.000000 0.957155 0.750000
Si Si5 0.000000 0.357865 0.250000
O O1 0.500000 0.296585 0.750000
O O2 0.751792 0.394906 0.802735
O O3 0.767787 0.204144 0.790713
O O4 0.939803 0.305075 0.455314
O O5 0.500000 0.496390 0.250000
O O6 0.776181 0.421368 0.334042
O O7 0.000000 0.500000 0.000000
O O8 0.500000 0.102232 0.750000
O O9 0.206742 0.025658 0.687209
O O10 0.066606 0.097655 0.044728
#
# Coordination Sequence:
#
# PCOD9228582 Si02
#       5
#     4   4   4   2   2
#     4   9  19  33  52  77 103 137 178 218 266 320
#     4   9  19  33  51  77 104 140 183 218 263 321
#     4  10  20  37  56  80 109 139 178 225 273 327
#     4  10  21  35  58  80 104 140 178 219 279 334
#     4  10  19  35  54  72 110 146 174 223 271 312
#
# _framework density 23.982766000000002
#
# number of rings (size 3 to 8) (size 9 to 14) (size 15 to 20)
#    0.000    2.500    0.000    1.500    0.000   10.000 
#    0.000    7.500    0.000   15.000    0.000    1.750 
#    0.000    0.000    0.000    0.000    0.000    0.000 
#
# Total GULP energy -89192.385103 kJ/mol
# GULP energy per Si atom -5574.524069 kJ/mol
# Density = 2.392818 g / cm^3
# Si number density = 23.982766 Si / 1000 Ang^3
#
#
#
# Elastic Constant Matrix: (Units=GPa)
#
#
# Indices 1 2 3 4 5 6 
#
# 1 157.4174 27.8924 -10.0106 0.0000 -15.8648 0.0000
# 2 27.8924 150.4292 -5.6516 0.0000 -8.3537 0.0000
# 3 -10.0106 -5.6516 65.4377 0.0000 -22.1413 0.0000
# 4 0.0000 0.0000 0.0000 4.1997 0.0000 5.0447
# 5 -15.8648 -8.3537 -22.1413 0.0000 27.0932 0.0000
# 6 0.0000 0.0000 0.0000 5.0447 0.0000 -80.1401
#
#
#
# Elastic Compliance Matrix: (Units=1/GPa)
#
#
# Indices 1 2 3 4 5 6 
#
# 1 0.007408 -0.000868 0.003366 0.000000 0.006821 0.000000
# 2 -0.000868 0.007019 0.001429 0.000000 0.002823 0.000000
# 3 0.003366 0.001429 0.023132 0.000000 0.021316 0.000000
# 4 0.000000 0.000000 0.000000 0.221375 0.000000 0.013935
# 5 0.006821 0.002823 0.021316 0.000000 0.059194 0.000000
# 6 0.000000 0.000000 0.000000 0.013935 0.000000 -0.011601
#
#
# Mechanical properties :
#
#
# Convention : Reuss Voigt Hill
#
# Bulk Modulus (GPa) = 22.02032 44.19386 33.10709
# Shear Modulus (GPa) = 15.93308 14.30082 15.11695
#
# Velocity S-wave (km/s) = 2.58031 2.44457 2.51335
# Velocity P-wave (km/s) = 4.25194 5.14152 4.71774
#
# Compressibility (1/GPa) = 0.04541259
#
# Stress axis : x y z
#
# Youngs Moduli (GPa) = 134.99127 142.46827 43.22923
#
# Poissons Ratio (x) = 0.12371 -0.14552
# Poissons Ratio (y) = 0.11721 -0.06176
# Poissons Ratio (z) = -0.45441 -0.20354
#
# Static dielectric constant tensor:
#      x y z
#    x 1.809720 0.000000 0.236240 
#    y 0.000000 1.946520 0.000000 
#    z 0.236240 0.000000 1.917170 
# 
# From -- ./inp_files/8943.got.cif
#   From: 2010.05.17/outbox.cif.g08.bks.cpg/sg13_5_cif.got.tgz:8943.got - 2010.06.03 16:44:36.
