data_PCOD9228124
_publ_section_title
;
Structure prediction by ZEFSAII (Michael W. Deem and Ramdas Pophale) SiO2 
 PCOD9228124
Probable space group: P 2/C
;
_chemical_formula_sum "Si O2"
_cell_formula_units_Z 30
_cell_length_a 10.348366
_cell_length_b 8.361686
_cell_length_c 16.139478
_cell_angle_alpha 90.000000
_cell_angle_beta 111.486227
_cell_angle_gamma 90.000000
_cell_volume 1299.493556
_symmetry_space_group_name_H-M "P 2/C"
_symmetry_group_IT_number 13
_symmetry_cell_setting 'monoclinic'
loop_
_space_group_symop_operation_xyz
x,y,z
-x,y,1/2-z
-x,-y,-z
x,-y,1/2+z
loop_
_atom_site_type_symbol
_atom_site_label
_atom_site_fract_x
_atom_site_fract_y
_atom_site_fract_z
Si Si1 0.202663 0.837282 0.157696
Si Si2 0.610213 0.368268 0.994577
Si Si3 0.785596 0.351406 0.578243
Si Si4 0.577486 0.197594 0.657116
Si Si5 0.983721 0.688917 0.988951
Si Si6 0.267808 0.791622 0.660018
Si Si7 0.450092 0.817296 0.859655
Si Si8 0.000000 0.275255 0.750000
O O1 0.334623 0.763518 0.239841
O O2 0.086385 0.827969 0.203927
O O3 0.125922 0.767169 0.057618
O O4 0.245033 0.018168 0.149835
O O5 0.743239 0.479708 0.029533
O O6 0.604597 0.233009 0.063454
O O7 0.500000 0.500000 0.000000
O O8 0.561110 0.296198 0.896531
O O9 0.670932 0.246916 0.599045
O O10 0.867957 0.252954 0.528944
O O11 0.895361 0.385181 0.675676
O O12 0.548100 0.009112 0.649077
O O13 0.887742 0.721100 0.885933
O O14 0.000000 0.500000 0.000000
O O15 0.342471 0.754175 0.765153
O O16 0.394395 0.752299 0.624705
#
# Coordination Sequence:
#
# PCOD9228124 Si02
#       8
#     4   4   4   4   4   4   4   2
#     4   9  19  37  59  80 106 144 184 225 269 314
#     4  10  19  32  54  82 109 139 175 220 270 319
#     4   9  19  35  55  79 109 144 183 224 268 315
#     4   9  18  35  59  83 105 136 180 228 274 316
#     4  11  23  38  54  78 112 150 183 217 264 322
#     4  10  21  38  56  80 113 143 176 220 271 326
#     4  10  21  36  58  84 109 139 176 223 275 325
#     4   8  16  34  58  78 106 144 186 230 264 306
#
# _framework density 23.085915
#
# number of rings (size 3 to 8) (size 9 to 14) (size 15 to 20)
#    0.000    2.400    0.000    2.400    0.000    5.333 
#    0.000    5.333    0.000    7.200    0.000    0.000 
#    0.000    0.000    0.000    0.000    0.000    0.000 
#
# Total GULP energy -167152.596588 kJ/mol
# GULP energy per Si atom -5571.753220 kJ/mol
# Density = 2.303337 g / cm^3
# Si number density = 23.085915 Si / 1000 Ang^3
#
#
#
# Elastic Constant Matrix: (Units=GPa)
#
#
# Indices 1 2 3 4 5 6 
#
# 1 76.2118 14.0329 37.2977 0.0000 11.9686 0.0000
# 2 14.0329 51.6733 33.1219 0.0000 15.2652 0.0000
# 3 37.2977 33.1219 108.0263 0.0000 35.4296 0.0000
# 4 0.0000 0.0000 0.0000 36.9844 0.0000 9.7500
# 5 11.9686 15.2652 35.4296 0.0000 50.6623 0.0000
# 6 0.0000 0.0000 0.0000 9.7500 0.0000 19.3681
#
#
#
# Elastic Compliance Matrix: (Units=1/GPa)
#
#
# Indices 1 2 3 4 5 6 
#
# 1 0.015832 -0.001014 -0.005228 0.000000 0.000221 0.000000
# 2 -0.001014 0.024442 -0.006238 0.000000 -0.002763 0.000000
# 3 -0.005228 -0.006238 0.015511 0.000000 -0.007732 0.000000
# 4 0.000000 0.000000 0.000000 0.031176 0.000000 -0.015694
# 5 0.000221 -0.002763 -0.007732 0.000000 0.025926 0.000000
# 6 0.000000 0.000000 0.000000 -0.015694 0.000000 0.059532
#
#
# Mechanical properties :
#
#
# Convention : Reuss Voigt Hill
#
# Bulk Modulus (GPa) = 32.44100 44.97961 38.71030
# Shear Modulus (GPa) = 24.07857 31.50020 27.78939
#
# Velocity S-wave (km/s) = 3.23305 3.69789 3.47326
# Velocity P-wave (km/s) = 5.29336 6.14479 5.73489
#
# Compressibility (1/GPa) = 0.03082519
#
# Stress axis : x y z
#
# Youngs Moduli (GPa) = 63.16419 40.91247 64.47157
#
# Poissons Ratio (x) = 0.04148 0.33705
# Poissons Ratio (y) = 0.06404 0.40218
# Poissons Ratio (z) = 0.33022 0.25522
#
# Static dielectric constant tensor:
#      x y z
#    x 2.020150 0.000000 0.058990 
#    y 0.000000 1.794410 0.000000 
#    z 0.058990 0.000000 1.985250 
# 
# From -- ./inp_files/66326.got.cif
#   From: 2010.05.17/outbox.cif.g08.bks.cpg/sg13_34_cif.got.tgz:66326.got - 2010.06.03 16:44:36.
