data_PCOD9228348
_publ_section_title
;
Structure prediction by ZEFSAII (Michael W. Deem and Ramdas Pophale) SiO2 
 PCOD9228348
Probable space group: P 2/C
;
_chemical_formula_sum "Si O2"
_cell_formula_units_Z 28
_cell_length_a 9.356508
_cell_length_b 9.370647
_cell_length_c 24.705539
_cell_angle_alpha 90.000000
_cell_angle_beta 39.982522
_cell_angle_gamma 90.000000
_cell_volume 1391.833444
_symmetry_space_group_name_H-M "P 2/C"
_symmetry_group_IT_number 13
_symmetry_cell_setting 'monoclinic'
loop_
_space_group_symop_operation_xyz
x,y,z
-x,y,1/2-z
-x,-y,-z
x,-y,1/2+z
loop_
_atom_site_type_symbol
_atom_site_label
_atom_site_fract_x
_atom_site_fract_y
_atom_site_fract_z
Si Si1 0.759701 0.944598 0.663164
Si Si2 0.174867 0.879294 0.073345
Si Si3 0.912316 0.293716 0.426432
Si Si4 0.300927 0.937447 0.435603
Si Si5 0.226016 0.707338 0.659179
Si Si6 0.656096 0.427780 0.000541
Si Si7 0.245008 0.965097 0.169495
O O1 0.500000 0.955626 0.750000
O O2 0.845626 0.781751 0.646268
O O3 0.793423 0.999946 0.592062
O O4 0.929149 0.048355 0.646671
O O5 0.295536 0.931517 0.092355
O O6 0.211063 0.710632 0.058896
O O7 0.281359 0.943084 0.987978
O O8 0.803946 0.198755 0.505171
O O9 0.814974 0.271253 0.393695
O O10 0.841798 0.454657 0.461466
O O11 0.559549 0.902410 0.351720
O O12 0.460724 0.625561 0.598204
O O13 0.000000 0.639977 0.750000
O O14 0.241790 0.865036 0.679953
O O15 0.500000 0.500000 0.000000
O O16 0.000000 0.905997 0.250000
#
# Coordination Sequence:
#
# PCOD9228348 Si02
#       7
#     4   4   4   4   4   4   4
#     4  11  24  41  61  88 120 156 208 260 302 350
#     4  11  20  38  61  87 117 155 202 249 297 358
#     4  10  21  40  59  85 122 161 200 239 303 370
#     4  11  21  37  60  86 114 157 199 254 295 354
#     4  10  19  33  59  93 122 152 198 250 302 347
#     4  10  21  37  60  90 124 160 198 244 301 368
#     4  11  19  31  59  92 116 148 199 256 303 338
#
# _framework density 20.117349000000001
#
# number of rings (size 3 to 8) (size 9 to 14) (size 15 to 20)
#    0.000    1.429    4.286    4.714    2.000    0.000 
#    0.000   12.857    0.000    0.000    0.000    0.000 
#    0.000    0.000    0.000    0.000    0.000    0.000 
#
# Total GULP energy -155943.558999 kJ/mol
# GULP energy per Si atom -5569.412821 kJ/mol
# Density = 2.007156 g / cm^3
# Si number density = 20.117349 Si / 1000 Ang^3
#
#
#
# Elastic Constant Matrix: (Units=GPa)
#
#
# Indices 1 2 3 4 5 6 
#
# 1 73.8380 18.2998 11.2680 0.0000 -7.2793 0.0000
# 2 18.2998 121.6884 32.3530 0.0000 -16.3812 0.0000
# 3 11.2680 32.3530 101.9808 0.0000 -27.7916 0.0000
# 4 0.0000 0.0000 0.0000 18.7496 0.0000 -3.9692
# 5 -7.2793 -16.3812 -27.7916 0.0000 39.8658 0.0000
# 6 0.0000 0.0000 0.0000 -3.9692 0.0000 16.0190
#
#
#
# Elastic Compliance Matrix: (Units=1/GPa)
#
#
# Indices 1 2 3 4 5 6 
#
# 1 0.014220 -0.001782 -0.000615 0.000000 0.001436 0.000000
# 2 -0.001782 0.009343 -0.002234 0.000000 0.001956 0.000000
# 3 -0.000615 -0.002234 0.012718 0.000000 0.007836 0.000000
# 4 0.000000 0.000000 0.000000 0.056287 0.000000 0.013947
# 5 0.001436 0.001956 0.007836 0.000000 0.031613 0.000000
# 6 0.000000 0.000000 0.000000 0.013947 0.000000 0.065882
#
#
# Mechanical properties :
#
#
# Convention : Reuss Voigt Hill
#
# Bulk Modulus (GPa) = 37.00951 46.81653 41.91302
# Shear Modulus (GPa) = 24.00043 30.63264 27.31653
#
# Velocity S-wave (km/s) = 3.45776 3.90641 3.68891
# Velocity P-wave (km/s) = 5.86330 6.60825 6.24689
#
# Compressibility (1/GPa) = 0.02702008
#
# Stress axis : x y z
#
# Youngs Moduli (GPa) = 70.32300 107.03239 78.62995
#
# Poissons Ratio (x) = 0.19070 0.04833
# Poissons Ratio (y) = 0.12530 0.17566
# Poissons Ratio (z) = 0.04322 0.23911
#
# Static dielectric constant tensor:
#      x y z
#    x 1.736890 0.000000 -0.021030 
#    y 0.000000 1.725450 0.000000 
#    z -0.021030 0.000000 1.826720 
# 
# From -- ./inp_files/91402.got.cif
#   From: 2010.05.17/outbox.cif.g08.bks.cpg/sg13_46_cif.got.tgz:91402.got - 2010.06.03 16:44:36.
