data_PCOD9228926
_publ_section_title
;
Structure prediction by ZEFSAII (Michael W. Deem and Ramdas Pophale) SiO2 
 PCOD9228926
Probable space group: P 2/C
;
_chemical_formula_sum "Si O2"
_cell_formula_units_Z 16
_cell_length_a 7.611994
_cell_length_b 17.094877
_cell_length_c 5.335375
_cell_angle_alpha 90.000000
_cell_angle_beta 93.129465
_cell_angle_gamma 90.000000
_cell_volume 693.236199
_symmetry_space_group_name_H-M "P 2/C"
_symmetry_group_IT_number 13
_symmetry_cell_setting 'monoclinic'
loop_
_space_group_symop_operation_xyz
x,y,z
-x,y,1/2-z
-x,-y,-z
x,-y,1/2+z
loop_
_atom_site_type_symbol
_atom_site_label
_atom_site_fract_x
_atom_site_fract_y
_atom_site_fract_z
Si Si1 0.202288 0.531669 0.045676
Si Si2 0.195468 0.714419 0.166923
Si Si3 0.198961 0.032780 0.033412
Si Si4 0.304132 0.202767 0.160161
O O1 0.282985 0.482964 0.280142
O O2 0.207513 0.621827 0.121305
O O3 0.000000 0.500000 0.000000
O O4 0.311383 0.743151 0.411991
O O5 0.000000 0.731927 0.250000
O O6 0.227884 0.755371 0.901977
O O7 0.198926 0.124698 0.082320
O O8 0.283546 0.988878 0.275517
O O9 0.000000 0.000000 0.000000
O O10 0.500000 0.178218 0.250000
#
# Coordination Sequence:
#
# PCOD9228926 Si02
#       4
#     4   4   4   4
#     4  10  19  36  61 104 133 162 228 299 334 369
#     4  12  25  41  75 104 131 183 239 285 334 403
#     4  10  23  42  67  99 131 170 232 284 328 398
#     4  12  28  46  67 101 148 182 218 280 361 416
#
# _framework density 23.080158999999998
#
# number of rings (size 3 to 8) (size 9 to 14) (size 15 to 20)
#    0.000    1.000    2.500    4.500   14.000    1.000 
#    0.000    0.000    0.000   15.000    0.000    0.000 
#    0.000    0.000    0.000    0.000    0.000    0.000 
#
# Total GULP energy -89477.581497 kJ/mol
# GULP energy per Si atom -5592.348844 kJ/mol
# Density = 2.302763 g / cm^3
# Si number density = 23.080159 Si / 1000 Ang^3
#
#
#
# Elastic Constant Matrix: (Units=GPa)
#
#
# Indices 1 2 3 4 5 6 
#
# 1 58.1882 34.2991 22.8995 0.0000 1.1888 0.0000
# 2 34.2991 181.8276 88.2831 0.0000 2.0390 0.0000
# 3 22.8995 88.2831 246.6908 0.0000 -25.0291 0.0000
# 4 0.0000 0.0000 0.0000 50.2157 0.0000 -6.4769
# 5 1.1888 2.0390 -25.0291 0.0000 24.3112 0.0000
# 6 0.0000 0.0000 0.0000 -6.4769 0.0000 -21.2794
#
#
#
# Elastic Compliance Matrix: (Units=1/GPa)
#
#
# Indices 1 2 3 4 5 6 
#
# 1 0.019454 -0.003271 -0.000786 0.000000 -0.001486 0.000000
# 2 -0.003271 0.007462 -0.002696 0.000000 -0.003241 0.000000
# 3 -0.000786 -0.002696 0.005715 0.000000 0.006148 0.000000
# 4 0.000000 0.000000 0.000000 0.019162 0.000000 -0.005832
# 5 -0.001486 -0.003241 0.006148 0.000000 0.047808 0.000000
# 6 0.000000 0.000000 0.000000 -0.005832 0.000000 -0.045219
#
#
# Mechanical properties :
#
#
# Convention : Reuss Voigt Hill
#
# Bulk Modulus (GPa) = 52.28770 86.40778 69.34774
# Shear Modulus (GPa) = 67.32913 33.39783 50.36348
#
# Velocity S-wave (km/s) = 5.40696 3.80812 4.67638
# Velocity P-wave (km/s) = 7.85393 7.54023 7.69868
#
# Compressibility (1/GPa) = 0.01912496
#
# Stress axis : x y z
#
# Youngs Moduli (GPa) = 51.40446 134.01334 174.97608
#
# Poissons Ratio (x) = 0.43841 0.13750
# Poissons Ratio (y) = 0.16817 0.47166
# Poissons Ratio (z) = 0.04040 0.36124
#
# Static dielectric constant tensor:
#      x y z
#    x 1.802130 0.000000 0.007550 
#    y 0.000000 1.816560 0.000000 
#    z 0.007550 0.000000 2.006930 
# 
# From -- ./inp_files/1099.got.cif
#   From: 2010.05.17/outbox.cif.g08.bks.cpg/sg13_1_cif.got.tgz:1099.got - 2010.06.03 16:44:36.
