data_PCOD9228468
_publ_section_title
;
Structure prediction by ZEFSAII (Michael W. Deem and Ramdas Pophale) SiO2 
 PCOD9228468
Probable space group: P 2/C
;
_chemical_formula_sum "Si O2"
_cell_formula_units_Z 16
_cell_length_a 19.717598
_cell_length_b 7.749110
_cell_length_c 5.184924
_cell_angle_alpha 90.000000
_cell_angle_beta 76.751094
_cell_angle_gamma 90.000000
_cell_volume 771.138292
_symmetry_space_group_name_H-M "P 2/C"
_symmetry_group_IT_number 13
_symmetry_cell_setting 'monoclinic'
loop_
_space_group_symop_operation_xyz
x,y,z
-x,y,1/2-z
-x,-y,-z
x,-y,1/2+z
loop_
_atom_site_type_symbol
_atom_site_label
_atom_site_fract_x
_atom_site_fract_y
_atom_site_fract_z
Si Si1 0.351180 0.887591 0.912529
Si Si2 0.774933 0.620739 0.468363
Si Si3 0.072882 0.383768 0.746944
Si Si4 0.577999 0.430063 0.976225
O O1 0.284112 0.764761 0.003949
O O2 0.415528 0.760628 0.920592
O O3 0.352108 0.035178 0.127206
O O4 0.769740 0.520259 0.743989
O O5 0.852543 0.701700 0.370539
O O6 0.072090 0.541480 0.537987
O O7 0.000000 0.288913 0.750000
O O8 0.611716 0.449567 0.666174
O O9 0.500000 0.500000 0.000000
#
# Coordination Sequence:
#
# PCOD9228468 Si02
#       4
#     4   4   4   4
#     4  12  24  38  57  85 115 141 177 227 275 319
#     4  10  19  34  57  80 107 148 187 221 268 323
#     4   8  14  25  45  75 104 132 178 231 264 297
#     4  10  21  41  63  82 107 143 180 217 264 327
#
# _framework density 20.748548
#
# number of rings (size 3 to 8) (size 9 to 14) (size 15 to 20)
#    0.000    2.000    0.000    4.500    0.000    0.000 
#    0.000   15.000    0.000    1.500    0.000    0.000 
#    0.000    0.000    0.000    0.000    0.000    0.000 
#
# Total GULP energy -89229.335781 kJ/mol
# GULP energy per Si atom -5576.833486 kJ/mol
# Density = 2.070132 g / cm^3
# Si number density = 20.748548 Si / 1000 Ang^3
#
#
#
# Elastic Constant Matrix: (Units=GPa)
#
#
# Indices 1 2 3 4 5 6 
#
# 1 129.7708 26.9371 -0.0081 0.0000 -14.4269 0.0000
# 2 26.9371 51.5850 1.0654 0.0000 -1.9222 0.0000
# 3 -0.0081 1.0654 108.1208 0.0000 21.4543 0.0000
# 4 0.0000 0.0000 0.0000 34.7483 0.0000 6.8688
# 5 -14.4269 -1.9222 21.4543 0.0000 31.6798 0.0000
# 6 0.0000 0.0000 0.0000 6.8688 0.0000 11.0250
#
#
#
# Elastic Compliance Matrix: (Units=1/GPa)
#
#
# Indices 1 2 3 4 5 6 
#
# 1 0.009156 -0.004598 -0.000839 0.000000 0.004459 0.000000
# 2 -0.004598 0.021761 -0.000071 0.000000 -0.000725 0.000000
# 3 -0.000839 -0.000071 0.010774 0.000000 -0.007683 0.000000
# 4 0.000000 0.000000 0.000000 0.032820 0.000000 -0.020448
# 5 0.004459 -0.000725 -0.007683 0.000000 0.038755 0.000000
# 6 0.000000 0.000000 0.000000 -0.020448 0.000000 0.103443
#
#
# Mechanical properties :
#
#
# Convention : Reuss Voigt Hill
#
# Bulk Modulus (GPa) = 32.59850 38.38506 35.49178
# Shear Modulus (GPa) = 21.01294 32.92276 26.96785
#
# Velocity S-wave (km/s) = 3.18581 3.98772 3.60911
# Velocity P-wave (km/s) = 5.41090 6.30420 5.87455
#
# Compressibility (1/GPa) = 0.03067625
#
# Stress axis : x y z
#
# Youngs Moduli (GPa) = 109.21955 45.95429 92.81601
#
# Poissons Ratio (x) = 0.21128 0.07785
# Poissons Ratio (y) = 0.50215 0.00657
# Poissons Ratio (z) = 0.09161 0.00325
#
# Static dielectric constant tensor:
#      x y z
#    x 1.906180 0.000000 -0.081180 
#    y 0.000000 1.713380 0.000000 
#    z -0.081180 0.000000 1.847700 
# 
# From -- ./inp_files/6570.got.cif
#   From: 2010.05.17/outbox.cif.g08.bks.cpg/sg13_4_cif.got.tgz:6570.got - 2010.06.03 16:44:36.
