data_PCOD9228562
_publ_section_title
;
Structure prediction by ZEFSAII (Michael W. Deem and Ramdas Pophale) SiO2 
 PCOD9228562
Probable space group: P 2/C
;
_chemical_formula_sum "Si O2"
_cell_formula_units_Z 20
_cell_length_a 13.863858
_cell_length_b 7.080159
_cell_length_c 21.582262
_cell_angle_alpha 90.000000
_cell_angle_beta 22.260932
_cell_angle_gamma 90.000000
_cell_volume 802.533070
_symmetry_space_group_name_H-M "P 2/C"
_symmetry_group_IT_number 13
_symmetry_cell_setting 'monoclinic'
loop_
_space_group_symop_operation_xyz
x,y,z
-x,y,1/2-z
-x,-y,-z
x,-y,1/2+z
loop_
_atom_site_type_symbol
_atom_site_label
_atom_site_fract_x
_atom_site_fract_y
_atom_site_fract_z
Si Si1 0.038476 0.695945 0.298336
Si Si2 0.050283 0.855604 0.629351
Si Si3 0.778046 0.675243 0.575737
Si Si4 0.784548 0.251918 0.600587
Si Si5 0.418530 0.799697 0.516215
O O1 0.848567 0.618750 0.463270
O O2 0.000000 0.644950 0.250000
O O3 0.990758 0.922074 0.334240
O O4 0.336391 0.670281 0.133355
O O5 0.056884 0.801203 0.554609
O O6 0.310965 0.818436 0.511026
O O7 0.821875 0.745042 0.798828
O O8 0.500000 0.768191 0.750000
O O9 0.751685 0.477911 0.627654
O O10 0.021303 0.791204 0.457876
O O11 0.500000 0.183839 0.750000
O O12 0.500000 0.000000 0.500000
#
# Coordination Sequence:
#
# PCOD9228562 Si02
#       5
#     4   4   4   4   4
#     4  11  21  36  58  88 119 149 187 243 295 350
#     4  10  19  34  62  83 112 155 190 240 288 349
#     4  10  24  41  60  83 120 158 197 244 295 345
#     4  10  22  42  60  81 118 158 201 243 290 349
#     4   9  17  34  53  85 119 147 179 237 294 340
#
# _framework density 24.921092999999999
#
# number of rings (size 3 to 8) (size 9 to 14) (size 15 to 20)
#    0.000    2.000    4.000    1.200    2.800    1.600 
#    3.600    1.000    0.000    0.000    0.000    0.000 
#    0.000    0.000    0.000    0.000    0.000    0.000 
#
# Total GULP energy -111638.147284 kJ/mol
# GULP energy per Si atom -5581.907364 kJ/mol
# Density = 2.486437 g / cm^3
# Si number density = 24.921093 Si / 1000 Ang^3
#
#
#
# Elastic Constant Matrix: (Units=GPa)
#
#
# Indices 1 2 3 4 5 6 
#
# 1 149.5053 -0.0372 56.7279 0.0000 -7.9635 0.0000
# 2 -0.0372 85.1369 -1.5953 0.0000 -13.1095 0.0000
# 3 56.7279 -1.5953 138.1146 0.0000 -24.5625 0.0000
# 4 0.0000 0.0000 0.0000 8.8613 0.0000 11.4487
# 5 -7.9635 -13.1095 -24.5625 0.0000 50.5794 0.0000
# 6 0.0000 0.0000 0.0000 11.4487 0.0000 13.4148
#
#
#
# Elastic Compliance Matrix: (Units=1/GPa)
#
#
# Indices 1 2 3 4 5 6 
#
# 1 0.007931 -0.000120 -0.003330 0.000000 -0.000400 0.000000
# 2 -0.000120 0.012312 0.000827 0.000000 0.003574 0.000000
# 3 -0.003330 0.000827 0.009372 0.000000 0.004241 0.000000
# 4 0.000000 0.000000 0.000000 -1.099701 0.000000 0.938523
# 5 -0.000400 0.003574 0.004241 0.000000 0.022694 0.000000
# 6 0.000000 0.000000 0.000000 0.938523 0.000000 -0.726424
#
#
# Mechanical properties :
#
#
# Convention : Reuss Voigt Hill
#
# Bulk Modulus (GPa) = 41.03735 53.66085 47.34910
# Shear Modulus (GPa) = -2.84019 35.74853 16.45417
#
# Velocity S-wave (km/s) = -1.06871 3.79155 2.57232
# Velocity P-wave (km/s) = 3.87038 6.38332 5.27857
#
# Compressibility (1/GPa) = 0.02436804
#
# Stress axis : x y z
#
# Youngs Moduli (GPa) = 126.08886 81.22470 106.70181
#
# Poissons Ratio (x) = 0.00979 0.35531
# Poissons Ratio (y) = 0.01519 -0.08827
# Poissons Ratio (z) = 0.41987 -0.06719
#
# Static dielectric constant tensor:
#      x y z
#    x 2.136600 0.000000 -0.106630 
#    y 0.000000 2.021570 0.000000 
#    z -0.106630 0.000000 2.052670 
# 
# From -- ./inp_files/29077.got.cif
#   From: 2010.05.17/outbox.cif.g08.bks.cpg/sg13_15_cif.got.tgz:29077.got - 2010.06.03 16:44:36.
