data_PCOD9228382
_publ_section_title
;
Structure prediction by ZEFSAII (Michael W. Deem and Ramdas Pophale) SiO2 
 PCOD9228382
Probable space group: P 2/C
;
_chemical_formula_sum "Si O2"
_cell_formula_units_Z 20
_cell_length_a 27.533370
_cell_length_b 6.906407
_cell_length_c 5.026224
_cell_angle_alpha 90.000000
_cell_angle_beta 79.812935
_cell_angle_gamma 90.000000
_cell_volume 940.702788
_symmetry_space_group_name_H-M "P 2/C"
_symmetry_group_IT_number 13
_symmetry_cell_setting 'monoclinic'
loop_
_space_group_symop_operation_xyz
x,y,z
-x,y,1/2-z
-x,-y,-z
x,-y,1/2+z
loop_
_atom_site_type_symbol
_atom_site_label
_atom_site_fract_x
_atom_site_fract_y
_atom_site_fract_z
Si Si1 0.000000 0.355851 0.750000
Si Si2 0.895809 0.636438 0.435176
Si Si3 0.693992 0.877946 0.650913
Si Si4 0.500000 0.140203 0.250000
Si Si5 0.790243 0.366648 0.921659
Si Si6 0.399984 0.376742 0.415139
O O1 0.946899 0.252313 0.823024
O O2 0.000000 0.500000 0.500000
O O3 0.896116 0.548589 0.731845
O O4 0.843260 0.733272 0.426413
O O5 0.743812 0.764872 0.531594
O O6 0.646449 0.753317 0.618945
O O7 0.692902 0.064971 0.460470
O O8 0.451130 0.269889 0.305571
O O9 0.500000 0.000000 0.500000
O O10 0.788524 0.450936 0.626265
O O11 0.397986 0.436956 0.724648
#
# Coordination Sequence:
#
# PCOD9228382 Si02
#       6
#     2   4   4   2   4   4
#     4   8  12  20  34  60  92 122 154 204 260 306
#     4   8  14  23  40  64  94 125 162 208 260 309
#     4  12  24  39  57  82 111 144 181 226 275 321
#     4  12  24  42  64  92 124 152 182 224 270 318
#     4  10  19  34  53  76 103 138 177 220 267 322
#     4  12  24  42  64  88 115 150 189 226 266 318
#
# _framework density 21.260701000000001
#
# number of rings (size 3 to 8) (size 9 to 14) (size 15 to 20)
#    0.000    1.600    0.000    6.600    0.000    0.000 
#    0.000    0.000    0.000    0.000    0.000    1.400 
#    0.000    0.000    0.000    0.000    0.000    0.000 
#
# Total GULP energy -111714.953938 kJ/mol
# GULP energy per Si atom -5585.747697 kJ/mol
# Density = 2.121231 g / cm^3
# Si number density = 21.260701 Si / 1000 Ang^3
#
#
#
# Elastic Constant Matrix: (Units=GPa)
#
#
# Indices 1 2 3 4 5 6 
#
# 1 200.6989 30.9428 -7.3965 0.0000 -35.0342 0.0000
# 2 30.9428 18.9783 -4.9958 0.0000 -6.4114 0.0000
# 3 -7.3965 -4.9958 92.3147 0.0000 5.2431 0.0000
# 4 0.0000 0.0000 0.0000 26.0682 0.0000 29.7068
# 5 -35.0342 -6.4114 5.2431 0.0000 36.8562 0.0000
# 6 0.0000 0.0000 0.0000 29.7068 0.0000 -59.1605
#
#
#
# Elastic Compliance Matrix: (Units=1/GPa)
#
#
# Indices 1 2 3 4 5 6 
#
# 1 0.007535 -0.010544 -0.000272 0.000000 0.005367 0.000000
# 2 -0.010544 0.071312 0.002903 0.000000 0.001970 0.000000
# 3 -0.000272 0.002903 0.011043 0.000000 -0.001324 0.000000
# 4 0.000000 0.000000 0.000000 0.024399 0.000000 0.012252
# 5 0.005367 0.001970 -0.001324 0.000000 0.032765 0.000000
# 6 0.000000 0.000000 0.000000 0.012252 0.000000 -0.010751
#
#
# Mechanical properties :
#
#
# Convention : Reuss Voigt Hill
#
# Bulk Modulus (GPa) = 13.50180 38.78809 26.14494
# Shear Modulus (GPa) = 28.27781 20.31554 24.29667
#
# Velocity S-wave (km/s) = 3.65094 3.09454 3.38420
# Velocity P-wave (km/s) = 4.91293 5.57242 5.25304
#
# Compressibility (1/GPa) = 0.07406422
#
# Stress axis : x y z
#
# Youngs Moduli (GPa) = 132.71358 14.02290 90.55479
#
# Poissons Ratio (x) = 0.14785 0.02460
# Poissons Ratio (y) = 1.39929 -0.26284
# Poissons Ratio (z) = 0.03606 -0.04070
#
# Static dielectric constant tensor:
#      x y z
#    x 1.890570 0.000000 -0.026810 
#    y 0.000000 1.746410 0.000000 
#    z -0.026810 0.000000 1.733290 
# 
# From -- ./inp_files/7632.got.cif
#   From: 2010.05.17/outbox.cif.g08.bks.cpg/sg13_4_cif.got.tgz:7632.got - 2010.06.03 16:44:36.
