data_PCOD9228368
_publ_section_title
;
Structure prediction by ZEFSAII (Michael W. Deem and Ramdas Pophale) SiO2 
 PCOD9228368
Probable space group: P 2/C
;
_chemical_formula_sum "Si O2"
_cell_formula_units_Z 20
_cell_length_a 8.415510
_cell_length_b 5.343193
_cell_length_c 28.400185
_cell_angle_alpha 90.000000
_cell_angle_beta 141.671040
_cell_angle_gamma 90.000000
_cell_volume 791.985367
_symmetry_space_group_name_H-M "P 2/C"
_symmetry_group_IT_number 13
_symmetry_cell_setting 'monoclinic'
loop_
_space_group_symop_operation_xyz
x,y,z
-x,y,1/2-z
-x,-y,-z
x,-y,1/2+z
loop_
_atom_site_type_symbol
_atom_site_label
_atom_site_fract_x
_atom_site_fract_y
_atom_site_fract_z
Si Si1 0.799373 0.567969 0.744714
Si Si2 0.740294 0.225691 0.095712
Si Si3 0.666842 0.227038 0.336007
Si Si4 0.455788 0.738522 0.053456
Si Si5 0.686128 0.275496 0.874258
O O1 0.570946 0.764496 0.680638
O O2 0.614496 0.329420 0.710412
O O3 0.000000 0.521526 0.750000
O O4 0.974898 0.683260 0.826111
O O5 0.566200 0.457048 0.073830
O O6 0.672407 0.957871 0.102938
O O7 0.693769 0.206504 0.029358
O O8 0.500000 0.255606 0.250000
O O9 0.818461 0.472693 0.386537
O O10 0.790623 0.961336 0.371236
O O11 0.307817 0.753117 0.068436
#
# Coordination Sequence:
#
# PCOD9228368 Si02
#       5
#     4   4   4   4   4
#     4  10  20  33  56  85 106 135 180 232 266 316
#     4  10  20  31  52  77 119 139 176 215 284 318
#     4  10  22  36  55  78 108 145 180 225 270 324
#     4  10  19  34  49  81 112 149 167 222 273 336
#     4  10  20  33  56  76 107 141 181 219 268 318
#
# _framework density 25.252993
#
# number of rings (size 3 to 8) (size 9 to 14) (size 15 to 20)
#    1.200    0.800    2.000    3.000    2.800    0.800 
#    0.000    0.000    0.000    2.400    0.000    0.000 
#    0.000    0.000    0.000    0.000    0.000    0.000 
#
# Total GULP energy -111621.452120 kJ/mol
# GULP energy per Si atom -5581.072606 kJ/mol
# Density = 2.519552 g / cm^3
# Si number density = 25.252993 Si / 1000 Ang^3
#
#
#
# Elastic Constant Matrix: (Units=GPa)
#
#
# Indices 1 2 3 4 5 6 
#
# 1 55.6986 19.3637 4.7527 0.0000 -5.1152 0.0000
# 2 19.3637 172.0522 25.3638 0.0000 -23.7894 0.0000
# 3 4.7527 25.3638 84.7731 0.0000 -33.9630 0.0000
# 4 0.0000 0.0000 0.0000 21.3822 0.0000 -4.0739
# 5 -5.1152 -23.7894 -33.9630 0.0000 44.9873 0.0000
# 6 0.0000 0.0000 0.0000 -4.0739 0.0000 34.0714
#
#
#
# Elastic Compliance Matrix: (Units=1/GPa)
#
#
# Indices 1 2 3 4 5 6 
#
# 1 0.018735 -0.001955 -0.000037 0.000000 0.001068 0.000000
# 2 -0.001955 0.006511 -0.000786 0.000000 0.002628 0.000000
# 3 -0.000037 -0.000786 0.017010 0.000000 0.012422 0.000000
# 4 0.000000 0.000000 0.000000 0.047858 0.000000 0.005722
# 5 0.001068 0.002628 0.012422 0.000000 0.033117 0.000000
# 6 0.000000 0.000000 0.000000 0.005722 0.000000 0.030034
#
#
# Mechanical properties :
#
#
# Convention : Reuss Voigt Hill
#
# Bulk Modulus (GPa) = 27.24868 45.72049 36.48458
# Shear Modulus (GPa) = 29.23015 37.62444 33.42729
#
# Velocity S-wave (km/s) = 3.40588 3.86411 3.64221
# Velocity P-wave (km/s) = 5.12644 6.16869 5.67156
#
# Compressibility (1/GPa) = 0.03669903
#
# Stress axis : x y z
#
# Youngs Moduli (GPa) = 53.37656 153.57623 58.78879
#
# Poissons Ratio (x) = 0.30029 0.00220
# Poissons Ratio (y) = 0.10437 0.04620
# Poissons Ratio (z) = 0.00200 0.12069
#
# Static dielectric constant tensor:
#      x y z
#    x 2.136900 0.000000 -0.055470 
#    y 0.000000 2.057930 0.000000 
#    z -0.055470 0.000000 1.994350 
# 
# From -- ./inp_files/84004.got.cif
#   From: 2010.05.17/outbox.cif.g08.bks.cpg/sg13_43_cif.got.tgz:84004.got - 2010.06.03 16:44:36.
