data_PCOD9228279
_publ_section_title
;
Structure prediction by ZEFSAII (Michael W. Deem and Ramdas Pophale) SiO2 
 PCOD9228279
Probable space group: P 2/C
;
_chemical_formula_sum "Si O2"
_cell_formula_units_Z 24
_cell_length_a 7.966294
_cell_length_b 14.215825
_cell_length_c 15.248184
_cell_angle_alpha 90.000000
_cell_angle_beta 141.605502
_cell_angle_gamma 90.000000
_cell_volume 1072.479099
_symmetry_space_group_name_H-M "P 2/C"
_symmetry_group_IT_number 13
_symmetry_cell_setting 'monoclinic'
loop_
_space_group_symop_operation_xyz
x,y,z
-x,y,1/2-z
-x,-y,-z
x,-y,1/2+z
loop_
_atom_site_type_symbol
_atom_site_label
_atom_site_fract_x
_atom_site_fract_y
_atom_site_fract_z
Si Si1 0.201405 0.892697 0.667886
Si Si2 0.023084 0.600760 0.553886
Si Si3 0.221998 0.299125 0.695497
Si Si4 0.514142 0.397072 0.548418
Si Si5 0.262888 0.701451 0.799094
Si Si6 0.195324 0.901513 0.161167
O O1 0.500000 0.894688 0.750000
O O2 0.211491 0.804503 0.737571
O O3 0.993847 0.884835 0.501547
O O4 0.137421 0.996873 0.679823
O O5 0.007765 0.672915 0.467338
O O6 0.753180 0.612074 0.501237
O O7 0.000000 0.500000 0.500000
O O8 0.260916 0.627167 0.718097
O O9 0.500000 0.300189 0.750000
O O10 0.252195 0.373158 0.786410
O O11 0.181304 0.193116 0.711894
O O12 0.500000 0.500000 0.500000
O O13 0.500976 0.320516 0.464793
O O14 0.000000 0.681029 0.750000
O O15 0.500000 0.906690 0.250000
#
# Coordination Sequence:
#
# PCOD9228279 Si02
#       6
#     4   4   4   4   4   4
#     4  10  20  36  62  93 117 148 201 254 288 340
#     4  10  19  33  56  78 103 149 204 236 279 353
#     4   9  17  33  57  79 103 150 198 230 275 356
#     4  10  21  35  52  80 117 150 189 244 302 342
#     4  10  21  36  55  83 119 158 189 239 307 362
#     4   9  18  35  64  87 113 152 205 240 286 349
#
# _framework density 22.378059
#
# number of rings (size 3 to 8) (size 9 to 14) (size 15 to 20)
#    0.000    2.333    1.667    1.000    2.333    1.333 
#    0.000    0.833    0.000    0.000    0.000    0.000 
#    0.000    0.000    0.000    0.000    0.000    0.000 
#
# Total GULP energy -133829.028313 kJ/mol
# GULP energy per Si atom -5576.209513 kJ/mol
# Density = 2.232713 g / cm^3
# Si number density = 22.378059 Si / 1000 Ang^3
#
#
#
# Elastic Constant Matrix: (Units=GPa)
#
#
# Indices 1 2 3 4 5 6 
#
# 1 63.2241 8.8606 26.5560 0.0000 -8.6469 0.0000
# 2 8.8606 158.2191 36.7806 0.0000 -43.6114 0.0000
# 3 26.5560 36.7806 112.4729 0.0000 -26.5276 0.0000
# 4 0.0000 0.0000 0.0000 35.1636 0.0000 -13.2700
# 5 -8.6469 -43.6114 -26.5276 0.0000 30.2721 0.0000
# 6 0.0000 0.0000 0.0000 -13.2700 0.0000 29.9835
#
#
#
# Elastic Compliance Matrix: (Units=1/GPa)
#
#
# Indices 1 2 3 4 5 6 
#
# 1 0.017667 0.000610 -0.003748 0.000000 0.002640 0.000000
# 2 0.000610 0.010507 0.000039 0.000000 0.015345 0.000000
# 3 -0.003748 0.000039 0.012005 0.000000 0.009507 0.000000
# 4 0.000000 0.000000 0.000000 0.034141 0.000000 0.015110
# 5 0.002640 0.015345 0.009507 0.000000 0.064226 0.000000
# 6 0.000000 0.000000 0.000000 0.015110 0.000000 0.040039
#
#
# Mechanical properties :
#
#
# Convention : Reuss Voigt Hill
#
# Bulk Modulus (GPa) = 29.42811 53.14563 41.28687
# Shear Modulus (GPa) = 25.49606 36.53177 31.01392
#
# Velocity S-wave (km/s) = 3.37906 4.04478 3.72682
# Velocity P-wave (km/s) = 5.32945 6.75383 6.08347
#
# Compressibility (1/GPa) = 0.03398111
#
# Stress axis : x y z
#
# Youngs Moduli (GPa) = 56.60386 95.17635 83.29688
#
# Poissons Ratio (x) = -0.05803 0.31219
# Poissons Ratio (y) = -0.03451 -0.00329
# Poissons Ratio (z) = 0.21215 -0.00376
#
# Static dielectric constant tensor:
#      x y z
#    x 1.760080 0.000000 0.070710 
#    y 0.000000 1.919580 0.000000 
#    z 0.070710 0.000000 1.764000 
# 
# From -- ./inp_files/40950.got.cif
#   From: 2010.05.17/outbox.cif.g08.bks.cpg/sg13_21_cif.got.tgz:40950.got - 2010.06.03 16:44:36.
