data_PCOD9228545
_publ_section_title
;
Structure prediction by ZEFSAII (Michael W. Deem and Ramdas Pophale) SiO2 
 PCOD9228545
Probable space group: P 2/C
;
_chemical_formula_sum "Si O2"
_cell_formula_units_Z 26
_cell_length_a 9.849333
_cell_length_b 10.387436
_cell_length_c 25.714810
_cell_angle_alpha 90.000000
_cell_angle_beta 146.443939
_cell_angle_gamma 90.000000
_cell_volume 1454.217357
_symmetry_space_group_name_H-M "P 2/C"
_symmetry_group_IT_number 13
_symmetry_cell_setting 'monoclinic'
loop_
_space_group_symop_operation_xyz
x,y,z
-x,y,1/2-z
-x,-y,-z
x,-y,1/2+z
loop_
_atom_site_type_symbol
_atom_site_label
_atom_site_fract_x
_atom_site_fract_y
_atom_site_fract_z
Si Si1 0.984927 0.205911 0.832573
Si Si2 0.815153 0.824780 0.920807
Si Si3 0.131843 0.554714 0.128196
Si Si4 0.762767 0.389521 0.947777
Si Si5 0.826084 0.005927 0.524102
Si Si6 0.500000 0.342708 0.250000
Si Si7 0.397002 0.201502 0.878561
O O1 0.205221 0.233562 0.862611
O O2 0.916716 0.327041 0.848527
O O3 0.754936 0.167261 0.722461
O O4 0.085888 0.088438 0.899097
O O5 0.759855 0.894750 0.956896
O O6 0.589729 0.748999 0.824717
O O7 0.030944 0.719996 0.994580
O O8 0.935659 0.928378 0.920432
O O9 0.307421 0.583004 0.134242
O O10 0.267818 0.429108 0.194139
O O11 0.886394 0.505148 0.019719
O O12 0.546743 0.328529 0.911417
O O13 0.596726 0.908194 0.457403
#
# Coordination Sequence:
#
# PCOD9228545 Si02
#       7
#     4   4   4   4   4   2   4
#     4  11  22  38  56  85 113 155 189 229 287 340
#     4   9  19  34  55  85 112 135 188 236 285 327
#     4  10  19  34  60  81 115 144 187 232 282 333
#     4   9  18  37  55  84 109 144 186 233 279 336
#     4  10  20  38  56  82 114 150 184 238 283 335
#     4  10  20  32  54  88 112 144 178 244 278 332
#     4  10  23  37  57  82 116 149 194 232 278 343
#
# _framework density 17.879034000000001
#
# number of rings (size 3 to 8) (size 9 to 14) (size 15 to 20)
#    0.000    2.154    1.538    1.385    2.154    0.615 
#    0.000    0.000    0.000    0.000    4.000    0.000 
#    0.000    0.000    0.000    0.000    0.000    0.000 
#
# Total GULP energy -144835.724514 kJ/mol
# GULP energy per Si atom -5570.604789 kJ/mol
# Density = 1.783834 g / cm^3
# Si number density = 17.879034 Si / 1000 Ang^3
#
#
#
# Elastic Constant Matrix: (Units=GPa)
#
#
# Indices 1 2 3 4 5 6 
#
# 1 47.4684 22.0700 38.8281 0.0000 -13.7522 0.0000
# 2 22.0700 69.0336 45.0404 0.0000 -16.1497 0.0000
# 3 38.8281 45.0404 81.6412 0.0000 -10.3442 0.0000
# 4 0.0000 0.0000 0.0000 35.5957 0.0000 -2.4610
# 5 -13.7522 -16.1497 -10.3442 0.0000 17.4376 0.0000
# 6 0.0000 0.0000 0.0000 -2.4610 0.0000 17.4792
#
#
#
# Elastic Compliance Matrix: (Units=1/GPa)
#
#
# Indices 1 2 3 4 5 6 
#
# 1 0.042594 0.005771 -0.020012 0.000000 0.027065 0.000000
# 2 0.005771 0.027503 -0.015261 0.000000 0.020970 0.000000
# 3 -0.020012 -0.015261 0.028540 0.000000 -0.012986 0.000000
# 4 0.000000 0.000000 0.000000 0.028369 0.000000 0.003994
# 5 0.027065 0.020970 -0.012986 0.000000 0.090410 0.000000
# 6 0.000000 0.000000 0.000000 0.003994 0.000000 0.057773
#
#
# Mechanical properties :
#
#
# Convention : Reuss Voigt Hill
#
# Bulk Modulus (GPa) = 25.23111 45.55780 35.39445
# Shear Modulus (GPa) = 14.39244 20.24949 17.32096
#
# Velocity S-wave (km/s) = 2.84031 3.36904 3.11591
# Velocity P-wave (km/s) = 4.98992 6.37733 5.72580
#
# Compressibility (1/GPa) = 0.03963361
#
# Stress axis : x y z
#
# Youngs Moduli (GPa) = 23.47762 36.35927 35.03840
#
# Poissons Ratio (x) = -0.20983 0.70118
# Poissons Ratio (y) = -0.13549 0.53471
# Poissons Ratio (z) = 0.46983 0.55487
#
# Static dielectric constant tensor:
#      x y z
#    x 1.610240 0.000000 -0.015830 
#    y 0.000000 1.648120 0.000000 
#    z -0.015830 0.000000 1.668850 
# 
# From -- ./inp_files/76505.got.cif
#   From: 2010.05.17/outbox.cif.g08.bks.cpg/sg13_39_cif.got.tgz:76505.got - 2010.06.03 16:44:36.
