data_PCOD9228239
_publ_section_title
;
Structure prediction by ZEFSAII (Michael W. Deem and Ramdas Pophale) SiO2 
 PCOD9228239
Probable space group: P 2/C
;
_chemical_formula_sum "Si O2"
_cell_formula_units_Z 26
_cell_length_a 5.641000
_cell_length_b 12.516379
_cell_length_c 21.405628
_cell_angle_alpha 90.000000
_cell_angle_beta 64.361079
_cell_angle_gamma 90.000000
_cell_volume 1362.533542
_symmetry_space_group_name_H-M "P 2/C"
_symmetry_group_IT_number 13
_symmetry_cell_setting 'monoclinic'
loop_
_space_group_symop_operation_xyz
x,y,z
-x,y,1/2-z
-x,-y,-z
x,-y,1/2+z
loop_
_atom_site_type_symbol
_atom_site_label
_atom_site_fract_x
_atom_site_fract_y
_atom_site_fract_z
Si Si1 0.993728 0.146563 0.325335
Si Si2 0.341424 0.956161 0.078334
Si Si3 0.342866 0.348339 0.141969
Si Si4 0.500000 0.247937 0.250000
Si Si5 0.103441 0.892500 0.453480
Si Si6 0.089974 0.672290 0.983639
Si Si7 0.789219 0.495313 0.937547
O O1 0.861160 0.258884 0.355856
O O2 0.000000 0.131408 0.250000
O O3 0.296467 0.168287 0.307915
O O4 0.818057 0.053649 0.373253
O O5 0.582234 0.907770 0.091806
O O6 0.102895 0.881952 0.080576
O O7 0.500000 0.000000 0.000000
O O8 0.376740 0.324666 0.211506
O O9 0.614648 0.320712 0.076020
O O10 0.245083 0.464048 0.129533
O O11 0.052197 0.786034 0.499298
O O12 0.000000 0.000000 0.500000
O O13 0.951485 0.586814 0.954637
O O14 0.094907 0.617227 0.052166
O O15 0.500000 0.500000 0.000000
#
# Coordination Sequence:
#
# PCOD9228239 Si02
#       7
#     4   4   4   2   4   4   4
#     4  10  22  36  56  83 125 162 199 251 313 382
#     4  10  22  35  54  86 118 164 198 246 304 360
#     4  10  19  33  54  81 117 158 200 248 313 373
#     4  10  22  32  54  82 120 168 196 256 314 380
#     4  10  22  33  55  85 121 160 198 248 307 359
#     4  10  20  35  55  84 122 161 199 249 314 374
#     4   9  20  33  55  80 117 160 191 247 305 366
#
# _framework density 19.082100000000001
#
# number of rings (size 3 to 8) (size 9 to 14) (size 15 to 20)
#    0.000    2.154    0.000    2.769   17.231    0.000 
#    0.000    0.000    0.000    0.000    0.000    9.692 
#    4.615    0.000    0.000    0.000    0.000    0.000 
#
# Total GULP energy -144736.664772 kJ/mol
# GULP energy per Si atom -5566.794799 kJ/mol
# Density = 1.903867 g / cm^3
# Si number density = 19.082100 Si / 1000 Ang^3
#
#
#
# Elastic Constant Matrix: (Units=GPa)
#
#
# Indices 1 2 3 4 5 6 
#
# 1 115.5562 19.7320 23.0912 0.0000 -20.0943 0.0000
# 2 19.7320 88.9601 34.0363 0.0000 -5.1345 0.0000
# 3 23.0912 34.0363 66.3963 0.0000 -7.4563 0.0000
# 4 0.0000 0.0000 0.0000 27.6825 0.0000 -4.5588
# 5 -20.0943 -5.1345 -7.4563 0.0000 31.6938 0.0000
# 6 0.0000 0.0000 0.0000 -4.5588 0.0000 22.2558
#
#
#
# Elastic Compliance Matrix: (Units=1/GPa)
#
#
# Indices 1 2 3 4 5 6 
#
# 1 0.010322 -0.001033 -0.002408 0.000000 0.005810 0.000000
# 2 -0.001033 0.014098 -0.006866 0.000000 0.000014 0.000000
# 3 -0.002408 -0.006866 0.019641 0.000000 0.001982 0.000000
# 4 0.000000 0.000000 0.000000 0.037385 0.000000 0.007658
# 5 0.005810 0.000014 0.001982 0.000000 0.035704 0.000000
# 6 0.000000 0.000000 0.000000 0.007658 0.000000 0.046501
#
#
# Mechanical properties :
#
#
# Convention : Reuss Voigt Hill
#
# Bulk Modulus (GPa) = 42.64963 47.18130 44.91547
# Shear Modulus (GPa) = 26.03093 29.26330 27.64712
#
# Velocity S-wave (km/s) = 3.69745 3.92030 3.81051
# Velocity P-wave (km/s) = 6.37396 6.72836 6.55355
#
# Compressibility (1/GPa) = 0.02344686
#
# Stress axis : x y z
#
# Youngs Moduli (GPa) = 96.88367 70.93261 50.91457
#
# Poissons Ratio (x) = 0.07326 0.12259
# Poissons Ratio (y) = 0.10007 0.34959
# Poissons Ratio (z) = 0.23326 0.48703
#
# Static dielectric constant tensor:
#      x y z
#    x 1.707690 0.000000 0.083620 
#    y 0.000000 1.666740 0.000000 
#    z 0.083620 0.000000 1.660590 
# 
# From -- ./inp_files/73541.got.cif
#   From: 2010.05.17/outbox.cif.g08.bks.cpg/sg13_37_cif.got.tgz:73541.got - 2010.06.03 16:44:36.
