data_PCOD9228003
_publ_section_title
;
Structure prediction by ZEFSAII (Michael W. Deem and Ramdas Pophale) SiO2 
 PCOD9228003
Probable space group: P 2/C
;
_chemical_formula_sum "Si O2"
_cell_formula_units_Z 24
_cell_length_a 22.615960
_cell_length_b 8.608899
_cell_length_c 11.772454
_cell_angle_alpha 90.000000
_cell_angle_beta 33.726059
_cell_angle_gamma 90.000000
_cell_volume 1272.614594
_symmetry_space_group_name_H-M "P 2/C"
_symmetry_group_IT_number 13
_symmetry_cell_setting 'monoclinic'
loop_
_space_group_symop_operation_xyz
x,y,z
-x,y,1/2-z
-x,-y,-z
x,-y,1/2+z
loop_
_atom_site_type_symbol
_atom_site_label
_atom_site_fract_x
_atom_site_fract_y
_atom_site_fract_z
Si Si1 0.247830 0.103368 0.564990
Si Si2 0.956914 0.147756 0.498685
Si Si3 0.360311 0.341985 0.762605
Si Si4 0.592748 0.294190 0.333984
Si Si5 0.378459 0.847312 0.465387
Si Si6 0.843852 0.165413 0.444633
O O1 0.145123 0.204125 0.766304
O O2 0.343753 0.201154 0.361810
O O3 0.296040 0.988668 0.583751
O O4 0.207523 0.983653 0.533315
O O5 0.901369 0.112908 0.467206
O O6 0.000000 0.000000 0.500000
O O7 0.065190 0.233450 0.286520
O O8 0.465195 0.271370 0.534773
O O9 0.378801 0.525315 0.727327
O O10 0.358368 0.275214 0.894676
O O11 0.250285 0.286815 0.883509
O O12 0.627131 0.234451 0.403876
O O13 0.500000 0.902498 0.250000
#
# Coordination Sequence:
#
# PCOD9228003 Si02
#       6
#     4   4   4   4   4   4
#     4  10  19  31  53  80 104 138 182 225 274 325
#     4   9  18  32  52  78 104 137 180 226 274 318
#     4   9  20  36  54  76 110 150 182 218 275 335
#     4  10  20  35  54  81 113 143 179 226 278 332
#     4   9  19  34  51  77 112 142 177 227 274 329
#     4   9  18  34  53  73 106 144 180 225 270 321
#
# _framework density 18.858810999999999
#
# number of rings (size 3 to 8) (size 9 to 14) (size 15 to 20)
#    0.000    2.667    0.000    1.000    0.000    8.667 
#    0.000    5.000    0.000   18.000    0.000    0.000 
#    0.000    0.000    0.000    0.000    0.000    0.000 
#
# Total GULP energy -133604.836021 kJ/mol
# GULP energy per Si atom -5566.868168 kJ/mol
# Density = 1.881589 g / cm^3
# Si number density = 18.858811 Si / 1000 Ang^3
#
#
#
# Elastic Constant Matrix: (Units=GPa)
#
#
# Indices 1 2 3 4 5 6 
#
# 1 67.8398 15.0489 25.8907 0.0000 -19.8184 0.0000
# 2 15.0489 39.5952 54.5333 0.0000 -10.1182 0.0000
# 3 25.8907 54.5333 154.1803 0.0000 -13.6349 0.0000
# 4 0.0000 0.0000 0.0000 20.3359 0.0000 -0.2791
# 5 -19.8184 -10.1182 -13.6349 0.0000 24.7665 0.0000
# 6 0.0000 0.0000 0.0000 -0.2791 0.0000 13.7112
#
#
#
# Elastic Compliance Matrix: (Units=1/GPa)
#
#
# Indices 1 2 3 4 5 6 
#
# 1 0.019900 -0.002032 -0.001354 0.000000 0.014349 0.000000
# 2 -0.002032 0.052518 -0.017324 0.000000 0.010293 0.000000
# 3 -0.001354 -0.017324 0.012739 0.000000 -0.001148 0.000000
# 4 0.000000 0.000000 0.000000 0.049188 0.000000 0.001001
# 5 0.014349 0.010293 -0.001148 0.000000 0.055432 0.000000
# 6 0.000000 0.000000 0.000000 0.001001 0.000000 0.072954
#
#
# Mechanical properties :
#
#
# Convention : Reuss Voigt Hill
#
# Bulk Modulus (GPa) = 22.86382 50.28456 36.57419
# Shear Modulus (GPa) = 15.68731 22.83889 19.26310
#
# Velocity S-wave (km/s) = 2.88727 3.48378 3.19946
# Velocity P-wave (km/s) = 4.82339 6.55011 5.75191
#
# Compressibility (1/GPa) = 0.04373722
#
# Stress axis : x y z
#
# Youngs Moduli (GPa) = 50.25169 19.04118 78.49731
#
# Poissons Ratio (x) = 0.03868 0.10630
# Poissons Ratio (y) = 0.10209 1.35989
# Poissons Ratio (z) = 0.06805 0.32987
#
# Static dielectric constant tensor:
#      x y z
#    x 1.668320 0.000000 -0.009300 
#    y 0.000000 1.621400 0.000000 
#    z -0.009300 0.000000 1.720790 
# 
# From -- ./inp_files/40370.got.cif
#   From: 2010.05.17/outbox.cif.g08.bks.cpg/sg13_21_cif.got.tgz:40370.got - 2010.06.03 16:44:36.
