data_PCOD9228330
_publ_section_title
;
Structure prediction by ZEFSAII (Michael W. Deem and Ramdas Pophale) SiO2 
 PCOD9228330
Probable space group: P 2/C
;
_chemical_formula_sum "Si O2"
_cell_formula_units_Z 32
_cell_length_a 8.370089
_cell_length_b 5.683827
_cell_length_c 26.767929
_cell_angle_alpha 90.000000
_cell_angle_beta 84.865770
_cell_angle_gamma 90.000000
_cell_volume 1268.351738
_symmetry_space_group_name_H-M "P 2/C"
_symmetry_group_IT_number 13
_symmetry_cell_setting 'monoclinic'
loop_
_space_group_symop_operation_xyz
x,y,z
-x,y,1/2-z
-x,-y,-z
x,-y,1/2+z
loop_
_atom_site_type_symbol
_atom_site_label
_atom_site_fract_x
_atom_site_fract_y
_atom_site_fract_z
Si Si1 0.822973 0.815609 0.185432
Si Si2 0.539077 0.225137 0.836550
Si Si3 0.589632 0.313110 0.031024
Si Si4 0.528402 0.278184 0.308115
Si Si5 0.070684 0.367704 0.433954
Si Si6 0.370651 0.941900 0.070488
Si Si7 0.017287 0.865391 0.077901
Si Si8 0.844862 0.684345 0.679962
O O1 0.630859 0.794755 0.186904
O O2 0.872227 0.564053 0.206117
O O3 0.888602 0.834362 0.126328
O O4 0.871801 0.067372 0.206260
O O5 0.612893 0.474929 0.819312
O O6 0.521905 0.223145 0.897093
O O7 0.610382 0.966752 0.821892
O O8 0.746378 0.399399 0.054390
O O9 0.458156 0.191707 0.069980
O O10 0.500000 0.500000 0.000000
O O11 0.643221 0.122341 0.987511
O O12 0.500000 0.272184 0.250000
O O13 0.343171 0.297099 0.332585
O O14 0.057256 0.338934 0.374144
O O15 0.980921 0.610954 0.449532
O O16 0.019166 0.105028 0.450987
O O17 0.192585 0.908992 0.095449
#
# Coordination Sequence:
#
# PCOD9228330 Si02
#       8
#     4   4   4   4   4   4   4   4
#     4   8  15  30  52  78 101 147 190 231 278 345
#     4  10  21  36  61  84 123 159 193 249 309 371
#     4  11  27  41  62  85 126 168 209 258 312 377
#     4  10  19  33  57  93 120 150 195 248 302 361
#     4  10  22  41  61  84 118 163 214 251 306 357
#     4  11  26  41  59  93 121 164 209 256 323 358
#     4  10  22  38  63  86 116 157 213 262 294 365
#     4   8  15  28  52  76 105 145 180 236 280 344
#
# _framework density 25.229593000000001
#
# number of rings (size 3 to 8) (size 9 to 14) (size 15 to 20)
#    0.000    2.250    0.000    2.625   12.250    1.000 
#    0.000    0.000    0.000    0.000    0.000   47.250 
#    0.000    0.000    0.000    0.000    0.000    0.000 
#
# Total GULP energy -178522.954841 kJ/mol
# GULP energy per Si atom -5578.842339 kJ/mol
# Density = 2.517217 g / cm^3
# Si number density = 25.229593 Si / 1000 Ang^3
#
#
#
# Elastic Constant Matrix: (Units=GPa)
#
#
# Indices 1 2 3 4 5 6 
#
# 1 58.1921 41.6693 10.4699 0.0000 14.2843 0.0000
# 2 41.6693 272.2868 21.9753 0.0000 8.7831 0.0000
# 3 10.4699 21.9753 55.6006 0.0000 4.0780 0.0000
# 4 0.0000 0.0000 0.0000 7.5308 0.0000 -2.8692
# 5 14.2843 8.7831 4.0780 0.0000 26.7474 0.0000
# 6 0.0000 0.0000 0.0000 -2.8692 0.0000 19.2556
#
#
#
# Elastic Compliance Matrix: (Units=1/GPa)
#
#
# Indices 1 2 3 4 5 6 
#
# 1 0.022257 -0.002881 -0.002276 0.000000 -0.010593 0.000000
# 2 -0.002881 0.004195 -0.001140 0.000000 0.000335 0.000000
# 3 -0.002276 -0.001140 0.018960 0.000000 -0.001301 0.000000
# 4 0.000000 0.000000 0.000000 0.140780 0.000000 0.020977
# 5 -0.010593 0.000335 -0.001301 0.000000 0.043132 0.000000
# 6 0.000000 0.000000 0.000000 0.020977 0.000000 0.055059
#
#
# Mechanical properties :
#
#
# Convention : Reuss Voigt Hill
#
# Bulk Modulus (GPa) = 30.47017 59.36762 44.91889
# Shear Modulus (GPa) = 16.23828 31.50444 23.87136
#
# Velocity S-wave (km/s) = 2.53972 3.53754 3.07932
# Velocity P-wave (km/s) = 4.55012 6.34568 5.52138
#
# Compressibility (1/GPa) = 0.03281898
#
# Stress axis : x y z
#
# Youngs Moduli (GPa) = 44.92969 238.39877 52.74282
#
# Poissons Ratio (x) = 0.68676 0.12002
# Poissons Ratio (y) = 0.12943 0.06013
# Poissons Ratio (z) = 0.10224 0.27177
#
# Static dielectric constant tensor:
#      x y z
#    x 1.940310 0.000000 -0.073030 
#    y 0.000000 2.128990 0.000000 
#    z -0.073030 0.000000 2.014810 
# 
# From -- ./inp_files/95672.got.cif
#   From: 2010.05.17/outbox.cif.g08.bks.cpg/sg13_48_cif.got.tgz:95672.got - 2010.06.03 16:44:36.
