data_PCOD9228067
_publ_section_title
;
Structure prediction by ZEFSAII (Michael W. Deem and Ramdas Pophale) SiO2 
 PCOD9228067
Probable space group: P 2/C
;
_chemical_formula_sum "Si O2"
_cell_formula_units_Z 26
_cell_length_a 17.168234
_cell_length_b 6.437318
_cell_length_c 17.839436
_cell_angle_alpha 90.000000
_cell_angle_beta 145.406166
_cell_angle_gamma 90.000000
_cell_volume 1119.367765
_symmetry_space_group_name_H-M "P 2/C"
_symmetry_group_IT_number 13
_symmetry_cell_setting 'monoclinic'
loop_
_space_group_symop_operation_xyz
x,y,z
-x,y,1/2-z
-x,-y,-z
x,-y,1/2+z
loop_
_atom_site_type_symbol
_atom_site_label
_atom_site_fract_x
_atom_site_fract_y
_atom_site_fract_z
Si Si1 0.645722 0.019077 0.073207
Si Si2 0.113499 0.838931 0.954285
Si Si3 0.761460 0.229200 0.538519
Si Si4 0.000000 0.438501 0.250000
Si Si5 0.520619 0.207763 0.677543
Si Si6 0.782073 0.066360 0.332411
Si Si7 0.302263 0.451535 0.150673
O O1 0.762619 0.055553 0.227896
O O2 0.686794 0.821797 0.056258
O O3 0.612025 0.179868 0.979489
O O4 0.500000 0.000000 0.000000
O O5 0.994466 0.715999 0.816849
O O6 0.167054 0.023531 0.941851
O O7 0.219018 0.650493 0.054292
O O8 0.103739 0.944574 0.028320
O O9 0.664711 0.314710 0.395846
O O10 0.873247 0.405560 0.642439
O O11 0.500000 0.180661 0.750000
O O12 0.574739 0.440536 0.708784
O O13 0.638678 0.042865 0.747421
O O14 0.781734 0.302116 0.361126
#
# Coordination Sequence:
#
# PCOD9228067 Si02
#       7
#     4   4   4   2   4   4   4
#     4  10  21  36  55  84 126 163 187 231 300 365
#     4   9  18  36  59  86 112 142 196 253 292 340
#     4  10  20  38  60  86 117 151 198 253 300 343
#     4  10  20  36  68  90 102 146 210 262 298 338
#     4  10  19  32  51  79 112 155 205 243 277 335
#     4   9  19  35  52  77 121 156 184 235 297 354
#     4   9  18  32  55  79 108 154 199 240 287 342
#
# _framework density 23.227395999999999
#
# number of rings (size 3 to 8) (size 9 to 14) (size 15 to 20)
#    0.000    2.462    0.000    3.231    0.000    3.692 
#    0.000   13.077    0.000   12.923    0.000    0.000 
#    0.000    0.000    0.000    0.000    0.000    0.000 
#
# Total GULP energy -144954.515048 kJ/mol
# GULP energy per Si atom -5575.173656 kJ/mol
# Density = 2.317453 g / cm^3
# Si number density = 23.227396 Si / 1000 Ang^3
#
#
#
# Elastic Constant Matrix: (Units=GPa)
#
#
# Indices 1 2 3 4 5 6 
#
# 1 78.2164 33.8777 23.0065 0.0000 -25.8952 0.0000
# 2 33.8777 138.5072 61.7021 0.0000 -8.6931 0.0000
# 3 23.0065 61.7021 156.2003 0.0000 -38.5504 0.0000
# 4 0.0000 0.0000 0.0000 31.3441 0.0000 9.6310
# 5 -25.8952 -8.6931 -38.5504 0.0000 31.8104 0.0000
# 6 0.0000 0.0000 0.0000 9.6310 0.0000 12.8202
#
#
#
# Elastic Compliance Matrix: (Units=1/GPa)
#
#
# Indices 1 2 3 4 5 6 
#
# 1 0.020795 -0.005692 0.004251 0.000000 0.020524 0.000000
# 2 -0.005692 0.010469 -0.005328 0.000000 -0.008230 0.000000
# 3 0.004251 -0.005328 0.011949 0.000000 0.016485 0.000000
# 4 0.000000 0.000000 0.000000 0.041478 0.000000 -0.031160
# 5 0.020524 -0.008230 0.016485 0.000000 0.065873 0.000000
# 6 0.000000 0.000000 0.000000 -0.031160 0.000000 0.101410
#
#
# Mechanical properties :
#
#
# Convention : Reuss Voigt Hill
#
# Bulk Modulus (GPa) = 33.69831 67.78850 50.74341
# Shear Modulus (GPa) = 18.15506 32.15079 25.15292
#
# Velocity S-wave (km/s) = 2.79878 3.72449 3.29431
# Velocity P-wave (km/s) = 4.99838 6.90969 6.03024
#
# Compressibility (1/GPa) = 0.02967508
#
# Stress axis : x y z
#
# Youngs Moduli (GPa) = 48.08867 95.51906 83.68681
#
# Poissons Ratio (x) = 0.54368 -0.35574
# Poissons Ratio (y) = 0.27371 0.44590
# Poissons Ratio (z) = -0.20442 0.50895
#
# Static dielectric constant tensor:
#      x y z
#    x 1.907090 0.000000 0.025140 
#    y 0.000000 1.872700 0.000000 
#    z 0.025140 0.000000 1.969050 
# 
# From -- ./inp_files/70326.got.cif
#   From: 2010.05.17/outbox.cif.g08.bks.cpg/sg13_36_cif.got.tgz:70326.got - 2010.06.03 16:44:36.
