data_PCOD9228001
_publ_section_title
;
Structure prediction by ZEFSAII (Michael W. Deem and Ramdas Pophale) SiO2 
 PCOD9228001
Probable space group: P 2/C
;
_chemical_formula_sum "Si O2"
_cell_formula_units_Z 32
_cell_length_a 9.008422
_cell_length_b 22.503092
_cell_length_c 13.436531
_cell_angle_alpha 90.000000
_cell_angle_beta 47.898786
_cell_angle_gamma 90.000000
_cell_volume 2020.968417
_symmetry_space_group_name_H-M "P 2/C"
_symmetry_group_IT_number 13
_symmetry_cell_setting 'monoclinic'
loop_
_space_group_symop_operation_xyz
x,y,z
-x,y,1/2-z
-x,-y,-z
x,-y,1/2+z
loop_
_atom_site_type_symbol
_atom_site_label
_atom_site_fract_x
_atom_site_fract_y
_atom_site_fract_z
Si Si1 0.678299 0.601154 0.750000
Si Si2 0.099112 0.630111 0.472535
Si Si3 0.821778 0.044845 0.598942
Si Si4 0.544182 0.630111 0.027465
Si Si5 0.319873 0.536424 0.250000
Si Si6 0.676760 0.271584 0.750000
Si Si7 0.823533 0.856122 0.250000
Si Si8 0.519661 0.044845 0.901059
O O1 0.500000 0.603198 0.750000
O O2 0.727306 0.531687 0.750000
O O3 0.877087 0.629858 0.614697
O O4 0.606481 0.629859 0.885303
O O5 0.258933 0.626590 0.491067
O O6 0.141794 0.573390 0.381829
O O7 0.161664 0.687434 0.379709
O O8 0.116942 0.893157 0.376356
O O9 0.671339 0.018288 0.750000
O O10 0.689565 0.055457 0.560435
O O11 0.000000 0.000000 0.500000
O O12 0.405453 0.573389 0.118170
O O13 0.421081 0.687434 0.120292
O O14 0.500000 0.537754 0.250000
O O15 0.500000 0.259036 0.750000
O O16 0.765681 0.210670 0.750000
O O17 0.630346 0.893157 0.376356
O O18 0.000000 0.859442 0.250000
O O19 0.500000 0.000000 0.000000
#
# Coordination Sequence:
#
# PCOD9228001 Si02
#       8
#     4   4   4   4   4   4   4   4
#     4  11  20  29  45  72 104 125 152 203 256 300
#     4   9  18  33  52  69  92 129 167 202 246 298
#     4   9  18  31  51  78 108 137 168 202 240 287
#     4   9  18  33  52  69  92 129 167 202 246 298
#     4   8  16  31  49  71  94 124 164 203 244 298
#     4   9  18  35  55  71  90 124 174 215 240 286
#     4  10  19  31  53  78 104 135 166 203 250 296
#     4   9  18  31  51  78 108 137 168 202 240 287
#
# _framework density 15.833993
#
# number of rings (size 3 to 8) (size 9 to 14) (size 15 to 20)
#    0.750    2.000    0.000    4.125    0.000    1.000 
#    0.000    3.125    2.750    0.000    0.000    0.000 
#    0.000    0.000    0.000    0.000    0.000    0.000 
#
# Total GULP energy -178137.095142 kJ/mol
# GULP energy per Si atom -5566.784223 kJ/mol
# Density = 1.579795 g / cm^3
# Si number density = 15.833993 Si / 1000 Ang^3
#
#
#
# Elastic Constant Matrix: (Units=GPa)
#
#
# Indices 1 2 3 4 5 6 
#
# 1 98.5002 71.3567 58.1713 0.0000 -0.1725 0.0000
# 2 71.3567 109.2629 52.9400 0.0000 1.2425 0.0000
# 3 58.1713 52.9400 115.0655 0.0000 -0.9459 0.0000
# 4 0.0000 0.0000 0.0000 8.9394 0.0000 1.2216
# 5 -0.1725 1.2425 -0.9459 0.0000 21.4933 0.0000
# 6 0.0000 0.0000 0.0000 1.2216 0.0000 27.0420
#
#
#
# Elastic Compliance Matrix: (Units=1/GPa)
#
#
# Indices 1 2 3 4 5 6 
#
# 1 0.021903 -0.011515 -0.005770 0.000000 0.000588 0.000000
# 2 -0.011515 0.017850 -0.002401 0.000000 -0.001230 0.000000
# 3 -0.005770 -0.002401 0.012718 0.000000 0.000652 0.000000
# 4 0.000000 0.000000 0.000000 0.112559 0.000000 -0.005085
# 5 0.000588 -0.001230 0.000652 0.000000 0.046631 0.000000
# 6 0.000000 0.000000 0.000000 -0.005085 0.000000 0.037209
#
#
# Mechanical properties :
#
#
# Convention : Reuss Voigt Hill
#
# Bulk Modulus (GPa) = 76.34896 76.41830 76.38363
# Shear Modulus (GPa) = 17.08767 20.85231 18.96999
#
# Velocity S-wave (km/s) = 3.28865 3.63289 3.46505
# Velocity P-wave (km/s) = 7.92107 8.12183 8.02208
#
# Compressibility (1/GPa) = 0.01309776
#
# Stress axis : x y z
#
# Youngs Moduli (GPa) = 45.65598 56.02303 78.62915
#
# Poissons Ratio (x) = 0.64511 0.45371
# Poissons Ratio (y) = 0.52573 0.18880
# Poissons Ratio (z) = 0.26345 0.13452
#
# Static dielectric constant tensor:
#      x y z
#    x 1.529140 0.000000 0.000870 
#    y 0.000000 1.511430 0.000000 
#    z 0.000870 0.000000 1.516320 
# 
# From -- ./inp_files/30801.got.cif
#   From: 2010.05.17/outbox.cif.g08.bks.cpg/sg13_16_cif.got.tgz:30801.got - 2010.06.03 16:44:36.
