data_PCOD9228964
_publ_section_title
;
Structure prediction by ZEFSAII (Michael W. Deem and Ramdas Pophale) SiO2 
 PCOD9228964
Probable space group: P 2/C
;
_chemical_formula_sum "Si O2"
_cell_formula_units_Z 32
_cell_length_a 11.838165
_cell_length_b 8.219394
_cell_length_c 14.798491
_cell_angle_alpha 90.000000
_cell_angle_beta 86.889311
_cell_angle_gamma 90.000000
_cell_volume 1437.809152
_symmetry_space_group_name_H-M "P 2/C"
_symmetry_group_IT_number 13
_symmetry_cell_setting 'monoclinic'
loop_
_space_group_symop_operation_xyz
x,y,z
-x,y,1/2-z
-x,-y,-z
x,-y,1/2+z
loop_
_atom_site_type_symbol
_atom_site_label
_atom_site_fract_x
_atom_site_fract_y
_atom_site_fract_z
Si Si1 0.626694 0.578206 0.779577
Si Si2 0.126371 0.536644 0.767065
Si Si3 0.352219 0.827220 0.015857
Si Si4 0.838693 0.589006 0.431423
Si Si5 0.377958 0.182775 0.719823
Si Si6 0.423428 0.660809 0.519418
Si Si7 0.731056 0.122147 0.595791
Si Si8 0.925267 0.681442 0.053598
O O1 0.500000 0.631206 0.750000
O O2 0.748309 0.622102 0.727130
O O3 0.619158 0.380555 0.780803
O O4 0.636650 0.639473 0.882206
O O5 0.152787 0.426864 0.676911
O O6 0.104112 0.430736 0.857633
O O7 0.000000 0.613262 0.750000
O O8 0.275276 0.664007 0.023604
O O9 0.354924 0.878705 0.120627
O O10 0.479101 0.794663 0.979656
O O11 0.304881 0.961361 0.952607
O O12 0.874825 0.416333 0.471155
O O13 0.941765 0.701676 0.458839
O O14 0.500000 0.127684 0.750000
O O15 0.290063 0.122863 0.797323
O O16 0.500000 0.500000 0.500000
O O17 0.341788 0.724915 0.443266
O O18 0.860208 0.153945 0.568770
#
# Coordination Sequence:
#
# PCOD9228964 Si02
#       8
#     4   4   4   4   4   4   4   4
#     4  11  21  36  62  96 122 163 215 264 316 382
#     4  10  19  36  62  92 123 163 211 258 317 385
#     4  12  24  40  62  93 129 170 208 269 320 387
#     4  10  21  39  63  93 122 162 220 265 312 378
#     4  11  21  40  63  83 123 171 212 250 317 391
#     4  12  22  39  64  90 125 162 214 264 318 376
#     4  12  24  40  63  91 129 169 211 260 331 384
#     4  10  21  38  66  90 121 166 214 268 315 378
#
# _framework density 22.256080999999998
#
# number of rings (size 3 to 8) (size 9 to 14) (size 15 to 20)
#    0.000    1.000    5.000    2.625    1.750    0.500 
#    2.250    1.250    0.000    0.000    0.000    0.000 
#    0.000    0.000    0.000    0.000    0.000    0.000 
#
# Total GULP energy -178614.374843 kJ/mol
# GULP energy per Si atom -5581.699214 kJ/mol
# Density = 2.220543 g / cm^3
# Si number density = 22.256081 Si / 1000 Ang^3
#
#
#
# Elastic Constant Matrix: (Units=GPa)
#
#
# Indices 1 2 3 4 5 6 
#
# 1 137.8783 -2.7653 -7.4570 0.0000 -6.0797 0.0000
# 2 -2.7653 12.2769 16.7303 0.0000 -3.3669 0.0000
# 3 -7.4570 16.7303 95.0154 0.0000 -0.5139 0.0000
# 4 0.0000 0.0000 0.0000 12.3139 0.0000 10.8177
# 5 -6.0797 -3.3669 -0.5139 0.0000 32.1240 0.0000
# 6 0.0000 0.0000 0.0000 10.8177 0.0000 19.8265
#
#
#
# Elastic Compliance Matrix: (Units=1/GPa)
#
#
# Indices 1 2 3 4 5 6 
#
# 1 0.007372 0.001701 0.000288 0.000000 0.001578 0.000000
# 2 0.001701 0.111543 -0.019444 0.000000 0.011702 0.000000
# 3 0.000288 -0.019444 0.013961 0.000000 -0.001760 0.000000
# 4 0.000000 0.000000 0.000000 0.155966 0.000000 -0.085098
# 5 0.001578 0.011702 -0.001760 0.000000 0.032626 0.000000
# 6 0.000000 0.000000 0.000000 -0.085098 0.000000 0.096868
#
#
# Mechanical properties :
#
#
# Convention : Reuss Voigt Hill
#
# Bulk Modulus (GPa) = 10.20754 28.68741 19.44747
# Shear Modulus (GPa) = 10.29014 28.76372 19.52693
#
# Velocity S-wave (km/s) = 2.15257 3.59889 2.96527
# Velocity P-wave (km/s) = 3.28244 5.49428 4.52557
#
# Compressibility (1/GPa) = 0.09796681
#
# Stress axis : x y z
#
# Youngs Moduli (GPa) = 135.64778 8.96518 71.62670
#
# Poissons Ratio (x) = -0.01525 -0.02059
# Poissons Ratio (y) = -0.23080 1.39268
# Poissons Ratio (z) = -0.03900 0.17432
#
# Static dielectric constant tensor:
#      x y z
#    x 1.880530 0.000000 0.034460 
#    y 0.000000 1.816890 0.000000 
#    z 0.034460 0.000000 1.809990 
# 
# From -- ./inp_files/50368.got.cif
#   From: 2010.05.17/outbox.cif.g08.bks.cpg/sg13_26_cif.got.tgz:50368.got - 2010.06.03 16:44:36.
