data_PCOD9228606
_publ_section_title
;
Structure prediction by ZEFSAII (Michael W. Deem and Ramdas Pophale) SiO2 
 PCOD9228606
Probable space group: P 2/C
;
_chemical_formula_sum "Si O2"
_cell_formula_units_Z 24
_cell_length_a 11.053619
_cell_length_b 22.375865
_cell_length_c 11.682728
_cell_angle_alpha 90.000000
_cell_angle_beta 25.005309
_cell_angle_gamma 90.000000
_cell_volume 1221.414684
_symmetry_space_group_name_H-M "P 2/C"
_symmetry_group_IT_number 13
_symmetry_cell_setting 'monoclinic'
loop_
_space_group_symop_operation_xyz
x,y,z
-x,y,1/2-z
-x,-y,-z
x,-y,1/2+z
loop_
_atom_site_type_symbol
_atom_site_label
_atom_site_fract_x
_atom_site_fract_y
_atom_site_fract_z
Si Si1 0.000000 0.677546 0.750000
Si Si2 0.877142 0.442464 0.735951
Si Si3 0.500000 0.052045 0.750000
Si Si4 0.258604 0.127916 0.362868
Si Si5 0.237663 0.420596 0.212105
Si Si6 0.348188 0.854996 0.194418
Si Si7 0.000000 0.028198 0.750000
Si Si8 0.500000 0.239840 0.750000
O O1 0.173108 0.633209 0.683799
O O2 0.221204 0.719024 0.493458
O O3 0.866679 0.515051 0.746284
O O4 0.000000 0.421727 0.750000
O O5 0.074519 0.415851 0.469976
O O6 0.564404 0.424353 0.966136
O O7 0.676479 0.092776 0.688401
O O8 0.720220 0.013651 0.483994
O O9 0.500000 0.147546 0.250000
O O10 0.102429 0.070249 0.556333
O O11 0.967491 0.163513 0.580576
O O12 0.446353 0.123556 0.085715
O O13 0.489907 0.801459 0.145489
#
# Coordination Sequence:
#
# PCOD9228606 Si02
#       8
#     2   4   2   4   4   4   2   2
#     4  12  22  43  64  94 124 147 212 268 304 350
#     4  10  19  35  55  89 130 167 202 224 284 384
#     4  11  24  38  58  92 130 162 200 245 306 372
#     4  12  22  42  62  90 124 159 203 244 304 382
#     4  10  21  33  59  89 122 168 196 243 301 339
#     4  11  24  43  64  86 120 165 207 255 307 363
#     4  12  22  39  56 102 122 161 198 234 326 360
#     4  11  26  44  70  90 112 156 212 273 316 344
#
# _framework density 19.649345
#
# number of rings (size 3 to 8) (size 9 to 14) (size 15 to 20)
#    0.000    1.000    3.333    3.500    0.000    6.667 
#    0.000    0.000    0.000   20.000    0.000    0.000 
#    0.000    0.000    0.000    0.000    0.000    0.000 
#
# Total GULP energy -133788.381575 kJ/mol
# GULP energy per Si atom -5574.515899 kJ/mol
# Density = 1.960462 g / cm^3
# Si number density = 19.649345 Si / 1000 Ang^3
#
#
#
# Elastic Constant Matrix: (Units=GPa)
#
#
# Indices 1 2 3 4 5 6 
#
# 1 154.7820 45.4209 77.6341 0.0000 -20.2530 0.0000
# 2 45.4209 72.4025 38.0737 0.0000 -8.4077 0.0000
# 3 77.6341 38.0737 193.3103 0.0000 -33.7090 0.0000
# 4 0.0000 0.0000 0.0000 33.3407 0.0000 -20.0432
# 5 -20.2530 -8.4077 -33.7090 0.0000 65.1633 0.0000
# 6 0.0000 0.0000 0.0000 -20.0432 0.0000 -0.4321
#
#
#
# Elastic Compliance Matrix: (Units=1/GPa)
#
#
# Indices 1 2 3 4 5 6 
#
# 1 0.009172 -0.004233 -0.002691 0.000000 0.000913 0.000000
# 2 -0.004233 0.017374 -0.001715 0.000000 0.000039 0.000000
# 3 -0.002691 -0.001715 0.007042 0.000000 0.002585 0.000000
# 4 0.000000 0.000000 0.000000 0.001038 0.000000 -0.048165
# 5 0.000913 0.000039 0.002585 0.000000 0.016972 0.000000
# 6 0.000000 0.000000 0.000000 -0.048165 0.000000 -0.080120
#
#
# Mechanical properties :
#
#
# Convention : Reuss Voigt Hill
#
# Bulk Modulus (GPa) = 61.31093 82.52802 71.91948
# Shear Modulus (GPa) = -860.96406 36.90547 -412.02929
#
# Velocity S-wave (km/s) = -20.95508 4.33853 -14.49642
# Velocity P-wave (km/s) = 23.54181 8.19687 15.60494
#
# Compressibility (1/GPa) = 0.01631031
#
# Stress axis : x y z
#
# Youngs Moduli (GPa) = 109.02990 57.55860 142.00093
#
# Poissons Ratio (x) = 0.24364 0.38206
# Poissons Ratio (y) = 0.46152 0.24355
# Poissons Ratio (z) = 0.29335 0.09872
#
# Static dielectric constant tensor:
#      x y z
#    x 1.759590 0.000000 -0.064070 
#    y 0.000000 1.691100 0.000000 
#    z -0.064070 0.000000 1.717940 
# 
# From -- ./inp_files/34907.got.cif
#   From: 2010.05.17/outbox.cif.g08.bks.cpg/sg13_18_cif.got.tgz:34907.got - 2010.06.03 16:44:36.
