data_PCOD9228337
_publ_section_title
;
Structure prediction by ZEFSAII (Michael W. Deem and Ramdas Pophale) SiO2 
 PCOD9228337
Probable space group: P 2/C
;
_chemical_formula_sum "Si O2"
_cell_formula_units_Z 24
_cell_length_a 20.894949
_cell_length_b 5.321688
_cell_length_c 15.479724
_cell_angle_alpha 90.000000
_cell_angle_beta 38.052068
_cell_angle_gamma 90.000000
_cell_volume 1060.963874
_symmetry_space_group_name_H-M "P 2/C"
_symmetry_group_IT_number 13
_symmetry_cell_setting 'monoclinic'
loop_
_space_group_symop_operation_xyz
x,y,z
-x,y,1/2-z
-x,-y,-z
x,-y,1/2+z
loop_
_atom_site_type_symbol
_atom_site_label
_atom_site_fract_x
_atom_site_fract_y
_atom_site_fract_z
Si Si1 0.770904 0.040095 0.319780
Si Si2 0.882700 0.750953 0.852228
Si Si3 0.299802 0.534264 0.027027
Si Si4 0.432279 0.615305 0.223980
Si Si5 0.535200 0.115349 0.371951
Si Si6 0.252107 0.075155 0.847497
O O1 0.704020 0.811295 0.430034
O O2 0.795228 0.965951 0.196153
O O3 0.867992 0.084443 0.280643
O O4 0.709912 0.305138 0.393777
O O5 0.809441 0.512128 0.909129
O O6 0.000000 0.691266 0.750000
O O7 0.828212 0.894696 0.989916
O O8 0.386861 0.477779 0.863046
O O9 0.499983 0.396325 0.108998
O O10 0.332325 0.689959 0.270368
O O11 0.486802 0.887724 0.169832
O O12 0.500000 0.000000 0.500000
O O13 0.660871 0.139428 0.232192
#
# Coordination Sequence:
#
# PCOD9228337 Si02
#       6
#     4   4   4   4   4   4
#     4  10  20  35  57  83 112 149 190 234 277 340
#     4   9  20  38  58  83 115 151 188 235 286 340
#     4   9  19  36  53  79 111 147 187 228 276 333
#     4   9  18  33  56  78 111 150 182 224 280 331
#     4  10  19  33  58  87 112 145 192 227 281 341
#     4   9  21  34  59  84 112 152 189 231 287 336
#
# _framework density 22.620940999999998
#
# number of rings (size 3 to 8) (size 9 to 14) (size 15 to 20)
#    2.000    0.667    0.000    2.500    2.333    1.333 
#    0.000    0.833    0.000   11.000    0.000    0.000 
#    0.000    0.000    0.000    0.000    0.000    0.000 
#
# Total GULP energy -133734.282273 kJ/mol
# GULP energy per Si atom -5572.261761 kJ/mol
# Density = 2.256945 g / cm^3
# Si number density = 22.620941 Si / 1000 Ang^3
#
#
#
# Elastic Constant Matrix: (Units=GPa)
#
#
# Indices 1 2 3 4 5 6 
#
# 1 94.1710 16.6183 37.3730 0.0000 4.8739 0.0000
# 2 16.6183 139.2763 10.4474 0.0000 19.5483 0.0000
# 3 37.3730 10.4474 68.4086 0.0000 15.8029 0.0000
# 4 0.0000 0.0000 0.0000 23.0860 0.0000 3.4709
# 5 4.8739 19.5483 15.8029 0.0000 48.3825 0.0000
# 6 0.0000 0.0000 0.0000 3.4709 0.0000 18.2637
#
#
#
# Elastic Compliance Matrix: (Units=1/GPa)
#
#
# Indices 1 2 3 4 5 6 
#
# 1 0.013836 -0.001303 -0.007744 0.000000 0.001662 0.000000
# 2 -0.001303 0.007750 0.000240 0.000000 -0.003078 0.000000
# 3 -0.007744 0.000240 0.020177 0.000000 -0.005907 0.000000
# 4 0.000000 0.000000 0.000000 0.044590 0.000000 -0.008474
# 5 0.001662 -0.003078 -0.005907 0.000000 0.023674 0.000000
# 6 0.000000 0.000000 0.000000 -0.008474 0.000000 0.056364
#
#
# Mechanical properties :
#
#
# Convention : Reuss Voigt Hill
#
# Bulk Modulus (GPa) = 41.41292 47.85927 44.63609
# Shear Modulus (GPa) = 26.03420 33.77426 29.90423
#
# Velocity S-wave (km/s) = 3.39616 3.86820 3.63984
# Velocity P-wave (km/s) = 5.80737 6.41511 6.11879
#
# Compressibility (1/GPa) = 0.02414705
#
# Stress axis : x y z
#
# Youngs Moduli (GPa) = 72.27406 129.03993 49.56226
#
# Poissons Ratio (x) = 0.16818 0.38381
# Poissons Ratio (y) = 0.09420 -0.01187
# Poissons Ratio (z) = 0.55968 -0.03091
#
# Static dielectric constant tensor:
#      x y z
#    x 1.952850 0.000000 0.009590 
#    y 0.000000 1.868280 0.000000 
#    z 0.009590 0.000000 1.801120 
# 
# From -- ./inp_files/59724.got.cif
#   From: 2010.05.17/outbox.cif.g08.bks.cpg/sg13_30_cif.got.tgz:59724.got - 2010.06.03 16:44:36.
