data_PCOD9228061
_publ_section_title
;
Structure prediction by ZEFSAII (Michael W. Deem and Ramdas Pophale) SiO2 
 PCOD9228061
Probable space group: P 2/C
;
_chemical_formula_sum "Si O2"
_cell_formula_units_Z 32
_cell_length_a 5.186121
_cell_length_b 13.654258
_cell_length_c 23.200970
_cell_angle_alpha 90.000000
_cell_angle_beta 90.045092
_cell_angle_gamma 90.000000
_cell_volume 1642.921292
_symmetry_space_group_name_H-M "P 2/C"
_symmetry_group_IT_number 13
_symmetry_cell_setting 'monoclinic'
loop_
_space_group_symop_operation_xyz
x,y,z
-x,y,1/2-z
-x,-y,-z
x,-y,1/2+z
loop_
_atom_site_type_symbol
_atom_site_label
_atom_site_fract_x
_atom_site_fract_y
_atom_site_fract_z
Si Si1 0.845880 0.026047 0.398737
Si Si2 0.209142 0.357273 0.057542
Si Si3 0.033657 0.784932 0.858490
Si Si4 0.328057 0.107826 0.452859
Si Si5 0.787520 0.702929 0.069015
Si Si6 0.712703 0.526352 0.587633
Si Si7 0.242280 0.619392 0.786867
Si Si8 0.706296 0.180066 0.915711
O O1 0.907224 0.108578 0.350576
O O2 0.608107 0.068607 0.435985
O O3 0.433815 0.770171 0.403932
O O4 0.772961 0.917473 0.380044
O O5 0.174928 0.288905 0.113704
O O6 0.449324 0.429452 0.062855
O O7 0.949952 0.421531 0.055293
O O8 0.230762 0.291327 0.000732
O O9 0.240957 0.804222 0.910047
O O10 0.169645 0.729738 0.806840
O O11 0.303856 0.141111 0.518172
O O12 0.109458 0.027348 0.436368
O O13 0.736932 0.589588 0.082378
O O14 0.066092 0.741082 0.087746
O O15 0.728826 0.559132 0.654210
O O16 0.500000 0.616804 0.750000
O O17 0.000000 0.582159 0.750000
#
# Coordination Sequence:
#
# PCOD9228061 Si02
#       8
#     4   4   4   4   4   4   4   4
#     4  10  21  32  53  79 116 155 190 222 265 317
#     4  11  20  36  56  81 116 155 187 225 276 346
#     4   9  22  33  60  79 118 144 185 223 294 334
#     4  10  19  32  51  77 119 155 189 220 260 324
#     4  12  23  35  54  81 119 158 193 225 271 328
#     4  11  24  39  57  81 113 146 192 237 289 341
#     4  11  24  40  62  85 110 136 185 244 298 345
#     4  12  21  34  51  83 118 160 195 225 250 329
#
# _framework density 19.477501
#
# number of rings (size 3 to 8) (size 9 to 14) (size 15 to 20)
#    0.750    0.500    1.250    6.750    7.000    0.000 
#    0.000    0.000    0.000    0.000    0.000    3.500 
#    0.000    0.000    0.000    0.000    0.000    0.000 
#
# Total GULP energy -178769.714898 kJ/mol
# GULP energy per Si atom -5586.553591 kJ/mol
# Density = 1.943317 g / cm^3
# Si number density = 19.477501 Si / 1000 Ang^3
#
#
#
# Elastic Constant Matrix: (Units=GPa)
#
#
# Indices 1 2 3 4 5 6 
#
# 1 121.3522 19.4124 14.0335 0.0000 -19.8201 0.0000
# 2 19.4124 79.0859 -2.6639 0.0000 -12.0823 0.0000
# 3 14.0335 -2.6639 30.2049 0.0000 -5.9646 0.0000
# 4 0.0000 0.0000 0.0000 9.6459 0.0000 -3.0639
# 5 -19.8201 -12.0823 -5.9646 0.0000 12.3699 0.0000
# 6 0.0000 0.0000 0.0000 -3.0639 0.0000 32.6736
#
#
#
# Elastic Compliance Matrix: (Units=1/GPa)
#
#
# Indices 1 2 3 4 5 6 
#
# 1 0.011258 -0.000251 -0.001922 0.000000 0.016865 0.000000
# 2 -0.000251 0.015474 0.004848 0.000000 0.017049 0.000000
# 3 -0.001922 0.004848 0.038412 0.000000 0.020178 0.000000
# 4 0.000000 0.000000 0.000000 0.106854 0.000000 0.010020
# 5 0.016865 0.017049 0.020178 0.000000 0.134247 0.000000
# 6 0.000000 0.000000 0.000000 0.010020 0.000000 0.031545
#
#
# Mechanical properties :
#
#
# Convention : Reuss Voigt Hill
#
# Bulk Modulus (GPa) = 14.18570 32.46746 23.32658
# Shear Modulus (GPa) = 14.04737 24.26193 19.15465
#
# Velocity S-wave (km/s) = 2.68845 3.53319 3.13936
# Velocity P-wave (km/s) = 4.11533 5.77494 5.01428
#
# Compressibility (1/GPa) = 0.07049354
#
# Stress axis : x y z
#
# Youngs Moduli (GPa) = 88.82936 64.62370 26.03333
#
# Poissons Ratio (x) = 0.01625 0.05004
# Poissons Ratio (y) = 0.02233 -0.12622
# Poissons Ratio (z) = 0.17074 -0.31331
#
# Static dielectric constant tensor:
#      x y z
#    x 1.701560 0.000000 0.008210 
#    y 0.000000 1.726670 0.000000 
#    z 0.008210 0.000000 1.672890 
# 
# From -- ./inp_files/83706.got.cif
#   From: 2010.05.17/outbox.cif.g08.bks.cpg/sg13_42_cif.got.tgz:83706.got - 2010.06.03 16:44:36.
