data_PCOD9228355
_publ_section_title
;
Structure prediction by ZEFSAII (Michael W. Deem and Ramdas Pophale) SiO2 
 PCOD9228355
Probable space group: P 2/C
;
_chemical_formula_sum "Si O2"
_cell_formula_units_Z 28
_cell_length_a 18.782667
_cell_length_b 5.464752
_cell_length_c 14.399679
_cell_angle_alpha 90.000000
_cell_angle_beta 71.124482
_cell_angle_gamma 90.000000
_cell_volume 1398.538221
_symmetry_space_group_name_H-M "P 2/C"
_symmetry_group_IT_number 13
_symmetry_cell_setting 'monoclinic'
loop_
_space_group_symop_operation_xyz
x,y,z
-x,y,1/2-z
-x,-y,-z
x,-y,1/2+z
loop_
_atom_site_type_symbol
_atom_site_label
_atom_site_fract_x
_atom_site_fract_y
_atom_site_fract_z
Si Si1 0.410788 0.720383 0.779711
Si Si2 0.307220 0.943607 0.963620
Si Si3 0.814276 0.428685 0.700300
Si Si4 0.827593 0.416418 0.989952
Si Si5 0.221579 0.804930 0.642338
Si Si6 0.914925 0.821897 0.304908
Si Si7 0.663018 0.212276 0.724827
O O1 0.500000 0.718237 0.750000
O O2 0.372887 0.764902 0.898248
O O3 0.381429 0.466880 0.748347
O O4 0.382538 0.963121 0.736196
O O5 0.229961 0.807205 0.969231
O O6 0.319885 0.176433 0.892234
O O7 0.291409 0.035063 0.074258
O O8 0.838353 0.457654 0.584050
O O9 0.778369 0.676251 0.757987
O O10 0.882914 0.349935 0.736161
O O11 0.744894 0.238987 0.735871
O O12 0.788519 0.587891 0.929219
O O13 0.902093 0.316908 0.907913
O O14 0.144535 0.957847 0.668733
O O15 0.000000 0.892913 0.250000
#
# Coordination Sequence:
#
# PCOD9228355 Si02
#       7
#     4   4   4   4   4   4   4
#     4  10  19  33  60  94 130 166 203 256 314 370
#     4   9  18  35  60  89 121 155 210 259 300 376
#     4  11  21  37  66  87 117 167 213 264 307 370
#     4  10  19  40  61  87 118 160 212 255 313 378
#     4  10  21  36  61  86 121 160 207 264 316 373
#     4  10  25  39  56  90 125 159 207 263 326 374
#     4  10  20  34  63  91 125 159 219 248 306 374
#
# _framework density 20.020903000000001
#
# number of rings (size 3 to 8) (size 9 to 14) (size 15 to 20)
#    0.857    1.143    2.857    0.429    4.000    2.857 
#    0.000    1.429    0.000    1.714    0.000    0.000 
#    0.000    0.000    0.000    0.000    0.000    0.000 
#
# Total GULP energy -155901.353879 kJ/mol
# GULP energy per Si atom -5567.905496 kJ/mol
# Density = 1.997534 g / cm^3
# Si number density = 20.020903 Si / 1000 Ang^3
#
#
#
# Elastic Constant Matrix: (Units=GPa)
#
#
# Indices 1 2 3 4 5 6 
#
# 1 83.0297 18.5834 21.5020 0.0000 -19.8619 0.0000
# 2 18.5834 90.1043 5.4718 0.0000 -2.8294 0.0000
# 3 21.5020 5.4718 80.8945 0.0000 -0.7373 0.0000
# 4 0.0000 0.0000 0.0000 22.4642 0.0000 -0.3159
# 5 -19.8619 -2.8294 -0.7373 0.0000 29.6620 0.0000
# 6 0.0000 0.0000 0.0000 -0.3159 0.0000 20.8187
#
#
#
# Elastic Compliance Matrix: (Units=1/GPa)
#
#
# Indices 1 2 3 4 5 6 
#
# 1 0.016218 -0.002771 -0.004028 0.000000 0.010495 0.000000
# 2 -0.002771 0.011650 -0.000058 0.000000 -0.000745 0.000000
# 3 -0.004028 -0.000058 0.013415 0.000000 -0.002369 0.000000
# 4 0.000000 0.000000 0.000000 0.044525 0.000000 0.000676
# 5 0.010495 -0.000745 -0.002369 0.000000 0.040611 0.000000
# 6 0.000000 0.000000 0.000000 0.000676 0.000000 0.048044
#
#
# Mechanical properties :
#
#
# Convention : Reuss Voigt Hill
#
# Bulk Modulus (GPa) = 36.27282 38.34923 37.31103
# Shear Modulus (GPa) = 25.33388 28.48708 26.91048
#
# Velocity S-wave (km/s) = 3.56106 3.77618 3.67020
# Velocity P-wave (km/s) = 5.92157 6.18134 6.05285
#
# Compressibility (1/GPa) = 0.02756885
#
# Stress axis : x y z
#
# Youngs Moduli (GPa) = 61.66152 85.83832 74.54519
#
# Poissons Ratio (x) = 0.23783 0.30024
# Poissons Ratio (y) = 0.17084 0.00435
# Poissons Ratio (z) = 0.24835 0.00501
#
# Static dielectric constant tensor:
#      x y z
#    x 1.677220 0.000000 0.023690 
#    y 0.000000 1.792290 0.000000 
#    z 0.023690 0.000000 1.731510 
# 
# From -- ./inp_files/56244.got.cif
#   From: 2010.05.17/outbox.cif.g08.bks.cpg/sg13_29_cif.got.tgz:56244.got - 2010.06.03 16:44:36.
