data_PCOD9228900
_publ_section_title
;
Structure prediction by ZEFSAII (Michael W. Deem and Ramdas Pophale) SiO2 
 PCOD9228900
Probable space group: P 2/C
;
_chemical_formula_sum "Si O2"
_cell_formula_units_Z 30
_cell_length_a 12.521486
_cell_length_b 13.871036
_cell_length_c 10.743097
_cell_angle_alpha 90.000000
_cell_angle_beta 123.743740
_cell_angle_gamma 90.000000
_cell_volume 1551.573492
_symmetry_space_group_name_H-M "P 2/C"
_symmetry_group_IT_number 13
_symmetry_cell_setting 'monoclinic'
loop_
_space_group_symop_operation_xyz
x,y,z
-x,y,1/2-z
-x,-y,-z
x,-y,1/2+z
loop_
_atom_site_type_symbol
_atom_site_label
_atom_site_fract_x
_atom_site_fract_y
_atom_site_fract_z
Si Si1 0.095832 0.129611 0.953923
Si Si2 0.919550 0.405987 0.826069
Si Si3 0.000000 0.050748 0.250000
Si Si4 0.355656 0.127492 0.677582
Si Si5 0.091850 0.376457 0.187806
Si Si6 0.235792 0.816489 0.849255
Si Si7 0.166138 0.791266 0.230429
Si Si8 0.370691 0.899940 0.731725
O O1 0.130621 0.180191 0.846470
O O2 0.965632 0.175191 0.924532
O O3 0.060980 0.020134 0.893297
O O4 0.229968 0.141246 0.108888
O O5 0.860007 0.512548 0.779656
O O6 0.815939 0.321983 0.766738
O O7 0.000000 0.393351 0.750000
O O8 0.010707 0.383561 0.005332
O O9 0.888980 0.114413 0.237874
O O10 0.500000 0.160960 0.750000
O O11 0.268795 0.179786 0.517585
O O12 0.289509 0.153446 0.764299
O O13 0.359125 0.011019 0.681655
O O14 0.194166 0.289366 0.271014
O O15 0.000000 0.365351 0.250000
O O16 0.361043 0.870691 0.870306
O O17 0.500000 0.862331 0.750000
#
# Coordination Sequence:
#
# PCOD9228900 Si02
#       8
#     4   4   2   4   4   4   4   4
#     4  10  20  35  57  88 113 152 195 247 294 351
#     4  10  19  36  59  95 125 156 193 255 313 369
#     4  10  20  34  54  86 118 146 188 254 292 360
#     4  11  26  40  60  84 120 169 208 250 302 369
#     4  10  21  35  60  92 129 155 196 250 318 371
#     4  12  23  38  60  87 123 160 202 251 316 359
#     4  10  20  36  61  84 117 150 200 247 301 357
#     4  11  25  38  57  82 124 162 205 244 293 359
#
# _framework density 19.33521
#
# number of rings (size 3 to 8) (size 9 to 14) (size 15 to 20)
#    0.000    1.600    3.333    3.200    3.733    2.133 
#    0.000    0.000    0.000    1.600    0.000    0.000 
#    0.000    0.000    0.000    0.000    0.000    0.000 
#
# Total GULP energy -167027.733536 kJ/mol
# GULP energy per Si atom -5567.591118 kJ/mol
# Density = 1.929120 g / cm^3
# Si number density = 19.335210 Si / 1000 Ang^3
#
#
#
# Elastic Constant Matrix: (Units=GPa)
#
#
# Indices 1 2 3 4 5 6 
#
# 1 124.7030 30.9518 9.6919 0.0000 6.5034 0.0000
# 2 30.9518 113.1846 18.8784 0.0000 8.1496 0.0000
# 3 9.6919 18.8784 42.3105 0.0000 -6.6800 0.0000
# 4 0.0000 0.0000 0.0000 19.1966 0.0000 -15.7846
# 5 6.5034 8.1496 -6.6800 0.0000 25.3862 0.0000
# 6 0.0000 0.0000 0.0000 -15.7846 0.0000 65.7965
#
#
#
# Elastic Compliance Matrix: (Units=1/GPa)
#
#
# Indices 1 2 3 4 5 6 
#
# 1 0.008730 -0.002010 -0.001413 0.000000 -0.001963 0.000000
# 2 -0.002010 0.010496 -0.004876 0.000000 -0.004137 0.000000
# 3 -0.001413 -0.004876 0.027584 0.000000 0.009186 0.000000
# 4 0.000000 0.000000 0.000000 0.064893 0.000000 0.015568
# 5 -0.001963 -0.004137 0.009186 0.000000 0.043640 0.000000
# 6 0.000000 0.000000 0.000000 0.015568 0.000000 0.018933
#
#
# Mechanical properties :
#
#
# Convention : Reuss Voigt Hill
#
# Bulk Modulus (GPa) = 33.09895 44.36025 38.72960
# Shear Modulus (GPa) = 24.88237 36.78760 30.83499
#
# Velocity S-wave (km/s) = 3.59122 4.36664 3.99777
# Velocity P-wave (km/s) = 5.86101 6.95815 6.43302
#
# Compressibility (1/GPa) = 0.03021244
#
# Stress axis : x y z
#
# Youngs Moduli (GPa) = 114.54485 95.27364 36.25266
#
# Poissons Ratio (x) = 0.19154 0.05121
# Poissons Ratio (y) = 0.23029 0.17677
# Poissons Ratio (z) = 0.16181 0.46455
#
# Static dielectric constant tensor:
#      x y z
#    x 1.876480 0.000000 -0.119170 
#    y 0.000000 1.707280 0.000000 
#    z -0.119170 0.000000 2.036320 
# 
# From -- ./inp_files/34411.got.cif
#   From: 2010.05.17/outbox.cif.g08.bks.cpg/sg13_18_cif.got.tgz:34411.got - 2010.06.03 16:44:36.
