data_PCOD9228598
_publ_section_title
;
Structure prediction by ZEFSAII (Michael W. Deem and Ramdas Pophale) SiO2 
 PCOD9228598
Probable space group: P 2/C
;
_chemical_formula_sum "Si O2"
_cell_formula_units_Z 22
_cell_length_a 11.691729
_cell_length_b 6.676126
_cell_length_c 14.631296
_cell_angle_alpha 90.000000
_cell_angle_beta 87.559045
_cell_angle_gamma 90.000000
_cell_volume 1141.016230
_symmetry_space_group_name_H-M "P 2/C"
_symmetry_group_IT_number 13
_symmetry_cell_setting 'monoclinic'
loop_
_space_group_symop_operation_xyz
x,y,z
-x,y,1/2-z
-x,-y,-z
x,-y,1/2+z
loop_
_atom_site_type_symbol
_atom_site_label
_atom_site_fract_x
_atom_site_fract_y
_atom_site_fract_z
Si Si1 0.329138 0.687042 0.000403
Si Si2 0.059264 0.994045 0.843624
Si Si3 0.500000 0.296440 0.250000
Si Si4 0.457346 0.639873 0.391783
Si Si5 0.064083 0.295392 0.519902
Si Si6 0.324416 0.987284 0.827943
O O1 0.431270 0.737203 0.066308
O O2 0.198659 0.679720 0.038141
O O3 0.367054 0.465811 0.963511
O O4 0.331914 0.854879 0.920752
O O5 0.192100 0.030208 0.816043
O O6 0.000000 0.937523 0.750000
O O7 0.056057 0.830756 0.925420
O O8 0.998108 0.182372 0.894432
O O9 0.499266 0.447630 0.334238
O O10 0.610709 0.154337 0.246131
O O11 0.392233 0.806464 0.336449
O O12 0.000000 0.500000 0.500000
#
# Coordination Sequence:
#
# PCOD9228598 Si02
#       6
#     4   4   2   4   4   4
#     4   9  20  35  57  83 105 142 190 223 277 340
#     4  10  23  39  58  85 115 151 193 234 284 339
#     4  10  22  32  50  82 108 140 182 218 274 338
#     4  10  19  35  55  79 111 143 177 230 279 327
#     4  10  21  39  60  84 115 152 193 238 281 335
#     4  10  20  37  55  78 113 143 178 231 280 331
#
# _framework density 19.281058000000002
#
# number of rings (size 3 to 8) (size 9 to 14) (size 15 to 20)
#    0.000    2.182    0.000    2.182    0.000    5.091 
#    0.000    3.636    0.000    0.000    0.000    0.000 
#    0.000    0.000    0.000    0.000    0.000    0.000 
#
# Total GULP energy -122678.036251 kJ/mol
# GULP energy per Si atom -5576.274375 kJ/mol
# Density = 1.923717 g / cm^3
# Si number density = 19.281058 Si / 1000 Ang^3
#
#
#
# Elastic Constant Matrix: (Units=GPa)
#
#
# Indices 1 2 3 4 5 6 
#
# 1 185.4126 58.6393 51.2934 0.0000 -10.3357 0.0000
# 2 58.6393 79.4139 11.6811 0.0000 -11.7057 0.0000
# 3 51.2934 11.6811 44.8533 0.0000 0.2103 0.0000
# 4 0.0000 0.0000 0.0000 11.2667 0.0000 -0.3884
# 5 -10.3357 -11.7057 0.2103 0.0000 32.5914 0.0000
# 6 0.0000 0.0000 0.0000 -0.3884 0.0000 19.8381
#
#
#
# Elastic Compliance Matrix: (Units=1/GPa)
#
#
# Indices 1 2 3 4 5 6 
#
# 1 0.010052 -0.005778 -0.009996 0.000000 0.001177 0.000000
# 2 -0.005778 0.017186 0.002112 0.000000 0.004327 0.000000
# 3 -0.009996 0.002112 0.033188 0.000000 -0.002625 0.000000
# 4 0.000000 0.000000 0.000000 0.088817 0.000000 0.001739
# 5 0.001177 0.004327 -0.002625 0.000000 0.032627 0.000000
# 6 0.000000 0.000000 0.000000 0.001739 0.000000 0.050442
#
#
# Mechanical properties :
#
#
# Convention : Reuss Voigt Hill
#
# Bulk Modulus (GPa) = 30.20978 61.43417 45.82197
# Shear Modulus (GPa) = 18.47266 25.27696 21.87481
#
# Velocity S-wave (km/s) = 3.09863 3.62467 3.37192
# Velocity P-wave (km/s) = 5.33893 7.03201 6.24313
#
# Compressibility (1/GPa) = 0.03310187
#
# Stress axis : x y z
#
# Youngs Moduli (GPa) = 99.48533 58.18633 30.13146
#
# Poissons Ratio (x) = 0.33623 0.30118
# Poissons Ratio (y) = 0.57488 -0.06364
# Poissons Ratio (z) = 0.99442 -0.12290
#
# Static dielectric constant tensor:
#      x y z
#    x 1.655480 0.000000 -0.027400 
#    y 0.000000 1.650410 0.000000 
#    z -0.027400 0.000000 1.731920 
# 
# From -- ./inp_files/48883.got.cif
#   From: 2010.05.17/outbox.cif.g08.bks.cpg/sg13_25_cif.got.tgz:48883.got - 2010.06.03 16:44:36.
