data_PCOD9228277
_publ_section_title
;
Structure prediction by ZEFSAII (Michael W. Deem and Ramdas Pophale) SiO2 
 PCOD9228277
Probable space group: P 2/C
;
_chemical_formula_sum "Si O2"
_cell_formula_units_Z 32
_cell_length_a 11.306452
_cell_length_b 6.340162
_cell_length_c 20.889177
_cell_angle_alpha 90.000000
_cell_angle_beta 80.468986
_cell_angle_gamma 90.000000
_cell_volume 1476.764747
_symmetry_space_group_name_H-M "P 2/C"
_symmetry_group_IT_number 13
_symmetry_cell_setting 'monoclinic'
loop_
_space_group_symop_operation_xyz
x,y,z
-x,y,1/2-z
-x,-y,-z
x,-y,1/2+z
loop_
_atom_site_type_symbol
_atom_site_label
_atom_site_fract_x
_atom_site_fract_y
_atom_site_fract_z
Si Si1 0.711217 0.526455 0.770560
Si Si2 0.114954 0.221256 0.163353
Si Si3 0.648449 0.717280 0.008770
Si Si4 0.878720 0.154016 0.733414
Si Si5 0.422630 0.579257 0.104992
Si Si6 0.134988 0.420778 0.482167
Si Si7 0.248501 0.910106 0.062448
Si Si8 0.149487 0.219745 0.343537
O O1 0.797047 0.598908 0.821525
O O2 0.766006 0.305222 0.744190
O O3 0.587803 0.502888 0.820876
O O4 0.742678 0.687583 0.710055
O O5 0.981020 0.306534 0.167552
O O6 0.125155 0.040934 0.216656
O O7 0.167192 0.096010 0.098636
O O8 0.550975 0.664456 0.071299
O O9 0.772750 0.612898 0.019371
O O10 0.609128 0.598842 0.945948
O O11 0.664127 0.964687 0.993632
O O12 0.000000 0.263081 0.750000
O O13 0.874358 0.029615 0.666336
O O14 0.330264 0.775655 0.103811
O O15 0.165002 0.258306 0.535801
O O16 0.161240 0.296463 0.414299
O O17 0.000000 0.500000 0.500000
#
# Coordination Sequence:
#
# PCOD9228277 Si02
#       8
#     4   4   4   4   4   4   4   4
#     4  11  19  35  60  88 120 155 199 255 310 365
#     4  10  19  33  55  90 121 152 199 250 310 359
#     4  10  22  41  61  88 122 157 203 261 309 367
#     4   9  18  32  52  82 118 156 191 245 301 357
#     4  10  21  37  65  93 116 152 206 261 319 361
#     4  11  26  42  60  88 124 174 208 244 308 378
#     4  11  21  38  63  89 123 159 205 262 311 368
#     4  10  23  36  53  86 125 163 206 240 299 370
#
# _framework density 21.668989
#
# number of rings (size 3 to 8) (size 9 to 14) (size 15 to 20)
#    0.000    1.750    2.500    3.000    1.750    5.000 
#    0.000    0.625    0.000    0.000    0.000    0.000 
#    0.000    0.000    0.000    0.000    0.000    0.000 
#
# Total GULP energy -178484.490549 kJ/mol
# GULP energy per Si atom -5577.640330 kJ/mol
# Density = 2.161967 g / cm^3
# Si number density = 21.668989 Si / 1000 Ang^3
#
#
#
# Elastic Constant Matrix: (Units=GPa)
#
#
# Indices 1 2 3 4 5 6 
#
# 1 49.3943 13.4766 17.2373 0.0000 -18.3739 0.0000
# 2 13.4766 51.7299 1.7032 0.0000 -2.6590 0.0000
# 3 17.2373 1.7032 84.3970 0.0000 -23.2197 0.0000
# 4 0.0000 0.0000 0.0000 34.9148 0.0000 -9.5580
# 5 -18.3739 -2.6590 -23.2197 0.0000 31.8685 0.0000
# 6 0.0000 0.0000 0.0000 -9.5580 0.0000 17.9038
#
#
#
# Elastic Compliance Matrix: (Units=1/GPa)
#
#
# Indices 1 2 3 4 5 6 
#
# 1 0.027929 -0.006483 -0.001616 0.000000 0.014384 0.000000
# 2 -0.006483 0.020920 0.000443 0.000000 -0.001670 0.000000
# 3 -0.001616 0.000443 0.014913 0.000000 0.009971 0.000000
# 4 0.000000 0.000000 0.000000 0.033543 0.000000 0.017907
# 5 0.014384 -0.001670 0.009971 0.000000 0.046798 0.000000
# 6 0.000000 0.000000 0.000000 0.017907 0.000000 0.065414
#
#
# Mechanical properties :
#
#
# Convention : Reuss Voigt Hill
#
# Bulk Modulus (GPa) = 20.64061 27.81726 24.22893
# Shear Modulus (GPa) = 20.74863 27.14436 23.94649
#
# Velocity S-wave (km/s) = 3.09775 3.54316 3.32792
# Velocity P-wave (km/s) = 4.72661 5.44095 5.09631
#
# Compressibility (1/GPa) = 0.04844819
#
# Stress axis : x y z
#
# Youngs Moduli (GPa) = 35.80538 47.80161 67.05470
#
# Poissons Ratio (x) = 0.30992 0.10836
# Poissons Ratio (y) = 0.23214 -0.02967
# Poissons Ratio (z) = 0.05786 -0.02115
#
# Static dielectric constant tensor:
#      x y z
#    x 1.816290 0.000000 -0.028310 
#    y 0.000000 1.790680 0.000000 
#    z -0.028310 0.000000 1.899910 
# 
# From -- ./inp_files/85983.got.cif
#   From: 2010.05.17/outbox.cif.g08.bks.cpg/sg13_43_cif.got.tgz:85983.got - 2010.06.03 16:44:36.
