data_PCOD9228503
_publ_section_title
;
Structure prediction by ZEFSAII (Michael W. Deem and Ramdas Pophale) SiO2 
 PCOD9228503
Probable space group: P 2/C
;
_chemical_formula_sum "Si O2"
_cell_formula_units_Z 28
_cell_length_a 20.498397
_cell_length_b 8.958296
_cell_length_c 24.493422
_cell_angle_alpha 90.000000
_cell_angle_beta 19.958040
_cell_angle_gamma 90.000000
_cell_volume 1535.223545
_symmetry_space_group_name_H-M "P 2/C"
_symmetry_group_IT_number 13
_symmetry_cell_setting 'monoclinic'
loop_
_space_group_symop_operation_xyz
x,y,z
-x,y,1/2-z
-x,-y,-z
x,-y,1/2+z
loop_
_atom_site_type_symbol
_atom_site_label
_atom_site_fract_x
_atom_site_fract_y
_atom_site_fract_z
Si Si1 0.708464 0.040239 0.077088
Si Si2 0.207440 0.804096 0.100533
Si Si3 0.576722 0.296274 0.485496
Si Si4 0.546502 0.612995 0.883080
Si Si5 0.818139 0.185554 0.103058
Si Si6 0.231565 0.072636 0.772871
Si Si7 0.108226 0.079824 0.257503
O O1 0.500000 0.973721 0.250000
O O2 0.761915 0.150465 0.085073
O O3 0.705641 0.136038 0.024124
O O4 0.879117 0.920635 0.938847
O O5 0.000000 0.735040 0.250000
O O6 0.165200 0.948259 0.171185
O O7 0.354886 0.698299 0.015026
O O8 0.498994 0.437827 0.579835
O O9 0.591472 0.341748 0.410228
O O10 0.422382 0.164449 0.612684
O O11 0.779980 0.230223 0.344158
O O12 0.714651 0.672823 0.711402
O O13 0.749736 0.041236 0.191734
O O14 0.048579 0.180501 0.926020
O O15 0.179757 0.974182 0.760672
#
# Coordination Sequence:
#
# PCOD9228503 Si02
#       7
#     4   4   4   4   4   4   4
#     4  10  20  33  58  87 107 146 195 244 277 339
#     4  10  20  36  59  81 108 149 200 235 276 342
#     4  11  22  34  56  85 118 146 183 237 295 343
#     4  11  21  36  55  82 116 153 186 230 286 352
#     4  10  20  34  58  84 112 145 190 235 290 339
#     4  10  19  34  58  85 114 143 180 248 292 331
#     4  10  19  35  57  86 111 144 190 245 292 328
#
# _framework density 18.238385000000001
#
# number of rings (size 3 to 8) (size 9 to 14) (size 15 to 20)
#    0.000    1.714    4.286    1.286    0.000    0.571 
#    0.000    2.143    0.000    3.429    0.000    0.000 
#    0.000    0.000    0.000    0.000    0.000    0.000 
#
# Total GULP energy -156275.919703 kJ/mol
# GULP energy per Si atom -5581.282847 kJ/mol
# Density = 1.819687 g / cm^3
# Si number density = 18.238385 Si / 1000 Ang^3
#
#
#
# Elastic Constant Matrix: (Units=GPa)
#
#
# Indices 1 2 3 4 5 6 
#
# 1 47.4392 3.9613 -1.6185 0.0000 3.4281 0.0000
# 2 3.9613 44.6641 27.7809 0.0000 -13.1658 0.0000
# 3 -1.6185 27.7809 89.7171 0.0000 -11.1243 0.0000
# 4 0.0000 0.0000 0.0000 29.1135 0.0000 5.0850
# 5 3.4281 -13.1658 -11.1243 0.0000 32.0593 0.0000
# 6 0.0000 0.0000 0.0000 5.0850 0.0000 11.3887
#
#
#
# Elastic Compliance Matrix: (Units=1/GPa)
#
#
# Indices 1 2 3 4 5 6 
#
# 1 0.021665 -0.003603 0.001082 0.000000 -0.003421 0.000000
# 2 -0.003603 0.030919 -0.008377 0.000000 0.010176 0.000000
# 3 0.001082 -0.008377 0.013918 0.000000 0.001273 0.000000
# 4 0.000000 0.000000 0.000000 0.037254 0.000000 -0.016634
# 5 -0.003421 0.010176 0.001273 0.000000 0.036179 0.000000
# 6 0.000000 0.000000 0.000000 -0.016634 0.000000 0.095233
#
#
# Mechanical properties :
#
#
# Convention : Reuss Voigt Hill
#
# Bulk Modulus (GPa) = 22.36867 26.89640 24.63254
# Shear Modulus (GPa) = 18.39152 24.62543 21.50847
#
# Velocity S-wave (km/s) = 3.17897 3.67849 3.43781
# Velocity P-wave (km/s) = 5.07599 5.72895 5.41233
#
# Compressibility (1/GPa) = 0.04470539
#
# Stress axis : x y z
#
# Youngs Moduli (GPa) = 46.15823 32.34240 71.85157
#
# Poissons Ratio (x) = 0.11653 -0.07777
# Poissons Ratio (y) = 0.16631 0.60193
# Poissons Ratio (z) = -0.04996 0.27094
#
# Static dielectric constant tensor:
#      x y z
#    x 1.630380 0.000000 -0.008180 
#    y 0.000000 1.597150 0.000000 
#    z -0.008180 0.000000 1.666730 
# 
# From -- ./inp_files/75292.got.cif
#   From: 2010.05.17/outbox.cif.g08.bks.cpg/sg13_38_cif.got.tgz:75292.got - 2010.06.03 16:44:36.
