data_PCOD9228878
_publ_section_title
;
Structure prediction by ZEFSAII (Michael W. Deem and Ramdas Pophale) SiO2 
 PCOD9228878
Probable space group: P 2/C
;
_chemical_formula_sum "Si O2"
_cell_formula_units_Z 28
_cell_length_a 8.751532
_cell_length_b 6.755490
_cell_length_c 31.467708
_cell_angle_alpha 90.000000
_cell_angle_beta 127.000419
_cell_angle_gamma 90.000000
_cell_volume 1485.772362
_symmetry_space_group_name_H-M "P 2/C"
_symmetry_group_IT_number 13
_symmetry_cell_setting 'monoclinic'
loop_
_space_group_symop_operation_xyz
x,y,z
-x,y,1/2-z
-x,-y,-z
x,-y,1/2+z
loop_
_atom_site_type_symbol
_atom_site_label
_atom_site_fract_x
_atom_site_fract_y
_atom_site_fract_z
Si Si1 0.330067 0.319335 0.253912
Si Si2 0.804535 0.946457 0.118159
Si Si3 0.893886 0.609307 0.346100
Si Si4 0.208484 0.039270 0.788545
Si Si5 0.773398 0.339658 0.063423
Si Si6 0.478019 0.620350 0.058573
Si Si7 0.532875 0.367887 0.844195
O O1 0.500000 0.258433 0.250000
O O2 0.192391 0.472642 0.205980
O O3 0.224250 0.133473 0.256634
O O4 0.433063 0.436408 0.309124
O O5 0.622493 0.806421 0.078422
O O6 0.987329 0.800471 0.148846
O O7 0.779361 0.036972 0.160925
O O8 0.817542 0.118960 0.086113
O O9 0.718624 0.669911 0.346807
O O10 0.042477 0.474121 0.397024
O O11 0.000000 0.137877 0.750000
O O12 0.379744 0.193185 0.812155
O O13 0.601771 0.431874 0.063484
O O14 0.697750 0.352461 0.002793
O O15 0.424417 0.608083 0.098922
#
# Coordination Sequence:
#
# PCOD9228878 Si02
#       7
#     4   4   4   4   4   4   4
#     4  10  22  38  56  80 110 144 181 224 277 335
#     4  10  20  36  57  82 111 146 188 232 280 332
#     4  10  22  37  57  84 115 150 187 229 280 339
#     4  11  22  34  56  81 105 142 183 227 277 332
#     4  10  19  36  59  82 113 150 190 235 280 327
#     4   9  20  36  57  84 112 148 192 235 278 329
#     4  10  22  39  55  80 115 146 182 230 280 333
#
# _framework density 18.845417999999999
#
# number of rings (size 3 to 8) (size 9 to 14) (size 15 to 20)
#    0.000    2.000    0.000    3.000    0.000    8.571 
#    0.000    0.714    0.000    0.000    0.000    0.000 
#    0.000    0.000    0.000    0.000    0.000    0.000 
#
# Total GULP energy -156373.542704 kJ/mol
# GULP energy per Si atom -5584.769382 kJ/mol
# Density = 1.880252 g / cm^3
# Si number density = 18.845418 Si / 1000 Ang^3
#
#
#
# Elastic Constant Matrix: (Units=GPa)
#
#
# Indices 1 2 3 4 5 6 
#
# 1 93.0021 48.2891 58.8337 0.0000 -4.8682 0.0000
# 2 48.2891 71.9872 46.5140 0.0000 -13.1441 0.0000
# 3 58.8337 46.5140 127.4055 0.0000 -9.9890 0.0000
# 4 0.0000 0.0000 0.0000 20.8473 0.0000 -6.3295
# 5 -4.8682 -13.1441 -9.9890 0.0000 24.5833 0.0000
# 6 0.0000 0.0000 0.0000 -6.3295 0.0000 22.9113
#
#
#
# Elastic Compliance Matrix: (Units=1/GPa)
#
#
# Indices 1 2 3 4 5 6 
#
# 1 0.019267 -0.010047 -0.005527 0.000000 -0.003802 0.000000
# 2 -0.010047 0.024764 -0.003635 0.000000 0.009774 0.000000
# 3 -0.005527 -0.003635 0.011868 0.000000 0.001784 0.000000
# 4 0.000000 0.000000 0.000000 0.052360 0.000000 0.014465
# 5 -0.003802 0.009774 0.001784 0.000000 0.045876 0.000000
# 6 0.000000 0.000000 0.000000 0.014465 0.000000 0.047643
#
#
# Mechanical properties :
#
#
# Convention : Reuss Voigt Hill
#
# Bulk Modulus (GPa) = 57.20621 66.62982 61.91802
# Shear Modulus (GPa) = 20.32329 22.91891 21.62110
#
# Velocity S-wave (km/s) = 3.28749 3.49112 3.39084
# Velocity P-wave (km/s) = 6.69564 7.18911 6.94676
#
# Compressibility (1/GPa) = 0.01748062
#
# Stress axis : x y z
#
# Youngs Moduli (GPa) = 51.90351 40.38041 84.25776
#
# Poissons Ratio (x) = 0.40570 0.46570
# Poissons Ratio (y) = 0.52148 0.30630
# Poissons Ratio (z) = 0.28687 0.14680
#
# Static dielectric constant tensor:
#      x y z
#    x 1.639620 0.000000 -0.003620 
#    y 0.000000 1.636450 0.000000 
#    z -0.003620 0.000000 1.651730 
# 
# From -- ./inp_files/95600.got.cif
#   From: 2010.05.17/outbox.cif.g08.bks.cpg/sg13_48_cif.got.tgz:95600.got - 2010.06.03 16:44:36.
