data_PCOD9228161
_publ_section_title
;
Structure prediction by ZEFSAII (Michael W. Deem and Ramdas Pophale) SiO2 
 PCOD9228161
Probable space group: P 2/C
;
_chemical_formula_sum "Si O2"
_cell_formula_units_Z 24
_cell_length_a 7.128103
_cell_length_b 26.513542
_cell_length_c 5.428956
_cell_angle_alpha 90.000000
_cell_angle_beta 79.211710
_cell_angle_gamma 90.000000
_cell_volume 1007.890770
_symmetry_space_group_name_H-M "P 2/C"
_symmetry_group_IT_number 13
_symmetry_cell_setting 'monoclinic'
loop_
_space_group_symop_operation_xyz
x,y,z
-x,y,1/2-z
-x,-y,-z
x,-y,1/2+z
loop_
_atom_site_type_symbol
_atom_site_label
_atom_site_fract_x
_atom_site_fract_y
_atom_site_fract_z
Si Si1 0.283945 0.480975 0.096959
Si Si2 0.768848 0.635247 0.801571
Si Si3 0.771682 0.312439 0.798523
Si Si4 0.724390 0.194261 0.708380
Si Si5 0.732629 0.027319 0.201509
Si Si6 0.733214 0.855833 0.704056
O O1 0.197458 0.512921 0.344600
O O2 0.281342 0.423490 0.185006
O O3 0.500000 0.500000 0.000000
O O4 0.701806 0.664637 0.574151
O O5 0.000000 0.638377 0.750000
O O6 0.698734 0.659494 0.073254
O O7 0.739275 0.253290 0.764671
O O8 0.000000 0.319688 0.750000
O O9 0.500000 0.181652 0.750000
O O10 0.797729 0.176858 0.423580
O O11 0.803415 0.165302 0.926122
O O12 0.500000 0.025524 0.250000
O O13 0.784865 0.085730 0.217681
O O14 0.795080 0.996273 0.426443
O O15 0.500000 0.853156 0.750000
#
# Coordination Sequence:
#
# PCOD9228161 Si02
#       6
#     4   4   4   4   4   4
#     4  10  21  38  56  81 112 138 171 211 259 305
#     4  10  21  38  59  80 106 141 176 213 264 312
#     4  10  21  38  57  80 107 137 177 224 261 308
#     4  10  19  33  49  74 102 136 173 208 270 318
#     4   9  15  23  37  61  93 133 174 208 257 312
#     4   9  17  28  45  66 103 138 170 218 262 317
#
# _framework density 23.812101999999999
#
# number of rings (size 3 to 8) (size 9 to 14) (size 15 to 20)
#    0.000    2.333    0.000    3.000    0.000    4.667 
#    9.000    0.000    0.000    0.000    0.000    0.000 
#    0.000   13.333    0.000    0.000    0.000    0.000 
#
# Total GULP energy -134290.700053 kJ/mol
# GULP energy per Si atom -5595.445836 kJ/mol
# Density = 2.375790 g / cm^3
# Si number density = 23.812102 Si / 1000 Ang^3
#
#
#
# Elastic Constant Matrix: (Units=GPa)
#
#
# Indices 1 2 3 4 5 6 
#
# 1 93.2813 -2.7294 49.2455 0.0000 8.4681 0.0000
# 2 -2.7294 150.7549 108.8422 0.0000 6.6945 0.0000
# 3 49.2455 108.8422 265.5096 0.0000 12.4203 0.0000
# 4 0.0000 0.0000 0.0000 54.0813 0.0000 1.6288
# 5 8.4681 6.6945 12.4203 0.0000 33.2236 0.0000
# 6 0.0000 0.0000 0.0000 1.6288 0.0000 -45.5167
#
#
#
# Elastic Compliance Matrix: (Units=1/GPa)
#
#
# Indices 1 2 3 4 5 6 
#
# 1 0.012837 0.002810 -0.003413 0.000000 -0.002562 0.000000
# 2 0.002810 0.010044 -0.004591 0.000000 -0.001024 0.000000
# 3 -0.003413 -0.004591 0.006308 0.000000 -0.000563 0.000000
# 4 0.000000 0.000000 0.000000 0.018471 0.000000 0.000661
# 5 -0.002562 -0.001024 -0.000563 0.000000 0.031169 0.000000
# 6 0.000000 0.000000 0.000000 0.000661 0.000000 -0.021946
#
#
# Mechanical properties :
#
#
# Convention : Reuss Voigt Hill
#
# Bulk Modulus (GPa) = 53.18672 91.14028 72.16350
# Shear Modulus (GPa) = 67.99327 31.97013 49.98170
#
# Velocity S-wave (km/s) = 5.34940 3.66813 4.58646
# Velocity P-wave (km/s) = 7.78070 7.50320 7.64321
#
# Compressibility (1/GPa) = 0.01880168
#
# Stress axis : x y z
#
# Youngs Moduli (GPa) = 77.89979 99.56064 158.53650
#
# Poissons Ratio (x) = -0.27981 0.54112
# Poissons Ratio (y) = -0.21893 0.72781
# Poissons Ratio (z) = 0.26589 0.45707
#
# Static dielectric constant tensor:
#      x y z
#    x 2.637520 0.000000 0.193440 
#    y 0.000000 1.838590 0.000000 
#    z 0.193440 0.000000 1.955240 
# 
# From -- ./inp_files/2416.got.cif
#   From: 2010.05.17/outbox.cif.g08.bks.cpg/sg13_2_cif.got.tgz:2416.got - 2010.06.03 16:44:36.
