data_PCOD9228853
_publ_section_title
;
Structure prediction by ZEFSAII (Michael W. Deem and Ramdas Pophale) SiO2 
 PCOD9228853
Probable space group: P 2/C
;
_chemical_formula_sum "Si O2"
_cell_formula_units_Z 26
_cell_length_a 20.205948
_cell_length_b 5.740456
_cell_length_c 15.595514
_cell_angle_alpha 90.000000
_cell_angle_beta 141.133583
_cell_angle_gamma 90.000000
_cell_volume 1135.125159
_symmetry_space_group_name_H-M "P 2/C"
_symmetry_group_IT_number 13
_symmetry_cell_setting 'monoclinic'
loop_
_space_group_symop_operation_xyz
x,y,z
-x,y,1/2-z
-x,-y,-z
x,-y,1/2+z
loop_
_atom_site_type_symbol
_atom_site_label
_atom_site_fract_x
_atom_site_fract_y
_atom_site_fract_z
Si Si1 0.526739 0.253221 0.070716
Si Si2 0.135902 0.483006 0.697519
Si Si3 0.676392 0.770666 0.037167
Si Si4 0.796915 0.200486 0.497442
Si Si5 0.083587 0.611336 0.965664
Si Si6 0.000000 0.977702 0.750000
Si Si7 0.756269 0.098855 0.273809
O O1 0.652930 0.251223 0.198349
O O2 0.500000 0.500000 0.000000
O O3 0.447457 0.262687 0.071518
O O4 0.500000 0.000000 0.000000
O O5 0.239726 0.437765 0.858719
O O6 0.130386 0.326622 0.605981
O O7 0.152758 0.739849 0.674648
O O8 0.021457 0.454194 0.623228
O O9 0.698398 0.829426 0.960720
O O10 0.714541 0.945758 0.151764
O O11 0.830178 0.457941 0.498175
O O12 0.788868 0.038470 0.404829
O O13 0.895049 0.124449 0.655586
O O14 0.029375 0.813271 0.857859
#
# Coordination Sequence:
#
# PCOD9228853 Si02
#       7
#     4   4   4   4   4   2   4
#     4  10  21  41  70  97 130 171 220 277 336 401
#     4  10  19  36  58  81 118 159 216 251 344 376
#     4  11  21  37  64  87 121 170 211 264 340 393
#     4  11  24  38  59  91 126 165 219 268 325 396
#     4  10  22  35  54  85 119 163 204 278 304 400
#     4  12  20  36  54  78 126 158 210 256 330 366
#     4  10  22  40  61  91 125 164 217 273 328 402
#
# _framework density 22.904962000000001
#
# number of rings (size 3 to 8) (size 9 to 14) (size 15 to 20)
#    0.000    1.538    1.538    4.154    0.000    0.615 
#    0.000    6.154    0.000    1.846    0.000    0.000 
#    0.000    0.000    0.000    0.000    0.000    0.000 
#
# Total GULP energy -144737.954148 kJ/mol
# GULP energy per Si atom -5566.844390 kJ/mol
# Density = 2.285283 g / cm^3
# Si number density = 22.904962 Si / 1000 Ang^3
#
#
#
# Elastic Constant Matrix: (Units=GPa)
#
#
# Indices 1 2 3 4 5 6 
#
# 1 150.7157 14.9504 4.0337 0.0000 8.8358 0.0000
# 2 14.9504 25.7372 1.5107 0.0000 -8.0433 0.0000
# 3 4.0337 1.5107 56.1804 0.0000 0.5562 0.0000
# 4 0.0000 0.0000 0.0000 32.3406 0.0000 -2.1039
# 5 8.8358 -8.0433 0.5562 0.0000 43.0081 0.0000
# 6 0.0000 0.0000 0.0000 -2.1039 0.0000 21.4280
#
#
#
# Elastic Compliance Matrix: (Units=1/GPa)
#
#
# Indices 1 2 3 4 5 6 
#
# 1 0.007279 -0.004963 -0.000365 0.000000 -0.002419 0.000000
# 2 -0.004963 0.044729 -0.000939 0.000000 0.009397 0.000000
# 3 -0.000365 -0.000939 0.017855 0.000000 -0.000332 0.000000
# 4 0.000000 0.000000 0.000000 0.031120 0.000000 0.003055
# 5 -0.002419 0.009397 -0.000332 0.000000 0.025510 0.000000
# 6 0.000000 0.000000 0.000000 0.003055 0.000000 0.046968
#
#
# Mechanical properties :
#
#
# Convention : Reuss Voigt Hill
#
# Bulk Modulus (GPa) = 17.44364 30.40254 23.92309
# Shear Modulus (GPa) = 24.37789 33.49789 28.93789
#
# Velocity S-wave (km/s) = 3.26591 3.82838 3.55828
# Velocity P-wave (km/s) = 4.67480 5.73098 5.22962
#
# Compressibility (1/GPa) = 0.05732749
#
# Stress axis : x y z
#
# Youngs Moduli (GPa) = 137.38406 22.35694 56.00810
#
# Poissons Ratio (x) = 0.11095 0.02045
# Poissons Ratio (y) = 0.68179 0.05262
# Poissons Ratio (z) = 0.05017 0.02100
#
# Static dielectric constant tensor:
#      x y z
#    x 1.901210 0.000000 -0.001500 
#    y 0.000000 1.903010 0.000000 
#    z -0.001500 0.000000 1.932190 
# 
# From -- ./inp_files/70241.got.cif
#   From: 2010.05.17/outbox.cif.g08.bks.cpg/sg13_36_cif.got.tgz:70241.got - 2010.06.03 16:44:36.
