data_PCOD9228899
_publ_section_title
;
Structure prediction by ZEFSAII (Michael W. Deem and Ramdas Pophale) SiO2 
 PCOD9228899
Probable space group: P 2/C
;
_chemical_formula_sum "Si O2"
_cell_formula_units_Z 18
_cell_length_a 9.088022
_cell_length_b 11.664178
_cell_length_c 10.224021
_cell_angle_alpha 90.000000
_cell_angle_beta 134.266803
_cell_angle_gamma 90.000000
_cell_volume 776.099245
_symmetry_space_group_name_H-M "P 2/C"
_symmetry_group_IT_number 13
_symmetry_cell_setting 'monoclinic'
loop_
_space_group_symop_operation_xyz
x,y,z
-x,y,1/2-z
-x,-y,-z
x,-y,1/2+z
loop_
_atom_site_type_symbol
_atom_site_label
_atom_site_fract_x
_atom_site_fract_y
_atom_site_fract_z
Si Si1 0.332915 0.402931 0.383869
Si Si2 0.192292 0.732653 0.562129
Si Si3 0.826214 0.227680 0.028334
Si Si4 0.000000 0.562880 0.250000
Si Si5 0.853212 0.980187 0.033383
O O1 0.500000 0.500000 0.500000
O O2 0.338774 0.317454 0.265287
O O3 0.318741 0.327619 0.507715
O O4 0.123431 0.475749 0.234625
O O5 0.157643 0.643095 0.424882
O O6 0.255433 0.858952 0.554684
O O7 0.961477 0.746204 0.483884
O O8 0.000000 0.220842 0.250000
O O9 0.730946 0.100151 0.967414
O O10 0.000000 0.967792 0.250000
O O11 0.000000 0.000000 0.000000
#
# Coordination Sequence:
#
# PCOD9228899 Si02
#       5
#     4   4   4   2   4
#     4  11  23  38  60  90 130 173 212 263 322 389
#     4  10  19  36  59  91 123 162 212 261 323 389
#     4   8  16  34  58  90 123 160 209 262 318 387
#     4  12  22  38  58  88 130 164 212 266 326 392
#     4   9  16  30  60  97 123 165 216 269 331 397
#
# _framework density 23.192910000000001
#
# number of rings (size 3 to 8) (size 9 to 14) (size 15 to 20)
#    0.000    2.222    4.444    2.000    0.000    0.889 
#    0.000    0.000    0.000    1.333   17.333    0.000 
#    0.000    0.000    0.000    0.000    0.000    0.000 
#
# Total GULP energy -100503.112090 kJ/mol
# GULP energy per Si atom -5583.506227 kJ/mol
# Density = 2.314012 g / cm^3
# Si number density = 23.192910 Si / 1000 Ang^3
#
#
#
# Elastic Constant Matrix: (Units=GPa)
#
#
# Indices 1 2 3 4 5 6 
#
# 1 43.4294 42.6408 21.6358 0.0000 -9.1288 0.0000
# 2 42.6408 228.4818 34.0683 0.0000 6.4607 0.0000
# 3 21.6358 34.0683 65.9816 0.0000 -7.4005 0.0000
# 4 0.0000 0.0000 0.0000 20.2987 0.0000 -11.2006
# 5 -9.1288 6.4607 -7.4005 0.0000 28.8864 0.0000
# 6 0.0000 0.0000 0.0000 -11.2006 0.0000 36.7571
#
#
#
# Elastic Compliance Matrix: (Units=1/GPa)
#
#
# Indices 1 2 3 4 5 6 
#
# 1 0.034273 -0.005614 -0.007191 0.000000 0.010245 0.000000
# 2 -0.005614 0.005748 -0.001513 0.000000 -0.003447 0.000000
# 3 -0.007191 -0.001513 0.018613 0.000000 0.002835 0.000000
# 4 0.000000 0.000000 0.000000 0.059222 0.000000 0.018046
# 5 0.010245 -0.003447 0.002835 0.000000 0.039353 0.000000
# 6 0.000000 0.000000 0.000000 0.018046 0.000000 0.032705
#
#
# Mechanical properties :
#
#
# Convention : Reuss Voigt Hill
#
# Bulk Modulus (GPa) = 33.33590 59.39809 46.36700
# Shear Modulus (GPa) = 21.87713 33.15831 27.51772
#
# Velocity S-wave (km/s) = 3.07460 3.78521 3.44826
# Velocity P-wave (km/s) = 5.19699 6.69102 5.99076
#
# Compressibility (1/GPa) = 0.02999769
#
# Stress axis : x y z
#
# Youngs Moduli (GPa) = 29.17707 173.98711 53.72571
#
# Poissons Ratio (x) = 0.97673 0.38634
# Poissons Ratio (y) = 0.16379 0.08131
# Poissons Ratio (z) = 0.20981 0.26332
#
# Static dielectric constant tensor:
#      x y z
#    x 1.982210 0.000000 0.043730 
#    y 0.000000 1.904210 0.000000 
#    z 0.043730 0.000000 1.843970 
# 
# From -- ./inp_files/33427.got.cif
#   From: 2010.05.17/outbox.cif.g08.bks.cpg/sg13_17_cif.got.tgz:33427.got - 2010.06.03 16:44:36.
