data_PCOD9228015
_publ_section_title
;
Structure prediction by ZEFSAII (Michael W. Deem and Ramdas Pophale) SiO2 
 PCOD9228015
Probable space group: P 2/C
;
_chemical_formula_sum "Si O2"
_cell_formula_units_Z 32
_cell_length_a 14.606203
_cell_length_b 17.747942
_cell_length_c 13.752258
_cell_angle_alpha 90.000000
_cell_angle_beta 29.920627
_cell_angle_gamma 90.000000
_cell_volume 1778.220503
_symmetry_space_group_name_H-M "P 2/C"
_symmetry_group_IT_number 13
_symmetry_cell_setting 'monoclinic'
loop_
_space_group_symop_operation_xyz
x,y,z
-x,y,1/2-z
-x,-y,-z
x,-y,1/2+z
loop_
_atom_site_type_symbol
_atom_site_label
_atom_site_fract_x
_atom_site_fract_y
_atom_site_fract_z
Si Si1 0.964674 0.561706 0.620299
Si Si2 0.719070 0.472663 0.532909
Si Si3 0.099201 0.278496 0.421494
Si Si4 0.445001 0.105750 0.411655
Si Si5 0.169981 0.112342 0.338456
Si Si6 0.286044 0.645984 0.931617
Si Si7 0.155469 0.765267 0.183534
Si Si8 0.078749 0.978830 0.284816
O O1 0.920671 0.644898 0.619795
O O2 0.000000 0.500000 0.500000
O O3 0.149327 0.571654 0.514468
O O4 0.802745 0.537339 0.846408
O O5 0.500000 0.458205 0.750000
O O6 0.756517 0.558385 0.533023
O O7 0.167407 0.200601 0.312448
O O8 0.225583 0.304336 0.395861
O O9 0.916001 0.247614 0.642774
O O10 0.500000 0.090489 0.250000
O O11 0.622604 0.099461 0.315616
O O12 0.339052 0.186009 0.509465
O O13 0.286264 0.049935 0.590839
O O14 0.042609 0.083545 0.545991
O O15 0.091307 0.058593 0.327266
O O16 0.500000 0.652904 0.750000
O O17 0.191222 0.681782 0.111830
O O18 0.000000 0.796135 0.250000
O O19 0.000000 0.986382 0.250000
#
# Coordination Sequence:
#
# PCOD9228015 Si02
#       8
#     4   4   4   4   4   4   4   4
#     4  11  22  41  64  89 123 166 207 254 310 370
#     4  10  23  42  60  87 123 164 210 257 309 367
#     4  11  21  38  59  89 122 159 202 250 305 360
#     4  12  20  36  63  93 123 156 193 249 315 367
#     4  11  24  40  63  89 122 156 203 251 301 361
#     4  10  19  33  56  89 122 150 192 259 316 363
#     4  10  19  31  55  90 126 152 188 248 316 365
#     4  11  23  43  61  88 122 160 200 243 303 365
#
# _framework density 17.995519000000002
#
# number of rings (size 3 to 8) (size 9 to 14) (size 15 to 20)
#    0.000    1.250    3.750    4.125    3.500    0.500 
#    6.750    0.000    0.000    0.750    0.000    0.000 
#    0.000    0.000    0.000    0.000    0.000    0.000 
#
# Total GULP energy -178269.894460 kJ/mol
# GULP energy per Si atom -5570.934202 kJ/mol
# Density = 1.795456 g / cm^3
# Si number density = 17.995519 Si / 1000 Ang^3
#
#
#
# Elastic Constant Matrix: (Units=GPa)
#
#
# Indices 1 2 3 4 5 6 
#
# 1 72.1268 43.7262 31.3501 0.0000 2.5035 0.0000
# 2 43.7262 113.3242 25.3874 0.0000 0.7002 0.0000
# 3 31.3501 25.3874 91.4863 0.0000 -0.7251 0.0000
# 4 0.0000 0.0000 0.0000 857.1003 0.0000 298.9405
# 5 2.5035 0.7002 -0.7251 0.0000 21.4018 0.0000
# 6 0.0000 0.0000 0.0000 298.9405 0.0000 152.2197
#
#
#
# Elastic Compliance Matrix: (Units=1/GPa)
#
#
# Indices 1 2 3 4 5 6 
#
# 1 0.020178 -0.006631 -0.005093 0.000000 -0.002316 0.000000
# 2 -0.006631 0.011591 -0.000942 0.000000 0.000364 0.000000
# 3 -0.005093 -0.000942 0.012946 0.000000 0.001065 0.000000
# 4 0.000000 0.000000 0.000000 0.003703 0.000000 -0.007273
# 5 -0.002316 0.000364 0.001065 0.000000 0.047020 0.000000
# 6 0.000000 0.000000 0.000000 -0.007273 0.000000 0.020853
#
#
# Mechanical properties :
#
#
# Convention : Reuss Voigt Hill
#
# Bulk Modulus (GPa) = 51.58636 53.09607 52.34122
# Shear Modulus (GPa) = 33.76475 217.90927 125.83701
#
# Velocity S-wave (km/s) = 4.33631 11.01607 8.37130
# Velocity P-wave (km/s) = 7.33484 13.83381 11.07190
#
# Compressibility (1/GPa) = 0.01938497
#
# Stress axis : x y z
#
# Youngs Moduli (GPa) = 49.55836 86.27154 77.24649
#
# Poissons Ratio (x) = 0.57202 0.39341
# Poissons Ratio (y) = 0.32860 0.07273
# Poissons Ratio (z) = 0.25240 0.08123
#
# Static dielectric constant tensor:
#      x y z
#    x 1.573560 0.000000 0.045700 
#    y 0.000000 1.666590 0.000000 
#    z 0.045700 0.000000 1.624400 
# 
# From -- ./inp_files/53924.got.cif
#   From: 2010.05.17/outbox.cif.g08.bks.cpg/sg13_27_cif.got.tgz:53924.got - 2010.06.03 16:44:36.
