data_PCOD9228104
_publ_section_title
;
Structure prediction by ZEFSAII (Michael W. Deem and Ramdas Pophale) SiO2 
 PCOD9228104
Probable space group: P 2/C
;
_chemical_formula_sum "Si O2"
_cell_formula_units_Z 28
_cell_length_a 16.437480
_cell_length_b 7.835180
_cell_length_c 9.161720
_cell_angle_alpha 90.000000
_cell_angle_beta 105.329318
_cell_angle_gamma 90.000000
_cell_volume 1137.963836
_symmetry_space_group_name_H-M "P 2/C"
_symmetry_group_IT_number 13
_symmetry_cell_setting 'monoclinic'
loop_
_space_group_symop_operation_xyz
x,y,z
-x,y,1/2-z
-x,-y,-z
x,-y,1/2+z
loop_
_atom_site_type_symbol
_atom_site_label
_atom_site_fract_x
_atom_site_fract_y
_atom_site_fract_z
Si Si1 0.505045 0.310049 0.428718
Si Si2 0.681445 0.387284 0.594178
Si Si3 0.094135 0.678363 0.800448
Si Si4 0.787342 0.756826 0.395380
Si Si5 0.796389 0.753520 0.897954
Si Si6 0.095411 0.911522 0.302441
Si Si7 0.670221 0.797604 0.592514
O O1 0.500000 0.327051 0.250000
O O2 0.500000 0.500000 0.500000
O O3 0.599862 0.269704 0.523355
O O4 0.430665 0.180732 0.443045
O O5 0.719160 0.343038 0.767975
O O6 0.745089 0.342546 0.496681
O O7 0.669701 0.590179 0.585536
O O8 0.150423 0.635504 0.687770
O O9 0.000000 0.607162 0.750000
O O10 0.089312 0.884702 0.789669
O O11 0.147916 0.652933 0.971109
O O12 0.846595 0.846077 0.302356
O O13 0.726929 0.857860 0.483003
O O14 0.726150 0.843199 0.760704
O O15 0.862927 0.862679 0.023545
O O16 0.000000 0.842220 0.250000
#
# Coordination Sequence:
#
# PCOD9228104 Si02
#       7
#     4   4   4   4   4   4   4
#     4  10  20  32  54  82 109 144 184 224 261 298
#     4  10  20  34  53  78 114 145 177 215 256 311
#     4  10  20  36  58  81 103 130 176 237 282 312
#     4  10  21  32  53  85 107 140 176 215 277 326
#     4  10  19  32  53  79 107 140 170 219 273 322
#     4  10  20  36  58  81 103 130 176 237 282 312
#     4  10  20  34  53  78 114 145 177 215 256 311
#
# _framework density 24.605352
#
# number of rings (size 3 to 8) (size 9 to 14) (size 15 to 20)
#    0.000    2.000    1.429    2.571    6.000    2.286 
#    0.000    0.000    0.000   60.000    0.000   70.000 
#    0.000    0.000    0.000    0.000    0.000    0.000 
#
# Total GULP energy -156475.174320 kJ/mol
# GULP energy per Si atom -5588.399083 kJ/mol
# Density = 2.454935 g / cm^3
# Si number density = 24.605352 Si / 1000 Ang^3
#
#
#
# Elastic Constant Matrix: (Units=GPa)
#
#
# Indices 1 2 3 4 5 6 
#
# 1 161.4663 19.9366 79.7266 0.0000 36.0703 0.0000
# 2 19.9366 32.3223 24.5400 0.0000 2.6816 0.0000
# 3 79.7266 24.5400 206.3900 0.0000 2.5354 0.0000
# 4 0.0000 0.0000 0.0000 34.5689 0.0000 -2.3153
# 5 36.0703 2.6816 2.5354 0.0000 41.2655 0.0000
# 6 0.0000 0.0000 0.0000 -2.3153 0.0000 29.7547
#
#
#
# Elastic Compliance Matrix: (Units=1/GPa)
#
#
# Indices 1 2 3 4 5 6 
#
# 1 0.010165 -0.002928 -0.003474 0.000000 -0.008481 0.000000
# 2 -0.002928 0.035012 -0.003038 0.000000 0.000471 0.000000
# 3 -0.003474 -0.003038 0.006514 0.000000 0.002834 0.000000
# 4 0.000000 0.000000 0.000000 0.029079 0.000000 0.002263
# 5 -0.008481 0.000471 0.002834 0.000000 0.031442 0.000000
# 6 0.000000 0.000000 0.000000 0.002263 0.000000 0.033784
#
#
# Mechanical properties :
#
#
# Convention : Reuss Voigt Hill
#
# Bulk Modulus (GPa) = 30.47852 72.06498 51.27175
# Shear Modulus (GPa) = 28.43930 39.51619 33.97775
#
# Velocity S-wave (km/s) = 3.40342 4.01184 3.72009
# Velocity P-wave (km/s) = 5.27809 7.12823 6.27176
#
# Compressibility (1/GPa) = 0.03280999
#
# Stress axis : x y z
#
# Youngs Moduli (GPa) = 98.37692 28.56188 153.52451
#
# Poissons Ratio (x) = 0.08364 0.53338
# Poissons Ratio (y) = 0.28809 0.46633
# Poissons Ratio (z) = 0.34179 0.08676
#
# Static dielectric constant tensor:
#      x y z
#    x 2.133800 0.000000 0.081140 
#    y 0.000000 2.035700 0.000000 
#    z 0.081140 0.000000 1.912930 
# 
# From -- ./inp_files/18849.got.cif
#   From: 2010.05.17/outbox.cif.g08.bks.cpg/sg13_10_cif.got.tgz:18849.got - 2010.06.03 16:44:36.
