data_PCOD9228076
_publ_section_title
;
Structure prediction by ZEFSAII (Michael W. Deem and Ramdas Pophale) SiO2 
 PCOD9228076
Probable space group: P 2/C
;
_chemical_formula_sum "Si O2"
_cell_formula_units_Z 26
_cell_length_a 5.759369
_cell_length_b 14.965040
_cell_length_c 14.136588
_cell_angle_alpha 90.000000
_cell_angle_beta 106.285857
_cell_angle_gamma 90.000000
_cell_volume 1169.531332
_symmetry_space_group_name_H-M "P 2/C"
_symmetry_group_IT_number 13
_symmetry_cell_setting 'monoclinic'
loop_
_space_group_symop_operation_xyz
x,y,z
-x,y,1/2-z
-x,-y,-z
x,-y,1/2+z
loop_
_atom_site_type_symbol
_atom_site_label
_atom_site_fract_x
_atom_site_fract_y
_atom_site_fract_z
Si Si1 0.500000 0.971114 0.750000
Si Si2 0.760439 0.125880 0.113069
Si Si3 0.535249 0.367025 0.941631
Si Si4 0.300302 0.199741 0.964143
Si Si5 0.022484 0.703593 0.595237
Si Si6 0.044516 0.952177 0.142209
Si Si7 0.244772 0.535709 0.578531
O O1 0.344171 0.908546 0.799854
O O2 0.670001 0.033290 0.833635
O O3 0.906387 0.217660 0.142952
O O4 0.921597 0.044119 0.093249
O O5 0.539719 0.144787 0.017211
O O6 0.371366 0.280333 0.900628
O O7 0.601987 0.447331 0.877564
O O8 0.401943 0.414355 0.015573
O O9 0.791722 0.328387 0.006794
O O10 0.084816 0.134676 0.911368
O O11 0.214654 0.246628 0.050861
O O12 0.156004 0.611858 0.642264
O O13 0.000000 0.947735 0.250000
O O14 0.000000 0.500000 0.500000
#
# Coordination Sequence:
#
# PCOD9228076 Si02
#       7
#     2   4   4   4   4   4   4
#     4  10  22  36  48  66 100 146 186 222 270 316
#     4  10  20  34  51  72 101 141 181 221 263 315
#     4   8  15  26  44  71 106 133 160 206 259 313
#     4  10  19  32  52  77 103 135 179 222 264 319
#     4   9  17  27  46  75 105 131 167 213 260 316
#     4  10  22  37  51  70 103 141 180 223 266 314
#     4   8  13  25  43  69 106 134 157 204 261 310
#
# _framework density 22.231127000000001
#
# number of rings (size 3 to 8) (size 9 to 14) (size 15 to 20)
#    0.000    2.769    0.000    1.385    0.000    7.385 
#    0.000    0.000    0.000    0.000    0.000    0.000 
#    0.000  891.077    0.000    0.000    0.000    0.154 
#
# Total GULP energy -144881.421060 kJ/mol
# GULP energy per Si atom -5572.362348 kJ/mol
# Density = 2.218053 g / cm^3
# Si number density = 22.231127 Si / 1000 Ang^3
#
#
#
# Elastic Constant Matrix: (Units=GPa)
#
#
# Indices 1 2 3 4 5 6 
#
# 1 85.6371 54.0894 13.7066 0.0000 15.2943 0.0000
# 2 54.0894 179.1593 38.3126 0.0000 18.4855 0.0000
# 3 13.7066 38.3126 26.7250 0.0000 2.8420 0.0000
# 4 0.0000 0.0000 0.0000 -4.9805 0.0000 -13.3384
# 5 15.2943 18.4855 2.8420 0.0000 17.1752 0.0000
# 6 0.0000 0.0000 0.0000 -13.3384 0.0000 58.0261
#
#
#
# Elastic Compliance Matrix: (Units=1/GPa)
#
#
# Indices 1 2 3 4 5 6 
#
# 1 0.015952 -0.003224 -0.002461 0.000000 -0.010328 0.000000
# 2 -0.003224 0.009586 -0.011499 0.000000 -0.005544 0.000000
# 3 -0.002461 -0.011499 0.054577 0.000000 0.005538 0.000000
# 4 0.000000 0.000000 0.000000 -0.124277 0.000000 -0.028567
# 5 -0.010328 -0.005544 0.005538 0.000000 0.072470 0.000000
# 6 0.000000 0.000000 0.000000 -0.028567 0.000000 0.010667
#
#
# Mechanical properties :
#
#
# Convention : Reuss Voigt Hill
#
# Bulk Modulus (GPa) = 21.85995 55.97096 38.91546
# Shear Modulus (GPa) = 56.43766 26.40502 41.42134
#
# Velocity S-wave (km/s) = 5.04400 3.45011 4.32118
# Velocity P-wave (km/s) = 6.61641 6.41113 6.51458
#
# Compressibility (1/GPa) = 0.04574575
#
# Stress axis : x y z
#
# Youngs Moduli (GPa) = 62.68830 104.31779 18.32275
#
# Poissons Ratio (x) = 0.33633 0.04509
# Poissons Ratio (y) = 0.20211 0.21070
# Poissons Ratio (z) = 0.15428 1.19959
#
# Static dielectric constant tensor:
#      x y z
#    x 1.884940 0.000000 -0.012000 
#    y 0.000000 1.888960 0.000000 
#    z -0.012000 0.000000 1.820560 
# 
# From -- ./inp_files/61273.got.cif
#   From: 2010.05.17/outbox.cif.g08.bks.cpg/sg13_31_cif.got.tgz:61273.got - 2010.06.03 16:44:36.
