data_PCOD9228491
_publ_section_title
;
Structure prediction by ZEFSAII (Michael W. Deem and Ramdas Pophale) SiO2 
 PCOD9228491
Probable space group: P 2/C
;
_chemical_formula_sum "Si O2"
_cell_formula_units_Z 30
_cell_length_a 14.446418
_cell_length_b 13.485117
_cell_length_c 13.753023
_cell_angle_alpha 90.000000
_cell_angle_beta 149.335371
_cell_angle_gamma 90.000000
_cell_volume 1366.449100
_symmetry_space_group_name_H-M "P 2/C"
_symmetry_group_IT_number 13
_symmetry_cell_setting 'monoclinic'
loop_
_space_group_symop_operation_xyz
x,y,z
-x,y,1/2-z
-x,-y,-z
x,-y,1/2+z
loop_
_atom_site_type_symbol
_atom_site_label
_atom_site_fract_x
_atom_site_fract_y
_atom_site_fract_z
Si Si1 0.955452 0.391127 0.371870
Si Si2 0.082098 0.904744 0.024101
Si Si3 0.893420 0.744927 0.317028
Si Si4 0.736436 0.785960 0.639463
Si Si5 0.000000 0.122473 0.750000
Si Si6 0.307965 0.034442 0.541962
Si Si7 0.297148 0.486788 0.723873
Si Si8 0.472572 0.339161 0.024927
O O1 0.011459 0.330297 0.521760
O O2 0.145441 0.442678 0.513969
O O3 0.842522 0.315433 0.202222
O O4 0.818529 0.473797 0.287515
O O5 0.903845 0.846080 0.833281
O O6 0.190612 0.831872 0.192153
O O7 0.199865 0.929283 0.038275
O O8 0.000000 0.000000 0.000000
O O9 0.720912 0.695629 0.109003
O O10 0.025561 0.803526 0.364025
O O11 0.659233 0.866744 0.493856
O O12 0.599953 0.748668 0.599870
O O13 0.828953 0.051022 0.620308
O O14 0.500000 0.992298 0.750000
O O15 0.420688 0.399553 0.878629
O O16 0.418748 0.582619 0.809955
#
# Coordination Sequence:
#
# PCOD9228491 Si02
#       8
#     4   4   4   4   2   4   4   4
#     4   8  16  30  58  89 116 158 191 239 301 369
#     4  11  20  38  60  80 120 156 212 249 299 360
#     4  10  20  35  58  87 114 160 202 246 298 358
#     4  10  19  34  57  89 124 156 194 245 308 355
#     4  12  24  44  56  84 122 162 202 258 306 346
#     4  12  24  40  60  86 122 165 202 257 306 356
#     4   8  14  30  54  92 117 147 192 239 297 360
#     4   9  17  30  55  93 118 150 198 244 291 369
#
# _framework density 21.954715
#
# number of rings (size 3 to 8) (size 9 to 14) (size 15 to 20)
#    0.000    2.133    2.667    0.800    0.000    1.067 
#    2.400    2.667    0.000    0.000  249.600    0.000 
#    0.000    0.000    0.000    0.000    0.000    0.000 
#
# Total GULP energy -167021.983325 kJ/mol
# GULP energy per Si atom -5567.399444 kJ/mol
# Density = 2.190474 g / cm^3
# Si number density = 21.954715 Si / 1000 Ang^3
#
#
#
# Elastic Constant Matrix: (Units=GPa)
#
#
# Indices 1 2 3 4 5 6 
#
# 1 28.4674 18.8589 -3.3743 0.0000 -0.6027 0.0000
# 2 18.8589 67.8163 8.3985 0.0000 9.7926 0.0000
# 3 -3.3743 8.3985 84.3506 0.0000 26.4290 0.0000
# 4 0.0000 0.0000 0.0000 -2.0765 0.0000 0.7025
# 5 -0.6027 9.7926 26.4290 0.0000 19.8958 0.0000
# 6 0.0000 0.0000 0.0000 0.7025 0.0000 16.0794
#
#
#
# Elastic Compliance Matrix: (Units=1/GPa)
#
#
# Indices 1 2 3 4 5 6 
#
# 1 0.044255 -0.013379 0.001061 0.000000 0.006517 0.000000
# 2 -0.013379 0.020028 0.001176 0.000000 -0.011825 0.000000
# 3 0.001061 0.001176 0.020473 0.000000 -0.027742 0.000000
# 4 0.000000 0.000000 0.000000 -0.474574 0.000000 0.020732
# 5 0.006517 -0.011825 -0.027742 0.000000 0.093131 0.000000
# 6 0.000000 0.000000 0.000000 0.020732 0.000000 0.061285
#
#
# Mechanical properties :
#
#
# Convention : Reuss Voigt Hill
#
# Bulk Modulus (GPa) = 16.00766 25.37783 20.69274
# Shear Modulus (GPa) = -26.00214 17.22984 -4.38615
#
# Velocity S-wave (km/s) = -3.44518 2.80445 -1.41497
# Velocity P-wave (km/s) = 2.91867 4.69796 2.60310
#
# Compressibility (1/GPa) = 0.06247010
#
# Stress axis : x y z
#
# Youngs Moduli (GPa) = 22.59635 49.92970 48.84503
#
# Poissons Ratio (x) = 0.66802 -0.05180
# Poissons Ratio (y) = 0.30232 -0.05742
# Poissons Ratio (z) = -0.02397 -0.05870
#
# Static dielectric constant tensor:
#      x y z
#    x 1.787610 0.000000 -0.006040 
#    y 0.000000 1.939890 0.000000 
#    z -0.006040 0.000000 1.883190 
# 
# From -- ./inp_files/53889.got.cif
#   From: 2010.05.17/outbox.cif.g08.bks.cpg/sg13_27_cif.got.tgz:53889.got - 2010.06.03 16:44:36.
