data_PCOD9228501
_publ_section_title
;
Structure prediction by ZEFSAII (Michael W. Deem and Ramdas Pophale) SiO2 
 PCOD9228501
Probable space group: P 2/C
;
_chemical_formula_sum "Si O2"
_cell_formula_units_Z 24
_cell_length_a 18.952549
_cell_length_b 5.555845
_cell_length_c 13.396398
_cell_angle_alpha 90.000000
_cell_angle_beta 141.749924
_cell_angle_gamma 90.000000
_cell_volume 873.299238
_symmetry_space_group_name_H-M "P 2/C"
_symmetry_group_IT_number 13
_symmetry_cell_setting 'monoclinic'
loop_
_space_group_symop_operation_xyz
x,y,z
-x,y,1/2-z
-x,-y,-z
x,-y,1/2+z
loop_
_atom_site_type_symbol
_atom_site_label
_atom_site_fract_x
_atom_site_fract_y
_atom_site_fract_z
Si Si1 0.708878 0.292904 0.643207
Si Si2 0.920207 0.210302 0.453234
Si Si3 0.601504 0.192619 0.284108
Si Si4 0.907663 0.540612 0.243874
Si Si5 0.654661 0.201470 0.131061
Si Si6 0.738001 0.308982 0.913789
O O1 0.809312 0.280333 0.673886
O O2 0.647381 0.550527 0.563270
O O3 0.644277 0.043405 0.560160
O O4 0.748985 0.309644 0.804736
O O5 0.920209 0.382210 0.357493
O O6 0.785542 0.176262 0.317649
O O7 0.975024 0.307742 0.617474
O O8 0.000000 0.000000 0.500000
O O9 0.500000 0.194562 0.250000
O O10 0.572577 0.203019 0.133623
O O11 0.665946 0.452026 0.361836
O O12 0.674809 0.941008 0.372017
O O13 0.857380 0.361376 0.104077
#
# Coordination Sequence:
#
# PCOD9228501 Si02
#       6
#     4   4   4   4   4   4
#     4   9  18  35  55  80 117 154 187 242 295 336
#     4  10  19  34  58  84 120 164 192 240 301 353
#     4  10  21  40  64  87 118 159 201 258 313 349
#     4  10  21  35  59  87 123 161 200 241 297 364
#     4   9  18  34  57  80 114 153 196 234 294 357
#     4  10  22  37  64  90 117 157 204 249 300 368
#
# _framework density 27.481988999999999
#
# number of rings (size 3 to 8) (size 9 to 14) (size 15 to 20)
#    0.000    2.333    1.667    0.500    2.333    0.000 
#    0.000   13.333    0.000   38.000    0.000    0.000 
#    0.000    0.000    0.000    0.000    0.000    0.000 
#
# Total GULP energy -134034.299769 kJ/mol
# GULP energy per Si atom -5584.762490 kJ/mol
# Density = 2.741944 g / cm^3
# Si number density = 27.481989 Si / 1000 Ang^3
#
#
#
# Elastic Constant Matrix: (Units=GPa)
#
#
# Indices 1 2 3 4 5 6 
#
# 1 94.4027 8.8723 -6.6707 0.0000 4.0191 0.0000
# 2 8.8723 192.6227 -2.5375 0.0000 11.4415 0.0000
# 3 -6.6707 -2.5375 45.1963 0.0000 -29.1229 0.0000
# 4 0.0000 0.0000 0.0000 24.0723 0.0000 1.9863
# 5 4.0191 11.4415 -29.1229 0.0000 46.3569 0.0000
# 6 0.0000 0.0000 0.0000 1.9863 0.0000 40.9174
#
#
#
# Elastic Compliance Matrix: (Units=1/GPa)
#
#
# Indices 1 2 3 4 5 6 
#
# 1 0.010750 -0.000489 0.001741 0.000000 0.000283 0.000000
# 2 -0.000489 0.005313 -0.000994 0.000000 -0.001893 0.000000
# 3 0.001741 -0.000994 0.037614 0.000000 0.023725 0.000000
# 4 0.000000 0.000000 0.000000 0.041709 0.000000 -0.002025
# 5 0.000283 -0.001893 0.023725 0.000000 0.036919 0.000000
# 6 0.000000 0.000000 0.000000 -0.002025 0.000000 0.024538
#
#
# Mechanical properties :
#
#
# Convention : Reuss Voigt Hill
#
# Bulk Modulus (GPa) = 18.45211 36.83888 27.64549
# Shear Modulus (GPa) = 28.67115 44.43984 36.55549
#
# Velocity S-wave (km/s) = 3.23347 4.02562 3.65110
# Velocity P-wave (km/s) = 4.54635 5.91957 5.27781
#
# Compressibility (1/GPa) = 0.05419436
#
# Stress axis : x y z
#
# Youngs Moduli (GPa) = 93.02429 188.20370 26.58558
#
# Poissons Ratio (x) = 0.09203 -0.04629
# Poissons Ratio (y) = 0.04549 0.02642
# Poissons Ratio (z) = -0.16198 0.18706
#
# Static dielectric constant tensor:
#      x y z
#    x 2.290250 0.000000 0.149250 
#    y 0.000000 2.204250 0.000000 
#    z 0.149250 0.000000 2.324000 
# 
# From -- ./inp_files/56640.got.cif
#   From: 2010.05.17/outbox.cif.g08.bks.cpg/sg13_29_cif.got.tgz:56640.got - 2010.06.03 16:44:36.
