data_PCOD9228493
_publ_section_title
;
Structure prediction by ZEFSAII (Michael W. Deem and Ramdas Pophale) SiO2 
 PCOD9228493
Probable space group: P 2/C
;
_chemical_formula_sum "Si O2"
_cell_formula_units_Z 32
_cell_length_a 20.567982
_cell_length_b 8.546391
_cell_length_c 28.034983
_cell_angle_alpha 90.000000
_cell_angle_beta 19.557039
_cell_angle_gamma 90.000000
_cell_volume 1649.639249
_symmetry_space_group_name_H-M "P 2/C"
_symmetry_group_IT_number 13
_symmetry_cell_setting 'monoclinic'
loop_
_space_group_symop_operation_xyz
x,y,z
-x,y,1/2-z
-x,-y,-z
x,-y,1/2+z
loop_
_atom_site_type_symbol
_atom_site_label
_atom_site_fract_x
_atom_site_fract_y
_atom_site_fract_z
Si Si1 0.671022 0.631864 0.879120
Si Si2 0.783042 0.790779 0.708078
Si Si3 0.378947 0.288752 0.381483
Si Si4 0.680081 0.506887 0.228744
Si Si5 0.360855 0.703709 0.492314
Si Si6 0.515947 0.989494 0.327366
Si Si7 0.876789 0.565015 0.928724
Si Si8 0.216876 0.229697 0.918830
O O1 0.660013 0.745201 0.840471
O O2 0.676480 0.719079 0.926186
O O3 0.892940 0.569762 0.723073
O O4 0.500000 0.500000 0.000000
O O5 0.812981 0.623176 0.660836
O O6 0.001687 0.844642 0.567631
O O7 0.671488 0.913057 0.751630
O O8 0.500000 0.272488 0.250000
O O9 0.515864 0.399442 0.318459
O O10 0.187531 0.391405 0.511267
O O11 0.365464 0.117228 0.412046
O O12 0.562741 0.607768 0.348199
O O13 0.761262 0.627224 0.134007
O O14 0.404272 0.866320 0.436897
O O15 0.198659 0.613303 0.572133
O O16 0.630270 0.897542 0.206329
O O17 0.767567 0.686698 0.040303
#
# Coordination Sequence:
#
# PCOD9228493 Si02
#       8
#     4   4   4   4   4   4   4   4
#     4  11  22  41  67  86 114 163 217 263 294 344
#     4  10  20  36  56  88 120 157 208 245 301 360
#     4  10  19  35  57  90 123 150 193 251 303 364
#     4   9  17  32  56  84 116 153 200 245 301 356
#     4  10  21  38  61  84 121 164 206 251 302 357
#     4  10  23  35  59  89 128 164 189 245 317 372
#     4  10  22  38  65  94 116 157 213 253 301 362
#     4  10  19  34  57  90 126 159 190 245 311 379
#
# _framework density 19.398178999999999
#
# number of rings (size 3 to 8) (size 9 to 14) (size 15 to 20)
#    0.000    2.000    2.500    1.125    1.750    0.500 
#    0.000    1.250    5.500    0.000    0.000    0.000 
#    0.000    0.000    0.000    0.000    0.000    0.000 
#
# Total GULP energy -178311.605381 kJ/mol
# GULP energy per Si atom -5572.237668 kJ/mol
# Density = 1.935403 g / cm^3
# Si number density = 19.398179 Si / 1000 Ang^3
#
#
#
# Elastic Constant Matrix: (Units=GPa)
#
#
# Indices 1 2 3 4 5 6 
#
# 1 82.4804 20.0583 26.6293 0.0000 16.1876 0.0000
# 2 20.0583 115.2827 40.9673 0.0000 4.9111 0.0000
# 3 26.6293 40.9673 81.3704 0.0000 4.9342 0.0000
# 4 0.0000 0.0000 0.0000 27.9635 0.0000 20.5674
# 5 16.1876 4.9111 4.9342 0.0000 31.3584 0.0000
# 6 0.0000 0.0000 0.0000 20.5674 0.0000 66.8315
#
#
#
# Elastic Compliance Matrix: (Units=1/GPa)
#
#
# Indices 1 2 3 4 5 6 
#
# 1 0.015014 -0.000876 -0.004049 0.000000 -0.006976 0.000000
# 2 -0.000876 0.010637 -0.005043 0.000000 -0.000420 0.000000
# 3 -0.004049 -0.005043 0.016133 0.000000 0.000342 0.000000
# 4 0.000000 0.000000 0.000000 0.046224 0.000000 -0.014225
# 5 -0.006976 -0.000420 0.000342 0.000000 0.035502 0.000000
# 6 0.000000 0.000000 0.000000 -0.014225 0.000000 0.019341
#
#
# Mechanical properties :
#
#
# Convention : Reuss Voigt Hill
#
# Bulk Modulus (GPa) = 45.77410 50.49370 48.13390
# Shear Modulus (GPa) = 29.39980 37.99592 33.69786
#
# Velocity S-wave (km/s) = 3.89729 4.43056 4.17245
# Velocity P-wave (km/s) = 6.62572 7.22910 6.93397
#
# Compressibility (1/GPa) = 0.02184642
#
# Stress axis : x y z
#
# Youngs Moduli (GPa) = 66.60648 94.01334 61.98497
#
# Poissons Ratio (x) = 0.08237 0.25099
# Poissons Ratio (y) = 0.05835 0.31260
# Poissons Ratio (z) = 0.26971 0.47412
#
# Static dielectric constant tensor:
#      x y z
#    x 1.619370 0.000000 -0.054840 
#    y 0.000000 1.724770 0.000000 
#    z -0.054840 0.000000 1.674320 
# 
# From -- ./inp_files/93561.got.cif
#   From: 2010.05.17/outbox.cif.g08.bks.cpg/sg13_47_cif.got.tgz:93561.got - 2010.06.03 16:44:36.
