data_PCOD9228046
_publ_section_title
;
Structure prediction by ZEFSAII (Michael W. Deem and Ramdas Pophale) SiO2 
 PCOD9228046
Probable space group: P 2/C
;
_chemical_formula_sum "Si O2"
_cell_formula_units_Z 32
_cell_length_a 15.677290
_cell_length_b 5.143391
_cell_length_c 21.457762
_cell_angle_alpha 90.000000
_cell_angle_beta 64.881787
_cell_angle_gamma 90.000000
_cell_volume 1566.612950
_symmetry_space_group_name_H-M "P 2/C"
_symmetry_group_IT_number 13
_symmetry_cell_setting 'monoclinic'
loop_
_space_group_symop_operation_xyz
x,y,z
-x,y,1/2-z
-x,-y,-z
x,-y,1/2+z
loop_
_atom_site_type_symbol
_atom_site_label
_atom_site_fract_x
_atom_site_fract_y
_atom_site_fract_z
Si Si1 0.160531 0.115873 0.041608
Si Si2 0.905864 0.620305 0.500872
Si Si3 0.267631 0.612389 0.851538
Si Si4 0.657852 0.894611 0.106729
Si Si5 0.423406 0.218855 0.509894
Si Si6 0.753840 0.038420 0.863728
Si Si7 0.293428 0.462788 0.203374
Si Si8 0.503666 0.551848 0.391152
O O1 0.129927 0.412534 0.039509
O O2 0.259980 0.097359 0.971677
O O3 0.092133 0.906709 0.029550
O O4 0.163935 0.041705 0.113761
O O5 0.828318 0.633425 0.579563
O O6 0.000000 0.500000 0.500000
O O7 0.315473 0.344614 0.856837
O O8 0.250007 0.601530 0.783706
O O9 0.333504 0.849457 0.853814
O O10 0.557426 0.799990 0.109781
O O11 0.324326 0.109600 0.560698
O O12 0.429430 0.336094 0.438839
O O13 0.440986 0.422472 0.560215
O O14 0.500000 0.000000 0.500000
O O15 0.751521 0.282755 0.816592
O O16 0.722159 0.785297 0.835742
O O17 0.407078 0.496881 0.179816
#
# Coordination Sequence:
#
# PCOD9228046 Si02
#       8
#     4   4   4   4   4   4   4   4
#     4  10  21  36  61  95 116 141 193 243 302 344
#     4  10  21  40  67  92 115 145 185 245 304 361
#     4  10  23  41  59  83 115 159 199 240 301 366
#     4  10  22  36  59  80 116 155 201 258 289 334
#     4  10  19  32  50  78 115 151 202 247 293 328
#     4  11  22  35  60  83 118 158 194 251 289 352
#     4  11  23  39  55  81 120 166 204 232 299 356
#     4  10  22  32  51  81 112 158 202 249 287 333
#
# _framework density 20.426231999999999
#
# number of rings (size 3 to 8) (size 9 to 14) (size 15 to 20)
#    0.000    1.750    1.250    2.625   10.500    0.500 
#    0.000    1.250    0.000    4.500    0.000    0.000 
#    0.000    0.000    0.000    0.000    0.000    0.000 
#
# Total GULP energy -178338.016611 kJ/mol
# GULP energy per Si atom -5573.063019 kJ/mol
# Density = 2.037974 g / cm^3
# Si number density = 20.426232 Si / 1000 Ang^3
#
#
#
# Elastic Constant Matrix: (Units=GPa)
#
#
# Indices 1 2 3 4 5 6 
#
# 1 51.9109 12.9317 22.9622 0.0000 10.5249 0.0000
# 2 12.9317 121.1498 40.1254 0.0000 12.1472 0.0000
# 3 22.9622 40.1254 56.8854 0.0000 17.8568 0.0000
# 4 0.0000 0.0000 0.0000 20.7770 0.0000 7.2832
# 5 10.5249 12.1472 17.8568 0.0000 17.9118 0.0000
# 6 0.0000 0.0000 0.0000 7.2832 0.0000 28.4079
#
#
#
# Elastic Compliance Matrix: (Units=1/GPa)
#
#
# Indices 1 2 3 4 5 6 
#
# 1 0.024014 0.000813 -0.008245 0.000000 -0.006443 0.000000
# 2 0.000813 0.010800 -0.008001 0.000000 0.000174 0.000000
# 3 -0.008245 -0.008001 0.033952 0.000000 -0.023577 0.000000
# 4 0.000000 0.000000 0.000000 0.052883 0.000000 -0.013558
# 5 -0.006443 0.000174 -0.023577 0.000000 0.083001 0.000000
# 6 0.000000 0.000000 0.000000 -0.013558 0.000000 0.038678
#
#
# Mechanical properties :
#
#
# Convention : Reuss Voigt Hill
#
# Bulk Modulus (GPa) = 26.38426 42.44275 34.41350
# Shear Modulus (GPa) = 17.43210 23.68111 20.55660
#
# Velocity S-wave (km/s) = 2.92450 3.40861 3.17579
# Velocity P-wave (km/s) = 4.93442 6.02621 5.50743
#
# Compressibility (1/GPa) = 0.03790139
#
# Stress axis : x y z
#
# Youngs Moduli (GPa) = 41.64160 92.59317 29.45324
#
# Poissons Ratio (x) = -0.07532 0.24284
# Poissons Ratio (y) = -0.03387 0.23566
# Poissons Ratio (z) = 0.34333 0.74084
#
# Static dielectric constant tensor:
#      x y z
#    x 1.832520 0.000000 -0.016610 
#    y 0.000000 1.813360 0.000000 
#    z -0.016610 0.000000 1.716290 
# 
# From -- ./inp_files/79333.got.cif
#   From: 2010.05.17/outbox.cif.g08.bks.cpg/sg13_40_cif.got.tgz:79333.got - 2010.06.03 16:44:36.
