data_PCOD9228849
_publ_section_title
;
Structure prediction by ZEFSAII (Michael W. Deem and Ramdas Pophale) SiO2 
 PCOD9228849
Probable space group: P 2/C
;
_chemical_formula_sum "Si O2"
_cell_formula_units_Z 28
_cell_length_a 8.771723
_cell_length_b 24.054267
_cell_length_c 14.590107
_cell_angle_alpha 90.000000
_cell_angle_beta 151.054167
_cell_angle_gamma 90.000000
_cell_volume 1489.927759
_symmetry_space_group_name_H-M "P 2/C"
_symmetry_group_IT_number 13
_symmetry_cell_setting 'monoclinic'
loop_
_space_group_symop_operation_xyz
x,y,z
-x,y,1/2-z
-x,-y,-z
x,-y,1/2+z
loop_
_atom_site_type_symbol
_atom_site_label
_atom_site_fract_x
_atom_site_fract_y
_atom_site_fract_z
Si Si1 0.336371 0.533914 0.325702
Si Si2 0.627715 0.147538 0.713874
Si Si3 0.377931 0.239164 0.936812
Si Si4 0.375118 0.937544 0.939827
Si Si5 0.614656 0.569842 0.903780
Si Si6 0.372738 0.637316 0.949166
Si Si7 0.619643 0.851434 0.916106
O O1 0.500000 0.500000 0.500000
O O2 0.403420 0.485844 0.289695
O O3 0.512881 0.592871 0.414296
O O4 0.969195 0.550146 0.118625
O O5 0.500000 0.151699 0.750000
O O6 0.528391 0.199935 0.599073
O O7 0.499740 0.092887 0.596407
O O8 0.003752 0.146120 0.897642
O O9 0.000000 0.243744 0.750000
O O10 0.512090 0.299757 0.987407
O O11 0.477818 0.205087 0.080837
O O12 0.497810 0.901154 0.917675
O O13 0.000000 0.937213 0.750000
O O14 0.500000 0.000000 0.000000
O O15 0.500000 0.598982 0.750000
O O16 0.517320 0.610872 0.933649
O O17 0.000000 0.635415 0.750000
O O18 0.500000 0.854022 0.750000
#
# Coordination Sequence:
#
# PCOD9228849 Si02
#       7
#     4   4   4   4   4   4   4
#     4  10  19  36  58  79 108 146 183 222 280 346
#     4  10  21  39  61  87 118 153 194 240 292 347
#     4   9  20  39  59  81 114 153 193 239 288 343
#     4  11  22  38  60  87 120 155 195 240 289 343
#     4  11  22  37  58  84 112 142 184 236 286 339
#     4  11  22  37  57  81 110 148 189 227 280 345
#     4  10  21  38  61  87 117 153 194 238 291 347
#
# _framework density 18.792857000000001
#
# number of rings (size 3 to 8) (size 9 to 14) (size 15 to 20)
#    0.000    1.714    0.000    7.714    0.000    4.571 
#    0.000    6.429    0.000    0.000    0.000    0.000 
#    0.000    0.000    0.000    0.000    0.000    0.000 
#
# Total GULP energy -155907.032206 kJ/mol
# GULP energy per Si atom -5568.108293 kJ/mol
# Density = 1.875008 g / cm^3
# Si number density = 18.792857 Si / 1000 Ang^3
#
#
#
# Elastic Constant Matrix: (Units=GPa)
#
#
# Indices 1 2 3 4 5 6 
#
# 1 92.0142 35.3696 29.4942 0.0000 -3.2298 0.0000
# 2 35.3696 150.6355 29.5405 0.0000 5.3696 0.0000
# 3 29.4942 29.5405 77.6228 0.0000 7.1673 0.0000
# 4 0.0000 0.0000 0.0000 26.1273 0.0000 15.3205
# 5 -3.2298 5.3696 7.1673 0.0000 33.1008 0.0000
# 6 0.0000 0.0000 0.0000 15.3205 0.0000 34.3722
#
#
#
# Elastic Compliance Matrix: (Units=1/GPa)
#
#
# Indices 1 2 3 4 5 6 
#
# 1 0.013270 -0.002348 -0.004391 0.000000 0.002627 0.000000
# 2 -0.002348 0.007601 -0.001903 0.000000 -0.001050 0.000000
# 3 -0.004391 -0.001903 0.015599 0.000000 -0.003497 0.000000
# 4 0.000000 0.000000 0.000000 0.051817 0.000000 -0.023096
# 5 0.002627 -0.001050 -0.003497 0.000000 0.031395 0.000000
# 6 0.000000 0.000000 0.000000 -0.023096 0.000000 0.039388
#
#
# Mechanical properties :
#
#
# Convention : Reuss Voigt Hill
#
# Bulk Modulus (GPa) = 52.12698 56.56457 54.34578
# Shear Modulus (GPa) = 27.35986 33.77793 30.56890
#
# Velocity S-wave (km/s) = 3.81972 4.24415 4.03752
# Velocity P-wave (km/s) = 6.87398 7.36080 7.12155
#
# Compressibility (1/GPa) = 0.01918392
#
# Stress axis : x y z
#
# Youngs Moduli (GPa) = 75.35614 131.56816 64.10865
#
# Poissons Ratio (x) = 0.30898 0.28151
# Poissons Ratio (y) = 0.17697 0.12202
# Poissons Ratio (z) = 0.33090 0.25041
#
# Static dielectric constant tensor:
#      x y z
#    x 1.667310 0.000000 0.007490 
#    y 0.000000 1.637550 0.000000 
#    z 0.007490 0.000000 1.755970 
# 
# From -- ./inp_files/48235.got.cif
#   From: 2010.05.17/outbox.cif.g08.bks.cpg/sg13_25_cif.got.tgz:48235.got - 2010.06.03 16:44:36.
