data_PCOD9228717
_publ_section_title
;
Structure prediction by ZEFSAII (Michael W. Deem and Ramdas Pophale) SiO2 
 PCOD9228717
Probable space group: P 2/C
;
_chemical_formula_sum "Si O2"
_cell_formula_units_Z 22
_cell_length_a 21.078648
_cell_length_b 11.389570
_cell_length_c 11.140927
_cell_angle_alpha 90.000000
_cell_angle_beta 23.688871
_cell_angle_gamma 90.000000
_cell_volume 1074.604906
_symmetry_space_group_name_H-M "P 2/C"
_symmetry_group_IT_number 13
_symmetry_cell_setting 'monoclinic'
loop_
_space_group_symop_operation_xyz
x,y,z
-x,y,1/2-z
-x,-y,-z
x,-y,1/2+z
loop_
_atom_site_type_symbol
_atom_site_label
_atom_site_fract_x
_atom_site_fract_y
_atom_site_fract_z
Si Si1 0.036760 0.077893 0.318800
Si Si2 0.239049 0.743255 0.185627
Si Si3 0.634386 0.527870 0.417041
Si Si4 0.394040 0.091052 0.759855
Si Si5 0.414002 0.688208 0.637364
Si Si6 0.500000 0.915535 0.750000
O O1 0.000000 0.024050 0.250000
O O2 0.925147 0.191547 0.520602
O O3 0.220578 0.110061 0.010044
O O4 0.000000 0.000000 0.500000
O O5 0.239674 0.612863 0.238359
O O6 0.306244 0.737786 0.932531
O O7 0.373926 0.821346 0.020124
O O8 0.550392 0.608340 0.461704
O O9 0.681107 0.403404 0.280611
O O10 0.500000 0.505551 0.750000
O O11 0.498760 0.207866 0.584707
O O12 0.500000 0.000000 0.500000
O O13 0.379609 0.010155 0.902223
#
# Coordination Sequence:
#
# PCOD9228717 Si02
#       6
#     4   4   4   4   4   2
#     4  12  25  41  66 100 143 180 221 275 354 416
#     4  11  20  41  65  93 131 177 219 284 346 407
#     4   9  18  34  61  89 117 165 233 272 328 395
#     4  12  23  38  64  98 138 173 223 278 343 418
#     4  10  19  35  60  91 119 169 226 276 320 402
#     4  12  20  36  60  96 134 168 218 270 346 412
#
# _framework density 20.472639999999998
#
# number of rings (size 3 to 8) (size 9 to 14) (size 15 to 20)
#    0.000    1.091    6.364    2.182    1.273    0.000 
#    0.000    0.000    0.000   21.818    0.000    0.000 
#    0.000    0.000    0.000    0.000    0.000    0.000 
#
# Total GULP energy -122554.695387 kJ/mol
# GULP energy per Si atom -5570.667972 kJ/mol
# Density = 2.042604 g / cm^3
# Si number density = 20.472640 Si / 1000 Ang^3
#
#
#
# Elastic Constant Matrix: (Units=GPa)
#
#
# Indices 1 2 3 4 5 6 
#
# 1 70.2741 50.3238 35.6844 0.0000 -3.6613 0.0000
# 2 50.3238 129.9584 55.1584 0.0000 6.1674 0.0000
# 3 35.6844 55.1584 99.9422 0.0000 -17.0559 0.0000
# 4 0.0000 0.0000 0.0000 24.9399 0.0000 4.3454
# 5 -3.6613 6.1674 -17.0559 0.0000 36.7667 0.0000
# 6 0.0000 0.0000 0.0000 4.3454 0.0000 41.1848
#
#
#
# Elastic Compliance Matrix: (Units=1/GPa)
#
#
# Indices 1 2 3 4 5 6 
#
# 1 0.020865 -0.006668 -0.003501 0.000000 0.001572 0.000000
# 2 -0.006668 0.012960 -0.005708 0.000000 -0.005486 0.000000
# 3 -0.003501 -0.005708 0.015758 0.000000 0.007919 0.000000
# 4 0.000000 0.000000 0.000000 0.040847 0.000000 -0.004310
# 5 0.001572 -0.005486 0.007919 0.000000 0.031949 0.000000
# 6 0.000000 0.000000 0.000000 -0.004310 0.000000 0.024736
#
#
# Mechanical properties :
#
#
# Convention : Reuss Voigt Hill
#
# Bulk Modulus (GPa) = 56.09313 64.72309 60.40811
# Shear Modulus (GPa) = 27.05466 31.17883 29.11675
#
# Velocity S-wave (km/s) = 3.63919 3.90673 3.77533
# Velocity P-wave (km/s) = 6.71691 7.21340 6.96958
#
# Compressibility (1/GPa) = 0.01782750
#
# Stress axis : x y z
#
# Youngs Moduli (GPa) = 47.92744 77.16178 63.46148
#
# Poissons Ratio (x) = 0.51451 0.22221
# Poissons Ratio (y) = 0.31958 0.36223
# Poissons Ratio (z) = 0.16782 0.44043
#
# Static dielectric constant tensor:
#      x y z
#    x 0.530210 0.000000 -0.608200 
#    y 0.000000 1.706270 0.000000 
#    z -0.608200 0.000000 1.397670 
# 
# From -- ./inp_files/41825.got.cif
#   From: 2010.05.17/outbox.cif.g08.bks.cpg/sg13_21_cif.got.tgz:41825.got - 2010.06.03 16:44:36.
