data_PCOD9228573
_publ_section_title
;
Structure prediction by ZEFSAII (Michael W. Deem and Ramdas Pophale) SiO2 
 PCOD9228573
Probable space group: P 2/C
;
_chemical_formula_sum "Si O2"
_cell_formula_units_Z 28
_cell_length_a 16.582180
_cell_length_b 16.643935
_cell_length_c 5.310977
_cell_angle_alpha 90.000000
_cell_angle_beta 102.881552
_cell_angle_gamma 90.000000
_cell_volume 1428.901495
_symmetry_space_group_name_H-M "P 2/C"
_symmetry_group_IT_number 13
_symmetry_cell_setting 'monoclinic'
loop_
_space_group_symop_operation_xyz
x,y,z
-x,y,1/2-z
-x,-y,-z
x,-y,1/2+z
loop_
_atom_site_type_symbol
_atom_site_label
_atom_site_fract_x
_atom_site_fract_y
_atom_site_fract_z
Si Si1 0.000000 0.057565 0.750000
Si Si2 0.821870 0.451091 0.937907
Si Si3 0.097314 0.714575 0.519910
Si Si4 0.408763 0.547245 0.634840
Si Si5 0.899447 0.194321 0.968047
Si Si6 0.000000 0.581859 0.750000
Si Si7 0.732243 0.271855 0.862185
Si Si8 0.296816 0.691908 0.658856
O O1 0.931801 0.119437 0.825056
O O2 0.000000 0.000000 0.500000
O O3 0.797785 0.499969 0.171712
O O4 0.923251 0.452030 0.028924
O O5 0.779598 0.361438 0.900598
O O6 0.078066 0.735262 0.216599
O O7 0.052850 0.637025 0.595218
O O8 0.078920 0.784348 0.721870
O O9 0.196134 0.698349 0.593914
O O10 0.500000 0.582830 0.750000
O O11 0.403836 0.524433 0.337366
O O12 0.336186 0.605727 0.662621
O O13 0.800896 0.202725 0.910335
O O14 0.679622 0.264645 0.577855
O O15 0.676748 0.269029 0.066344
#
# Coordination Sequence:
#
# PCOD9228573 Si02
#       8
#     2   4   4   4   4   2   4   4
#     4  12  24  37  55  84 106 126 170 216 266 297
#     4  12  26  36  43  62  92 121 158 217 260 290
#     4  10  21  34  57  71  88 128 178 200 251 307
#     4  10  21  35  51  72  97 130 167 210 275 332
#     4  10  20  37  54  72  95 129 162 209 245 306
#     4  12  22  39  45  62  92 120 166 214 250 319
#     4  10  21  37  53  70  91 129 176 196 261 318
#     4  10  19  35  50  73  89 116 166 220 238 306
#
# _framework density 19.595472999999998
#
# number of rings (size 3 to 8) (size 9 to 14) (size 15 to 20)
#    0.000    1.429    2.857    3.857    2.000    4.571 
#    0.000    0.000    0.000    0.000    0.000    0.000 
#    0.000    0.000    0.000    0.000    0.000  228.571 
#
# Total GULP energy -155874.715553 kJ/mol
# GULP energy per Si atom -5566.954127 kJ/mol
# Density = 1.955087 g / cm^3
# Si number density = 19.595473 Si / 1000 Ang^3
#
#
#
# Elastic Constant Matrix: (Units=GPa)
#
#
# Indices 1 2 3 4 5 6 
#
# 1 48.9669 14.8825 17.8601 0.0000 -8.1783 0.0000
# 2 14.8825 62.3994 25.6109 0.0000 -6.6041 0.0000
# 3 17.8601 25.6109 150.1245 0.0000 -47.9502 0.0000
# 4 0.0000 0.0000 0.0000 26.9692 0.0000 -12.3024
# 5 -8.1783 -6.6041 -47.9502 0.0000 22.2563 0.0000
# 6 0.0000 0.0000 0.0000 -12.3024 0.0000 16.1292
#
#
#
# Elastic Compliance Matrix: (Units=1/GPa)
#
#
# Indices 1 2 3 4 5 6 
#
# 1 0.023097 -0.004965 0.001089 0.000000 0.009359 0.000000
# 2 -0.004965 0.018407 -0.004450 0.000000 -0.005949 0.000000
# 3 0.001089 -0.004450 0.022436 0.000000 0.047416 0.000000
# 4 0.000000 0.000000 0.000000 0.056865 0.000000 0.043373
# 5 0.009359 -0.005949 0.047416 0.000000 0.148762 0.000000
# 6 0.000000 0.000000 0.000000 0.043373 0.000000 0.095082
#
#
# Mechanical properties :
#
#
# Convention : Reuss Voigt Hill
#
# Bulk Modulus (GPa) = 21.14737 42.02197 31.58467
# Shear Modulus (GPa) = 12.59250 26.61340 19.60295
#
# Velocity S-wave (km/s) = 2.53775 3.68929 3.16631
# Velocity P-wave (km/s) = 4.40480 6.29596 5.43330
#
# Compressibility (1/GPa) = 0.04728721
#
# Stress axis : x y z
#
# Youngs Moduli (GPa) = 43.29549 54.32828 44.57185
#
# Poissons Ratio (x) = 0.26974 -0.04852
# Poissons Ratio (y) = 0.21496 0.19833
# Poissons Ratio (z) = -0.04713 0.24174
#
# Static dielectric constant tensor:
#      x y z
#    x 1.742850 0.000000 -0.001190 
#    y 0.000000 1.737850 0.000000 
#    z -0.001190 0.000000 1.858990 
# 
# From -- ./inp_files/6225.got.cif
#   From: 2010.05.17/outbox.cif.g08.bks.cpg/sg13_4_cif.got.tgz:6225.got - 2010.06.03 16:44:36.
