data_PCOD9228054
_publ_section_title
;
Structure prediction by ZEFSAII (Michael W. Deem and Ramdas Pophale) SiO2 
 PCOD9228054
Probable space group: P 2/C
;
_chemical_formula_sum "Si O2"
_cell_formula_units_Z 28
_cell_length_a 18.673910
_cell_length_b 10.350660
_cell_length_c 26.341439
_cell_angle_alpha 90.000000
_cell_angle_beta 17.041281
_cell_angle_gamma 90.000000
_cell_volume 1492.108103
_symmetry_space_group_name_H-M "P 2/C"
_symmetry_group_IT_number 13
_symmetry_cell_setting 'monoclinic'
loop_
_space_group_symop_operation_xyz
x,y,z
-x,y,1/2-z
-x,-y,-z
x,-y,1/2+z
loop_
_atom_site_type_symbol
_atom_site_label
_atom_site_fract_x
_atom_site_fract_y
_atom_site_fract_z
Si Si1 0.712391 0.016079 0.068519
Si Si2 0.462855 0.141495 0.048370
Si Si3 0.675457 0.355085 0.838506
Si Si4 0.876762 0.468807 0.285132
Si Si5 0.961600 0.195297 0.333761
Si Si6 0.080948 0.847943 0.397037
Si Si7 0.646742 0.107163 0.261942
O O1 0.500000 0.970574 0.250000
O O2 0.578640 0.119880 0.123565
O O3 0.785042 0.898080 0.983466
O O4 0.929053 0.078602 0.954856
O O5 0.438661 0.147776 0.124793
O O6 0.207683 0.183454 0.198304
O O7 0.650434 0.241530 0.897439
O O8 0.500000 0.000000 0.000000
O O9 0.842022 0.458632 0.755140
O O10 0.789228 0.279545 0.713228
O O11 0.403287 0.416490 0.013662
O O12 0.000000 0.541176 0.250000
O O13 0.066082 0.348960 0.150478
O O14 0.000000 0.148552 0.250000
O O15 0.883452 0.826138 0.575881
O O16 0.271388 0.956276 0.287412
#
# Coordination Sequence:
#
# PCOD9228054 Si02
#       7
#     4   4   4   4   4   4   4
#     4  10  20  33  52  81 112 143 178 220 279 335
#     4  11  18  31  52  82 108 135 176 220 276 335
#     4  10  20  36  58  76 111 144 181 235 272 318
#     4   9  21  36  54  80 103 145 195 231 270 315
#     4  10  19  32  51  75 105 135 181 231 263 316
#     4  10  20  35  53  82 113 146 175 219 283 341
#     4  10  20  32  52  84 115 142 173 214 281 344
#
# _framework density 18.765397
#
# number of rings (size 3 to 8) (size 9 to 14) (size 15 to 20)
#    0.000    2.000    2.857    0.857    4.000    1.143 
#    0.000    0.714    0.000   13.714    0.000    0.000 
#    0.000    0.000    0.000    0.000    0.000    0.000 
#
# Total GULP energy -155890.885269 kJ/mol
# GULP energy per Si atom -5567.531617 kJ/mol
# Density = 1.872269 g / cm^3
# Si number density = 18.765397 Si / 1000 Ang^3
#
#
#
# Elastic Constant Matrix: (Units=GPa)
#
#
# Indices 1 2 3 4 5 6 
#
# 1 88.3231 4.4896 23.8203 0.0000 12.5305 0.0000
# 2 4.4896 30.9932 15.6330 0.0000 10.3279 0.0000
# 3 23.8203 15.6330 55.3831 0.0000 21.7042 0.0000
# 4 0.0000 0.0000 0.0000 15.5055 0.0000 9.5544
# 5 12.5305 10.3279 21.7042 0.0000 40.4175 0.0000
# 6 0.0000 0.0000 0.0000 9.5544 0.0000 28.9601
#
#
#
# Elastic Compliance Matrix: (Units=1/GPa)
#
#
# Indices 1 2 3 4 5 6 
#
# 1 0.012905 0.001316 -0.005348 0.000000 -0.001466 0.000000
# 2 0.001316 0.038555 -0.009408 0.000000 -0.005208 0.000000
# 3 -0.005348 -0.009408 0.027129 0.000000 -0.010506 0.000000
# 4 0.000000 0.000000 0.000000 0.080949 0.000000 -0.026706
# 5 -0.001466 -0.005208 -0.010506 0.000000 0.032169 0.000000
# 6 0.000000 0.000000 0.000000 -0.026706 0.000000 0.043341
#
#
# Mechanical properties :
#
#
# Convention : Reuss Voigt Hill
#
# Bulk Modulus (GPa) = 19.33839 29.17614 24.25726
# Shear Modulus (GPa) = 17.91054 25.69372 21.80213
#
# Velocity S-wave (km/s) = 3.09276 3.70429 3.41225
# Velocity P-wave (km/s) = 4.80430 5.82042 5.33660
#
# Compressibility (1/GPa) = 0.05171062
#
# Stress axis : x y z
#
# Youngs Moduli (GPa) = 77.48713 25.93669 36.86069
#
# Poissons Ratio (x) = -0.03414 0.19712
# Poissons Ratio (y) = -0.10200 0.34679
# Poissons Ratio (z) = 0.41439 0.24402
#
# Static dielectric constant tensor:
#      x y z
#    x 1.817130 0.000000 -0.096630 
#    y 0.000000 1.728290 0.000000 
#    z -0.096630 0.000000 1.838800 
# 
# From -- ./inp_files/88108.got.cif
#   From: 2010.05.17/outbox.cif.g08.bks.cpg/sg13_45_cif.got.tgz:88108.got - 2010.06.03 16:44:36.
