data_PCOD9228080
_publ_section_title
;
Structure prediction by ZEFSAII (Michael W. Deem and Ramdas Pophale) SiO2 
 PCOD9228080
Probable space group: P 2/C
;
_chemical_formula_sum "Si O2"
_cell_formula_units_Z 26
_cell_length_a 15.181299
_cell_length_b 11.394236
_cell_length_c 25.278833
_cell_angle_alpha 90.000000
_cell_angle_beta 161.210107
_cell_angle_gamma 90.000000
_cell_volume 1408.445798
_symmetry_space_group_name_H-M "P 2/C"
_symmetry_group_IT_number 13
_symmetry_cell_setting 'monoclinic'
loop_
_space_group_symop_operation_xyz
x,y,z
-x,y,1/2-z
-x,-y,-z
x,-y,1/2+z
loop_
_atom_site_type_symbol
_atom_site_label
_atom_site_fract_x
_atom_site_fract_y
_atom_site_fract_z
Si Si1 0.359796 0.253175 0.801842
Si Si2 0.992114 0.862144 0.487049
Si Si3 0.500000 0.280666 0.250000
Si Si4 0.706807 0.587623 0.058400
Si Si5 0.894685 0.564009 0.045565
Si Si6 0.263095 0.320736 0.577779
Si Si7 0.319517 0.683460 0.920786
O O1 0.157724 0.166206 0.654538
O O2 0.608455 0.275138 0.903318
O O3 0.183571 0.371633 0.707093
O O4 0.489613 0.234893 0.933449
O O5 0.840124 0.787799 0.446161
O O6 0.292366 0.806581 0.660674
O O7 0.000000 0.000000 0.500000
O O8 0.694004 0.364930 0.393504
O O9 0.760647 0.581145 0.026723
O O10 0.662860 0.451684 0.049337
O O11 0.000000 0.625403 0.250000
O O12 0.462024 0.667485 0.943801
O O13 0.927319 0.429742 0.045710
O O14 0.500000 0.373939 0.750000
O O15 0.000000 0.715577 0.750000
#
# Coordination Sequence:
#
# PCOD9228080 Si02
#       7
#     4   4   2   4   4   4   4
#     4  10  21  35  56  84 119 158 193 253 301 360
#     4  10  24  41  60  83 115 156 210 250 304 363
#     4  10  24  36  58  88 116 156 192 250 306 384
#     4  10  19  32  52  78 128 170 193 237 285 371
#     4  11  20  34  56  87 127 153 199 236 315 375
#     4  10  21  33  57  83 118 159 185 250 305 367
#     4  10  20  31  49  85 119 162 203 233 293 353
#
# _framework density 18.460065
#
# number of rings (size 3 to 8) (size 9 to 14) (size 15 to 20)
#    0.000    1.846    3.846    0.000    5.385    3.077 
#    0.000    0.000    0.000    0.000    0.000    5.385 
#    9.231    0.154    0.000    0.000    0.000    0.000 
#
# Total GULP energy -144780.901262 kJ/mol
# GULP energy per Si atom -5568.496202 kJ/mol
# Density = 1.841805 g / cm^3
# Si number density = 18.460065 Si / 1000 Ang^3
#
#
#
# Elastic Constant Matrix: (Units=GPa)
#
#
# Indices 1 2 3 4 5 6 
#
# 1 76.7551 23.3144 7.8933 0.0000 12.3575 0.0000
# 2 23.3144 87.2647 26.2607 0.0000 6.3058 0.0000
# 3 7.8933 26.2607 76.7064 0.0000 6.3580 0.0000
# 4 0.0000 0.0000 0.0000 -352.0467 0.0000 -46.2508
# 5 12.3575 6.3058 6.3580 0.0000 26.7992 0.0000
# 6 0.0000 0.0000 0.0000 -46.2508 0.0000 7.7475
#
#
#
# Elastic Compliance Matrix: (Units=1/GPa)
#
#
# Indices 1 2 3 4 5 6 
#
# 1 0.015108 -0.003654 0.000206 0.000000 -0.006156 0.000000
# 2 -0.003654 0.013766 -0.004292 0.000000 -0.000536 0.000000
# 3 0.000206 -0.004292 0.014698 0.000000 -0.002572 0.000000
# 4 0.000000 0.000000 0.000000 -0.001592 0.000000 -0.009504
# 5 -0.006156 -0.000536 -0.002572 0.000000 0.040889 0.000000
# 6 0.000000 0.000000 0.000000 -0.009504 0.000000 0.072339
#
#
# Mechanical properties :
#
#
# Convention : Reuss Voigt Hill
#
# Bulk Modulus (GPa) = 35.59617 39.51812 37.55714
# Shear Modulus (GPa) = 27.76962 -51.28284 -11.75661
#
# Velocity S-wave (km/s) = 3.88275 -5.27643 -2.52636
# Velocity P-wave (km/s) = 6.27898 3.95817 3.44663
#
# Compressibility (1/GPa) = 0.02809291
#
# Stress axis : x y z
#
# Youngs Moduli (GPa) = 66.18954 72.64271 68.03542
#
# Poissons Ratio (x) = 0.26542 -0.01405
# Poissons Ratio (y) = 0.24184 0.29204
# Poissons Ratio (z) = -0.01366 0.31181
#
# Static dielectric constant tensor:
#      x y z
#    x 1.706930 0.000000 0.008330 
#    y 0.000000 1.590370 0.000000 
#    z 0.008330 0.000000 1.709120 
# 
# From -- ./inp_files/92906.got.cif
#   From: 2010.05.17/outbox.cif.g08.bks.cpg/sg13_47_cif.got.tgz:92906.got - 2010.06.03 16:44:36.
