data_PCOD9228210
_publ_section_title
;
Structure prediction by ZEFSAII (Michael W. Deem and Ramdas Pophale) SiO2 
 PCOD9228210
Probable space group: P 2/C
;
_chemical_formula_sum "Si O2"
_cell_formula_units_Z 24
_cell_length_a 9.853424
_cell_length_b 4.868433
_cell_length_c 21.423287
_cell_angle_alpha 90.000000
_cell_angle_beta 62.120820
_cell_angle_gamma 90.000000
_cell_volume 908.412504
_symmetry_space_group_name_H-M "P 2/C"
_symmetry_group_IT_number 13
_symmetry_cell_setting 'monoclinic'
loop_
_space_group_symop_operation_xyz
x,y,z
-x,y,1/2-z
-x,-y,-z
x,-y,1/2+z
loop_
_atom_site_type_symbol
_atom_site_label
_atom_site_fract_x
_atom_site_fract_y
_atom_site_fract_z
Si Si1 0.350144 0.607206 0.959200
Si Si2 0.448061 0.776546 0.324131
Si Si3 0.091275 0.303267 0.433338
Si Si4 0.130215 0.164128 0.846413
Si Si5 0.765187 0.153661 0.809847
Si Si6 0.697261 0.681609 0.904912
O O1 0.394068 0.398810 0.894378
O O2 0.228555 0.794711 0.950266
O O3 0.512152 0.732878 0.945862
O O4 0.274287 0.450774 0.033808
O O5 0.500000 0.612947 0.250000
O O6 0.302311 0.936653 0.328653
O O7 0.598046 0.930460 0.317016
O O8 0.125982 0.520607 0.369754
O O9 0.000000 0.500000 0.500000
O O10 0.029593 0.035414 0.411264
O O11 0.121569 0.146212 0.773630
O O12 0.742530 0.455566 0.843189
O O13 0.783892 0.951942 0.864073
#
# Coordination Sequence:
#
# PCOD9228210 Si02
#       6
#     4   4   4   4   4   4
#     4   9  20  34  53  80 110 140 175 212 262 313
#     4   8  16  30  51  79 109 138 171 216 267 315
#     4  11  22  37  57  78 104 139 179 222 260 301
#     4  10  20  35  55  78 106 136 176 223 261 307
#     4  10  19  33  53  80 108 139 172 210 267 317
#     4  10  20  33  54  80 111 140 168 210 261 326
#
# _framework density 26.419716000000001
#
# number of rings (size 3 to 8) (size 9 to 14) (size 15 to 20)
#    0.000    2.333    0.000    2.500    0.000   10.000 
#    0.000    5.000    0.000    6.000    0.000    0.000 
#    0.000    0.000    0.000    0.000    0.000    0.000 
#
# Total GULP energy -134033.061201 kJ/mol
# GULP energy per Si atom -5584.710883 kJ/mol
# Density = 2.635958 g / cm^3
# Si number density = 26.419716 Si / 1000 Ang^3
#
#
#
# Elastic Constant Matrix: (Units=GPa)
#
#
# Indices 1 2 3 4 5 6 
#
# 1 85.5792 7.8202 24.8837 0.0000 25.3842 0.0000
# 2 7.8202 88.9457 21.8947 0.0000 -3.3130 0.0000
# 3 24.8837 21.8947 170.1905 0.0000 17.5504 0.0000
# 4 0.0000 0.0000 0.0000 49.5422 0.0000 6.4362
# 5 25.3842 -3.3130 17.5504 0.0000 37.0007 0.0000
# 6 0.0000 0.0000 0.0000 6.4362 0.0000 8.4239
#
#
#
# Elastic Compliance Matrix: (Units=1/GPa)
#
#
# Indices 1 2 3 4 5 6 
#
# 1 0.015071 -0.001455 -0.000985 0.000000 -0.010003 0.000000
# 2 -0.001455 0.011871 -0.001606 0.000000 0.002823 0.000000
# 3 -0.000985 -0.001606 0.006489 0.000000 -0.002546 0.000000
# 4 0.000000 0.000000 0.000000 0.022409 0.000000 -0.017121
# 5 -0.010003 0.002823 -0.002546 0.000000 0.035349 0.000000
# 6 0.000000 0.000000 0.000000 -0.017121 0.000000 0.131791
#
#
# Mechanical properties :
#
#
# Convention : Reuss Voigt Hill
#
# Bulk Modulus (GPa) = 39.46307 50.43473 44.94890
# Shear Modulus (GPa) = 20.87522 38.33448 29.60485
#
# Velocity S-wave (km/s) = 2.81399 3.81331 3.35111
# Velocity P-wave (km/s) = 5.05247 6.20642 5.65894
#
# Compressibility (1/GPa) = 0.02534014
#
# Stress axis : x y z
#
# Youngs Moduli (GPa) = 66.35060 84.23809 154.11044
#
# Poissons Ratio (x) = 0.12259 0.15178
# Poissons Ratio (y) = 0.09656 0.24743
# Poissons Ratio (z) = 0.06535 0.13525
#
# Static dielectric constant tensor:
#      x y z
#    x 2.224710 0.000000 -0.090210 
#    y 0.000000 2.017650 0.000000 
#    z -0.090210 0.000000 2.105980 
# 
# From -- ./inp_files/77152.got.cif
#   From: 2010.05.17/outbox.cif.g08.bks.cpg/sg13_39_cif.got.tgz:77152.got - 2010.06.03 16:44:36.
