data_PCOD9228857
_publ_section_title
;
Structure prediction by ZEFSAII (Michael W. Deem and Ramdas Pophale) SiO2 
 PCOD9228857
Probable space group: P 2/C
;
_chemical_formula_sum "Si O2"
_cell_formula_units_Z 22
_cell_length_a 7.199843
_cell_length_b 11.598681
_cell_length_c 11.792619
_cell_angle_alpha 90.000000
_cell_angle_beta 113.087595
_cell_angle_gamma 90.000000
_cell_volume 905.911030
_symmetry_space_group_name_H-M "P 2/C"
_symmetry_group_IT_number 13
_symmetry_cell_setting 'monoclinic'
loop_
_space_group_symop_operation_xyz
x,y,z
-x,y,1/2-z
-x,-y,-z
x,-y,1/2+z
loop_
_atom_site_type_symbol
_atom_site_label
_atom_site_fract_x
_atom_site_fract_y
_atom_site_fract_z
Si Si1 0.062595 0.166384 0.045167
Si Si2 0.462667 0.614930 0.922211
Si Si3 0.847472 0.401935 0.346278
Si Si4 0.660199 0.209884 0.601713
Si Si5 0.000000 0.606163 0.250000
Si Si6 0.822696 0.048510 0.799925
O O1 0.022861 0.293316 0.082433
O O2 0.156439 0.085378 0.165156
O O3 0.231877 0.168088 0.987312
O O4 0.875866 0.110802 0.931667
O O5 0.261504 0.616575 0.800675
O O6 0.656556 0.607763 0.884960
O O7 0.500000 0.500000 0.000000
O O8 0.469456 0.721872 0.009627
O O9 0.957575 0.524258 0.349748
O O10 0.641002 0.107439 0.687399
O O11 0.808599 0.309820 0.687811
O O12 0.000000 0.071811 0.750000
#
# Coordination Sequence:
#
# PCOD9228857 Si02
#       6
#     4   4   4   4   2   4
#     4   9  18  33  53  81 111 149 184 238 283 331
#     4  10  20  40  57  80 121 159 183 224 294 349
#     4  10  23  35  58  88 117 152 190 232 287 348
#     4  10  19  36  58  82 116 151 186 239 289 331
#     4  12  20  36  54  94 120 140 194 240 276 342
#     4   9  17  33  55  81 112 145 190 239 290 329
#
# _framework density 24.284942999999998
#
# number of rings (size 3 to 8) (size 9 to 14) (size 15 to 20)
#    0.000    2.182    4.545    0.000    1.273    2.909 
#    0.000    0.909    0.000    0.000    0.000    0.000 
#    0.000    0.000    0.000    0.000    0.000    0.000 
#
# Total GULP energy -122791.122469 kJ/mol
# GULP energy per Si atom -5581.414658 kJ/mol
# Density = 2.422967 g / cm^3
# Si number density = 24.284943 Si / 1000 Ang^3
#
#
#
# Elastic Constant Matrix: (Units=GPa)
#
#
# Indices 1 2 3 4 5 6 
#
# 1 49.1581 -0.1679 6.5469 0.0000 -13.0666 0.0000
# 2 -0.1679 95.5566 48.3579 0.0000 -17.7357 0.0000
# 3 6.5469 48.3579 104.3802 0.0000 -2.5832 0.0000
# 4 0.0000 0.0000 0.0000 76.9285 0.0000 -5.1703
# 5 -13.0666 -17.7357 -2.5832 0.0000 31.6941 0.0000
# 6 0.0000 0.0000 0.0000 -5.1703 0.0000 12.2062
#
#
#
# Elastic Compliance Matrix: (Units=1/GPa)
#
#
# Indices 1 2 3 4 5 6 
#
# 1 0.023839 0.003677 -0.002910 0.000000 0.011648 0.000000
# 2 0.003677 0.016070 -0.007430 0.000000 0.009903 0.000000
# 3 -0.002910 -0.007430 0.013099 0.000000 -0.004290 0.000000
# 4 0.000000 0.000000 0.000000 0.013380 0.000000 0.005667
# 5 0.011648 0.009903 -0.004290 0.000000 0.041546 0.000000
# 6 0.000000 0.000000 0.000000 0.005667 0.000000 0.084326
#
#
# Mechanical properties :
#
#
# Convention : Reuss Voigt Hill
#
# Bulk Modulus (GPa) = 25.20184 39.84098 32.52141
# Shear Modulus (GPa) = 22.85045 37.12296 29.98670
#
# Velocity S-wave (km/s) = 3.07079 3.91403 3.51776
# Velocity P-wave (km/s) = 4.79302 6.07185 5.46994
#
# Compressibility (1/GPa) = 0.03967964
#
# Stress axis : x y z
#
# Youngs Moduli (GPa) = 41.94826 62.22898 76.34101
#
# Poissons Ratio (x) = -0.22879 0.22217
# Poissons Ratio (y) = -0.15423 0.56724
# Poissons Ratio (z) = 0.12208 0.46239
#
# Static dielectric constant tensor:
#      x y z
#    x 2.030940 0.000000 0.043140 
#    y 0.000000 1.964280 0.000000 
#    z 0.043140 0.000000 1.960540 
# 
# From -- ./inp_files/29538.got.cif
#   From: 2010.05.17/outbox.cif.g08.bks.cpg/sg13_15_cif.got.tgz:29538.got - 2010.06.03 16:44:36.
