data_PCOD9228731
_publ_section_title
;
Structure prediction by ZEFSAII (Michael W. Deem and Ramdas Pophale) SiO2 
 PCOD9228731
Probable space group: P 2/C
;
_chemical_formula_sum "Si O2"
_cell_formula_units_Z 32
_cell_length_a 14.769817
_cell_length_b 9.809676
_cell_length_c 24.017561
_cell_angle_alpha 90.000000
_cell_angle_beta 155.618224
_cell_angle_gamma 90.000000
_cell_volume 1436.527305
_symmetry_space_group_name_H-M "P 2/C"
_symmetry_group_IT_number 13
_symmetry_cell_setting 'monoclinic'
loop_
_space_group_symop_operation_xyz
x,y,z
-x,y,1/2-z
-x,-y,-z
x,-y,1/2+z
loop_
_atom_site_type_symbol
_atom_site_label
_atom_site_fract_x
_atom_site_fract_y
_atom_site_fract_z
Si Si1 0.870361 0.127712 0.570364
Si Si2 0.419793 0.837156 0.784108
Si Si3 0.618337 0.258393 0.112095
Si Si4 0.843582 0.914574 0.371203
Si Si5 0.829994 0.390318 0.610742
Si Si6 0.762728 0.880661 0.587845
Si Si7 0.905148 0.352922 0.091649
Si Si8 0.010186 0.659684 0.522195
O O1 0.678225 0.184592 0.422397
O O2 0.936473 0.252827 0.646072
O O3 0.061903 0.073622 0.638446
O O4 0.763384 0.015249 0.550754
O O5 0.379182 0.817446 0.827293
O O6 0.253599 0.730354 0.661991
O O7 0.373656 0.995520 0.744879
O O8 0.608011 0.158514 0.053042
O O9 0.849581 0.338146 0.244513
O O10 0.404670 0.353485 0.994760
O O11 0.862978 0.757979 0.400575
O O12 0.000000 0.000000 0.500000
O O13 0.809191 0.499152 0.550284
O O14 0.000000 0.448028 0.750000
O O15 0.759728 0.756707 0.542707
O O16 0.000000 0.886093 0.750000
O O17 0.922274 0.326551 0.035978
O O18 0.000000 0.500000 0.500000
#
# Coordination Sequence:
#
# PCOD9228731 Si02
#       8
#     4   4   4   4   4   4   4   4
#     4  11  22  37  58  89 121 148 192 242 284 341
#     4   9  21  38  59  85 115 152 188 233 290 342
#     4   9  20  38  59  85 120 155 191 233 287 348
#     4  10  20  37  61  83 111 151 193 239 289 340
#     4  11  23  36  58  88 118 153 193 239 288 343
#     4  10  19  35  61  85 117 158 189 226 280 349
#     4  10  21  39  58  81 114 154 194 235 289 344
#     4  10  20  38  61  80 108 150 193 240 290 336
#
# _framework density 22.275942000000001
#
# number of rings (size 3 to 8) (size 9 to 14) (size 15 to 20)
#    0.000    2.000    0.000    5.250    0.000    7.000 
#    0.000    5.000    0.000   12.000    0.000    0.000 
#    0.000    0.000    0.000    0.000    0.000    0.000 
#
# Total GULP energy -178575.307398 kJ/mol
# GULP energy per Si atom -5580.478356 kJ/mol
# Density = 2.222524 g / cm^3
# Si number density = 22.275942 Si / 1000 Ang^3
#
#
#
# Elastic Constant Matrix: (Units=GPa)
#
#
# Indices 1 2 3 4 5 6 
#
# 1 102.9702 29.6808 6.6324 0.0000 -18.6657 0.0000
# 2 29.6808 112.1875 8.0325 0.0000 -3.6252 0.0000
# 3 6.6324 8.0325 35.4638 0.0000 -8.3409 0.0000
# 4 0.0000 0.0000 0.0000 16.5519 0.0000 -6.6064
# 5 -18.6657 -3.6252 -8.3409 0.0000 17.7006 0.0000
# 6 0.0000 0.0000 0.0000 -6.6064 0.0000 30.4433
#
#
#
# Elastic Compliance Matrix: (Units=1/GPa)
#
#
# Indices 1 2 3 4 5 6 
#
# 1 0.013010 -0.003105 0.001515 0.000000 0.013797 0.000000
# 2 -0.003105 0.009817 -0.002182 0.000000 -0.002291 0.000000
# 3 0.001515 -0.002182 0.032254 0.000000 0.016350 0.000000
# 4 0.000000 0.000000 0.000000 0.066145 0.000000 0.014354
# 5 0.013797 -0.002291 0.016350 0.000000 0.078280 0.000000
# 6 0.000000 0.000000 0.000000 0.014354 0.000000 0.035963
#
#
# Mechanical properties :
#
#
# Convention : Reuss Voigt Hill
#
# Bulk Modulus (GPa) = 21.03560 37.70144 29.36852
# Shear Modulus (GPa) = 19.31560 26.69086 23.00323
#
# Velocity S-wave (km/s) = 2.94786 3.46525 3.21697
# Velocity P-wave (km/s) = 4.58805 5.74213 5.19722
#
# Compressibility (1/GPa) = 0.04753846
#
# Stress axis : x y z
#
# Youngs Moduli (GPa) = 76.86414 101.86205 31.00393
#
# Poissons Ratio (x) = 0.31624 -0.04698
# Poissons Ratio (y) = 0.23863 0.06765
# Poissons Ratio (z) = -0.11646 0.22225
#
# Static dielectric constant tensor:
#      x y z
#    x 1.790530 0.000000 -0.025240 
#    y 0.000000 1.842260 0.000000 
#    z -0.025240 0.000000 1.846490 
# 
# From -- ./inp_files/87422.got.cif
#   From: 2010.05.17/outbox.cif.g08.bks.cpg/sg13_44_cif.got.tgz:87422.got - 2010.06.03 16:44:36.
