data_PCOD9228305
_publ_section_title
;
Structure prediction by ZEFSAII (Michael W. Deem and Ramdas Pophale) SiO2 
 PCOD9228305
Probable space group: P 2/C
;
_chemical_formula_sum "Si O2"
_cell_formula_units_Z 32
_cell_length_a 19.562016
_cell_length_b 11.268557
_cell_length_c 7.717302
_cell_angle_alpha 90.000000
_cell_angle_beta 65.956885
_cell_angle_gamma 90.000000
_cell_volume 1553.573924
_symmetry_space_group_name_H-M "P 2/C"
_symmetry_group_IT_number 13
_symmetry_cell_setting 'monoclinic'
loop_
_space_group_symop_operation_xyz
x,y,z
-x,y,1/2-z
-x,-y,-z
x,-y,1/2+z
loop_
_atom_site_type_symbol
_atom_site_label
_atom_site_fract_x
_atom_site_fract_y
_atom_site_fract_z
Si Si1 0.866470 0.224099 0.323109
Si Si2 0.183409 0.604644 0.915402
Si Si3 0.645146 0.368035 0.145051
Si Si4 0.713178 0.823201 0.377439
Si Si5 0.788123 0.999733 0.545257
Si Si6 0.847818 0.657361 0.177552
Si Si7 0.555604 0.419538 0.555371
Si Si8 0.953051 0.895739 0.464108
O O1 0.813627 0.108152 0.394200
O O2 0.890369 0.264192 0.490902
O O3 0.822464 0.320504 0.254527
O O4 0.936824 0.197804 0.129853
O O5 0.137166 0.653647 0.131313
O O6 0.268984 0.604348 0.892803
O O7 0.156018 0.474481 0.892028
O O8 0.601367 0.343680 0.369240
O O9 0.610443 0.486228 0.093870
O O10 0.643403 0.254855 0.016339
O O11 0.728120 0.933375 0.231757
O O12 0.766960 0.720821 0.247739
O O13 0.748332 0.883996 0.511205
O O14 0.871267 0.950857 0.505792
O O15 0.500000 0.357446 0.750000
O O16 0.500000 0.500000 0.500000
O O17 0.000000 0.854274 0.250000
O O18 0.000000 0.000000 0.500000
#
# Coordination Sequence:
#
# PCOD9228305 Si02
#       8
#     4   4   4   4   4   4   4   4
#     4  11  23  38  60  87 128 159 196 269 317 368
#     4  11  20  37  60  94 126 159 197 251 327 389
#     4  10  19  33  56  88 121 158 205 239 304 372
#     4  10  21  34  56  87 126 157 192 255 314 371
#     4  11  21  40  56  90 126 153 199 261 329 357
#     4  10  21  34  57  87 123 159 193 238 329 386
#     4   9  19  36  56  85 126 163 198 247 284 344
#     4  12  22  38  63  87 113 159 213 260 308 379
#
# _framework density 20.597667000000001
#
# number of rings (size 3 to 8) (size 9 to 14) (size 15 to 20)
#    0.000    1.500    3.750    3.000    0.000    1.000 
#    2.250    0.000    0.000    0.750    0.000   11.375 
#    0.000    0.000    0.000    0.000    0.000    0.000 
#
# Total GULP energy -178135.951841 kJ/mol
# GULP energy per Si atom -5566.748495 kJ/mol
# Density = 2.055079 g / cm^3
# Si number density = 20.597667 Si / 1000 Ang^3
#
#
#
# Elastic Constant Matrix: (Units=GPa)
#
#
# Indices 1 2 3 4 5 6 
#
# 1 32.5419 2.7842 5.9036 0.0000 -5.2424 0.0000
# 2 2.7842 64.6460 31.7597 0.0000 -6.9698 0.0000
# 3 5.9036 31.7597 175.9948 0.0000 -9.4222 0.0000
# 4 0.0000 0.0000 0.0000 50.7138 0.0000 11.3741
# 5 -5.2424 -6.9698 -9.4222 0.0000 18.6485 0.0000
# 6 0.0000 0.0000 0.0000 11.3741 0.0000 14.2050
#
#
#
# Elastic Compliance Matrix: (Units=1/GPa)
#
#
# Indices 1 2 3 4 5 6 
#
# 1 0.032253 -0.000162 -0.000586 0.000000 0.008710 0.000000
# 2 -0.000162 0.017427 -0.002871 0.000000 0.005017 0.000000
# 3 -0.000586 -0.002871 0.006325 0.000000 0.001958 0.000000
# 4 0.000000 0.000000 0.000000 0.024035 0.000000 -0.019245
# 5 0.008710 0.005017 0.001958 0.000000 0.058937 0.000000
# 6 0.000000 0.000000 0.000000 -0.019245 0.000000 0.085807
#
#
# Mechanical properties :
#
#
# Convention : Reuss Voigt Hill
#
# Bulk Modulus (GPa) = 20.50588 39.34194 29.92391
# Shear Modulus (GPa) = 20.13883 32.22915 26.18399
#
# Velocity S-wave (km/s) = 3.13025 3.95992 3.56927
# Velocity P-wave (km/s) = 4.80017 6.32848 5.61655
#
# Compressibility (1/GPa) = 0.04876649
#
# Stress axis : x y z
#
# Youngs Moduli (GPa) = 31.00487 57.38163 158.11452
#
# Poissons Ratio (x) = 0.00929 0.09271
# Poissons Ratio (y) = 0.00502 0.45392
# Poissons Ratio (z) = 0.01818 0.16473
#
# Static dielectric constant tensor:
#      x y z
#    x 1.743150 0.000000 0.041190 
#    y 0.000000 1.756420 0.000000 
#    z 0.041190 0.000000 1.896870 
# 
# From -- ./inp_files/23230.got.cif
#   From: 2010.05.17/outbox.cif.g08.bks.cpg/sg13_12_cif.got.tgz:23230.got - 2010.06.03 16:44:36.
