data_PCOD9228377
_publ_section_title
;
Structure prediction by ZEFSAII (Michael W. Deem and Ramdas Pophale) SiO2 
 PCOD9228377
Probable space group: P 2/C
;
_chemical_formula_sum "Si O2"
_cell_formula_units_Z 30
_cell_length_a 10.144426
_cell_length_b 12.956736
_cell_length_c 14.044951
_cell_angle_alpha 90.000000
_cell_angle_beta 120.642920
_cell_angle_gamma 90.000000
_cell_volume 1588.267914
_symmetry_space_group_name_H-M "P 2/C"
_symmetry_group_IT_number 13
_symmetry_cell_setting 'monoclinic'
loop_
_space_group_symop_operation_xyz
x,y,z
-x,y,1/2-z
-x,-y,-z
x,-y,1/2+z
loop_
_atom_site_type_symbol
_atom_site_label
_atom_site_fract_x
_atom_site_fract_y
_atom_site_fract_z
Si Si1 0.475059 0.923871 0.353608
Si Si2 0.225154 0.435006 0.037791
Si Si3 0.000000 0.795692 0.750000
Si Si4 0.409568 0.296382 0.815470
Si Si5 0.276706 0.497152 0.259188
Si Si6 0.665061 0.873864 0.603510
Si Si7 0.486886 0.655921 0.949751
Si Si8 0.014105 0.387388 0.399891
O O1 0.500000 0.935924 0.250000
O O2 0.370047 0.821242 0.325535
O O3 0.620780 0.894399 0.475390
O O4 0.403428 0.027753 0.367774
O O5 0.319982 0.467360 0.166708
O O6 0.337368 0.365390 0.016623
O O7 0.074570 0.380822 0.030202
O O8 0.160341 0.539401 0.966628
O O9 0.843398 0.860133 0.693924
O O10 0.026852 0.720737 0.851360
O O11 0.500000 0.295943 0.750000
O O12 0.277128 0.380352 0.764726
O O13 0.518305 0.339255 0.938610
O O14 0.387842 0.436439 0.370252
O O15 0.108846 0.451043 0.207447
O O16 0.581369 0.767209 0.605249
#
# Coordination Sequence:
#
# PCOD9228377 Si02
#       8
#     4   4   2   4   4   4   4   4
#     4   9  21  42  64  85 116 156 207 265 306 348
#     4   9  20  36  52  83 129 158 196 243 288 364
#     4  12  22  38  64  88 126 170 198 250 322 360
#     4  10  21  34  55  88 117 156 201 248 301 356
#     4  10  19  34  52  87 120 155 196 237 286 363
#     4  10  22  40  63  92 118 153 210 259 302 374
#     4  11  20  34  62  89 115 159 204 247 298 356
#     4   9  22  36  51  84 127 162 189 242 301 357
#
# _framework density 18.888501000000002
#
# number of rings (size 3 to 8) (size 9 to 14) (size 15 to 20)
#    0.800    1.333    1.333    1.600    1.867    7.467 
#    0.000    0.667    8.800    0.000    0.000    0.000 
#    0.000    0.000    0.000    0.000    0.000    0.000 
#
# Total GULP energy -167074.498472 kJ/mol
# GULP energy per Si atom -5569.149949 kJ/mol
# Density = 1.884551 g / cm^3
# Si number density = 18.888501 Si / 1000 Ang^3
#
#
#
# Elastic Constant Matrix: (Units=GPa)
#
#
# Indices 1 2 3 4 5 6 
#
# 1 84.8373 39.4674 34.4704 0.0000 8.8313 0.0000
# 2 39.4674 103.9877 34.4306 0.0000 4.0217 0.0000
# 3 34.4704 34.4306 86.3604 0.0000 -13.3221 0.0000
# 4 0.0000 0.0000 0.0000 28.2316 0.0000 2.0881
# 5 8.8313 4.0217 -13.3221 0.0000 27.3394 0.0000
# 6 0.0000 0.0000 0.0000 2.0881 0.0000 20.5735
#
#
#
# Elastic Compliance Matrix: (Units=1/GPa)
#
#
# Indices 1 2 3 4 5 6 
#
# 1 0.017147 -0.004049 -0.006479 0.000000 -0.008100 0.000000
# 2 -0.004049 0.012475 -0.003718 0.000000 -0.002339 0.000000
# 3 -0.006479 -0.003718 0.017360 0.000000 0.011099 0.000000
# 4 0.000000 0.000000 0.000000 0.035689 0.000000 -0.003622
# 5 -0.008100 -0.002339 0.011099 0.000000 0.044946 0.000000
# 6 0.000000 0.000000 0.000000 -0.003622 0.000000 0.048974
#
#
# Mechanical properties :
#
#
# Convention : Reuss Voigt Hill
#
# Bulk Modulus (GPa) = 54.08764 54.65800 54.37282
# Shear Modulus (GPa) = 23.66891 26.35005 25.00948
#
# Velocity S-wave (km/s) = 3.54374 3.73906 3.64271
# Velocity P-wave (km/s) = 6.74103 6.90223 6.82211
#
# Compressibility (1/GPa) = 0.01848851
#
# Stress axis : x y z
#
# Youngs Moduli (GPa) = 58.31951 80.16088 57.60332
#
# Poissons Ratio (x) = 0.32460 0.37323
# Poissons Ratio (y) = 0.23615 0.21417
# Poissons Ratio (z) = 0.37787 0.29805
#
# Static dielectric constant tensor:
#      x y z
#    x 1.678920 0.000000 -0.021230 
#    y 0.000000 1.645690 0.000000 
#    z -0.021230 0.000000 1.736700 
# 
# From -- ./inp_files/50904.got.cif
#   From: 2010.05.17/outbox.cif.g08.bks.cpg/sg13_26_cif.got.tgz:50904.got - 2010.06.03 16:44:36.
