data_PCOD9228920
_publ_section_title
;
Structure prediction by ZEFSAII (Michael W. Deem and Ramdas Pophale) SiO2 
 PCOD9228920
Probable space group: P 2/C
;
_chemical_formula_sum "Si O2"
_cell_formula_units_Z 28
_cell_length_a 24.185616
_cell_length_b 8.655977
_cell_length_c 18.749415
_cell_angle_alpha 90.000000
_cell_angle_beta 158.854889
_cell_angle_gamma 90.000000
_cell_volume 1415.939601
_symmetry_space_group_name_H-M "P 2/C"
_symmetry_group_IT_number 13
_symmetry_cell_setting 'monoclinic'
loop_
_space_group_symop_operation_xyz
x,y,z
-x,y,1/2-z
-x,-y,-z
x,-y,1/2+z
loop_
_atom_site_type_symbol
_atom_site_label
_atom_site_fract_x
_atom_site_fract_y
_atom_site_fract_z
Si Si1 0.544574 0.791445 0.479519
Si Si2 0.044006 0.900179 0.983468
Si Si3 0.660673 0.665522 0.983999
Si Si4 0.639482 0.850828 0.370105
Si Si5 0.120598 0.898719 0.336924
Si Si6 0.794180 0.339437 0.183584
Si Si7 0.608095 0.151315 0.565657
O O1 0.425002 0.751225 0.272916
O O2 0.703249 0.719743 0.644177
O O3 0.493904 0.759586 0.498761
O O4 0.549666 0.977955 0.481257
O O5 0.962782 0.732684 0.890471
O O6 0.224469 0.874222 0.198832
O O7 0.974883 0.000828 0.835740
O O8 0.000000 0.000000 0.000000
O O9 0.500000 0.628614 0.750000
O O10 0.776011 0.767970 0.075162
O O11 0.755844 0.516532 0.124481
O O12 0.619363 0.761930 0.004874
O O13 0.500000 0.921605 0.250000
O O14 0.722150 0.745856 0.528030
O O15 0.756172 0.979807 0.483444
O O16 0.000000 0.840804 0.250000
#
# Coordination Sequence:
#
# PCOD9228920 Si02
#       7
#     4   4   4   4   4   4   4
#     4  10  19  36  60  91 113 152 208 249 289 340
#     4  11  20  41  63  88 119 155 200 249 304 356
#     4  12  24  41  58  85 123 164 197 241 304 365
#     4   9  17  36  62  83 110 151 200 247 289 346
#     4  11  22  37  61  89 117 156 203 248 293 350
#     4  10  22  39  62  83 120 160 194 237 299 362
#     4  11  22  36  61  89 121 152 198 256 297 350
#
# _framework density 19.774854000000001
#
# number of rings (size 3 to 8) (size 9 to 14) (size 15 to 20)
#    0.000    1.429    2.857    5.143    0.000    2.286 
#    0.000    5.714    0.000    0.000    0.000    0.000 
#    0.000    0.000    0.000    0.000    0.000    0.000 
#
# Total GULP energy -156301.301885 kJ/mol
# GULP energy per Si atom -5582.189353 kJ/mol
# Density = 1.972985 g / cm^3
# Si number density = 19.774854 Si / 1000 Ang^3
#
#
#
# Elastic Constant Matrix: (Units=GPa)
#
#
# Indices 1 2 3 4 5 6 
#
# 1 100.1387 17.5461 9.3729 0.0000 20.5557 0.0000
# 2 17.5461 53.3405 -6.0798 0.0000 6.4397 0.0000
# 3 9.3729 -6.0798 46.8214 0.0000 -8.7206 0.0000
# 4 0.0000 0.0000 0.0000 23.7143 0.0000 -1.6993
# 5 20.5557 6.4397 -8.7206 0.0000 24.7872 0.0000
# 6 0.0000 0.0000 0.0000 -1.6993 0.0000 3.5510
#
#
#
# Elastic Compliance Matrix: (Units=1/GPa)
#
#
# Indices 1 2 3 4 5 6 
#
# 1 0.013669 -0.003635 -0.005504 0.000000 -0.012327 0.000000
# 2 -0.003635 0.020447 0.003162 0.000000 -0.001185 0.000000
# 3 -0.005504 0.003162 0.025220 0.000000 0.012616 0.000000
# 4 0.000000 0.000000 0.000000 0.043666 0.000000 0.020896
# 5 -0.012327 -0.001185 0.012616 0.000000 0.055313 0.000000
# 6 0.000000 0.000000 0.000000 0.020896 0.000000 0.291612
#
#
# Mechanical properties :
#
#
# Convention : Reuss Voigt Hill
#
# Bulk Modulus (GPa) = 21.10581 26.88655 23.99618
# Shear Modulus (GPa) = 10.46736 22.37459 16.42098
#
# Velocity S-wave (km/s) = 2.30321 3.36738 2.88479
# Velocity P-wave (km/s) = 4.21536 5.36142 4.82255
#
# Compressibility (1/GPa) = 0.04738031
#
# Stress axis : x y z
#
# Youngs Moduli (GPa) = 73.15925 48.90748 39.65107
#
# Poissons Ratio (x) = 0.17780 0.21825
# Poissons Ratio (y) = 0.26596 -0.12538
# Poissons Ratio (z) = 0.40269 -0.15465
#
# Static dielectric constant tensor:
#      x y z
#    x 1.708940 0.000000 -0.007160 
#    y 0.000000 1.708490 0.000000 
#    z -0.007160 0.000000 1.725840 
# 
# From -- ./inp_files/82229.got.cif
#   From: 2010.05.17/outbox.cif.g08.bks.cpg/sg13_42_cif.got.tgz:82229.got - 2010.06.03 16:44:36.
