data_PCOD9228845
_publ_section_title
;
Structure prediction by ZEFSAII (Michael W. Deem and Ramdas Pophale) SiO2 
 PCOD9228845
Probable space group: P 2/C
;
_chemical_formula_sum "Si O2"
_cell_formula_units_Z 26
_cell_length_a 5.338210
_cell_length_b 13.193706
_cell_length_c 20.943297
_cell_angle_alpha 90.000000
_cell_angle_beta 60.110854
_cell_angle_gamma 90.000000
_cell_volume 1278.857576
_symmetry_space_group_name_H-M "P 2/C"
_symmetry_group_IT_number 13
_symmetry_cell_setting 'monoclinic'
loop_
_space_group_symop_operation_xyz
x,y,z
-x,y,1/2-z
-x,-y,-z
x,-y,1/2+z
loop_
_atom_site_type_symbol
_atom_site_label
_atom_site_fract_x
_atom_site_fract_y
_atom_site_fract_z
Si Si1 0.918416 0.382507 0.012012
Si Si2 0.500000 0.906671 0.750000
Si Si3 0.437176 0.886241 0.488540
Si Si4 0.019735 0.746827 0.116764
Si Si5 0.000000 0.770129 0.750000
Si Si6 0.000000 0.788064 0.250000
Si Si7 0.581693 0.908708 0.151907
Si Si8 0.734846 0.295683 0.411333
O O1 0.577769 0.351845 0.052235
O O2 0.068172 0.340807 0.057161
O O3 0.000000 0.500000 0.000000
O O4 0.046197 0.329678 0.931733
O O5 0.251483 0.839264 0.749387
O O6 0.384029 0.982520 0.820090
O O7 0.301936 0.898978 0.435277
O O8 0.286714 0.822621 0.563455
O O9 0.715109 0.815858 0.440116
O O10 0.500000 0.000000 0.500000
O O11 0.062074 0.709323 0.183113
O O12 0.764271 0.824474 0.164567
O O13 0.128679 0.704548 0.675825
O O14 0.743640 0.869146 0.299564
#
# Coordination Sequence:
#
# PCOD9228845 Si02
#       8
#     4   2   4   4   2   2   4   4
#     4  11  24  47  76  98 124 171 225 286 350 394
#     4  12  24  36  60  94 132 192 228 254 322 408
#     4  10  22  35  56  89 130 173 219 267 319 388
#     4  10  21  37  60  90 126 168 209 276 329 389
#     4  12  27  44  65  92 142 184 222 267 329 388
#     4  10  19  36  57  84 130 168 200 271 333 388
#     4  11  20  34  56  85 130 170 222 263 319 379
#     4  11  24  46  68  98 134 174 226 278 328 405
#
# _framework density 20.330645000000001
#
# number of rings (size 3 to 8) (size 9 to 14) (size 15 to 20)
#    0.000    1.231    3.077    2.769    4.308    1.846 
#    0.000    0.769    3.385    0.000    0.000    0.000 
#    0.000    0.000    0.000    0.000    0.000    0.000 
#
# Total GULP energy -144825.328679 kJ/mol
# GULP energy per Si atom -5570.204949 kJ/mol
# Density = 2.028437 g / cm^3
# Si number density = 20.330645 Si / 1000 Ang^3
#
#
#
# Elastic Constant Matrix: (Units=GPa)
#
#
# Indices 1 2 3 4 5 6 
#
# 1 86.7741 31.2055 27.1518 0.0000 14.0250 0.0000
# 2 31.2055 102.8558 41.1785 0.0000 21.0604 0.0000
# 3 27.1518 41.1785 137.4998 0.0000 24.2127 0.0000
# 4 0.0000 0.0000 0.0000 21.2565 0.0000 -2.3773
# 5 14.0250 21.0604 24.2127 0.0000 27.1853 0.0000
# 6 0.0000 0.0000 0.0000 -2.3773 0.0000 12.9874
#
#
#
# Elastic Compliance Matrix: (Units=1/GPa)
#
#
# Indices 1 2 3 4 5 6 
#
# 1 0.013521 -0.002879 -0.001153 0.000000 -0.003718 0.000000
# 2 -0.002879 0.012778 -0.002107 0.000000 -0.006537 0.000000
# 3 -0.001153 -0.002107 0.009179 0.000000 -0.005948 0.000000
# 4 0.000000 0.000000 0.000000 0.048028 0.000000 0.008791
# 5 -0.003718 -0.006537 -0.005948 0.000000 0.049064 0.000000
# 6 0.000000 0.000000 0.000000 0.008791 0.000000 0.078607
#
#
# Mechanical properties :
#
#
# Convention : Reuss Voigt Hill
#
# Bulk Modulus (GPa) = 43.10464 58.46681 50.78572
# Shear Modulus (GPa) = 21.62730 27.45877 24.54303
#
# Velocity S-wave (km/s) = 3.26510 3.67905 3.47824
# Velocity P-wave (km/s) = 5.95503 6.84599 6.41599
#
# Compressibility (1/GPa) = 0.02319936
#
# Stress axis : x y z
#
# Youngs Moduli (GPa) = 73.95705 78.25973 108.94626
#
# Poissons Ratio (x) = 0.22534 0.12561
# Poissons Ratio (y) = 0.21295 0.22956
# Poissons Ratio (z) = 0.08527 0.16490
#
# Static dielectric constant tensor:
#      x y z
#    x 1.844380 0.000000 0.226120 
#    y 0.000000 1.681510 0.000000 
#    z 0.226120 0.000000 1.980120 
# 
# From -- ./inp_files/73567.got.cif
#   From: 2010.05.17/outbox.cif.g08.bks.cpg/sg13_37_cif.got.tgz:73567.got - 2010.06.03 16:44:36.
