data_PCOD9228904
_publ_section_title
;
Structure prediction by ZEFSAII (Michael W. Deem and Ramdas Pophale) SiO2 
 PCOD9228904
Probable space group: P 2/C
;
_chemical_formula_sum "Si O2"
_cell_formula_units_Z 28
_cell_length_a 8.488053
_cell_length_b 6.744340
_cell_length_c 27.897969
_cell_angle_alpha 90.000000
_cell_angle_beta 113.481626
_cell_angle_gamma 90.000000
_cell_volume 1464.800377
_symmetry_space_group_name_H-M "P 2/C"
_symmetry_group_IT_number 13
_symmetry_cell_setting 'monoclinic'
loop_
_space_group_symop_operation_xyz
x,y,z
-x,y,1/2-z
-x,-y,-z
x,-y,1/2+z
loop_
_atom_site_type_symbol
_atom_site_label
_atom_site_fract_x
_atom_site_fract_y
_atom_site_fract_z
Si Si1 0.000000 0.722294 0.250000
Si Si2 0.486033 0.615870 0.643524
Si Si3 0.756371 0.349876 0.943942
Si Si4 0.163800 0.951223 0.707506
Si Si5 0.500000 0.317772 0.250000
Si Si6 0.127639 0.383280 0.336210
Si Si7 0.197513 0.951168 0.602154
Si Si8 0.933537 0.390416 0.059881
O O1 0.078789 0.576308 0.299363
O O2 0.134118 0.868871 0.240151
O O3 0.410669 0.447459 0.599950
O O4 0.477066 0.558330 0.698653
O O5 0.678783 0.671776 0.653686
O O6 0.357457 0.800695 0.622915
O O7 0.922477 0.452818 0.939308
O O8 0.767391 0.121918 0.931179
O O9 0.780112 0.390249 0.003097
O O10 0.334804 0.823052 0.737164
O O11 0.173153 0.027255 0.653679
O O12 0.005779 0.794519 0.691052
O O13 0.115313 0.425735 0.391260
O O14 0.030754 0.821192 0.569125
#
# Coordination Sequence:
#
# PCOD9228904 Si02
#       8
#     2   4   4   4   2   4   4   4
#     4  12  22  36  60  82 108 148 182 220 276 334
#     4  10  22  35  55  81 114 148 180 228 279 328
#     4  10  19  36  60  84 108 147 196 228 269 330
#     4  10  22  37  56  81 109 144 185 225 274 333
#     4  10  20  40  58  78 114 144 178 232 276 320
#     4  11  23  39  55  83 120 146 178 229 284 330
#     4   9  19  37  57  80 108 144 188 231 273 324
#     4   9  20  37  58  82 113 147 184 235 279 321
#
# _framework density 19.115231999999999
#
# number of rings (size 3 to 8) (size 9 to 14) (size 15 to 20)
#    0.000    2.000    0.000    4.286    0.000    5.143 
#    0.000    2.143    0.000    0.000    0.000    0.000 
#    0.000    0.000    0.000    0.000    0.000    0.000 
#
# Total GULP energy -156365.694996 kJ/mol
# GULP energy per Si atom -5584.489107 kJ/mol
# Density = 1.907172 g / cm^3
# Si number density = 19.115232 Si / 1000 Ang^3
#
#
#
# Elastic Constant Matrix: (Units=GPa)
#
#
# Indices 1 2 3 4 5 6 
#
# 1 86.5058 18.6368 43.3509 0.0000 4.2678 0.0000
# 2 18.6368 52.7922 39.6869 0.0000 -7.6102 0.0000
# 3 43.3509 39.6869 143.2768 0.0000 -7.4887 0.0000
# 4 0.0000 0.0000 0.0000 19.9020 0.0000 -12.3581
# 5 4.2678 -7.6102 -7.4887 0.0000 31.0743 0.0000
# 6 0.0000 0.0000 0.0000 -12.3581 0.0000 11.3537
#
#
#
# Elastic Compliance Matrix: (Units=1/GPa)
#
#
# Indices 1 2 3 4 5 6 
#
# 1 0.014184 -0.002714 -0.003723 0.000000 -0.003510 0.000000
# 2 -0.002714 0.025029 -0.005845 0.000000 0.005094 0.000000
# 3 -0.003723 -0.005845 0.009800 0.000000 0.001442 0.000000
# 4 0.000000 0.000000 0.000000 0.155025 0.000000 0.168741
# 5 -0.003510 0.005094 0.001442 0.000000 0.034258 0.000000
# 6 0.000000 0.000000 0.000000 0.168741 0.000000 0.271747
#
#
# Mechanical properties :
#
#
# Convention : Reuss Voigt Hill
#
# Bulk Modulus (GPa) = 40.90390 53.99156 47.44773
# Shear Modulus (GPa) = 9.21221 24.52601 16.86911
#
# Velocity S-wave (km/s) = 2.19767 3.58587 2.97391
# Velocity P-wave (km/s) = 5.28060 6.74175 6.05541
#
# Compressibility (1/GPa) = 0.02444755
#
# Stress axis : x y z
#
# Youngs Moduli (GPa) = 70.50386 39.95368 102.03568
#
# Poissons Ratio (x) = 0.10844 0.37989
# Poissons Ratio (y) = 0.19136 0.59644
# Poissons Ratio (z) = 0.26250 0.23355
#
# Static dielectric constant tensor:
#      x y z
#    x 1.644740 0.000000 -0.008940 
#    y 0.000000 1.643790 0.000000 
#    z -0.008940 0.000000 1.695140 
# 
# From -- ./inp_files/95556.got.cif
#   From: 2010.05.17/outbox.cif.g08.bks.cpg/sg13_48_cif.got.tgz:95556.got - 2010.06.03 16:44:36.
