data_PCOD9228692
_publ_section_title
;
Structure prediction by ZEFSAII (Michael W. Deem and Ramdas Pophale) SiO2 
 PCOD9228692
Probable space group: P 2/C
;
_chemical_formula_sum "Si O2"
_cell_formula_units_Z 30
_cell_length_a 13.918687
_cell_length_b 9.424888
_cell_length_c 21.742500
_cell_angle_alpha 90.000000
_cell_angle_beta 146.745169
_cell_angle_gamma 90.000000
_cell_volume 1564.057358
_symmetry_space_group_name_H-M "P 2/C"
_symmetry_group_IT_number 13
_symmetry_cell_setting 'monoclinic'
loop_
_space_group_symop_operation_xyz
x,y,z
-x,y,1/2-z
-x,-y,-z
x,-y,1/2+z
loop_
_atom_site_type_symbol
_atom_site_label
_atom_site_fract_x
_atom_site_fract_y
_atom_site_fract_z
Si Si1 0.128887 0.343475 0.141688
Si Si2 0.390498 0.413348 0.530625
Si Si3 0.461457 0.143051 0.301537
Si Si4 0.451862 0.816762 0.296642
Si Si5 0.748384 0.549240 0.671547
Si Si6 0.201920 0.307692 0.973253
Si Si7 0.000000 0.314411 0.750000
Si Si8 0.100064 0.663673 0.088576
O O1 0.283123 0.231148 0.214096
O O2 0.129716 0.368580 0.215059
O O3 0.163157 0.500351 0.130370
O O4 0.955761 0.301317 0.011255
O O5 0.430889 0.286207 0.598510
O O6 0.573400 0.494782 0.612488
O O7 0.312177 0.369553 0.422274
O O8 0.261408 0.531419 0.489764
O O9 0.500000 0.141253 0.250000
O O10 0.622108 0.223104 0.419135
O O11 0.456477 0.979972 0.319342
O O12 0.500000 0.805159 0.250000
O O13 0.253892 0.761404 0.194847
O O14 0.856953 0.413686 0.706917
O O15 0.102033 0.242483 0.860677
O O16 0.071009 0.314026 0.960773
#
# Coordination Sequence:
#
# PCOD9228692 Si02
#       8
#     4   4   4   4   4   4   2   4
#     4  11  21  37  61  92 117 151 205 250 300 347
#     4  10  21  36  62  86 119 155 200 244 301 354
#     4  11  23  41  59  86 125 165 198 239 306 366
#     4  11  25  41  58  86 126 166 196 242 304 369
#     4  10  19  35  59  90 119 149 193 254 299 347
#     4  11  20  38  65  89 117 154 200 258 293 361
#     4  10  20  32  60  90 120 148 194 250 312 342
#     4  11  23  36  64  91 118 149 207 260 301 344
#
# _framework density 19.180879999999998
#
# number of rings (size 3 to 8) (size 9 to 14) (size 15 to 20)
#    0.000    1.333    5.333    0.000    3.733    1.600 
#    0.000    0.667    0.000    0.800    0.000    0.000 
#    0.000    0.000    0.000    0.000    0.000    0.000 
#
# Total GULP energy -167441.139893 kJ/mol
# GULP energy per Si atom -5581.371330 kJ/mol
# Density = 1.913722 g / cm^3
# Si number density = 19.180880 Si / 1000 Ang^3
#
#
#
# Elastic Constant Matrix: (Units=GPa)
#
#
# Indices 1 2 3 4 5 6 
#
# 1 55.8204 19.4715 22.7434 0.0000 -6.6708 0.0000
# 2 19.4715 97.9935 48.9023 0.0000 -11.7336 0.0000
# 3 22.7434 48.9023 140.4180 0.0000 -36.2533 0.0000
# 4 0.0000 0.0000 0.0000 9.8972 0.0000 -2.0134
# 5 -6.6708 -11.7336 -36.2533 0.0000 44.6139 0.0000
# 6 0.0000 0.0000 0.0000 -2.0134 0.0000 14.0740
#
#
#
# Elastic Compliance Matrix: (Units=1/GPa)
#
#
# Indices 1 2 3 4 5 6 
#
# 1 0.019816 -0.002833 -0.002089 0.000000 0.000521 0.000000
# 2 -0.002833 0.012760 -0.004085 0.000000 -0.000387 0.000000
# 3 -0.002089 -0.004085 0.010788 0.000000 0.007379 0.000000
# 4 0.000000 0.000000 0.000000 0.104068 0.000000 0.014887
# 5 0.000521 -0.000387 0.007379 0.000000 0.028387 0.000000
# 6 0.000000 0.000000 0.000000 0.014887 0.000000 0.073183
#
#
# Mechanical properties :
#
#
# Convention : Reuss Voigt Hill
#
# Bulk Modulus (GPa) = 39.44630 52.94071 46.19351
# Shear Modulus (GPa) = 18.15121 27.25799 22.70460
#
# Velocity S-wave (km/s) = 3.07957 3.77384 3.44424
# Velocity P-wave (km/s) = 5.76672 6.83007 6.32079
#
# Compressibility (1/GPa) = 0.02535092
#
# Stress axis : x y z
#
# Youngs Moduli (GPa) = 50.46442 78.37113 92.69797
#
# Poissons Ratio (x) = 0.22201 0.19361
# Poissons Ratio (y) = 0.14296 0.37866
# Poissons Ratio (z) = 0.10540 0.32013
#
# Static dielectric constant tensor:
#      x y z
#    x 1.700280 0.000000 -0.018490 
#    y 0.000000 1.634730 0.000000 
#    z -0.018490 0.000000 1.698250 
# 
# From -- ./inp_files/87320.got.cif
#   From: 2010.05.17/outbox.cif.g08.bks.cpg/sg13_44_cif.got.tgz:87320.got - 2010.06.03 16:44:36.
