data_PCOD9228737
_publ_section_title
;
Structure prediction by ZEFSAII (Michael W. Deem and Ramdas Pophale) SiO2 
 PCOD9228737
Probable space group: P 2/C
;
_chemical_formula_sum "Si O2"
_cell_formula_units_Z 26
_cell_length_a 9.399292
_cell_length_b 10.396826
_cell_length_c 17.073545
_cell_angle_alpha 90.000000
_cell_angle_beta 43.617736
_cell_angle_gamma 90.000000
_cell_volume 1150.986713
_symmetry_space_group_name_H-M "P 2/C"
_symmetry_group_IT_number 13
_symmetry_cell_setting 'monoclinic'
loop_
_space_group_symop_operation_xyz
x,y,z
-x,y,1/2-z
-x,-y,-z
x,-y,1/2+z
loop_
_atom_site_type_symbol
_atom_site_label
_atom_site_fract_x
_atom_site_fract_y
_atom_site_fract_z
Si Si1 0.000000 0.982756 0.750000
Si Si2 0.360617 0.190419 0.178767
Si Si3 0.775252 0.180289 0.942139
Si Si4 0.071719 0.339596 0.386736
Si Si5 0.371694 0.345926 0.635775
Si Si6 0.880913 0.355714 0.619420
Si Si7 0.247995 0.406906 0.107100
O O1 0.803918 0.902670 0.797235
O O2 0.924520 0.067536 0.853907
O O3 0.358931 0.319506 0.126865
O O4 0.261443 0.242104 0.299288
O O5 0.594766 0.142916 0.074962
O O6 0.667444 0.223744 0.903456
O O7 0.914731 0.297280 0.919708
O O8 0.914764 0.303533 0.518561
O O9 0.952590 0.345431 0.351505
O O10 0.131216 0.488459 0.378773
O O11 0.309251 0.318280 0.749249
O O12 0.593431 0.407861 0.529463
O O13 0.225382 0.456617 0.657447
#
# Coordination Sequence:
#
# PCOD9228737 Si02
#       7
#     2   4   4   4   4   4   4
#     4  12  22  40  68  90 112 156 224 270 292 350
#     4  11  23  39  62  89 118 157 206 255 303 355
#     4  11  23  39  62  89 118 157 206 255 303 355
#     4  11  22  36  59  91 126 158 192 242 312 383
#     4  10  19  35  61  87 117 157 200 250 304 361
#     4  11  22  36  59  91 126 158 192 242 312 383
#     4  10  19  35  61  87 117 157 200 250 304 361
#
# _framework density 22.589314000000002
#
# number of rings (size 3 to 8) (size 9 to 14) (size 15 to 20)
#    0.000    1.231    6.154    0.462    0.000    1.231 
#    0.000    3.846    0.000    0.000    0.000    0.000 
#    0.000    0.000    0.000    0.000    0.000    0.000 
#
# Total GULP energy -144999.996400 kJ/mol
# GULP energy per Si atom -5576.922938 kJ/mol
# Density = 2.253790 g / cm^3
# Si number density = 22.589314 Si / 1000 Ang^3
#
#
#
# Elastic Constant Matrix: (Units=GPa)
#
#
# Indices 1 2 3 4 5 6 
#
# 1 27.3827 3.7585 13.7546 0.0000 0.4562 0.0000
# 2 3.7585 51.0385 17.0733 0.0000 -9.2574 0.0000
# 3 13.7546 17.0733 179.2688 0.0000 -2.2390 0.0000
# 4 0.0000 0.0000 0.0000 13.9665 0.0000 -11.1737
# 5 0.4562 -9.2574 -2.2390 0.0000 45.2381 0.0000
# 6 0.0000 0.0000 0.0000 -11.1737 0.0000 12.5830
#
#
#
# Elastic Compliance Matrix: (Units=1/GPa)
#
#
# Indices 1 2 3 4 5 6 
#
# 1 0.038198 -0.002066 -0.002746 0.000000 -0.000944 0.000000
# 2 -0.002066 0.021119 -0.001800 0.000000 0.004253 0.000000
# 3 -0.002746 -0.001800 0.005960 0.000000 -0.000046 0.000000
# 4 0.000000 0.000000 0.000000 0.247263 0.000000 0.219570
# 5 -0.000944 0.004253 -0.000046 0.000000 0.022983 0.000000
# 6 0.000000 0.000000 0.000000 0.219570 0.000000 0.274451
#
#
# Mechanical properties :
#
#
# Convention : Reuss Voigt Hill
#
# Bulk Modulus (GPa) = 19.21076 36.31806 27.76441
# Shear Modulus (GPa) = 7.80583 29.23109 18.51846
#
# Velocity S-wave (km/s) = 1.86092 3.60116 2.86630
# Velocity P-wave (km/s) = 3.62494 5.77958 4.82409
#
# Compressibility (1/GPa) = 0.05205417
#
# Stress axis : x y z
#
# Youngs Moduli (GPa) = 26.17942 47.35139 167.79300
#
# Poissons Ratio (x) = 0.09781 0.46073
# Poissons Ratio (y) = 0.05408 0.30198
# Poissons Ratio (z) = 0.07188 0.08522
#
# Static dielectric constant tensor:
#      x y z
#    x 1.888450 0.000000 -0.037870 
#    y 0.000000 1.837230 0.000000 
#    z -0.037870 0.000000 1.974980 
# 
# From -- ./inp_files/66404.got.cif
#   From: 2010.05.17/outbox.cif.g08.bks.cpg/sg13_34_cif.got.tgz:66404.got - 2010.06.03 16:44:36.
