data_PCOD9228619
_publ_section_title
;
Structure prediction by ZEFSAII (Michael W. Deem and Ramdas Pophale) SiO2 
 PCOD9228619
Probable space group: P 2/C
;
_chemical_formula_sum "Si O2"
_cell_formula_units_Z 30
_cell_length_a 12.183221
_cell_length_b 11.271938
_cell_length_c 14.994257
_cell_angle_alpha 90.000000
_cell_angle_beta 50.213783
_cell_angle_gamma 90.000000
_cell_volume 1582.319594
_symmetry_space_group_name_H-M "P 2/C"
_symmetry_group_IT_number 13
_symmetry_cell_setting 'monoclinic'
loop_
_space_group_symop_operation_xyz
x,y,z
-x,y,1/2-z
-x,-y,-z
x,-y,1/2+z
loop_
_atom_site_type_symbol
_atom_site_label
_atom_site_fract_x
_atom_site_fract_y
_atom_site_fract_z
Si Si1 0.144472 0.166867 0.621921
Si Si2 0.939679 0.457139 0.126600
Si Si3 0.555099 0.730738 0.124189
Si Si4 0.500000 0.867073 0.750000
Si Si5 0.394414 0.984533 0.472741
Si Si6 0.251647 0.483907 0.006164
Si Si7 0.709250 0.382130 0.844762
Si Si8 0.780450 0.287237 0.096941
O O1 0.246806 0.052935 0.567118
O O2 0.218959 0.273070 0.638941
O O3 0.132503 0.215635 0.525757
O O4 0.000000 0.141860 0.750000
O O5 0.823706 0.550086 0.223164
O O6 0.867673 0.331438 0.138185
O O7 0.083257 0.460123 0.110846
O O8 0.000000 0.500000 0.000000
O O9 0.500000 0.766641 0.250000
O O10 0.424015 0.670210 0.139230
O O11 0.615386 0.845953 0.043607
O O12 0.676466 0.632120 0.070051
O O13 0.535137 0.948086 0.647446
O O14 0.360228 0.786714 0.806376
O O15 0.500000 0.000000 0.500000
O O16 0.325799 0.523522 0.059332
O O17 0.267110 0.592178 0.928964
#
# Coordination Sequence:
#
# PCOD9228619 Si02
#       8
#     4   4   4   2   4   4   4   4
#     4  10  20  39  65  88 117 165 215 257 313 384
#     4  10  19  35  56  92 126 157 193 247 317 376
#     4  12  24  39  62  89 126 165 208 266 320 380
#     4  10  22  40  62  90 126 164 218 262 318 372
#     4  11  23  44  61  87 121 168 217 269 311 370
#     4  10  22  37  58  95 125 157 202 248 321 387
#     4  11  21  37  63  88 125 164 205 252 316 387
#     4   9  20  35  62  91 126 157 200 257 313 386
#
# _framework density 18.959506999999999
#
# number of rings (size 3 to 8) (size 9 to 14) (size 15 to 20)
#    0.000    1.600    2.000    4.800    2.800    1.067 
#    0.000    2.667    0.000    4.000    0.000    0.000 
#    0.000    0.000    0.000    0.000    0.000    0.000 
#
# Total GULP energy -167433.306092 kJ/mol
# GULP energy per Si atom -5581.110203 kJ/mol
# Density = 1.891635 g / cm^3
# Si number density = 18.959507 Si / 1000 Ang^3
#
#
#
# Elastic Constant Matrix: (Units=GPa)
#
#
# Indices 1 2 3 4 5 6 
#
# 1 71.4762 29.2002 10.0583 0.0000 -5.7716 0.0000
# 2 29.2002 97.7185 35.7557 0.0000 -15.1857 0.0000
# 3 10.0583 35.7557 73.4326 0.0000 -19.8099 0.0000
# 4 0.0000 0.0000 0.0000 28.0699 0.0000 3.5256
# 5 -5.7716 -15.1857 -19.8099 0.0000 25.2624 0.0000
# 6 0.0000 0.0000 0.0000 3.5256 0.0000 20.0001
#
#
#
# Elastic Compliance Matrix: (Units=1/GPa)
#
#
# Indices 1 2 3 4 5 6 
#
# 1 0.015963 -0.004753 0.000432 0.000000 0.001129 0.000000
# 2 -0.004753 0.014111 -0.005358 0.000000 0.003195 0.000000
# 3 0.000432 -0.005358 0.019437 0.000000 0.012120 0.000000
# 4 0.000000 0.000000 0.000000 0.036432 0.000000 -0.006422
# 5 0.001129 0.003195 0.012120 0.000000 0.051267 0.000000
# 6 0.000000 0.000000 0.000000 -0.006422 0.000000 0.051132
#
#
# Mechanical properties :
#
#
# Convention : Reuss Voigt Hill
#
# Bulk Modulus (GPa) = 33.16320 43.62843 38.39581
# Shear Modulus (GPa) = 22.96218 25.84066 24.40142
#
# Velocity S-wave (km/s) = 3.48389 3.69581 3.59141
# Velocity P-wave (km/s) = 5.80628 6.42443 6.12316
#
# Compressibility (1/GPa) = 0.03015390
#
# Stress axis : x y z
#
# Youngs Moduli (GPa) = 62.64634 70.86857 51.44782
#
# Poissons Ratio (x) = 0.33682 -0.02224
# Poissons Ratio (y) = 0.29774 0.27565
# Poissons Ratio (z) = -0.02708 0.37970
#
# Static dielectric constant tensor:
#      x y z
#    x 1.667320 0.000000 0.005860 
#    y 0.000000 1.643290 0.000000 
#    z 0.005860 0.000000 1.668800 
# 
# From -- ./inp_files/51155.got.cif
#   From: 2010.05.17/outbox.cif.g08.bks.cpg/sg13_26_cif.got.tgz:51155.got - 2010.06.03 16:44:36.
