data_PCOD9228274
_publ_section_title
;
Structure prediction by ZEFSAII (Michael W. Deem and Ramdas Pophale) SiO2 
 PCOD9228274
Probable space group: P 2/C
;
_chemical_formula_sum "Si O2"
_cell_formula_units_Z 28
_cell_length_a 17.561127
_cell_length_b 9.185701
_cell_length_c 15.548373
_cell_angle_alpha 90.000000
_cell_angle_beta 31.548808
_cell_angle_gamma 90.000000
_cell_volume 1312.314360
_symmetry_space_group_name_H-M "P 2/C"
_symmetry_group_IT_number 13
_symmetry_cell_setting 'monoclinic'
loop_
_space_group_symop_operation_xyz
x,y,z
-x,y,1/2-z
-x,-y,-z
x,-y,1/2+z
loop_
_atom_site_type_symbol
_atom_site_label
_atom_site_fract_x
_atom_site_fract_y
_atom_site_fract_z
Si Si1 0.209103 0.955385 0.776923
Si Si2 0.142925 0.437033 0.911640
Si Si3 0.948560 0.857675 0.933766
Si Si4 0.535147 0.919188 0.074607
Si Si5 0.286434 0.016573 0.433368
Si Si6 0.437583 0.660934 0.049829
Si Si7 0.309774 0.717632 0.813092
O O1 0.365446 0.003548 0.590657
O O2 0.226552 0.816217 0.821819
O O3 0.123484 0.079863 0.908597
O O4 0.114977 0.898888 0.787106
O O5 0.086749 0.311951 0.030352
O O6 0.264375 0.363546 0.730503
O O7 0.231228 0.562162 0.878729
O O8 0.000000 0.500000 0.000000
O O9 0.868347 0.945635 0.936449
O O10 0.382502 0.975764 0.256475
O O11 0.633054 0.940874 0.065608
O O12 0.503003 0.762253 0.063539
O O13 0.289637 0.192316 0.421393
O O14 0.500000 0.500000 0.000000
O O15 0.521287 0.711888 0.881617
#
# Coordination Sequence:
#
# PCOD9228274 Si02
#       7
#     4   4   4   4   4   4   4
#     4   9  19  33  55  85 111 142 197 249 281 346
#     4  11  19  32  56  87 113 149 187 247 296 345
#     4  10  19  33  55  86 110 151 192 240 295 343
#     4  10  20  36  58  83 114 154 195 242 300 352
#     4  10  21  35  57  82 114 153 196 238 296 357
#     4   9  19  34  58  88 115 148 193 250 294 348
#     4   9  19  34  54  85 114 141 194 246 294 347
#
# _framework density 21.336349999999999
#
# number of rings (size 3 to 8) (size 9 to 14) (size 15 to 20)
#    0.000    2.286    2.857    0.000    2.000    2.286 
#    0.000    0.000   12.571    0.000    0.000    0.000 
#    0.000    0.000    0.000    0.000    0.000    0.000 
#
# Total GULP energy -155931.732421 kJ/mol
# GULP energy per Si atom -5568.990444 kJ/mol
# Density = 2.128779 g / cm^3
# Si number density = 21.336350 Si / 1000 Ang^3
#
#
#
# Elastic Constant Matrix: (Units=GPa)
#
#
# Indices 1 2 3 4 5 6 
#
# 1 93.7905 30.9268 26.9782 0.0000 -20.5561 0.0000
# 2 30.9268 118.9547 25.1677 0.0000 -7.2123 0.0000
# 3 26.9782 25.1677 102.4580 0.0000 -21.0673 0.0000
# 4 0.0000 0.0000 0.0000 21.2653 0.0000 -19.1712
# 5 -20.5561 -7.2123 -21.0673 0.0000 36.0119 0.0000
# 6 0.0000 0.0000 0.0000 -19.1712 0.0000 20.6393
#
#
#
# Elastic Compliance Matrix: (Units=1/GPa)
#
#
# Indices 1 2 3 4 5 6 
#
# 1 0.013379 -0.002772 -0.001575 0.000000 0.006160 0.000000
# 2 -0.002772 0.009452 -0.001737 0.000000 -0.000705 0.000000
# 3 -0.001575 -0.001737 0.011760 0.000000 0.005632 0.000000
# 4 0.000000 0.000000 0.000000 0.289214 0.000000 0.268643
# 5 0.006160 -0.000705 0.005632 0.000000 0.034439 0.000000
# 6 0.000000 0.000000 0.000000 0.268643 0.000000 0.297986
#
#
# Mechanical properties :
#
#
# Convention : Reuss Voigt Hill
#
# Bulk Modulus (GPa) = 44.59723 53.48318 49.04021
# Shear Modulus (GPa) = 7.39784 31.05865 19.22824
#
# Velocity S-wave (km/s) = 1.86408 3.81946 3.00525
# Velocity P-wave (km/s) = 5.05771 6.67624 5.92252
#
# Compressibility (1/GPa) = 0.02242292
#
# Stress axis : x y z
#
# Youngs Moduli (GPa) = 74.74216 105.79886 85.03617
#
# Poissons Ratio (x) = 0.29324 0.13396
# Poissons Ratio (y) = 0.20716 0.14771
# Poissons Ratio (z) = 0.11775 0.18377
#
# Static dielectric constant tensor:
#      x y z
#    x 1.788710 0.000000 -0.026170 
#    y 0.000000 1.820170 0.000000 
#    z -0.026170 0.000000 1.828280 
# 
# From -- ./inp_files/70459.got.cif
#   From: 2010.05.17/outbox.cif.g08.bks.cpg/sg13_36_cif.got.tgz:70459.got - 2010.06.03 16:44:36.
