data_PCOD9228179
_publ_section_title
;
Structure prediction by ZEFSAII (Michael W. Deem and Ramdas Pophale) SiO2 
 PCOD9228179
Probable space group: P 2/C
;
_chemical_formula_sum "Si O2"
_cell_formula_units_Z 30
_cell_length_a 14.072847
_cell_length_b 19.656194
_cell_length_c 5.022052
_cell_angle_alpha 90.000000
_cell_angle_beta 99.235082
_cell_angle_gamma 90.000000
_cell_volume 1371.186585
_symmetry_space_group_name_H-M "P 2/C"
_symmetry_group_IT_number 13
_symmetry_cell_setting 'monoclinic'
loop_
_space_group_symop_operation_xyz
x,y,z
-x,y,1/2-z
-x,-y,-z
x,-y,1/2+z
loop_
_atom_site_type_symbol
_atom_site_label
_atom_site_fract_x
_atom_site_fract_y
_atom_site_fract_z
Si Si1 0.127405 0.959822 0.602846
Si Si2 0.344747 0.237444 0.887602
Si Si3 0.359244 0.041504 0.231600
Si Si4 0.304374 0.675147 0.880979
Si Si5 0.897450 0.724054 0.616376
Si Si6 0.142222 0.183786 0.899667
Si Si7 0.500000 0.157577 0.250000
Si Si8 0.615503 0.537732 0.339389
O O1 0.243813 0.952486 0.684401
O O2 0.100612 0.890459 0.440161
O O3 0.099413 0.978701 0.891317
O O4 0.321345 0.299208 0.086841
O O5 0.443313 0.203805 0.017442
O O6 0.344153 0.265549 0.590673
O O7 0.255787 0.184623 0.876753
O O8 0.417574 0.108559 0.332246
O O9 0.385507 0.981695 0.447216
O O10 0.354850 0.606830 0.001992
O O11 0.191151 0.672014 0.908411
O O12 0.902278 0.767204 0.346290
O O13 0.000000 0.694925 0.750000
O O14 0.868912 0.778928 0.825512
O O15 0.500000 0.537504 0.250000
O O16 0.649979 0.478299 0.556753
#
# Coordination Sequence:
#
# PCOD9228179 Si02
#       8
#     4   4   4   4   4   4   2   4
#     4  10  19  33  52  72  99 140 181 228 284 337
#     4  10  23  33  53  80 111 154 176 237 273 333
#     4  10  22  35  49  69 101 143 190 235 275 334
#     4  10  22  40  57  86 119 144 190 228 278 313
#     4  10  21  37  64  85 108 142 178 230 288 344
#     4  10  19  38  53  81 109 136 186 224 288 342
#     4  12  22  36  50  76 112 144 194 230 284 334
#     4  10  21  37  60  86 118 162 197 219 250 305
#
# _framework density 21.878861000000001
#
# number of rings (size 3 to 8) (size 9 to 14) (size 15 to 20)
#    0.000    1.867    1.333    2.400    1.867    2.133 
#    0.000    0.000    0.000    8.800    0.000    0.000 
#    0.000    0.000    0.000    0.000    0.000    0.000 
#
# Total GULP energy -167608.466065 kJ/mol
# GULP energy per Si atom -5586.948869 kJ/mol
# Density = 2.182906 g / cm^3
# Si number density = 21.878861 Si / 1000 Ang^3
#
#
#
# Elastic Constant Matrix: (Units=GPa)
#
#
# Indices 1 2 3 4 5 6 
#
# 1 57.0963 -8.0362 18.7228 0.0000 25.4622 0.0000
# 2 -8.0362 45.3590 8.2017 0.0000 2.1497 0.0000
# 3 18.7228 8.2017 97.8721 0.0000 -1.7559 0.0000
# 4 0.0000 0.0000 0.0000 0.0023 0.0000 -4.8851
# 5 25.4622 2.1497 -1.7559 0.0000 41.2218 0.0000
# 6 0.0000 0.0000 0.0000 -4.8851 0.0000 1.5918
#
#
#
# Elastic Compliance Matrix: (Units=1/GPa)
#
#
# Indices 1 2 3 4 5 6 
#
# 1 0.028886 0.007162 -0.006458 0.000000 -0.018491 0.000000
# 2 0.007162 0.024226 -0.003505 0.000000 -0.005836 0.000000
# 3 -0.006458 -0.003505 0.011830 0.000000 0.004676 0.000000
# 4 0.000000 0.000000 0.000000 -0.066713 0.000000 -0.204734
# 5 -0.018491 -0.005836 0.004676 0.000000 0.036184 0.000000
# 6 0.000000 0.000000 0.000000 -0.204734 0.000000 -0.000094
#
#
# Mechanical properties :
#
#
# Convention : Reuss Voigt Hill
#
# Bulk Modulus (GPa) = 16.85199 26.45601 21.65400
# Shear Modulus (GPa) = 83.75118 20.65912 52.20515
#
# Velocity S-wave (km/s) = 6.19375 3.07620 4.89007
# Velocity P-wave (km/s) = 7.67263 4.97349 6.46548
#
# Compressibility (1/GPa) = 0.05934016
#
# Stress axis : x y z
#
# Youngs Moduli (GPa) = 34.61884 41.27875 84.52818
#
# Poissons Ratio (x) = -0.29563 0.54586
# Poissons Ratio (y) = -0.24793 0.29626
# Poissons Ratio (z) = 0.22356 0.14468
#
# Static dielectric constant tensor:
#      x y z
#    x 1.880720 0.000000 0.019150 
#    y 0.000000 1.803200 0.000000 
#    z 0.019150 0.000000 1.786950 
# 
# From -- ./inp_files/5250.got.cif
#   From: 2010.05.17/outbox.cif.g08.bks.cpg/sg13_3_cif.got.tgz:5250.got - 2010.06.03 16:44:36.
