data_PCOD9228481
_publ_section_title
;
Structure prediction by ZEFSAII (Michael W. Deem and Ramdas Pophale) SiO2 
 PCOD9228481
Probable space group: P 2/C
;
_chemical_formula_sum "Si O2"
_cell_formula_units_Z 28
_cell_length_a 26.859187
_cell_length_b 8.378982
_cell_length_c 10.364765
_cell_angle_alpha 90.000000
_cell_angle_beta 140.513549
_cell_angle_gamma 90.000000
_cell_volume 1483.301687
_symmetry_space_group_name_H-M "P 2/C"
_symmetry_group_IT_number 13
_symmetry_cell_setting 'monoclinic'
loop_
_space_group_symop_operation_xyz
x,y,z
-x,y,1/2-z
-x,-y,-z
x,-y,1/2+z
loop_
_atom_site_type_symbol
_atom_site_label
_atom_site_fract_x
_atom_site_fract_y
_atom_site_fract_z
Si Si1 0.499993 0.866867 0.892737
Si Si2 0.188307 0.806929 0.880685
Si Si3 0.347523 0.355401 0.097569
Si Si4 0.091582 0.794473 0.433213
Si Si5 0.087932 0.816928 0.925918
Si Si6 0.811701 0.193083 0.627378
Si Si7 0.347538 0.644590 0.292549
O O1 0.500000 0.941270 0.750000
O O2 0.422696 0.759224 0.749260
O O3 0.577277 0.759183 0.058421
O O4 0.500000 0.000000 0.000000
O O5 0.143253 0.751746 0.661770
O O6 0.132757 0.765373 0.888761
O O7 0.271884 0.731965 0.080777
O O8 0.196471 0.000007 0.892987
O O9 0.271861 0.268056 0.006712
O O10 0.363796 0.499991 0.227591
O O11 0.333724 0.397930 0.917446
O O12 0.143289 0.751733 0.411452
O O13 0.000000 0.739843 0.250000
O O14 0.086849 0.988849 0.423743
O O15 0.000000 0.758395 0.750000
O O16 0.132699 0.765379 0.142312
#
# Coordination Sequence:
#
# PCOD9228481 Si02
#       7
#     4   4   4   4   4   4   4
#     4  10  23  44  68  96 124 150 191 240 290 348
#     4  10  19  34  57  85 118 152 200 248 298 349
#     4  11  24  41  61  87 122 160 198 238 289 350
#     4   9  18  30  53  88 117 148 195 251 306 355
#     4   9  16  30  53  82 115 150 191 251 304 347
#     4  10  19  34  57  85 118 152 200 248 298 349
#     4  11  24  41  61  87 122 160 198 238 289 350
#
# _framework density 18.876806999999999
#
# number of rings (size 3 to 8) (size 9 to 14) (size 15 to 20)
#    0.000    2.000    1.429    2.143    2.000    4.571 
#    0.000    0.000    0.000    5.143    0.000    0.000 
#    0.000    0.000    0.000    0.000    0.000    0.000 
#
# Total GULP energy -156221.763599 kJ/mol
# GULP energy per Si atom -5579.348700 kJ/mol
# Density = 1.883384 g / cm^3
# Si number density = 18.876807 Si / 1000 Ang^3
#
#
#
# Elastic Constant Matrix: (Units=GPa)
#
#
# Indices 1 2 3 4 5 6 
#
# 1 174.9389 40.8624 99.3509 0.0000 -18.7638 0.0000
# 2 40.8624 37.2354 40.5561 0.0000 -17.0319 0.0000
# 3 99.3509 40.5561 174.0220 0.0000 -18.6065 0.0000
# 4 0.0000 0.0000 0.0000 -34.4152 0.0000 -47.7644
# 5 -18.7638 -17.0319 -18.6065 0.0000 46.5208 0.0000
# 6 0.0000 0.0000 0.0000 -47.7644 0.0000 -33.6841
#
#
#
# Elastic Compliance Matrix: (Units=1/GPa)
#
#
# Indices 1 2 3 4 5 6 
#
# 1 0.009352 -0.005955 -0.003950 0.000000 0.000012 0.000000
# 2 -0.005955 0.045175 -0.005868 0.000000 0.011791 0.000000
# 3 -0.003950 -0.005868 0.009370 0.000000 0.000006 0.000000
# 4 0.000000 0.000000 0.000000 0.030016 0.000000 -0.042563
# 5 0.000012 0.011791 0.000006 0.000000 0.025820 0.000000
# 6 0.000000 0.000000 0.000000 -0.042563 0.000000 0.030668
#
#
# Mechanical properties :
#
#
# Convention : Reuss Voigt Hill
#
# Bulk Modulus (GPa) = 30.91065 83.08167 56.99616
# Shear Modulus (GPa) = 25.94307 9.37944 17.66125
#
# Velocity S-wave (km/s) = 3.71123 2.23149 3.06209
# Velocity P-wave (km/s) = 5.89701 7.12373 6.53920
#
# Compressibility (1/GPa) = 0.03235131
#
# Stress axis : x y z
#
# Youngs Moduli (GPa) = 106.93160 22.13592 106.72843
#
# Poissons Ratio (x) = 0.13182 0.42157
# Poissons Ratio (y) = 0.63679 0.62626
# Poissons Ratio (z) = 0.42237 0.12989
#
# Static dielectric constant tensor:
#      x y z
#    x 1.645170 0.000000 -0.018330 
#    y 0.000000 1.644300 0.000000 
#    z -0.018330 0.000000 1.644960 
# 
# From -- ./inp_files/24581.got.cif
#   From: 2010.05.17/outbox.cif.g08.bks.cpg/sg13_13_cif.got.tgz:24581.got - 2010.06.03 16:44:36.
