data_PCOD9228029
_publ_section_title
;
Structure prediction by ZEFSAII (Michael W. Deem and Ramdas Pophale) SiO2 
 PCOD9228029
Probable space group: P 2/C
;
_chemical_formula_sum "Si O2"
_cell_formula_units_Z 32
_cell_length_a 21.965821
_cell_length_b 16.780092
_cell_length_c 22.093544
_cell_angle_alpha 90.000000
_cell_angle_beta 12.872805
_cell_angle_gamma 90.000000
_cell_volume 1814.252974
_symmetry_space_group_name_H-M "P 2/C"
_symmetry_group_IT_number 13
_symmetry_cell_setting 'monoclinic'
loop_
_space_group_symop_operation_xyz
x,y,z
-x,y,1/2-z
-x,-y,-z
x,-y,1/2+z
loop_
_atom_site_type_symbol
_atom_site_label
_atom_site_fract_x
_atom_site_fract_y
_atom_site_fract_z
Si Si1 0.534395 0.699431 0.632476
Si Si2 0.488778 0.876352 0.826017
Si Si3 0.423298 0.679254 0.601448
Si Si4 0.041702 0.404276 0.643175
Si Si5 0.075662 0.574253 0.384530
Si Si6 0.037871 0.086006 0.848152
Si Si7 0.345613 0.159172 0.663923
Si Si8 0.102840 0.064595 0.350492
O O1 0.444082 0.783341 0.745305
O O2 0.490915 0.707977 0.603300
O O3 0.843341 0.672189 0.341455
O O4 0.346132 0.628210 0.839324
O O5 0.500000 0.916428 0.750000
O O6 0.713092 0.908606 0.655748
O O7 0.185885 0.882468 0.145314
O O8 0.615409 0.602868 0.404631
O O9 0.521885 0.752867 0.464720
O O10 0.115055 0.647500 0.906753
O O11 0.968261 0.438914 0.646277
O O12 0.000000 0.446326 0.750000
O O13 0.000000 0.500000 0.500000
O O14 0.165891 0.140219 0.777786
O O15 0.119716 0.993697 0.777174
O O16 0.605170 0.100359 0.415465
O O17 0.127362 0.133387 0.926854
O O18 0.000000 0.000000 0.500000
#
# Coordination Sequence:
#
# PCOD9228029 Si02
#       8
#     4   4   4   4   4   4   4   4
#     4  10  20  31  45  67  98 131 167 208 234 270
#     4  12  22  31  45  65  97 137 175 207 243 291
#     4  10  20  32  53  73  98 136 166 203 248 303
#     4  10  19  32  49  69  94 129 174 204 235 289
#     4  10  21  35  50  73 106 138 164 201 260 312
#     4  11  21  33  46  65 100 129 168 212 255 287
#     4  11  19  33  51  73  94 124 172 208 254 299
#     4  10  20  31  49  70  94 128 159 210 264 297
#
# _framework density 17.638114999999999
#
# number of rings (size 3 to 8) (size 9 to 14) (size 15 to 20)
#    0.000    1.500    1.250    7.125    3.500    0.000 
#    0.000    0.000    0.000    0.000    0.000    0.000 
#    0.000   20.000    0.000    0.000    0.000    0.000 
#
# Total GULP energy -178193.693828 kJ/mol
# GULP energy per Si atom -5568.552932 kJ/mol
# Density = 1.759797 g / cm^3
# Si number density = 17.638115 Si / 1000 Ang^3
#
#
#
# Elastic Constant Matrix: (Units=GPa)
#
#
# Indices 1 2 3 4 5 6 
#
# 1 47.4637 23.7511 2.6272 0.0000 3.7079 0.0000
# 2 23.7511 45.4272 -1.6338 0.0000 2.0810 0.0000
# 3 2.6272 -1.6338 68.1466 0.0000 -5.7582 0.0000
# 4 0.0000 0.0000 0.0000 22.5176 0.0000 5.5940
# 5 3.7079 2.0810 -5.7582 0.0000 22.0976 0.0000
# 6 0.0000 0.0000 0.0000 5.5940 0.0000 -13.1047
#
#
#
# Elastic Compliance Matrix: (Units=1/GPa)
#
#
# Indices 1 2 3 4 5 6 
#
# 1 0.029007 -0.015051 -0.001811 0.000000 -0.003922 0.000000
# 2 -0.015051 0.029927 0.001302 0.000000 0.000047 0.000000
# 3 -0.001811 0.001302 0.015124 0.000000 0.004122 0.000000
# 4 0.000000 0.000000 0.000000 0.040152 0.000000 0.017140
# 5 -0.003922 0.000047 0.004122 0.000000 0.046982 0.000000
# 6 0.000000 0.000000 0.000000 0.017140 0.000000 -0.068992
#
#
# Mechanical properties :
#
#
# Convention : Reuss Voigt Hill
#
# Bulk Modulus (GPa) = 23.28968 23.39183 23.34075
# Shear Modulus (GPa) = 36.32868 15.38831 25.85849
#
# Velocity S-wave (km/s) = 4.54328 2.95692 3.83307
# Velocity P-wave (km/s) = 6.38394 4.99487 5.73164
#
# Compressibility (1/GPa) = 0.04293748
#
# Stress axis : x y z
#
# Youngs Moduli (GPa) = 34.47428 33.41421 66.12198
#
# Poissons Ratio (x) = 0.50293 0.11971
# Poissons Ratio (y) = 0.51889 -0.08607
# Poissons Ratio (z) = 0.06242 -0.04349
#
# Static dielectric constant tensor:
#      x y z
#    x 1.697910 0.000000 0.039930 
#    y 0.000000 1.624410 0.000000 
#    z 0.039930 0.000000 1.627390 
# 
# From -- ./inp_files/89276.got.cif
#   From: 2010.05.17/outbox.cif.g08.bks.cpg/sg13_45_cif.got.tgz:89276.got - 2010.06.03 16:44:36.
