data_PCOD9228775
_publ_section_title
;
Structure prediction by ZEFSAII (Michael W. Deem and Ramdas Pophale) SiO2 
 PCOD9228775
Probable space group: P 2/C
;
_chemical_formula_sum "Si O2"
_cell_formula_units_Z 24
_cell_length_a 8.472487
_cell_length_b 15.006306
_cell_length_c 18.508928
_cell_angle_alpha 90.000000
_cell_angle_beta 33.317210
_cell_angle_gamma 90.000000
_cell_volume 1292.572451
_symmetry_space_group_name_H-M "P 2/C"
_symmetry_group_IT_number 13
_symmetry_cell_setting 'monoclinic'
loop_
_space_group_symop_operation_xyz
x,y,z
-x,y,1/2-z
-x,-y,-z
x,-y,1/2+z
loop_
_atom_site_type_symbol
_atom_site_label
_atom_site_fract_x
_atom_site_fract_y
_atom_site_fract_z
Si Si1 0.327665 0.636630 0.241541
Si Si2 0.735423 0.868482 0.598239
Si Si3 0.679613 0.294496 0.011552
Si Si4 0.627076 0.931510 0.118875
Si Si5 0.656613 0.207030 0.871871
Si Si6 0.662276 0.531350 0.864536
O O1 0.500000 0.637282 0.250000
O O2 0.431550 0.717131 0.151337
O O3 0.374524 0.545003 0.181261
O O4 0.987650 0.657441 0.380163
O O5 0.500000 0.854742 0.750000
O O6 0.730676 0.782619 0.549793
O O7 0.057665 0.887288 0.502525
O O8 0.652997 0.963243 0.593486
O O9 0.465826 0.374551 0.111710
O O10 0.560094 0.242914 0.986561
O O11 0.500000 0.921269 0.250000
O O12 0.445911 0.883389 0.126131
O O13 0.000000 0.203181 0.750000
O O14 0.000000 0.539166 0.750000
O O15 0.500000 0.500000 0.000000
#
# Coordination Sequence:
#
# PCOD9228775 Si02
#       6
#     4   4   4   4   4   4
#     4  11  22  39  66  92 116 162 216 251 304 382
#     4  10  23  41  61  93 131 163 205 265 314 365
#     4  11  23  40  63  90 128 163 207 261 314 375
#     4  10  20  40  67  90 126 171 206 251 315 374
#     4  10  19  35  63  94 121 162 209 256 302 377
#     4  12  23  45  64  87 127 166 203 261 322 367
#
# _framework density 18.567625
#
# number of rings (size 3 to 8) (size 9 to 14) (size 15 to 20)
#    0.000    1.333    3.333    4.000    0.000    3.333 
#    3.000    0.833    0.000    0.000    0.000    0.000 
#    0.000    0.000    0.000    0.000    0.000    0.000 
#
# Total GULP energy -133935.088399 kJ/mol
# GULP energy per Si atom -5580.628683 kJ/mol
# Density = 1.852536 g / cm^3
# Si number density = 18.567625 Si / 1000 Ang^3
#
#
#
# Elastic Constant Matrix: (Units=GPa)
#
#
# Indices 1 2 3 4 5 6 
#
# 1 92.0407 59.4054 19.7736 0.0000 7.5690 0.0000
# 2 59.4054 138.8989 33.4197 0.0000 9.8280 0.0000
# 3 19.7736 33.4197 81.6014 0.0000 -0.1143 0.0000
# 4 0.0000 0.0000 0.0000 19.6398 0.0000 -6.7607
# 5 7.5690 9.8280 -0.1143 0.0000 15.5415 0.0000
# 6 0.0000 0.0000 0.0000 -6.7607 0.0000 46.3704
#
#
#
# Elastic Compliance Matrix: (Units=1/GPa)
#
#
# Indices 1 2 3 4 5 6 
#
# 1 0.015297 -0.005978 -0.001264 0.000000 -0.003679 0.000000
# 2 -0.005978 0.010744 -0.002957 0.000000 -0.003904 0.000000
# 3 -0.001264 -0.002957 0.013776 0.000000 0.002587 0.000000
# 4 0.000000 0.000000 0.000000 0.053608 0.000000 0.007816
# 5 -0.003679 -0.003904 0.002587 0.000000 0.068624 0.000000
# 6 0.000000 0.000000 0.000000 0.007816 0.000000 0.022705
#
#
# Mechanical properties :
#
#
# Convention : Reuss Voigt Hill
#
# Bulk Modulus (GPa) = 51.49543 59.74872 55.62207
# Shear Modulus (GPa) = 23.62688 29.63983 26.63335
#
# Velocity S-wave (km/s) = 3.57105 3.99973 3.79145
# Velocity P-wave (km/s) = 6.69309 7.31979 7.01344
#
# Compressibility (1/GPa) = 0.01941920
#
# Stress axis : x y z
#
# Youngs Moduli (GPa) = 65.37159 93.07548 72.59229
#
# Poissons Ratio (x) = 0.55641 0.09173
# Poissons Ratio (y) = 0.39080 0.21466
# Poissons Ratio (z) = 0.08261 0.27523
#
# Static dielectric constant tensor:
#      x y z
#    x 1.628700 0.000000 0.011230 
#    y 0.000000 1.639910 0.000000 
#    z 0.011230 0.000000 1.663690 
# 
# From -- ./inp_files/64585.got.cif
#   From: 2010.05.17/outbox.cif.g08.bks.cpg/sg13_33_cif.got.tgz:64585.got - 2010.06.03 16:44:36.
