data_PCOD9228508
_publ_section_title
;
Structure prediction by ZEFSAII (Michael W. Deem and Ramdas Pophale) SiO2 
 PCOD9228508
Probable space group: P 2/C
;
_chemical_formula_sum "Si O2"
_cell_formula_units_Z 16
_cell_length_a 12.956541
_cell_length_b 10.419339
_cell_length_c 9.031290
_cell_angle_alpha 90.000000
_cell_angle_beta 30.634224
_cell_angle_gamma 90.000000
_cell_volume 621.255853
_symmetry_space_group_name_H-M "P 2/C"
_symmetry_group_IT_number 13
_symmetry_cell_setting 'monoclinic'
loop_
_space_group_symop_operation_xyz
x,y,z
-x,y,1/2-z
-x,-y,-z
x,-y,1/2+z
loop_
_atom_site_type_symbol
_atom_site_label
_atom_site_fract_x
_atom_site_fract_y
_atom_site_fract_z
Si Si1 0.218304 0.871053 0.059808
Si Si2 0.773855 0.119059 0.601569
Si Si3 0.818033 0.405899 0.858543
Si Si4 0.339168 0.605420 0.256344
O O1 0.195613 0.899261 0.261089
O O2 0.299036 0.725341 0.949766
O O3 0.000000 0.867239 0.250000
O O4 0.319948 0.990902 0.854065
O O5 0.632169 0.243810 0.756310
O O6 0.000000 0.142162 0.250000
O O7 0.831853 0.395893 0.664482
O O8 0.000000 0.402347 0.750000
O O9 0.723323 0.542407 0.012772
O O10 0.500000 0.500000 0.000000
#
# Coordination Sequence:
#
# PCOD9228508 Si02
#       4
#     4   4   4   4
#     4   9  18  32  55  88 118 147 194 249 289 345
#     4  10  19  34  58  88 118 155 197 242 295 355
#     4  10  21  38  60  86 116 157 203 247 293 354
#     4  11  23  38  57  86 123 161 199 246 298 352
#
# _framework density 25.754284999999999
#
# number of rings (size 3 to 8) (size 9 to 14) (size 15 to 20)
#    0.000    2.000    0.000    5.250    0.000    6.000 
#    0.000    1.250    0.000    3.000    0.000    0.000 
#    0.000    0.000    0.000    0.000    0.000    0.000 
#
# Total GULP energy -89262.140020 kJ/mol
# GULP energy per Si atom -5578.883751 kJ/mol
# Density = 2.569567 g / cm^3
# Si number density = 25.754285 Si / 1000 Ang^3
#
#
#
# Elastic Constant Matrix: (Units=GPa)
#
#
# Indices 1 2 3 4 5 6 
#
# 1 160.5617 49.7571 29.2246 0.0000 15.6609 0.0000
# 2 49.7571 235.4602 29.4773 0.0000 28.6604 0.0000
# 3 29.2246 29.4773 52.2307 0.0000 -0.0109 0.0000
# 4 0.0000 0.0000 0.0000 45.3185 0.0000 0.6674
# 5 15.6609 28.6604 -0.0109 0.0000 50.9983 0.0000
# 6 0.0000 0.0000 0.0000 0.6674 0.0000 40.5897
#
#
#
# Elastic Compliance Matrix: (Units=1/GPa)
#
#
# Indices 1 2 3 4 5 6 
#
# 1 0.007329 -0.000884 -0.003602 0.000000 -0.001754 0.000000
# 2 -0.000884 0.005040 -0.002350 0.000000 -0.002561 0.000000
# 3 -0.003602 -0.002350 0.022488 0.000000 0.002432 0.000000
# 4 0.000000 0.000000 0.000000 0.022071 0.000000 -0.000363
# 5 -0.001754 -0.002561 0.002432 0.000000 0.021587 0.000000
# 6 0.000000 0.000000 0.000000 -0.000363 0.000000 0.024643
#
#
# Mechanical properties :
#
#
# Convention : Reuss Voigt Hill
#
# Bulk Modulus (GPa) = 47.20533 73.90786 60.55659
# Shear Modulus (GPa) = 40.35761 50.03420 45.19590
#
# Velocity S-wave (km/s) = 3.96286 4.41245 4.19368
# Velocity P-wave (km/s) = 6.26960 7.39724 6.85664
#
# Compressibility (1/GPa) = 0.02118405
#
# Stress axis : x y z
#
# Youngs Moduli (GPa) = 136.44586 198.41950 44.46791
#
# Poissons Ratio (x) = 0.17545 0.16018
# Poissons Ratio (y) = 0.12065 0.10450
# Poissons Ratio (z) = 0.49149 0.46630
#
# Static dielectric constant tensor:
#      x y z
#    x 2.026470 0.000000 -0.125220 
#    y 0.000000 2.052820 0.000000 
#    z -0.125220 0.000000 2.180770 
# 
# From -- ./inp_files/11563.got.cif
#   From: 2010.05.17/outbox.cif.g08.bks.cpg/sg13_6_cif.got.tgz:11563.got - 2010.06.03 16:44:36.
