data_PCOD9228880
_publ_section_title
;
Structure prediction by ZEFSAII (Michael W. Deem and Ramdas Pophale) SiO2 
 PCOD9228880
Probable space group: P 2/C
;
_chemical_formula_sum "Si O2"
_cell_formula_units_Z 16
_cell_length_a 7.130388
_cell_length_b 5.019386
_cell_length_c 19.705905
_cell_angle_alpha 90.000000
_cell_angle_beta 119.940792
_cell_angle_gamma 90.000000
_cell_volume 611.152473
_symmetry_space_group_name_H-M "P 2/C"
_symmetry_group_IT_number 13
_symmetry_cell_setting 'monoclinic'
loop_
_space_group_symop_operation_xyz
x,y,z
-x,y,1/2-z
-x,-y,-z
x,-y,1/2+z
loop_
_atom_site_type_symbol
_atom_site_label
_atom_site_fract_x
_atom_site_fract_y
_atom_site_fract_z
Si Si1 0.248547 0.424188 0.312161
Si Si2 0.289519 0.942292 0.691889
Si Si3 0.158661 0.247027 0.026202
Si Si4 0.789135 0.095835 0.610202
O O1 0.307207 0.279204 0.253448
O O2 0.323890 0.702766 0.357276
O O3 0.000000 0.484097 0.250000
O O4 0.259522 0.202638 0.374102
O O5 0.500000 0.117320 0.750000
O O6 0.291115 0.795345 0.619099
O O7 0.056526 0.090740 0.657370
O O8 0.276436 0.203251 0.975810
O O9 0.000000 0.500000 0.000000
O O10 0.000000 0.000000 0.000000
#
# Coordination Sequence:
#
# PCOD9228880 Si02
#       4
#     4   4   4   4
#     4  10  19  36  59  83 113 157 197 232 289 366
#     4  10  22  39  63  96 123 150 202 266 302 335
#     4  10  20  37  59  84 117 160 199 236 295 369
#     4  10  20  38  60  81 113 161 199 228 289 372
#
# _framework density 26.180045
#
# number of rings (size 3 to 8) (size 9 to 14) (size 15 to 20)
#    0.000    2.000    0.000    6.750    0.000    2.000 
#    0.000   33.750    0.000    0.000    0.000    8.750 
#    0.000    0.000    0.000    0.000    0.000    0.000 
#
# Total GULP energy -89333.060508 kJ/mol
# GULP energy per Si atom -5583.316282 kJ/mol
# Density = 2.612046 g / cm^3
# Si number density = 26.180045 Si / 1000 Ang^3
#
#
#
# Elastic Constant Matrix: (Units=GPa)
#
#
# Indices 1 2 3 4 5 6 
#
# 1 59.3830 -5.6059 60.7184 0.0000 -29.6820 0.0000
# 2 -5.6059 146.0853 36.9254 0.0000 -22.1471 0.0000
# 3 60.7184 36.9254 215.2770 0.0000 -23.8147 0.0000
# 4 0.0000 0.0000 0.0000 24.1199 0.0000 -15.5088
# 5 -29.6820 -22.1471 -23.8147 0.0000 57.3842 0.0000
# 6 0.0000 0.0000 0.0000 -15.5088 0.0000 15.5198
#
#
#
# Elastic Compliance Matrix: (Units=1/GPa)
#
#
# Indices 1 2 3 4 5 6 
#
# 1 0.035133 0.006196 -0.009116 0.000000 0.016781 0.000000
# 2 0.006196 0.008567 -0.002617 0.000000 0.005425 0.000000
# 3 -0.009116 -0.002617 0.007370 0.000000 -0.002666 0.000000
# 4 0.000000 0.000000 0.000000 0.115981 0.000000 0.115898
# 5 0.016781 0.005425 -0.002666 0.000000 0.027094 0.000000
# 6 0.000000 0.000000 0.000000 0.115898 0.000000 0.180250
#
#
# Mechanical properties :
#
#
# Convention : Reuss Voigt Hill
#
# Bulk Modulus (GPa) = 25.00119 67.20234 46.10176
# Shear Modulus (GPa) = 12.53760 41.31860 26.92810
#
# Velocity S-wave (km/s) = 2.19075 3.97703 3.21062
# Velocity P-wave (km/s) = 3.99620 6.84208 5.60284
#
# Compressibility (1/GPa) = 0.03999810
#
# Stress axis : x y z
#
# Youngs Moduli (GPa) = 28.46294 116.72555 135.68235
#
# Poissons Ratio (x) = -0.72328 1.23685
# Poissons Ratio (y) = -0.17637 0.35508
# Poissons Ratio (z) = 0.25946 0.30547
#
# Static dielectric constant tensor:
#      x y z
#    x 2.271140 0.000000 0.036750 
#    y 0.000000 1.959050 0.000000 
#    z 0.036750 0.000000 2.167600 
# 
# From -- ./inp_files/74108.got.cif
#   From: 2010.05.17/outbox.cif.g08.bks.cpg/sg13_38_cif.got.tgz:74108.got - 2010.06.03 16:44:36.
