data_PCOD9228331
_publ_section_title
;
Structure prediction by ZEFSAII (Michael W. Deem and Ramdas Pophale) SiO2 
 PCOD9228331
Probable space group: P 2/C
;
_chemical_formula_sum "Si O2"
_cell_formula_units_Z 30
_cell_length_a 20.098485
_cell_length_b 15.171712
_cell_length_c 9.522068
_cell_angle_alpha 90.000000
_cell_angle_beta 145.018848
_cell_angle_gamma 90.000000
_cell_volume 1664.624904
_symmetry_space_group_name_H-M "P 2/C"
_symmetry_group_IT_number 13
_symmetry_cell_setting 'monoclinic'
loop_
_space_group_symop_operation_xyz
x,y,z
-x,y,1/2-z
-x,-y,-z
x,-y,1/2+z
loop_
_atom_site_type_symbol
_atom_site_label
_atom_site_fract_x
_atom_site_fract_y
_atom_site_fract_z
Si Si1 0.944865 0.280437 0.306852
Si Si2 0.516222 0.907698 0.112130
Si Si3 0.137470 0.063990 0.735036
Si Si4 0.086148 0.530435 0.770261
Si Si5 0.229408 0.130639 0.389609
Si Si6 0.718548 0.183293 0.335268
Si Si7 0.000000 0.001356 0.750000
Si Si8 0.887110 0.660724 0.157836
O O1 0.868392 0.371490 0.178972
O O2 0.864597 0.200694 0.219443
O O3 0.000000 0.263991 0.250000
O O4 0.053594 0.302192 0.597307
O O5 0.500000 0.928383 0.250000
O O6 0.643226 0.863861 0.321023
O O7 0.417897 0.837039 0.899245
O O8 0.500000 0.000000 0.000000
O O9 0.086757 0.060736 0.490476
O O10 0.192058 0.968586 0.855322
O O11 0.043324 0.064701 0.698616
O O12 0.228490 0.137285 0.934924
O O13 0.156772 0.440780 0.915295
O O14 0.000000 0.543788 0.750000
O O15 0.000000 0.500000 0.500000
O O16 0.240469 0.138021 0.239840
O O17 0.778942 0.278208 0.431636
O O18 0.000000 0.663953 0.250000
#
# Coordination Sequence:
#
# PCOD9228331 Si02
#       8
#     4   4   4   4   4   4   2   4
#     4  10  21  35  54  84 117 138 177 221 278 333
#     4  10  22  42  58  75 103 144 198 233 267 317
#     4  11  22  34  49  73 110 144 177 216 268 325
#     4   8  16  32  52  79 109 145 171 212 267 336
#     4  11  22  37  56  79 105 147 188 228 271 317
#     4  11  22  37  57  79 104 147 190 228 266 327
#     4  10  24  32  46  72 110 142 162 216 274 330
#     4  10  19  33  58  81 113 144 177 217 278 334
#
# _framework density 18.022078
#
# number of rings (size 3 to 8) (size 9 to 14) (size 15 to 20)
#    0.000    1.867    4.000    0.000    5.600    0.000 
#    2.400    0.000    0.000    0.800    0.000    0.000 
#    0.000    0.000    0.000    0.000    0.000    0.000 
#
# Total GULP energy -167054.647531 kJ/mol
# GULP energy per Si atom -5568.488251 kJ/mol
# Density = 1.798106 g / cm^3
# Si number density = 18.022078 Si / 1000 Ang^3
#
#
#
# Elastic Constant Matrix: (Units=GPa)
#
#
# Indices 1 2 3 4 5 6 
#
# 1 44.2190 9.2440 23.4214 0.0000 -4.2004 0.0000
# 2 9.2440 119.3481 23.1875 0.0000 19.5589 0.0000
# 3 23.4214 23.1875 87.7130 0.0000 -0.3795 0.0000
# 4 0.0000 0.0000 0.0000 7.1988 0.0000 -10.3531
# 5 -4.2004 19.5589 -0.3795 0.0000 31.5792 0.0000
# 6 0.0000 0.0000 0.0000 -10.3531 0.0000 7.9813
#
#
#
# Elastic Compliance Matrix: (Units=1/GPa)
#
#
# Indices 1 2 3 4 5 6 
#
# 1 0.026938 -0.001495 -0.006779 0.000000 0.004428 0.000000
# 2 -0.001495 0.009986 -0.002268 0.000000 -0.006411 0.000000
# 3 -0.006779 -0.002268 0.013813 0.000000 0.000669 0.000000
# 4 0.000000 0.000000 0.000000 -0.160488 0.000000 -0.208180
# 5 0.004428 -0.006411 0.000669 0.000000 0.036234 0.000000
# 6 0.000000 0.000000 0.000000 -0.208180 0.000000 -0.144753
#
#
# Mechanical properties :
#
#
# Convention : Reuss Voigt Hill
#
# Bulk Modulus (GPa) = 33.72300 40.33177 37.02739
# Shear Modulus (GPa) = -26.69517 22.38036 -2.15741
#
# Velocity S-wave (km/s) = -3.85287 3.52778 -1.09530
# Velocity P-wave (km/s) = 1.01989 6.24671 4.35782
#
# Compressibility (1/GPa) = 0.02965335
#
# Stress axis : x y z
#
# Youngs Moduli (GPa) = 37.12179 100.14005 72.39315
#
# Poissons Ratio (x) = 0.14972 0.49074
# Poissons Ratio (y) = 0.05550 0.16421
# Poissons Ratio (z) = 0.25164 0.22716
#
# Static dielectric constant tensor:
#      x y z
#    x 1.686750 0.000000 0.001190 
#    y 0.000000 1.689270 0.000000 
#    z 0.001190 0.000000 1.658090 
# 
# From -- ./inp_files/23502.got.cif
#   From: 2010.05.17/outbox.cif.g08.bks.cpg/sg13_12_cif.got.tgz:23502.got - 2010.06.03 16:44:36.
