data_PCOD9228882
_publ_section_title
;
Structure prediction by ZEFSAII (Michael W. Deem and Ramdas Pophale) SiO2 
 PCOD9228882
Probable space group: P 2/C
;
_chemical_formula_sum "Si O2"
_cell_formula_units_Z 24
_cell_length_a 7.806647
_cell_length_b 30.688242
_cell_length_c 9.081895
_cell_angle_alpha 90.000000
_cell_angle_beta 145.669485
_cell_angle_gamma 90.000000
_cell_volume 1227.060295
_symmetry_space_group_name_H-M "P 2/C"
_symmetry_group_IT_number 13
_symmetry_cell_setting 'monoclinic'
loop_
_space_group_symop_operation_xyz
x,y,z
-x,y,1/2-z
-x,-y,-z
x,-y,1/2+z
loop_
_atom_site_type_symbol
_atom_site_label
_atom_site_fract_x
_atom_site_fract_y
_atom_site_fract_z
Si Si1 0.331083 0.386454 0.475412
Si Si2 0.702032 0.528900 0.749626
Si Si3 0.361913 0.217600 0.988627
Si Si4 0.636565 0.040870 0.008659
Si Si5 0.359956 0.312264 0.987474
Si Si6 0.363999 0.878011 0.489566
O O1 0.254064 0.427313 0.313811
O O2 0.544942 0.352323 0.545495
O O3 0.000000 0.364382 0.250000
O O4 0.500000 0.398651 0.750000
O O5 0.500000 0.538590 0.750000
O O6 0.500000 0.500000 0.500000
O O7 0.000000 0.500000 0.000000
O O8 0.432766 0.170266 0.972091
O O9 0.000000 0.218103 0.750000
O O10 0.500000 0.217396 0.250000
O O11 0.452221 0.264631 0.987914
O O12 0.000000 0.039035 0.250000
O O13 0.500000 0.039842 0.750000
O O14 0.519616 0.084357 0.006233
O O15 0.500000 0.000000 0.000000
O O16 0.500000 0.316799 0.250000
O O17 0.000000 0.312670 0.750000
O O18 0.000000 0.883745 0.250000
O O19 0.500000 0.879500 0.750000
#
# Coordination Sequence:
#
# PCOD9228882 Si02
#       6
#     4   4   4   4   4   4
#     4  12  25  41  60  89 123 155 190 236 288 339
#     4  12  25  43  65  88 115 149 188 232 281 336
#     4   8  16  31  56  84 113 148 192 235 282 343
#     4  12  24  39  57  82 113 151 196 247 299 355
#     4  10  20  38  62  89 117 156 201 239 279 340
#     4  10  19  36  59  84 113 151 192 239 293 351
#
# _framework density 19.558941999999998
#
# number of rings (size 3 to 8) (size 9 to 14) (size 15 to 20)
#    0.000    1.333    0.000    7.000    0.000    1.333 
#    0.000    1.667    0.000    0.000    0.000    0.000 
#    0.000    0.000    0.000    0.000    0.000    0.000 
#
# Total GULP energy -133909.216334 kJ/mol
# GULP energy per Si atom -5579.550681 kJ/mol
# Density = 1.951443 g / cm^3
# Si number density = 19.558942 Si / 1000 Ang^3
#
#
#
# Elastic Constant Matrix: (Units=GPa)
#
#
# Indices 1 2 3 4 5 6 
#
# 1 93.3705 63.1273 50.0758 0.0000 1.4812 0.0000
# 2 63.1273 176.4384 40.1008 0.0000 -2.1464 0.0000
# 3 50.0758 40.1008 177.0003 0.0000 9.8221 0.0000
# 4 0.0000 0.0000 0.0000 26.1382 0.0000 4.0348
# 5 1.4812 -2.1464 9.8221 0.0000 36.5177 0.0000
# 6 0.0000 0.0000 0.0000 4.0348 0.0000 26.9605
#
#
#
# Elastic Compliance Matrix: (Units=1/GPa)
#
#
# Indices 1 2 3 4 5 6 
#
# 1 0.015828 -0.004898 -0.003367 0.000000 -0.000024 0.000000
# 2 -0.004898 0.007510 -0.000357 0.000000 0.000736 0.000000
# 3 -0.003367 -0.000357 0.006778 0.000000 -0.001707 0.000000
# 4 0.000000 0.000000 0.000000 0.039163 0.000000 -0.005861
# 5 -0.000024 0.000736 -0.001707 0.000000 0.027887 0.000000
# 6 0.000000 0.000000 0.000000 -0.005861 0.000000 0.037968
#
#
# Mechanical properties :
#
#
# Convention : Reuss Voigt Hill
#
# Bulk Modulus (GPa) = 77.68405 83.71300 80.69853
# Shear Modulus (GPa) = 31.91463 37.49031 34.70247
#
# Velocity S-wave (km/s) = 4.04383 4.38286 4.21676
# Velocity P-wave (km/s) = 7.84905 8.27683 8.06578
#
# Compressibility (1/GPa) = 0.01287265
#
# Stress axis : x y z
#
# Youngs Moduli (GPa) = 63.18091 133.15338 147.54123
#
# Poissons Ratio (x) = 0.65218 0.49674
# Poissons Ratio (y) = 0.30946 0.05262
# Poissons Ratio (z) = 0.21272 0.04748
#
# Static dielectric constant tensor:
#      x y z
#    x 1.737210 0.000000 0.012870 
#    y 0.000000 1.737390 0.000000 
#    z 0.012870 0.000000 1.671290 
# 
# From -- ./inp_files/13976.got.cif
#   From: 2010.05.17/outbox.cif.g08.bks.cpg/sg13_7_cif.got.tgz:13976.got - 2010.06.03 16:44:36.
