data_PCOD9228585
_publ_section_title
;
Structure prediction by ZEFSAII (Michael W. Deem and Ramdas Pophale) SiO2 
 PCOD9228585
Probable space group: P 2/C
;
_chemical_formula_sum "Si O2"
_cell_formula_units_Z 32
_cell_length_a 19.374639
_cell_length_b 19.020184
_cell_length_c 21.711300
_cell_angle_alpha 90.000000
_cell_angle_beta 167.212815
_cell_angle_gamma 90.000000
_cell_volume 1770.823202
_symmetry_space_group_name_H-M "P 2/C"
_symmetry_group_IT_number 13
_symmetry_cell_setting 'monoclinic'
loop_
_space_group_symop_operation_xyz
x,y,z
-x,y,1/2-z
-x,-y,-z
x,-y,1/2+z
loop_
_atom_site_type_symbol
_atom_site_label
_atom_site_fract_x
_atom_site_fract_y
_atom_site_fract_z
Si Si1 0.867528 0.370731 0.565306
Si Si2 0.816126 0.043860 0.288151
Si Si3 0.191358 0.108684 0.854910
Si Si4 0.696149 0.022017 0.359281
Si Si5 0.020323 0.491419 0.122546
Si Si6 0.636967 0.421275 0.688646
Si Si7 0.198965 0.286758 0.741088
Si Si8 0.684499 0.197598 0.226677
O O1 0.000000 0.363903 0.750000
O O2 0.915315 0.450198 0.580485
O O3 0.040378 0.322771 0.663720
O O4 0.500000 0.354565 0.250000
O O5 0.070780 0.040224 0.455201
O O6 0.242715 0.876136 0.743729
O O7 0.000000 0.000000 0.500000
O O8 0.500000 0.000000 0.000000
O O9 0.000000 0.119389 0.750000
O O10 0.941392 0.085445 0.586295
O O11 0.443775 0.047137 0.089359
O O12 0.390554 0.176450 0.013199
O O13 0.500000 0.008761 0.250000
O O14 0.271822 0.436702 0.366706
O O15 0.196519 0.533102 0.220559
O O16 0.750294 0.449642 0.852798
O O17 0.743826 0.343917 0.762536
O O18 0.968456 0.227893 0.512998
O O19 0.533638 0.255185 0.050782
#
# Coordination Sequence:
#
# PCOD9228585 Si02
#       8
#     4   4   4   4   4   4   4   4
#     4  11  22  37  55  82 119 154 189 220 261 326
#     4  12  21  36  58  81 107 140 187 255 305 329
#     4  10  20  33  51  73 105 141 181 224 272 341
#     4  10  19  35  54  78 102 132 174 233 301 345
#     4   9  17  31  56  78  99 137 181 230 266 297
#     4   9  17  33  52  76 103 134 183 230 270 300
#     4  11  24  36  52  78 115 156 188 223 270 349
#     4  12  22  35  53  78 112 150 198 228 286 351
#
# _framework density 18.070692000000001
#
# number of rings (size 3 to 8) (size 9 to 14) (size 15 to 20)
#    0.000    1.500    2.500    3.750    0.000    5.500 
#    0.000    0.000    0.000    0.000    0.000    8.750 
#    0.000    0.000    0.000    0.000    0.000    0.000 
#
# Total GULP energy -178433.948350 kJ/mol
# GULP energy per Si atom -5576.060886 kJ/mol
# Density = 1.802956 g / cm^3
# Si number density = 18.070692 Si / 1000 Ang^3
#
#
#
# Elastic Constant Matrix: (Units=GPa)
#
#
# Indices 1 2 3 4 5 6 
#
# 1 48.5100 33.8107 32.2646 0.0000 -13.3306 0.0000
# 2 33.8107 80.3599 22.6774 0.0000 -1.3230 0.0000
# 3 32.2646 22.6774 98.3785 0.0000 -18.5245 0.0000
# 4 0.0000 0.0000 0.0000 32.4465 0.0000 3.1092
# 5 -13.3306 -1.3230 -18.5245 0.0000 29.8274 0.0000
# 6 0.0000 0.0000 0.0000 3.1092 0.0000 24.8783
#
#
#
# Elastic Compliance Matrix: (Units=1/GPa)
#
#
# Indices 1 2 3 4 5 6 
#
# 1 0.038387 -0.013951 -0.007089 0.000000 0.012135 0.000000
# 2 -0.013951 0.018439 -0.000787 0.000000 -0.005906 0.000000
# 3 -0.007089 -0.000787 0.013666 0.000000 0.005284 0.000000
# 4 0.000000 0.000000 0.000000 0.031194 0.000000 -0.003899
# 5 0.012135 -0.005906 0.005284 0.000000 0.041970 0.000000
# 6 0.000000 0.000000 0.000000 -0.003899 0.000000 0.040683
#
#
# Mechanical properties :
#
#
# Convention : Reuss Voigt Hill
#
# Bulk Modulus (GPa) = 37.25969 44.97264 41.11616
# Shear Modulus (GPa) = 21.10257 26.66348 23.88302
#
# Velocity S-wave (km/s) = 3.42098 3.84540 3.63939
# Velocity P-wave (km/s) = 6.02227 6.68261 6.36102
#
# Compressibility (1/GPa) = 0.02683866
#
# Stress axis : x y z
#
# Youngs Moduli (GPa) = 26.05020 54.23409 73.17342
#
# Poissons Ratio (x) = 0.75661 0.51872
# Poissons Ratio (y) = 0.36342 0.05759
# Poissons Ratio (z) = 0.18467 0.04268
#
# Static dielectric constant tensor:
#      x y z
#    x 1.692070 0.000000 -0.005840 
#    y 0.000000 1.636750 0.000000 
#    z -0.005840 0.000000 1.632770 
# 
# From -- ./inp_files/93903.got.cif
#   From: 2010.05.17/outbox.cif.g08.bks.cpg/sg13_47_cif.got.tgz:93903.got - 2010.06.03 16:44:36.
