data_PCOD9228280
_publ_section_title
;
Structure prediction by ZEFSAII (Michael W. Deem and Ramdas Pophale) SiO2 
 PCOD9228280
Probable space group: P 2/C
;
_chemical_formula_sum "Si O2"
_cell_formula_units_Z 26
_cell_length_a 10.192234
_cell_length_b 9.307980
_cell_length_c 25.676871
_cell_angle_alpha 90.000000
_cell_angle_beta 29.243347
_cell_angle_gamma 90.000000
_cell_volume 1190.006161
_symmetry_space_group_name_H-M "P 2/C"
_symmetry_group_IT_number 13
_symmetry_cell_setting 'monoclinic'
loop_
_space_group_symop_operation_xyz
x,y,z
-x,y,1/2-z
-x,-y,-z
x,-y,1/2+z
loop_
_atom_site_type_symbol
_atom_site_label
_atom_site_fract_x
_atom_site_fract_y
_atom_site_fract_z
Si Si1 0.795816 0.168447 0.532881
Si Si2 0.709282 0.739839 0.488929
Si Si3 0.945848 0.445060 0.434206
Si Si4 0.802411 0.019995 0.416895
Si Si5 0.500000 0.683467 0.750000
Si Si6 0.608599 0.108883 0.127977
Si Si7 0.135038 0.308659 0.149890
O O1 0.760330 0.336638 0.532642
O O2 0.084973 0.145756 0.460082
O O3 0.810127 0.096127 0.470638
O O4 0.590419 0.064103 0.634662
O O5 0.890832 0.854979 0.394691
O O6 0.576212 0.831539 0.581481
O O7 0.459031 0.682333 0.542417
O O8 0.862137 0.609127 0.462632
O O9 0.245638 0.414168 0.350119
O O10 0.941106 0.395297 0.375405
O O11 0.500000 0.000000 0.500000
O O12 0.933545 0.139053 0.334513
O O13 0.566853 0.795373 0.772917
O O14 0.000000 0.360799 0.250000
#
# Coordination Sequence:
#
# PCOD9228280 Si02
#       7
#     4   4   4   4   2   4   4
#     4   8  16  30  51  74  98 135 182 217 257 324
#     4  10  19  33  56  79 107 143 177 217 272 336
#     4  10  20  34  54  79 109 143 180 220 272 334
#     4   8  16  31  52  77 101 135 178 218 264 325
#     4  10  20  32  52  78 108 142 182 230 278 322
#     4   9  17  32  52  73 100 138 182 224 266 318
#     4  10  19  34  56  79 105 138 180 226 271 318
#
# _framework density 21.848628000000001
#
# number of rings (size 3 to 8) (size 9 to 14) (size 15 to 20)
#    0.000    2.769    0.000    1.385    0.000    2.462 
#    0.000    0.769    0.000   74.769    0.000    0.000 
#    0.000    0.000    0.000    0.000    0.000    0.000 
#
# Total GULP energy -144854.970694 kJ/mol
# GULP energy per Si atom -5571.345027 kJ/mol
# Density = 2.179890 g / cm^3
# Si number density = 21.848628 Si / 1000 Ang^3
#
#
#
# Elastic Constant Matrix: (Units=GPa)
#
#
# Indices 1 2 3 4 5 6 
#
# 1 76.0848 -8.3362 -3.1730 0.0000 -2.5430 0.0000
# 2 -8.3362 129.9400 15.9913 0.0000 -12.4477 0.0000
# 3 -3.1730 15.9913 24.8626 0.0000 -4.7697 0.0000
# 4 0.0000 0.0000 0.0000 7.7089 0.0000 1.7155
# 5 -2.5430 -12.4477 -4.7697 0.0000 25.4151 0.0000
# 6 0.0000 0.0000 0.0000 1.7155 0.0000 38.1453
#
#
#
# Elastic Compliance Matrix: (Units=1/GPa)
#
#
# Indices 1 2 3 4 5 6 
#
# 1 0.013371 0.000864 0.001544 0.000000 0.002051 0.000000
# 2 0.000864 0.008672 -0.004809 0.000000 0.003431 0.000000
# 3 0.001544 -0.004809 0.044698 0.000000 0.006188 0.000000
# 4 0.000000 0.000000 0.000000 0.131032 0.000000 -0.005893
# 5 0.002051 0.003431 0.006188 0.000000 0.042394 0.000000
# 6 0.000000 0.000000 0.000000 -0.005893 0.000000 0.026481
#
#
# Mechanical properties :
#
#
# Convention : Reuss Voigt Hill
#
# Bulk Modulus (GPa) = 16.14485 26.65020 21.39753
# Shear Modulus (GPa) = 17.11767 29.34753 23.23260
#
# Velocity S-wave (km/s) = 2.80208 3.66897 3.26443
# Velocity P-wave (km/s) = 4.22781 5.49296 4.90138
#
# Compressibility (1/GPa) = 0.06193926
#
# Stress axis : x y z
#
# Youngs Moduli (GPa) = 74.78950 115.31583 22.37224
#
# Poissons Ratio (x) = -0.09966 -0.03454
# Poissons Ratio (y) = -0.06464 0.10759
# Poissons Ratio (z) = -0.11547 0.55456
#
# Static dielectric constant tensor:
#      x y z
#    x 1.837780 0.000000 0.000910 
#    y 0.000000 1.854670 0.000000 
#    z 0.000910 0.000000 1.876330 
# 
# From -- ./inp_files/49688.got.cif
#   From: 2010.05.17/outbox.cif.g08.bks.cpg/sg13_25_cif.got.tgz:49688.got - 2010.06.03 16:44:36.
