data_PCOD9228918
_publ_section_title
;
Structure prediction by ZEFSAII (Michael W. Deem and Ramdas Pophale) SiO2 
 PCOD9228918
Probable space group: P 2/C
;
_chemical_formula_sum "Si O2"
_cell_formula_units_Z 14
_cell_length_a 5.629617
_cell_length_b 14.733403
_cell_length_c 8.245486
_cell_angle_alpha 90.000000
_cell_angle_beta 120.572895
_cell_angle_gamma 90.000000
_cell_volume 588.833654
_symmetry_space_group_name_H-M "P 2/C"
_symmetry_group_IT_number 13
_symmetry_cell_setting 'monoclinic'
loop_
_space_group_symop_operation_xyz
x,y,z
-x,y,1/2-z
-x,-y,-z
x,-y,1/2+z
loop_
_atom_site_type_symbol
_atom_site_label
_atom_site_fract_x
_atom_site_fract_y
_atom_site_fract_z
Si Si1 0.564231 0.106115 0.527909
Si Si2 0.000000 0.521112 0.750000
Si Si3 0.934124 0.826192 0.464397
Si Si4 0.213546 0.367760 0.587352
O O1 0.270073 0.155678 0.454883
O O2 0.752798 0.135362 0.749300
O O3 0.767296 0.128170 0.448312
O O4 0.500000 0.000000 0.500000
O O5 0.140787 0.452755 0.674561
O O6 0.785104 0.588113 0.588997
O O7 0.985011 0.718095 0.468789
O O8 0.500000 0.330113 0.750000
#
# Coordination Sequence:
#
# PCOD9228918 Si02
#       4
#     4   2   4   4
#     4  10  19  36  60  88 118 164 219 263 330 390
#     4  10  24  38  66 102 124 180 222 274 332 414
#     4  10  21  37  63  88 124 173 208 274 331 390
#     4  11  21  42  66  93 138 169 226 271 343 394
#
# _framework density 23.775812999999999
#
# number of rings (size 3 to 8) (size 9 to 14) (size 15 to 20)
#    0.000    1.714    2.857    3.429    0.000    0.000 
#    0.000    8.571    0.000    0.000    0.000    0.000 
#    0.000    0.000    0.000    0.000    0.000    0.000 
#
# Total GULP energy -78172.836694 kJ/mol
# GULP energy per Si atom -5583.774050 kJ/mol
# Density = 2.372170 g / cm^3
# Si number density = 23.775813 Si / 1000 Ang^3
#
#
#
# Elastic Constant Matrix: (Units=GPa)
#
#
# Indices 1 2 3 4 5 6 
#
# 1 162.4211 28.2692 32.1376 0.0000 19.1979 0.0000
# 2 28.2692 174.4264 45.6406 0.0000 3.9149 0.0000
# 3 32.1376 45.6406 51.2428 0.0000 4.8459 0.0000
# 4 0.0000 0.0000 0.0000 10.4613 0.0000 5.7274
# 5 19.1979 3.9149 4.8459 0.0000 29.1383 0.0000
# 6 0.0000 0.0000 0.0000 5.7274 0.0000 43.0393
#
#
#
# Elastic Compliance Matrix: (Units=1/GPa)
#
#
# Indices 1 2 3 4 5 6 
#
# 1 0.007510 0.000007 -0.004316 0.000000 -0.004231 0.000000
# 2 0.000007 0.007476 -0.006672 0.000000 0.000100 0.000000
# 3 -0.004316 -0.006672 0.028255 0.000000 -0.000959 0.000000
# 4 0.000000 0.000000 0.000000 0.103102 0.000000 -0.013720
# 5 -0.004231 0.000100 -0.000959 0.000000 0.037253 0.000000
# 6 0.000000 0.000000 0.000000 -0.013720 0.000000 0.025060
#
#
# Mechanical properties :
#
#
# Convention : Reuss Voigt Hill
#
# Bulk Modulus (GPa) = 46.99648 66.68723 56.84186
# Shear Modulus (GPa) = 21.03398 35.33064 28.18231
#
# Velocity S-wave (km/s) = 2.97758 3.85904 3.44660
# Velocity P-wave (km/s) = 5.62412 6.92571 6.30857
#
# Compressibility (1/GPa) = 0.02127819
#
# Stress axis : x y z
#
# Youngs Moduli (GPa) = 133.16141 133.76978 35.39151
#
# Poissons Ratio (x) = -0.00097 0.15275
# Poissons Ratio (y) = -0.00096 0.23614
# Poissons Ratio (z) = 0.57474 0.89255
#
# Static dielectric constant tensor:
#      x y z
#    x 1.982100 0.000000 -0.064740 
#    y 0.000000 1.816750 0.000000 
#    z -0.064740 0.000000 1.996680 
# 
# From -- ./inp_files/8733.got.cif
#   From: 2010.05.17/outbox.cif.g08.bks.cpg/sg13_5_cif.got.tgz:8733.got - 2010.06.03 16:44:36.
