data_PCOD9228929
_publ_section_title
;
Structure prediction by ZEFSAII (Michael W. Deem and Ramdas Pophale) SiO2 
 PCOD9228929
Probable space group: P 2/C
;
_chemical_formula_sum "Si O2"
_cell_formula_units_Z 32
_cell_length_a 17.217088
_cell_length_b 6.163062
_cell_length_c 29.606211
_cell_angle_alpha 90.000000
_cell_angle_beta 152.404600
_cell_angle_gamma 90.000000
_cell_volume 1455.227683
_symmetry_space_group_name_H-M "P 2/C"
_symmetry_group_IT_number 13
_symmetry_cell_setting 'monoclinic'
loop_
_space_group_symop_operation_xyz
x,y,z
-x,y,1/2-z
-x,-y,-z
x,-y,1/2+z
loop_
_atom_site_type_symbol
_atom_site_label
_atom_site_fract_x
_atom_site_fract_y
_atom_site_fract_z
Si Si1 0.998227 0.052774 0.640519
Si Si2 0.269494 0.077060 0.845337
Si Si3 0.809440 0.925696 0.913995
Si Si4 0.923224 0.435311 0.539212
Si Si5 0.785393 0.263445 0.312455
Si Si6 0.566120 0.400113 0.643294
Si Si7 0.698427 0.172752 0.942639
Si Si8 0.458902 0.690034 0.514508
O O1 0.118126 0.897288 0.671914
O O2 0.808791 0.974590 0.533479
O O3 0.079055 0.038590 0.731532
O O4 0.002865 0.287265 0.619417
O O5 0.332654 0.259900 0.841833
O O6 0.386426 0.861663 0.901232
O O7 0.307439 0.173957 0.914378
O O8 0.717477 0.871553 0.819884
O O9 0.834544 0.713802 0.957184
O O10 0.719957 0.088064 0.902699
O O11 0.000000 0.000000 0.000000
O O12 0.069483 0.579777 0.593230
O O13 0.789562 0.596841 0.490673
O O14 0.664617 0.424400 0.223803
O O15 0.483822 0.218328 0.632519
O O16 0.437620 0.553884 0.549103
O O17 0.500000 0.500000 0.500000
#
# Coordination Sequence:
#
# PCOD9228929 Si02
#       8
#     4   4   4   4   4   4   4   4
#     4  10  19  36  62  93 110 164 219 257 300 393
#     4  10  19  37  67  92 118 160 216 258 309 394
#     4  11  20  36  62  85 117 159 222 261 303 370
#     4  10  19  36  61  84 114 161 209 263 310 366
#     4  11  20  34  63  87 112 162 217 261 302 386
#     4  11  22  39  61  92 131 163 206 266 334 375
#     4  10  24  37  59  90 129 166 201 270 328 369
#     4   9  20  35  62  95 122 155 203 263 322 383
#
# _framework density 21.989684
#
# number of rings (size 3 to 8) (size 9 to 14) (size 15 to 20)
#    0.000    1.750    6.250    0.375    0.000    2.000 
#    0.000    0.625    2.750   18.000    0.000    0.000 
#    0.000    0.000    0.000    0.000    0.000    0.000 
#
# Total GULP energy -178559.725231 kJ/mol
# GULP energy per Si atom -5579.991413 kJ/mol
# Density = 2.193963 g / cm^3
# Si number density = 21.989684 Si / 1000 Ang^3
#
#
#
# Elastic Constant Matrix: (Units=GPa)
#
#
# Indices 1 2 3 4 5 6 
#
# 1 57.0072 19.7222 21.6912 0.0000 -8.9572 0.0000
# 2 19.7222 91.6555 25.2622 0.0000 -12.0579 0.0000
# 3 21.6912 25.2622 56.4672 0.0000 -24.1358 0.0000
# 4 0.0000 0.0000 0.0000 40.9150 0.0000 -9.4342
# 5 -8.9572 -12.0579 -24.1358 0.0000 19.8908 0.0000
# 6 0.0000 0.0000 0.0000 -9.4342 0.0000 26.3190
#
#
#
# Elastic Compliance Matrix: (Units=1/GPa)
#
#
# Indices 1 2 3 4 5 6 
#
# 1 0.021096 -0.002646 -0.007365 0.000000 -0.001041 0.000000
# 2 -0.002646 0.012803 -0.003954 0.000000 0.001772 0.000000
# 3 -0.007365 -0.003954 0.041270 0.000000 0.044364 0.000000
# 4 0.000000 0.000000 0.000000 0.026643 0.000000 0.009550
# 5 -0.001041 0.001772 0.044364 0.000000 0.104712 0.000000
# 6 0.000000 0.000000 0.000000 0.009550 0.000000 0.041419
#
#
# Mechanical properties :
#
#
# Convention : Reuss Voigt Hill
#
# Bulk Modulus (GPa) = 21.16899 37.60900 29.38900
# Shear Modulus (GPa) = 17.14571 26.65526 21.90048
#
# Velocity S-wave (km/s) = 2.79537 3.48540 3.15928
# Velocity P-wave (km/s) = 4.47956 5.77386 5.16740
#
# Compressibility (1/GPa) = 0.04723891
#
# Stress axis : x y z
#
# Youngs Moduli (GPa) = 47.40252 78.10850 24.23077
#
# Poissons Ratio (x) = 0.20671 0.17845
# Poissons Ratio (y) = 0.12545 0.09580
# Poissons Ratio (z) = 0.34910 0.30882
#
# Static dielectric constant tensor:
#      x y z
#    x 1.828210 0.000000 0.015840 
#    y 0.000000 1.837020 0.000000 
#    z 0.015840 0.000000 1.880030 
# 
# From -- ./inp_files/97256.got.cif
#   From: 2010.05.17/outbox.cif.g08.bks.cpg/sg13_49_cif.got.tgz:97256.got - 2010.06.03 16:44:36.
