data_PCOD9228838
_publ_section_title
;
Structure prediction by ZEFSAII (Michael W. Deem and Ramdas Pophale) SiO2 
 PCOD9228838
Probable space group: P 2/C
;
_chemical_formula_sum "Si O2"
_cell_formula_units_Z 24
_cell_length_a 16.053826
_cell_length_b 16.700223
_cell_length_c 16.099513
_cell_angle_alpha 90.000000
_cell_angle_beta 161.912138
_cell_angle_gamma 90.000000
_cell_volume 1340.109474
_symmetry_space_group_name_H-M "P 2/C"
_symmetry_group_IT_number 13
_symmetry_cell_setting 'monoclinic'
loop_
_space_group_symop_operation_xyz
x,y,z
-x,y,1/2-z
-x,-y,-z
x,-y,1/2+z
loop_
_atom_site_type_symbol
_atom_site_label
_atom_site_fract_x
_atom_site_fract_y
_atom_site_fract_z
Si Si1 0.500000 0.025228 0.250000
Si Si2 0.970742 0.790100 0.868324
Si Si3 0.000000 0.085780 0.250000
Si Si4 0.604662 0.245080 0.597392
Si Si5 0.510318 0.579347 0.064128
Si Si6 0.058136 0.386011 0.398652
Si Si7 0.297681 0.820109 0.491881
O O1 0.757251 0.969139 0.487404
O O2 0.579724 0.089434 0.397247
O O3 0.923157 0.858068 0.754956
O O4 0.697526 0.774226 0.659977
O O5 0.075641 0.710585 0.919512
O O6 0.200571 0.802007 0.154808
O O7 0.630821 0.341345 0.633871
O O8 0.680082 0.220595 0.575883
O O9 0.686362 0.574532 0.315147
O O10 0.500000 0.500000 0.000000
O O11 0.204409 0.595607 0.797278
O O12 0.000000 0.411608 0.250000
O O13 0.000000 0.823124 0.250000
O O14 0.500000 0.779532 0.750000
#
# Coordination Sequence:
#
# PCOD9228838 Si02
#       7
#     2   4   2   4   4   4   4
#     4  10  22  36  58  78 110 154 178 240 286 328
#     4  10  21  34  58  86 115 141 188 228 275 355
#     4  12  20  38  56  86 116 144 180 228 304 326
#     4  10  21  38  59  84 107 152 193 225 277 337
#     4  10  21  36  57  84 120 145 179 239 285 319
#     4  10  19  36  57  82 112 155 183 219 278 347
#     4  10  20  40  61  74 108 153 195 231 276 333
#
# _framework density 17.908984
#
# number of rings (size 3 to 8) (size 9 to 14) (size 15 to 20)
#    0.500    1.333    1.667    3.000    0.000    0.000 
#    0.000    7.500    0.000    0.000    0.000    0.000 
#    0.000    0.000    0.000    0.000    0.000    0.000 
#
# Total GULP energy -133663.375833 kJ/mol
# GULP energy per Si atom -5569.307326 kJ/mol
# Density = 1.786822 g / cm^3
# Si number density = 17.908984 Si / 1000 Ang^3
#
#
#
# Elastic Constant Matrix: (Units=GPa)
#
#
# Indices 1 2 3 4 5 6 
#
# 1 68.1628 35.0429 -3.3479 0.0000 -6.6379 0.0000
# 2 35.0429 71.6004 5.5190 0.0000 -5.6595 0.0000
# 3 -3.3479 5.5190 79.5654 0.0000 7.0281 0.0000
# 4 0.0000 0.0000 0.0000 -9.2243 0.0000 14.5679
# 5 -6.6379 -5.6595 7.0281 0.0000 21.1711 0.0000
# 6 0.0000 0.0000 0.0000 14.5679 0.0000 1.7925
#
#
#
# Elastic Compliance Matrix: (Units=1/GPa)
#
#
# Indices 1 2 3 4 5 6 
#
# 1 0.019997 -0.009621 0.001218 0.000000 0.003294 0.000000
# 2 -0.009621 0.019042 -0.001967 0.000000 0.002727 0.000000
# 3 0.001218 -0.001967 0.013154 0.000000 -0.004511 0.000000
# 4 0.000000 0.000000 0.000000 -0.007836 0.000000 0.063683
# 5 0.003294 0.002727 -0.004511 0.000000 0.050493 0.000000
# 6 0.000000 0.000000 0.000000 0.063683 0.000000 0.040323
#
#
# Mechanical properties :
#
#
# Convention : Reuss Voigt Hill
#
# Bulk Modulus (GPa) = 31.79136 32.63961 32.21549
# Shear Modulus (GPa) = 30.04839 14.88885 22.46862
#
# Velocity S-wave (km/s) = 4.10059 2.88646 3.54588
# Velocity P-wave (km/s) = 6.34113 5.41975 5.89846
#
# Compressibility (1/GPa) = 0.03145509
#
# Stress axis : x y z
#
# Youngs Moduli (GPa) = 50.00649 52.51513 76.02043
#
# Poissons Ratio (x) = 0.50523 -0.09258
# Poissons Ratio (y) = 0.48110 0.14950
# Poissons Ratio (z) = -0.06090 0.10327
#
# Static dielectric constant tensor:
#      x y z
#    x 1.592470 0.000000 -0.012420 
#    y 0.000000 1.640990 0.000000 
#    z -0.012420 0.000000 1.629690 
# 
# From -- ./inp_files/53940.got.cif
#   From: 2010.05.17/outbox.cif.g08.bks.cpg/sg13_27_cif.got.tgz:53940.got - 2010.06.03 16:44:36.
