data_PCOD9228166
_publ_section_title
;
Structure prediction by ZEFSAII (Michael W. Deem and Ramdas Pophale) SiO2 
 PCOD9228166
Probable space group: P 2/C
;
_chemical_formula_sum "Si O2"
_cell_formula_units_Z 20
_cell_length_a 15.422741
_cell_length_b 15.058425
_cell_length_c 8.651459
_cell_angle_alpha 90.000000
_cell_angle_beta 29.920637
_cell_angle_gamma 90.000000
_cell_volume 1002.205704
_symmetry_space_group_name_H-M "P 2/C"
_symmetry_group_IT_number 13
_symmetry_cell_setting 'monoclinic'
loop_
_space_group_symop_operation_xyz
x,y,z
-x,y,1/2-z
-x,-y,-z
x,-y,1/2+z
loop_
_atom_site_type_symbol
_atom_site_label
_atom_site_fract_x
_atom_site_fract_y
_atom_site_fract_z
Si Si1 0.000000 0.766692 0.250000
Si Si2 0.247729 0.464246 0.885232
Si Si3 0.646530 0.875930 0.810922
Si Si4 0.500000 0.554573 0.750000
Si Si5 0.147186 0.626158 0.819080
Si Si6 0.500000 0.020526 0.250000
Si Si7 0.500000 0.737587 0.250000
O O1 0.830611 0.827591 0.514817
O O2 0.989782 0.698405 0.409814
O O3 0.383839 0.499577 0.806590
O O4 0.355653 0.405888 0.591856
O O5 0.179576 0.549898 0.897114
O O6 0.110733 0.416572 0.209448
O O7 0.590349 0.918810 0.737673
O O8 0.512693 0.801862 0.081905
O O9 0.635231 0.955486 0.953456
O O10 0.328532 0.678676 0.518815
#
# Coordination Sequence:
#
# PCOD9228166 Si02
#       7
#     2   4   4   2   4   2   2
#     4  10  22  36  52  80 120 152 172 224 292 328
#     4   9  16  27  48  71  96 141 195 235 273 317
#     4   9  19  36  61  87 112 141 174 213 275 333
#     4   8  13  24  44  72  91 114 184 248 267 298
#     4  10  19  33  50  71 107 148 195 238 275 315
#     4   9  18  38  66  89 106 136 180 217 248 342
#     4   9  17  32  52  77 111 146 180 233 281 318
#
# _framework density 19.955984000000001
#
# number of rings (size 3 to 8) (size 9 to 14) (size 15 to 20)
#    0.000    2.800    0.000    3.600    0.000    1.600 
#    0.000   13.000    0.000   19.200    0.000    0.000 
#    0.000    0.000    0.000    0.000    0.000    0.000 
#
# Total GULP energy -111433.076297 kJ/mol
# GULP energy per Si atom -5571.653815 kJ/mol
# Density = 1.991056 g / cm^3
# Si number density = 19.955984 Si / 1000 Ang^3
#
#
#
# Elastic Constant Matrix: (Units=GPa)
#
#
# Indices 1 2 3 4 5 6 
#
# 1 101.7255 61.9831 54.4331 0.0000 33.5151 0.0000
# 2 61.9831 124.0392 72.5963 0.0000 16.8745 0.0000
# 3 54.4331 72.5963 143.4527 0.0000 27.3603 0.0000
# 4 0.0000 0.0000 0.0000 -30.8129 0.0000 10.8287
# 5 33.5151 16.8745 27.3603 0.0000 32.8907 0.0000
# 6 0.0000 0.0000 0.0000 10.8287 0.0000 -9.9194
#
#
#
# Elastic Compliance Matrix: (Units=1/GPa)
#
#
# Indices 1 2 3 4 5 6 
#
# 1 0.019989 -0.007333 -0.000840 0.000000 -0.015908 0.000000
# 2 -0.007333 0.014188 -0.005271 0.000000 0.004577 0.000000
# 3 -0.000840 -0.005271 0.011028 0.000000 -0.005613 0.000000
# 4 0.000000 0.000000 0.000000 -0.052655 0.000000 -0.057482
# 5 -0.015908 0.004577 -0.005613 0.000000 0.048934 0.000000
# 6 0.000000 0.000000 0.000000 -0.057482 0.000000 -0.163564
#
#
# Mechanical properties :
#
#
# Convention : Reuss Voigt Hill
#
# Bulk Modulus (GPa) = 54.59182 83.02695 68.80938
# Shear Modulus (GPa) = -56.12494 10.44535 -22.83980
#
# Velocity S-wave (km/s) = -5.30899 2.29032 -3.38673
# Velocity P-wave (km/s) = 3.18827 6.97778 4.38887
#
# Compressibility (1/GPa) = 0.01831776
#
# Stress axis : x y z
#
# Youngs Moduli (GPa) = 50.02787 70.48020 90.68161
#
# Poissons Ratio (x) = 0.51683 0.07616
# Poissons Ratio (y) = 0.36685 0.47796
# Poissons Ratio (z) = 0.04202 0.37149
#
# Static dielectric constant tensor:
#      x y z
#    x 1.716970 0.000000 -0.009570 
#    y 0.000000 1.720470 0.000000 
#    z -0.009570 0.000000 1.818280 
# 
# From -- ./inp_files/12178.got.cif
#   From: 2010.05.17/outbox.cif.g08.bks.cpg/sg13_7_cif.got.tgz:12178.got - 2010.06.03 16:44:36.
