data_PCOD9228031
_publ_section_title
;
Structure prediction by ZEFSAII (Michael W. Deem and Ramdas Pophale) SiO2 
 PCOD9228031
Probable space group: P 2/C
;
_chemical_formula_sum "Si O2"
_cell_formula_units_Z 16
_cell_length_a 12.869649
_cell_length_b 10.287901
_cell_length_c 5.357421
_cell_angle_alpha 90.000000
_cell_angle_beta 104.156597
_cell_angle_gamma 90.000000
_cell_volume 687.789752
_symmetry_space_group_name_H-M "P 2/C"
_symmetry_group_IT_number 13
_symmetry_cell_setting 'monoclinic'
loop_
_space_group_symop_operation_xyz
x,y,z
-x,y,1/2-z
-x,-y,-z
x,-y,1/2+z
loop_
_atom_site_type_symbol
_atom_site_label
_atom_site_fract_x
_atom_site_fract_y
_atom_site_fract_z
Si Si1 0.296693 0.128316 0.552830
Si Si2 0.379514 0.838885 0.601982
Si Si3 0.121466 0.451690 0.763095
Si Si4 0.065674 0.162937 0.547525
O O1 0.303459 0.196662 0.289251
O O2 0.176276 0.090259 0.555263
O O3 0.364147 0.995490 0.562078
O O4 0.345812 0.209871 0.809971
O O5 0.500000 0.808700 0.750000
O O6 0.172772 0.529947 0.564722
O O7 0.105473 0.304635 0.664175
O O8 0.000000 0.502998 0.750000
O O9 0.000000 0.110723 0.750000
O O10 0.000000 0.175156 0.250000
#
# Coordination Sequence:
#
# PCOD9228031 Si02
#       4
#     4   4   4   4
#     4  10  19  32  49  71  94 123 156 193 237 278
#     4  10  19  35  54  70  91 116 156 209 245 270
#     4   9  16  28  46  64  86 123 162 191 223 259
#     4  11  21  32  45  68 103 132 156 188 222 272
#
# _framework density 23.262923000000001
#
# number of rings (size 3 to 8) (size 9 to 14) (size 15 to 20)
#    0.000    2.000    0.000    9.000    0.000    0.000 
#    0.000   15.000    0.000    0.000    0.000    0.000 
#    0.000   34.000    0.000    0.000    0.000    0.000 
#
# Total GULP energy -89313.637964 kJ/mol
# GULP energy per Si atom -5582.102373 kJ/mol
# Density = 2.320998 g / cm^3
# Si number density = 23.262923 Si / 1000 Ang^3
#
#
#
# Elastic Constant Matrix: (Units=GPa)
#
#
# Indices 1 2 3 4 5 6 
#
# 1 60.4814 3.4680 -1.3511 0.0000 -4.4940 0.0000
# 2 3.4680 56.9693 20.3806 0.0000 -3.6755 0.0000
# 3 -1.3511 20.3806 163.2996 0.0000 -38.7143 0.0000
# 4 0.0000 0.0000 0.0000 -72.5482 0.0000 -1.3953
# 5 -4.4940 -3.6755 -38.7143 0.0000 41.1886 0.0000
# 6 0.0000 0.0000 0.0000 -1.3953 0.0000 5.2580
#
#
#
# Elastic Compliance Matrix: (Units=1/GPa)
#
#
# Indices 1 2 3 4 5 6 
#
# 1 0.016813 -0.001178 0.000896 0.000000 0.002571 0.000000
# 2 -0.001178 0.018470 -0.002515 0.000000 -0.000844 0.000000
# 3 0.000896 -0.002515 0.008254 0.000000 0.007632 0.000000
# 4 0.000000 0.000000 0.000000 -0.013714 0.000000 -0.003639
# 5 0.002571 -0.000844 0.007632 0.000000 0.031657 0.000000
# 6 0.000000 0.000000 0.000000 -0.003639 0.000000 0.189219
#
#
# Mechanical properties :
#
#
# Convention : Reuss Voigt Hill
#
# Bulk Modulus (GPa) = 26.35576 36.19393 31.27485
# Shear Modulus (GPa) = 18.59139 11.99653 15.29396
#
# Velocity S-wave (km/s) = 2.83005 2.27335 2.56684
# Velocity P-wave (km/s) = 4.69394 4.74165 4.71785
#
# Compressibility (1/GPa) = 0.03794236
#
# Stress axis : x y z
#
# Youngs Moduli (GPa) = 59.47915 54.14086 121.14854
#
# Poissons Ratio (x) = 0.06378 -0.10851
# Poissons Ratio (y) = 0.07007 0.30470
# Poissons Ratio (z) = -0.05327 0.13617
#
# Static dielectric constant tensor:
#      x y z
#    x 1.872420 0.000000 -0.019490 
#    y 0.000000 1.914200 0.000000 
#    z -0.019490 0.000000 2.050500 
# 
# From -- ./inp_files/3055.got.cif
#   From: 2010.05.17/outbox.cif.g08.bks.cpg/sg13_2_cif.got.tgz:3055.got - 2010.06.03 16:44:36.
