data_PCOD9228180
_publ_section_title
;
Structure prediction by ZEFSAII (Michael W. Deem and Ramdas Pophale) SiO2 
 PCOD9228180
Probable space group: P 2/C
;
_chemical_formula_sum "Si O2"
_cell_formula_units_Z 20
_cell_length_a 7.132437
_cell_length_b 24.467159
_cell_length_c 8.565701
_cell_angle_alpha 90.000000
_cell_angle_beta 142.741503
_cell_angle_gamma 90.000000
_cell_volume 904.972630
_symmetry_space_group_name_H-M "P 2/C"
_symmetry_group_IT_number 13
_symmetry_cell_setting 'monoclinic'
loop_
_space_group_symop_operation_xyz
x,y,z
-x,y,1/2-z
-x,-y,-z
x,-y,1/2+z
loop_
_atom_site_type_symbol
_atom_site_label
_atom_site_fract_x
_atom_site_fract_y
_atom_site_fract_z
Si Si1 0.628567 0.673510 0.509241
Si Si2 0.631437 0.781835 0.010285
Si Si3 0.368745 0.554387 0.989025
Si Si4 0.647889 0.105403 0.171562
Si Si5 0.140855 0.945146 0.168771
O O1 0.462902 0.725517 0.472832
O O2 0.558954 0.613890 0.538615
O O3 0.000000 0.680963 0.750000
O O4 0.500000 0.670372 0.250000
O O5 0.000000 0.790146 0.250000
O O6 0.500000 0.777822 0.750000
O O7 0.463642 0.836017 0.963963
O O8 0.000000 0.550535 0.750000
O O9 0.500000 0.555578 0.250000
O O10 0.500000 0.500000 0.000000
O O11 0.500000 0.098338 0.250000
O O12 0.005220 0.099262 0.456261
O O13 0.502074 0.061923 0.952452
O O14 0.000000 0.938475 0.250000
O O15 0.000000 0.000000 0.000000
#
# Coordination Sequence:
#
# PCOD9228180 Si02
#       5
#     4   4   4   4   4
#     4  10  22  39  56  82 120 153 178 228 297 334
#     4  11  21  36  60  85 106 144 198 234 264 331
#     4  10  21  37  58  83 115 152 190 230 279 332
#     4   9  18  33  52  75 104 136 174 225 274 313
#     4  10  19  33  52  73 102 137 172 217 270 324
#
# _framework density 22.100116
#
# number of rings (size 3 to 8) (size 9 to 14) (size 15 to 20)
#    0.000    2.000    0.000    5.400    0.000    1.600 
#    0.000    3.000    0.000    0.000    0.000    0.000 
#    0.000    0.000    0.000    0.000    0.000    0.000 
#
# Total GULP energy -111594.222827 kJ/mol
# GULP energy per Si atom -5579.711141 kJ/mol
# Density = 2.204981 g / cm^3
# Si number density = 22.100116 Si / 1000 Ang^3
#
#
#
# Elastic Constant Matrix: (Units=GPa)
#
#
# Indices 1 2 3 4 5 6 
#
# 1 34.0218 32.7842 29.5095 0.0000 11.3451 0.0000
# 2 32.7842 197.9047 59.4102 0.0000 -2.0256 0.0000
# 3 29.5095 59.4102 187.3573 0.0000 6.7475 0.0000
# 4 0.0000 0.0000 0.0000 38.3082 0.0000 -4.4671
# 5 11.3451 -2.0256 6.7475 0.0000 14.9165 0.0000
# 6 0.0000 0.0000 0.0000 -4.4671 0.0000 32.6407
#
#
#
# Elastic Compliance Matrix: (Units=1/GPa)
#
#
# Indices 1 2 3 4 5 6 
#
# 1 0.054744 -0.008108 -0.004587 0.000000 -0.040663 0.000000
# 2 -0.008108 0.006822 -0.001161 0.000000 0.007618 0.000000
# 3 -0.004587 -0.001161 0.006412 0.000000 0.000430 0.000000
# 4 0.000000 0.000000 0.000000 0.026527 0.000000 0.003630
# 5 -0.040663 0.007618 0.000430 0.000000 0.098806 0.000000
# 6 0.000000 0.000000 0.000000 0.003630 0.000000 0.031133
#
#
# Mechanical properties :
#
#
# Convention : Reuss Voigt Hill
#
# Bulk Modulus (GPa) = 24.83374 73.63240 49.23307
# Shear Modulus (GPa) = 18.82671 37.01174 27.91923
#
# Velocity S-wave (km/s) = 2.92187 4.09679 3.55816
# Velocity P-wave (km/s) = 4.75862 7.46781 6.26149
#
# Compressibility (1/GPa) = 0.04026780
#
# Stress axis : x y z
#
# Youngs Moduli (GPa) = 18.26680 146.57417 155.94741
#
# Poissons Ratio (x) = 1.18841 0.71533
# Poissons Ratio (y) = 0.14811 0.18101
# Poissons Ratio (z) = 0.08379 0.17013
#
# Static dielectric constant tensor:
#      x y z
#    x 1.845600 0.000000 0.041610 
#    y 0.000000 1.931380 0.000000 
#    z 0.041610 0.000000 1.769540 
# 
# From -- ./inp_files/13840.got.cif
#   From: 2010.05.17/outbox.cif.g08.bks.cpg/sg13_7_cif.got.tgz:13840.got - 2010.06.03 16:44:36.
