data_PCOD9228578
_publ_section_title
;
Structure prediction by ZEFSAII (Michael W. Deem and Ramdas Pophale) SiO2 
 PCOD9228578
Probable space group: P 2/C
;
_chemical_formula_sum "Si O2"
_cell_formula_units_Z 24
_cell_length_a 29.205345
_cell_length_b 6.895851
_cell_length_c 5.346907
_cell_angle_alpha 90.000000
_cell_angle_beta 112.072872
_cell_angle_gamma 90.000000
_cell_volume 997.918615
_symmetry_space_group_name_H-M "P 2/C"
_symmetry_group_IT_number 13
_symmetry_cell_setting 'monoclinic'
loop_
_space_group_symop_operation_xyz
x,y,z
-x,y,1/2-z
-x,-y,-z
x,-y,1/2+z
loop_
_atom_site_type_symbol
_atom_site_label
_atom_site_fract_x
_atom_site_fract_y
_atom_site_fract_z
Si Si1 0.000000 0.368741 0.750000
Si Si2 0.500000 0.369030 0.750000
Si Si3 0.646261 0.707404 0.150213
Si Si4 0.895352 0.783897 0.146644
Si Si5 0.143660 0.775422 0.932905
Si Si6 0.746485 0.127973 0.717387
Si Si7 0.392800 0.265760 0.429059
O O1 0.950920 0.238014 0.665076
O O2 0.000000 0.500000 0.500000
O O3 0.500000 0.500000 0.500000
O O4 0.449042 0.252541 0.633029
O O5 0.702093 0.720914 0.168468
O O6 0.623744 0.492612 0.136925
O O7 0.641919 0.800360 0.415363
O O8 0.614138 0.807263 0.866473
O O9 0.890058 0.695126 0.412575
O O10 0.876215 0.003502 0.143288
O O11 0.861028 0.696888 0.857353
O O12 0.199632 0.778670 0.141299
O O13 0.742886 0.026704 0.439010
#
# Coordination Sequence:
#
# PCOD9228578 Si02
#       7
#     2   2   4   4   4   4   4
#     4  12  26  42  62  88 124 162 180 210 292 362
#     4  12  16  30  58  82 110 142 196 236 290 332
#     4  10  20  32  54  77 123 139 185 237 282 343
#     4  10  20  38  64  86 118 140 190 243 271 327
#     4  10  19  37  64  89 108 138 199 255 271 297
#     4  12  21  37  59  86 111 155 192 234 285 329
#     4  10  19  35  52  88 111 147 184 239 290 337
#
# _framework density 24.050058
#
# number of rings (size 3 to 8) (size 9 to 14) (size 15 to 20)
#    0.000    1.333    6.667    2.000    0.000    2.667 
#    0.000    0.000   22.000    0.000    0.000   19.833 
#    0.000    0.000    0.000    0.000    0.000    0.000 
#
# Total GULP energy -134064.368747 kJ/mol
# GULP energy per Si atom -5586.015364 kJ/mol
# Density = 2.399532 g / cm^3
# Si number density = 24.050058 Si / 1000 Ang^3
#
#
#
# Elastic Constant Matrix: (Units=GPa)
#
#
# Indices 1 2 3 4 5 6 
#
# 1 111.7275 -21.6581 -1.7066 0.0000 12.4499 0.0000
# 2 -21.6581 65.6873 -27.7815 0.0000 7.0115 0.0000
# 3 -1.7066 -27.7815 146.2320 0.0000 -33.3716 0.0000
# 4 0.0000 0.0000 0.0000 33.3059 0.0000 -15.5453
# 5 12.4499 7.0115 -33.3716 0.0000 70.0236 0.0000
# 6 0.0000 0.0000 0.0000 -15.5453 0.0000 58.5285
#
#
#
# Elastic Compliance Matrix: (Units=1/GPa)
#
#
# Indices 1 2 3 4 5 6 
#
# 1 0.009873 0.003614 0.000358 0.000000 -0.001947 0.000000
# 2 0.003614 0.017879 0.003236 0.000000 -0.000891 0.000000
# 3 0.000358 0.003236 0.008268 0.000000 0.003553 0.000000
# 4 0.000000 0.000000 0.000000 0.034274 0.000000 0.009103
# 5 -0.001947 -0.000891 0.003553 0.000000 0.016409 0.000000
# 6 0.000000 0.000000 0.000000 0.009103 0.000000 0.019503
#
#
# Mechanical properties :
#
#
# Convention : Reuss Voigt Hill
#
# Bulk Modulus (GPa) = 19.82721 24.59492 22.21106
# Shear Modulus (GPa) = 46.03902 57.35782 51.69842
#
# Velocity S-wave (km/s) = 4.38002 4.88888 4.64143
# Velocity P-wave (km/s) = 5.81734 6.48975 6.16273
#
# Compressibility (1/GPa) = 0.05043574
#
# Stress axis : x y z
#
# Youngs Moduli (GPa) = 101.28205 55.93180 120.94654
#
# Poissons Ratio (x) = -0.20216 -0.04325
# Poissons Ratio (y) = -0.36608 -0.39133
# Poissons Ratio (z) = -0.03622 -0.18097
#
# Static dielectric constant tensor:
#      x y z
#    x 1.902960 0.000000 -0.048980 
#    y 0.000000 10.879470 0.000000 
#    z -0.048980 0.000000 1.997790 
# 
# From -- ./inp_files/7362.got.cif
#   From: 2010.05.17/outbox.cif.g08.bks.cpg/sg13_4_cif.got.tgz:7362.got - 2010.06.03 16:44:36.
