data_PCOD9228910
_publ_section_title
;
Structure prediction by ZEFSAII (Michael W. Deem and Ramdas Pophale) SiO2 
 PCOD9228910
Probable space group: P 2/C
;
_chemical_formula_sum "Si O2"
_cell_formula_units_Z 28
_cell_length_a 18.541464
_cell_length_b 12.212277
_cell_length_c 23.049233
_cell_angle_alpha 90.000000
_cell_angle_beta 15.659051
_cell_angle_gamma 90.000000
_cell_volume 1408.704484
_symmetry_space_group_name_H-M "P 2/C"
_symmetry_group_IT_number 13
_symmetry_cell_setting 'monoclinic'
loop_
_space_group_symop_operation_xyz
x,y,z
-x,y,1/2-z
-x,-y,-z
x,-y,1/2+z
loop_
_atom_site_type_symbol
_atom_site_label
_atom_site_fract_x
_atom_site_fract_y
_atom_site_fract_z
Si Si1 0.981013 0.311507 0.401503
Si Si2 0.869020 0.930127 0.945077
Si Si3 0.592419 0.493631 0.236212
Si Si4 0.401400 0.643695 0.474531
Si Si5 0.061914 0.080518 0.899164
Si Si6 0.028878 0.679755 0.997447
Si Si7 0.382878 0.110338 0.969835
O O1 0.866674 0.191448 0.475022
O O2 0.754516 0.402819 0.584573
O O3 0.095001 0.304270 0.378343
O O4 0.200457 0.350422 0.184427
O O5 0.126445 0.926388 0.703855
O O6 0.950419 0.020577 0.928911
O O7 0.623411 0.944806 0.089427
O O8 0.500000 0.432611 0.250000
O O9 0.376949 0.544429 0.447909
O O10 0.788769 0.414605 0.118466
O O11 0.716908 0.644620 0.246409
O O12 0.359140 0.759943 0.475462
O O13 0.939147 0.201333 0.998921
O O14 0.376759 0.097676 0.670205
O O15 0.000000 0.000000 0.000000
#
# Coordination Sequence:
#
# PCOD9228910 Si02
#       7
#     4   4   4   4   4   4   4
#     4  10  19  37  64  87 110 144 196 245 292 339
#     4  10  19  36  60  86 114 145 193 249 292 347
#     4  11  23  37  55  82 123 152 183 236 287 352
#     4   9  19  37  63  87 109 147 192 247 294 336
#     4  11  21  38  56  82 117 154 192 235 290 346
#     4  10  22  39  55  84 116 153 194 234 287 344
#     4   9  20  35  58  88 112 145 195 247 297 338
#
# _framework density 19.876418000000001
#
# number of rings (size 3 to 8) (size 9 to 14) (size 15 to 20)
#    0.000    2.000    1.429    3.000    0.000    4.571 
#    2.571    0.000    0.000    0.000    0.000    0.000 
#    0.000    0.000    0.000    0.000    0.000    0.000 
#
# Total GULP energy -156079.619656 kJ/mol
# GULP energy per Si atom -5574.272131 kJ/mol
# Density = 1.983118 g / cm^3
# Si number density = 19.876418 Si / 1000 Ang^3
#
#
#
# Elastic Constant Matrix: (Units=GPa)
#
#
# Indices 1 2 3 4 5 6 
#
# 1 147.3655 56.2790 35.9213 0.0000 8.2793 0.0000
# 2 56.2790 85.4308 31.0257 0.0000 5.7174 0.0000
# 3 35.9213 31.0257 77.5995 0.0000 13.9303 0.0000
# 4 0.0000 0.0000 0.0000 11.3360 0.0000 4.9366
# 5 8.2793 5.7174 13.9303 0.0000 19.5224 0.0000
# 6 0.0000 0.0000 0.0000 4.9366 0.0000 3.2753
#
#
#
# Elastic Compliance Matrix: (Units=1/GPa)
#
#
# Indices 1 2 3 4 5 6 
#
# 1 0.009390 -0.005388 -0.002020 0.000000 -0.000963 0.000000
# 2 -0.005388 0.016785 -0.004295 0.000000 0.000434 0.000000
# 3 -0.002020 -0.004295 0.017386 0.000000 -0.010292 0.000000
# 4 0.000000 0.000000 0.000000 0.256709 0.000000 -0.386919
# 5 -0.000963 0.000434 -0.010292 0.000000 0.058848 0.000000
# 6 0.000000 0.000000 0.000000 -0.386919 0.000000 0.888495
#
#
# Mechanical properties :
#
#
# Convention : Reuss Voigt Hill
#
# Bulk Modulus (GPa) = 49.61076 61.87200 55.74138
# Shear Modulus (GPa) = 3.91317 19.30472 11.60894
#
# Velocity S-wave (km/s) = 1.40464 3.11985 2.41935
# Velocity P-wave (km/s) = 5.25780 6.64634 5.99243
#
# Compressibility (1/GPa) = 0.02015692
#
# Stress axis : x y z
#
# Youngs Moduli (GPa) = 106.49780 59.57536 57.51664
#
# Poissons Ratio (x) = 0.32098 0.11616
# Poissons Ratio (y) = 0.57379 0.24703
# Poissons Ratio (z) = 0.21508 0.25587
#
# Static dielectric constant tensor:
#      x y z
#    x 1.879070 0.000000 -0.094790 
#    y 0.000000 1.689830 0.000000 
#    z -0.094790 0.000000 1.795710 
# 
# From -- ./inp_files/81057.got.cif
#   From: 2010.05.17/outbox.cif.g08.bks.cpg/sg13_41_cif.got.tgz:81057.got - 2010.06.03 16:44:36.
