data_PCOD9228191
_publ_section_title
;
Structure prediction by ZEFSAII (Michael W. Deem and Ramdas Pophale) SiO2 
 PCOD9228191
Probable space group: P 2/C
;
_chemical_formula_sum "Si O2"
_cell_formula_units_Z 30
_cell_length_a 6.599212
_cell_length_b 8.915175
_cell_length_c 30.546981
_cell_angle_alpha 90.000000
_cell_angle_beta 106.912037
_cell_angle_gamma 90.000000
_cell_volume 1719.451179
_symmetry_space_group_name_H-M "P 2/C"
_symmetry_group_IT_number 13
_symmetry_cell_setting 'monoclinic'
loop_
_space_group_symop_operation_xyz
x,y,z
-x,y,1/2-z
-x,-y,-z
x,-y,1/2+z
loop_
_atom_site_type_symbol
_atom_site_label
_atom_site_fract_x
_atom_site_fract_y
_atom_site_fract_z
Si Si1 0.934421 0.079399 0.791862
Si Si2 0.369010 0.094928 0.333174
Si Si3 0.500000 0.896049 0.750000
Si Si4 0.080241 0.908661 0.546675
Si Si5 0.469285 0.707445 0.580339
Si Si6 0.242127 0.867938 0.128576
Si Si7 0.200535 0.570617 0.070871
Si Si8 0.800189 0.614822 0.532136
O O1 0.879101 0.163537 0.833388
O O2 0.000000 0.158260 0.750000
O O3 0.713962 0.992911 0.769204
O O4 0.131307 0.967521 0.813473
O O5 0.452381 0.177553 0.294073
O O6 0.391252 0.205608 0.375369
O O7 0.533221 0.954083 0.349528
O O8 0.305877 0.830521 0.551494
O O9 0.925210 0.770909 0.545896
O O10 0.109210 0.015741 0.590274
O O11 0.000000 0.000000 0.500000
O O12 0.332877 0.574873 0.593529
O O13 0.599309 0.631422 0.549935
O O14 0.258093 0.715425 0.102360
O O15 0.953853 0.521017 0.056372
O O16 0.243320 0.599108 0.022097
#
# Coordination Sequence:
#
# PCOD9228191 Si02
#       8
#     4   4   2   4   4   4   4   4
#     4   9  17  32  55  83 104 127 164 215 268 315
#     4   9  18  33  54  82 103 130 170 215 263 310
#     4   8  16  32  58  80 106 126 158 212 270 318
#     4  10  19  34  51  76 108 138 179 223 263 300
#     4  10  21  34  51  75 105 140 182 214 253 314
#     4  10  19  33  52  79 107 138 174 220 262 307
#     4  10  21  35  50  70 106 146 181 212 260 305
#     4  10  20  36  51  69 102 149 183 219 254 302
#
# _framework density 17.447429
#
# number of rings (size 3 to 8) (size 9 to 14) (size 15 to 20)
#    0.000    2.400    1.333    1.200    0.000    2.667 
#    2.400    0.000    0.000    6.400    0.000   10.267 
#    0.000    0.000    0.000    0.000    0.000    0.000 
#
# Total GULP energy -167024.482457 kJ/mol
# GULP energy per Si atom -5567.482749 kJ/mol
# Density = 1.740772 g / cm^3
# Si number density = 17.447429 Si / 1000 Ang^3
#
#
#
# Elastic Constant Matrix: (Units=GPa)
#
#
# Indices 1 2 3 4 5 6 
#
# 1 80.4749 19.0044 43.0168 0.0000 -7.5086 0.0000
# 2 19.0044 66.7603 33.1138 0.0000 2.2577 0.0000
# 3 43.0168 33.1138 84.7031 0.0000 1.1753 0.0000
# 4 0.0000 0.0000 0.0000 5.7077 0.0000 -2.0217
# 5 -7.5086 2.2577 1.1753 0.0000 27.0584 0.0000
# 6 0.0000 0.0000 0.0000 -2.0217 0.0000 7.1819
#
#
#
# Elastic Compliance Matrix: (Units=1/GPa)
#
#
# Indices 1 2 3 4 5 6 
#
# 1 0.017838 -0.000906 -0.008780 0.000000 0.005407 0.000000
# 2 -0.000906 0.018670 -0.006818 0.000000 -0.001513 0.000000
# 3 -0.008780 -0.006818 0.018968 0.000000 -0.002691 0.000000
# 4 0.000000 0.000000 0.000000 0.194605 0.000000 0.054783
# 5 0.005407 -0.001513 -0.002691 0.000000 0.038701 0.000000
# 6 0.000000 0.000000 0.000000 0.054783 0.000000 0.154661
#
#
# Mechanical properties :
#
#
# Convention : Reuss Voigt Hill
#
# Bulk Modulus (GPa) = 44.50740 46.91204 45.70972
# Shear Modulus (GPa) = 10.33189 17.10983 13.72086
#
# Velocity S-wave (km/s) = 2.43610 3.13493 2.80735
# Velocity P-wave (km/s) = 5.78598 6.32849 6.06331
#
# Compressibility (1/GPa) = 0.02246818
#
# Stress axis : x y z
#
# Youngs Moduli (GPa) = 56.06078 53.56298 52.72173
#
# Poissons Ratio (x) = 0.04851 0.46289
# Poissons Ratio (y) = 0.05078 0.35944
# Poissons Ratio (z) = 0.49221 0.36518
#
# Static dielectric constant tensor:
#      x y z
#    x 1.614890 0.000000 0.001860 
#    y 0.000000 1.555200 0.000000 
#    z 0.001860 0.000000 1.632730 
# 
# From -- ./inp_files/95074.got.cif
#   From: 2010.05.17/outbox.cif.g08.bks.cpg/sg13_48_cif.got.tgz:95074.got - 2010.06.03 16:44:36.
