data_PCOD9228495
_publ_section_title
;
Structure prediction by ZEFSAII (Michael W. Deem and Ramdas Pophale) SiO2 
 PCOD9228495
Probable space group: P 2/C
;
_chemical_formula_sum "Si O2"
_cell_formula_units_Z 28
_cell_length_a 9.871249
_cell_length_b 14.556796
_cell_length_c 19.030790
_cell_angle_alpha 90.000000
_cell_angle_beta 31.894020
_cell_angle_gamma 90.000000
_cell_volume 1444.828184
_symmetry_space_group_name_H-M "P 2/C"
_symmetry_group_IT_number 13
_symmetry_cell_setting 'monoclinic'
loop_
_space_group_symop_operation_xyz
x,y,z
-x,y,1/2-z
-x,-y,-z
x,-y,1/2+z
loop_
_atom_site_type_symbol
_atom_site_label
_atom_site_fract_x
_atom_site_fract_y
_atom_site_fract_z
Si Si1 0.792136 0.579043 0.904785
Si Si2 0.216813 0.179500 0.530383
Si Si3 0.271204 0.081762 0.800396
Si Si4 0.591291 0.905929 0.423488
Si Si5 0.888615 0.773113 0.878540
Si Si6 0.324617 0.127914 0.267167
Si Si7 0.225189 0.377791 0.591591
O O1 0.809468 0.477617 0.929823
O O2 0.000000 0.574098 0.750000
O O3 0.863852 0.669087 0.916299
O O4 0.505963 0.605706 0.003286
O O5 0.201280 0.134360 0.614112
O O6 0.477356 0.136369 0.384714
O O7 0.227320 0.288818 0.540351
O O8 0.982669 0.143902 0.585709
O O9 0.500000 0.116004 0.750000
O O10 0.339783 0.078617 0.687683
O O11 0.243787 0.973396 0.829222
O O12 0.372308 0.828552 0.515172
O O13 0.500000 0.000000 0.500000
O O14 0.071258 0.824848 0.851564
O O15 0.000000 0.770637 0.750000
O O16 0.500000 0.173010 0.250000
O O17 0.000000 0.365493 0.750000
#
# Coordination Sequence:
#
# PCOD9228495 Si02
#       7
#     4   4   4   4   4   4   4
#     4   9  18  33  58  88 124 153 194 247 311 362
#     4  12  22  40  61  86 121 152 200 252 299 352
#     4  11  26  40  57  84 121 163 199 238 297 361
#     4  12  21  36  59  88 116 151 191 249 291 340
#     4  11  19  36  60  87 115 149 199 243 294 351
#     4  11  25  40  59  84 116 161 201 243 294 362
#     4  10  19  34  57  93 123 152 191 254 309 358
#
# _framework density 19.379467000000002
#
# number of rings (size 3 to 8) (size 9 to 14) (size 15 to 20)
#    0.000    1.143    4.286    3.000    2.000    1.143 
#    0.000    0.000    0.000    1.714    0.000    0.000 
#    0.000    0.000    0.000    0.000    0.000    0.000 
#
# Total GULP energy -156019.421678 kJ/mol
# GULP energy per Si atom -5572.122203 kJ/mol
# Density = 1.933536 g / cm^3
# Si number density = 19.379467 Si / 1000 Ang^3
#
#
#
# Elastic Constant Matrix: (Units=GPa)
#
#
# Indices 1 2 3 4 5 6 
#
# 1 88.1841 14.8855 3.6959 0.0000 -25.9729 0.0000
# 2 14.8855 136.1834 11.6432 0.0000 -23.2106 0.0000
# 3 3.6959 11.6432 62.2903 0.0000 -13.4185 0.0000
# 4 0.0000 0.0000 0.0000 19.6106 0.0000 -9.3357
# 5 -25.9729 -23.2106 -13.4185 0.0000 35.8549 0.0000
# 6 0.0000 0.0000 0.0000 -9.3357 0.0000 -3.5324
#
#
#
# Elastic Compliance Matrix: (Units=1/GPa)
#
#
# Indices 1 2 3 4 5 6 
#
# 1 0.014553 0.000194 0.001521 0.000000 0.011237 0.000000
# 2 0.000194 0.008267 -0.000406 0.000000 0.005340 0.000000
# 3 0.001521 -0.000406 0.017643 0.000000 0.007441 0.000000
# 4 0.000000 0.000000 0.000000 0.022582 0.000000 -0.059680
# 5 0.011237 0.005340 0.007441 0.000000 0.042272 0.000000
# 6 0.000000 0.000000 0.000000 -0.059680 0.000000 -0.125365
#
#
# Mechanical properties :
#
#
# Convention : Reuss Voigt Hill
#
# Bulk Modulus (GPa) = 23.21254 38.56747 30.89001
# Shear Modulus (GPa) = -601.90093 27.48216 -287.20938
#
# Velocity S-wave (km/s) = -17.64260 3.76986 -12.18707
# Velocity P-wave (km/s) = 20.07513 6.23647 13.49291
#
# Compressibility (1/GPa) = 0.04308016
#
# Stress axis : x y z
#
# Youngs Moduli (GPa) = 68.71431 120.96742 56.68109
#
# Poissons Ratio (x) = -0.02352 -0.08620
# Poissons Ratio (y) = -0.01336 0.02303
# Poissons Ratio (z) = -0.10450 0.04916
#
# Static dielectric constant tensor:
#      x y z
#    x 1.741860 0.000000 0.072170 
#    y 0.000000 1.722760 0.000000 
#    z 0.072170 0.000000 1.786850 
# 
# From -- ./inp_files/76719.got.cif
#   From: 2010.05.17/outbox.cif.g08.bks.cpg/sg13_39_cif.got.tgz:76719.got - 2010.06.03 16:44:36.
