data_PCOD9228028
_publ_section_title
;
Structure prediction by ZEFSAII (Michael W. Deem and Ramdas Pophale) SiO2 
 PCOD9228028
Probable space group: P 2/C
;
_chemical_formula_sum "Si O2"
_cell_formula_units_Z 28
_cell_length_a 12.999662
_cell_length_b 15.507112
_cell_length_c 8.986738
_cell_angle_alpha 90.000000
_cell_angle_beta 89.999937
_cell_angle_gamma 90.000000
_cell_volume 1811.611482
_symmetry_space_group_name_H-M "P 2/C"
_symmetry_group_IT_number 13
_symmetry_cell_setting 'monoclinic'
loop_
_space_group_symop_operation_xyz
x,y,z
-x,y,1/2-z
-x,-y,-z
x,-y,1/2+z
loop_
_atom_site_type_symbol
_atom_site_label
_atom_site_fract_x
_atom_site_fract_y
_atom_site_fract_z
Si Si1 0.625085 0.587916 0.078719
Si Si2 0.377997 0.232039 0.427309
Si Si3 0.773517 0.095461 0.570966
Si Si4 1.000000 0.094254 0.927934
Si Si5 0.622003 0.767961 0.927308
Si Si6 0.625085 0.587916 0.421280
Si Si7 0.773517 0.904540 0.429033
O O1 0.658776 0.591858 0.250000
O O2 0.500000 0.585295 0.078816
O O3 0.653437 0.674516 0.991199
O O4 0.660379 0.500000 1.000000
O O5 0.363603 0.229719 0.250001
O O6 0.500000 0.220775 0.457632
O O7 0.346563 0.325483 0.491201
O O8 0.312410 0.157931 0.505403
O O9 0.888249 0.131991 0.532743
O O10 0.687591 0.157932 0.505402
O O11 0.764726 0.089326 0.749999
O O12 0.765000 0.000000 0.499999
O O13 0.000000 0.085122 0.750000
O O14 0.888249 0.131991 0.967256
O O15 0.000000 0.000000 0.000000
#
# Coordination Sequence:
#
# PCOD9228028 Si02
#       7
#     4   4   4   4   4   4   4
#     4   9  16  27  44  65  89 118 151 187 226 266
#     4  10  20  32  45  65  94 125 156 188 223 267
#     4  10  19  32  49  68  91 119 152 189 229 271
#     4   8  16  30  48  68  87 110 145 190 232 268
#     4  10  20  32  45  65  94 125 156 188 223 267
#     4   9  16  27  44  65  89 118 151 187 226 266
#     4  10  19  32  49  68  91 119 152 189 229 271
#
# _framework density 15.455852999999999
#
# number of rings (size 3 to 8) (size 9 to 14) (size 15 to 20)
#    0.000    2.571    0.000    2.571    0.000    6.857 
#    0.000    0.000    0.000    0.000    0.000    1.000 
#    0.000    0.000    0.000    0.000    0.000    0.000 
#
# Total GULP energy -155934.386287 kJ/mol
# GULP energy per Si atom -5569.085225 kJ/mol
# Density = 1.542068 g / cm^3
# Si number density = 15.455853 Si / 1000 Ang^3
#
#
#
# Elastic Constant Matrix: (Units=GPa)
#
#
# Indices 1 2 3 4 5 6 
#
# 1 71.2498 61.5206 55.8868 0.0000 0.0006 0.0000
# 2 61.5206 114.7052 61.0674 0.0000 0.0009 0.0000
# 3 55.8868 61.0674 89.2312 0.0000 0.0008 0.0000
# 4 0.0000 0.0000 0.0000 31.4976 0.0000 0.0001
# 5 0.0006 0.0009 0.0008 0.0000 12.5879 0.0000
# 6 0.0000 0.0000 0.0000 0.0001 0.0000 -2.2013
#
#
#
# Elastic Compliance Matrix: (Units=1/GPa)
#
#
# Indices 1 2 3 4 5 6 
#
# 1 0.034700 -0.011076 -0.014153 0.000000 0.000000 0.000000
# 2 -0.011076 0.017250 -0.004869 0.000000 0.000000 0.000000
# 3 -0.014153 -0.004869 0.023403 0.000000 -0.000001 0.000000
# 4 0.000000 0.000000 0.000000 0.031748 0.000000 0.000002
# 5 0.000000 0.000000 -0.000001 0.000000 0.079441 0.000000
# 6 0.000000 0.000000 0.000000 0.000002 0.000000 -0.454267
#
#
# Mechanical properties :
#
#
# Convention : Reuss Voigt Hill
#
# Bulk Modulus (GPa) = 65.97111 70.23730 68.10420
# Shear Modulus (GPa) = -24.69436 14.82425 -4.93505
#
# Velocity S-wave (km/s) = -4.00150 3.10035 -1.78883
# Velocity P-wave (km/s) = 4.62892 7.63929 6.31607
#
# Compressibility (1/GPa) = 0.01515815
#
# Stress axis : x y z
#
# Youngs Moduli (GPa) = 28.81838 57.96943 42.72935
#
# Poissons Ratio (x) = 0.64207 0.60475
# Poissons Ratio (y) = 0.31919 0.20804
# Poissons Ratio (z) = 0.40787 0.28223
#
# Static dielectric constant tensor:
#      x y z
#    x 1.525630 0.000000 0.000000 
#    y 0.000000 1.485830 0.000000 
#    z 0.000000 0.000000 1.513560 
# 
# From -- ./inp_files/16304.got.cif
#   From: 2010.05.17/outbox.cif.g08.bks.cpg/sg13_9_cif.got.tgz:16304.got - 2010.06.03 16:44:36.
