data_PCOD9228791
_publ_section_title
;
Structure prediction by ZEFSAII (Michael W. Deem and Ramdas Pophale) SiO2 
 PCOD9228791
Probable space group: P 2/C
;
_chemical_formula_sum "Si O2"
_cell_formula_units_Z 32
_cell_length_a 17.023576
_cell_length_b 13.888556
_cell_length_c 20.729909
_cell_angle_alpha 90.000000
_cell_angle_beta 18.802698
_cell_angle_gamma 90.000000
_cell_volume 1579.717503
_symmetry_space_group_name_H-M "P 2/C"
_symmetry_group_IT_number 13
_symmetry_cell_setting 'monoclinic'
loop_
_space_group_symop_operation_xyz
x,y,z
-x,y,1/2-z
-x,-y,-z
x,-y,1/2+z
loop_
_atom_site_type_symbol
_atom_site_label
_atom_site_fract_x
_atom_site_fract_y
_atom_site_fract_z
Si Si1 0.200393 0.053215 0.800983
Si Si2 0.879905 0.410423 0.281149
Si Si3 0.067897 0.262030 0.916525
Si Si4 0.511017 0.302920 0.996454
Si Si5 0.852189 0.441411 0.559986
Si Si6 0.610395 0.896546 0.474265
Si Si7 0.498139 0.225275 0.323501
Si Si8 0.425258 0.577278 0.926757
O O1 0.199786 0.161215 0.827706
O O2 0.177507 0.071491 0.740598
O O3 0.441288 0.988458 0.618009
O O4 0.000000 0.000000 0.000000
O O5 0.658624 0.345855 0.426726
O O6 0.783248 0.511885 0.382338
O O7 0.000000 0.361676 0.250000
O O8 0.047125 0.434819 0.090188
O O9 0.208068 0.306524 0.745405
O O10 0.127659 0.334014 0.927724
O O11 0.782917 0.241069 0.123719
O O12 0.468604 0.190798 0.046751
O O13 0.467560 0.369604 0.092495
O O14 0.601512 0.500306 0.756139
O O15 0.000000 0.500000 0.500000
O O16 0.646372 0.843311 0.514490
O O17 0.500000 0.186410 0.250000
O O18 0.375281 0.331201 0.420694
#
# Coordination Sequence:
#
# PCOD9228791 Si02
#       8
#     4   4   4   4   4   4   4   4
#     4  10  19  35  68  93 116 146 209 267 303 363
#     4  12  26  37  56  87 125 162 204 263 315 360
#     4  11  21  37  65  93 115 165 213 257 306 371
#     4  10  20  40  62  87 121 159 212 254 301 372
#     4  12  21  38  65  83 119 165 214 250 302 375
#     4   9  20  39  62  94 120 158 208 258 305 380
#     4  11  23  37  59  92 134 162 203 261 325 374
#     4  11  23  38  59  85 117 169 212 248 295 380
#
# _framework density 20.256786000000002
#
# number of rings (size 3 to 8) (size 9 to 14) (size 15 to 20)
#    0.000    1.250    5.000    1.875    1.750    0.000 
#    0.000    5.000    0.000    9.000    0.000    0.000 
#    0.000    0.000    0.000    0.000    0.000    0.000 
#
# Total GULP energy -178323.070848 kJ/mol
# GULP energy per Si atom -5572.595964 kJ/mol
# Density = 2.021068 g / cm^3
# Si number density = 20.256786 Si / 1000 Ang^3
#
#
#
# Elastic Constant Matrix: (Units=GPa)
#
#
# Indices 1 2 3 4 5 6 
#
# 1 74.3916 17.1617 37.5292 0.0000 26.3126 0.0000
# 2 17.1617 96.3277 40.6579 0.0000 13.0844 0.0000
# 3 37.5292 40.6579 110.1514 0.0000 45.3199 0.0000
# 4 0.0000 0.0000 0.0000 40.0032 0.0000 14.1763
# 5 26.3126 13.0844 45.3199 0.0000 36.1811 0.0000
# 6 0.0000 0.0000 0.0000 14.1763 0.0000 13.3740
#
#
#
# Elastic Compliance Matrix: (Units=1/GPa)
#
#
# Indices 1 2 3 4 5 6 
#
# 1 0.018355 -0.001269 -0.000995 0.000000 -0.011644 0.000000
# 2 -0.001269 0.012500 -0.005574 0.000000 0.003384 0.000000
# 3 -0.000995 -0.005574 0.021351 0.000000 -0.024005 0.000000
# 4 0.000000 0.000000 0.000000 0.040037 0.000000 -0.042439
# 5 -0.011644 0.003384 -0.024005 0.000000 0.064952 0.000000
# 6 0.000000 0.000000 0.000000 -0.042439 0.000000 0.119756
#
#
# Mechanical properties :
#
#
# Convention : Reuss Voigt Hill
#
# Bulk Modulus (GPa) = 27.37320 52.39648 39.88484
# Shear Modulus (GPa) = 16.40395 30.27980 23.34187
#
# Velocity S-wave (km/s) = 2.84879 3.87046 3.39824
# Velocity P-wave (km/s) = 4.93591 6.77467 5.92703
#
# Compressibility (1/GPa) = 0.03653209
#
# Stress axis : x y z
#
# Youngs Moduli (GPa) = 54.47969 79.99821 46.83567
#
# Poissons Ratio (x) = 0.10149 0.04659
# Poissons Ratio (y) = 0.06912 0.26106
# Poissons Ratio (z) = 0.05419 0.44591
#
# Static dielectric constant tensor:
#      x y z
#    x 3.387130 0.000000 1.011610 
#    y 0.000000 2.577900 0.000000 
#    z 1.011610 0.000000 2.449210 
# 
# From -- ./inp_files/81137.got.cif
#   From: 2010.05.17/outbox.cif.g08.bks.cpg/sg13_41_cif.got.tgz:81137.got - 2010.06.03 16:44:36.
