data_PCOD9228702
_publ_section_title
;
Structure prediction by ZEFSAII (Michael W. Deem and Ramdas Pophale) SiO2 
 PCOD9228702
Probable space group: P 2/C
;
_chemical_formula_sum "Si O2"
_cell_formula_units_Z 16
_cell_length_a 8.594995
_cell_length_b 5.119750
_cell_length_c 19.526629
_cell_angle_alpha 90.000000
_cell_angle_beta 70.604060
_cell_angle_gamma 90.000000
_cell_volume 810.488242
_symmetry_space_group_name_H-M "P 2/C"
_symmetry_group_IT_number 13
_symmetry_cell_setting 'monoclinic'
loop_
_space_group_symop_operation_xyz
x,y,z
-x,y,1/2-z
-x,-y,-z
x,-y,1/2+z
loop_
_atom_site_type_symbol
_atom_site_label
_atom_site_fract_x
_atom_site_fract_y
_atom_site_fract_z
Si Si1 0.976101 0.762344 0.090616
Si Si2 0.943087 0.719474 0.836152
Si Si3 0.411343 0.705105 0.563295
Si Si4 0.729200 0.936779 0.536279
O O1 0.960461 0.491100 0.131748
O O2 0.025082 0.994175 0.136340
O O3 0.815142 0.861357 0.074442
O O4 0.124717 0.749686 0.012791
O O5 0.000000 0.714139 0.750000
O O6 0.751204 0.629435 0.871054
O O7 0.500000 0.500000 0.500000
O O8 0.562718 0.804662 0.587552
O O9 0.336204 0.917543 0.521996
#
# Coordination Sequence:
#
# PCOD9228702 Si02
#       4
#     4   4   4   4
#     4  10  21  37  61  86 113 152 193 243 285 344
#     4  11  23  39  59  82 119 158 193 231 295 355
#     4  10  19  35  60  84 114 150 190 243 287 343
#     4   9  20  34  59  90 112 143 198 245 289 332
#
# _framework density 19.741188000000001
#
# number of rings (size 3 to 8) (size 9 to 14) (size 15 to 20)
#    0.000    2.000    2.500    0.750    3.500    3.000 
#    0.000    1.250    0.000    0.000    0.000    0.000 
#    0.000    0.000    0.000    0.000    0.000    0.000 
#
# Total GULP energy -89237.100286 kJ/mol
# GULP energy per Si atom -5577.318768 kJ/mol
# Density = 1.969626 g / cm^3
# Si number density = 19.741188 Si / 1000 Ang^3
#
#
#
# Elastic Constant Matrix: (Units=GPa)
#
#
# Indices 1 2 3 4 5 6 
#
# 1 125.6385 -4.3507 39.8981 0.0000 -16.7794 0.0000
# 2 -4.3507 44.4479 11.9105 0.0000 -1.8936 0.0000
# 3 39.8981 11.9105 100.8531 0.0000 -10.2455 0.0000
# 4 0.0000 0.0000 0.0000 22.1714 0.0000 3.2821
# 5 -16.7794 -1.8936 -10.2455 0.0000 21.7564 0.0000
# 6 0.0000 0.0000 0.0000 3.2821 0.0000 24.0554
#
#
#
# Elastic Compliance Matrix: (Units=1/GPa)
#
#
# Indices 1 2 3 4 5 6 
#
# 1 0.010005 0.002205 -0.003587 0.000000 0.006219 0.000000
# 2 0.002205 0.023732 -0.003458 0.000000 0.002138 0.000000
# 3 -0.003587 -0.003458 0.012006 0.000000 0.002586 0.000000
# 4 0.000000 0.000000 0.000000 0.046033 0.000000 -0.006281
# 5 0.006219 0.002138 0.002586 0.000000 0.052164 0.000000
# 6 0.000000 0.000000 0.000000 -0.006281 0.000000 0.042428
#
#
# Mechanical properties :
#
#
# Convention : Reuss Voigt Hill
#
# Bulk Modulus (GPa) = 27.72843 40.65058 34.18951
# Shear Modulus (GPa) = 24.03069 28.49543 26.26306
#
# Velocity S-wave (km/s) = 3.49275 3.80340 3.65138
# Velocity P-wave (km/s) = 5.50838 6.31856 5.92733
#
# Compressibility (1/GPa) = 0.03606406
#
# Stress axis : x y z
#
# Youngs Moduli (GPa) = 99.94623 42.13750 83.29513
#
# Poissons Ratio (x) = -0.09293 0.29876
# Poissons Ratio (y) = -0.22043 0.28803
# Poissons Ratio (z) = 0.35849 0.14571
#
# Static dielectric constant tensor:
#      x y z
#    x 1.748350 0.000000 -0.036670 
#    y 0.000000 1.769470 0.000000 
#    z -0.036670 0.000000 1.691160 
# 
# From -- ./inp_files/74054.got.cif
#   From: 2010.05.17/outbox.cif.g08.bks.cpg/sg13_38_cif.got.tgz:74054.got - 2010.06.03 16:44:36.
