data_PCOD9228745
_publ_section_title
;
Structure prediction by ZEFSAII (Michael W. Deem and Ramdas Pophale) SiO2 
 PCOD9228745
Probable space group: P 2/C
;
_chemical_formula_sum "Si O2"
_cell_formula_units_Z 32
_cell_length_a 15.346894
_cell_length_b 15.674446
_cell_length_c 21.945539
_cell_angle_alpha 90.000000
_cell_angle_beta 18.278275
_cell_angle_gamma 90.000000
_cell_volume 1655.693402
_symmetry_space_group_name_H-M "P 2/C"
_symmetry_group_IT_number 13
_symmetry_cell_setting 'monoclinic'
loop_
_space_group_symop_operation_xyz
x,y,z
-x,y,1/2-z
-x,-y,-z
x,-y,1/2+z
loop_
_atom_site_type_symbol
_atom_site_label
_atom_site_fract_x
_atom_site_fract_y
_atom_site_fract_z
Si Si1 0.171123 0.065363 0.470255
Si Si2 0.244464 0.138236 0.549015
Si Si3 0.981414 0.705277 0.923222
Si Si4 0.042643 0.412522 0.625708
Si Si5 0.384153 0.669192 0.994709
Si Si6 0.152042 0.413923 0.875696
Si Si7 0.880144 0.895512 0.633769
Si Si8 0.199084 0.595731 0.559905
O O1 0.500000 0.047126 0.250000
O O2 0.150168 0.129100 0.541390
O O3 0.069144 0.101714 0.473067
O O4 0.015561 0.975243 0.578148
O O5 0.286598 0.234664 0.544819
O O6 0.546177 0.098103 0.359257
O O7 0.000000 0.096668 0.750000
O O8 0.806834 0.676162 0.981041
O O9 0.294552 0.671868 0.703530
O O10 0.007960 0.805934 0.915862
O O11 0.873315 0.656097 0.054559
O O12 0.999744 0.385090 0.585350
O O13 0.320251 0.379559 0.474271
O O14 0.063050 0.514493 0.615912
O O15 0.797342 0.375523 0.831923
O O16 0.477879 0.426104 0.642221
O O17 0.000000 0.500000 0.000000
O O18 0.000000 0.609993 0.750000
#
# Coordination Sequence:
#
# PCOD9228745 Si02
#       8
#     4   4   4   4   4   4   4   4
#     4   9  19  38  62  87 119 156 197 242 301 368
#     4  10  19  35  61  92 123 145 196 257 296 351
#     4  11  24  39  61  86 124 154 204 257 298 351
#     4  11  22  38  62  82 118 158 202 240 307 360
#     4  10  21  39  60  90 116 160 200 248 301 367
#     4  12  26  39  59  90 120 155 205 263 299 345
#     4   9  21  39  60  88 118 163 197 237 308 369
#     4  12  25  42  60  83 121 166 204 244 303 370
#
# _framework density 19.327248999999998
#
# number of rings (size 3 to 8) (size 9 to 14) (size 15 to 20)
#    0.000    1.500    3.750    1.875    1.750    4.000 
#    0.000    0.625    0.000    0.000    0.000    0.000 
#    0.000    0.000    0.000    0.000    0.000    0.000 
#
# Total GULP energy -178543.892651 kJ/mol
# GULP energy per Si atom -5579.496645 kJ/mol
# Density = 1.928326 g / cm^3
# Si number density = 19.327249 Si / 1000 Ang^3
#
#
#
# Elastic Constant Matrix: (Units=GPa)
#
#
# Indices 1 2 3 4 5 6 
#
# 1 50.2286 -4.6465 0.8228 0.0000 0.8063 0.0000
# 2 -4.6465 46.1551 12.9323 0.0000 -5.4241 0.0000
# 3 0.8228 12.9323 46.4154 0.0000 2.8822 0.0000
# 4 0.0000 0.0000 0.0000 23.6814 0.0000 -7.3227
# 5 0.8063 -5.4241 2.8822 0.0000 21.4896 0.0000
# 6 0.0000 0.0000 0.0000 -7.3227 0.0000 28.3259
#
#
#
# Elastic Compliance Matrix: (Units=1/GPa)
#
#
# Indices 1 2 3 4 5 6 
#
# 1 0.020139 0.002302 -0.000996 0.000000 -0.000041 0.000000
# 2 0.002302 0.024814 -0.007400 0.000000 0.007169 0.000000
# 3 -0.000996 -0.007400 0.023937 0.000000 -0.005041 0.000000
# 4 0.000000 0.000000 0.000000 0.045896 0.000000 0.011865
# 5 -0.000041 0.007169 -0.005041 0.000000 0.049021 0.000000
# 6 0.000000 0.000000 0.000000 0.011865 0.000000 0.038371
#
#
# Mechanical properties :
#
#
# Convention : Reuss Voigt Hill
#
# Bulk Modulus (GPa) = 17.63608 17.89070 17.76339
# Shear Modulus (GPa) = 21.43481 23.61208 22.52345
#
# Velocity S-wave (km/s) = 3.33385 3.49907 3.41746
# Velocity P-wave (km/s) = 4.89532 5.05979 4.97824
#
# Compressibility (1/GPa) = 0.05670196
#
# Stress axis : x y z
#
# Youngs Moduli (GPa) = 49.65527 40.30050 41.77652
#
# Poissons Ratio (x) = -0.09275 0.04160
# Poissons Ratio (y) = -0.11428 0.30913
# Poissons Ratio (z) = 0.04944 0.29821
#
# Static dielectric constant tensor:
#      x y z
#    x 1.667300 0.000000 -0.003100 
#    y 0.000000 1.672610 0.000000 
#    z -0.003100 0.000000 1.720200 
# 
# From -- ./inp_files/80358.got.cif
#   From: 2010.05.17/outbox.cif.g08.bks.cpg/sg13_41_cif.got.tgz:80358.got - 2010.06.03 16:44:36.
