data_PCOD9228944
_publ_section_title
;
Structure prediction by ZEFSAII (Michael W. Deem and Ramdas Pophale) SiO2 
 PCOD9228944
Probable space group: P 2/C
;
_chemical_formula_sum "Si O2"
_cell_formula_units_Z 32
_cell_length_a 8.365085
_cell_length_b 22.822898
_cell_length_c 14.429202
_cell_angle_alpha 90.000000
_cell_angle_beta 31.261839
_cell_angle_gamma 90.000000
_cell_volume 1429.581407
_symmetry_space_group_name_H-M "P 2/C"
_symmetry_group_IT_number 13
_symmetry_cell_setting 'monoclinic'
loop_
_space_group_symop_operation_xyz
x,y,z
-x,y,1/2-z
-x,-y,-z
x,-y,1/2+z
loop_
_atom_site_type_symbol
_atom_site_label
_atom_site_fract_x
_atom_site_fract_y
_atom_site_fract_z
Si Si1 0.111383 0.760295 0.301039
Si Si2 0.133673 0.651480 0.414494
Si Si3 0.083435 0.577397 0.605701
Si Si4 0.187401 0.546017 0.253815
Si Si5 0.653793 0.081535 0.580373
Si Si6 0.686446 0.189571 0.434258
Si Si7 0.325795 0.136958 0.435375
Si Si8 0.030487 0.018194 0.841478
O O1 0.028917 0.708530 0.411480
O O2 0.000000 0.750229 0.250000
O O3 0.968025 0.819564 0.414098
O O4 0.471323 0.769928 0.103796
O O5 0.500000 0.657541 0.250000
O O6 0.012107 0.631125 0.573661
O O7 0.070908 0.595689 0.380527
O O8 0.444103 0.557411 0.430925
O O9 0.000000 0.594565 0.750000
O O10 0.887999 0.519664 0.676126
O O11 0.000000 0.551971 0.250000
O O12 0.500000 0.104927 0.750000
O O13 0.749211 0.132807 0.465654
O O14 0.376077 0.041566 0.679712
O O15 0.940051 0.037531 0.448640
O O16 0.524898 0.164035 0.421536
O O17 0.000000 0.219778 0.250000
O O18 0.500000 0.137969 0.250000
O O19 0.198081 0.072684 0.524530
O O20 0.000000 0.999168 0.750000
#
# Coordination Sequence:
#
# PCOD9228944 Si02
#       8
#     4   4   4   4   4   4   4   4
#     4  10  22  48  68  89 125 169 219 274 331 383
#     4  10  22  38  64  93 127 170 219 271 320 377
#     4  10  20  37  61  96 137 174 215 262 322 379
#     4  10  19  36  61  94 131 178 215 260 319 379
#     4  12  26  40  65  98 132 171 206 262 326 395
#     4  11  25  43  69  97 124 164 217 267 329 396
#     4  11  24  44  67  92 128 169 209 266 327 392
#     4  12  23  44  63  93 136 168 210 264 321 390
#
# _framework density 22.384174999999999
#
# number of rings (size 3 to 8) (size 9 to 14) (size 15 to 20)
#    0.000    1.250    2.500    4.125    3.500    1.500 
#    0.000   11.875    0.000    3.000    0.000    0.000 
#    0.000    0.000    0.000    0.000    0.000    0.000 
#
# Total GULP energy -178899.667476 kJ/mol
# GULP energy per Si atom -5590.614609 kJ/mol
# Density = 2.233323 g / cm^3
# Si number density = 22.384175 Si / 1000 Ang^3
#
#
#
# Elastic Constant Matrix: (Units=GPa)
#
#
# Indices 1 2 3 4 5 6 
#
# 1 46.9534 28.6996 14.5433 0.0000 9.9837 0.0000
# 2 28.6996 87.1623 38.9784 0.0000 27.3106 0.0000
# 3 14.5433 38.9784 117.3434 0.0000 14.7320 0.0000
# 4 0.0000 0.0000 0.0000 29.9661 0.0000 2.6251
# 5 9.9837 27.3106 14.7320 0.0000 28.0190 0.0000
# 6 0.0000 0.0000 0.0000 2.6251 0.0000 9.4974
#
#
#
# Elastic Compliance Matrix: (Units=1/GPa)
#
#
# Indices 1 2 3 4 5 6 
#
# 1 0.026718 -0.008198 -0.000424 0.000000 -0.001306 0.000000
# 2 -0.008198 0.020694 -0.003953 0.000000 -0.015171 0.000000
# 3 -0.000424 -0.003953 0.010048 0.000000 -0.001279 0.000000
# 4 0.000000 0.000000 0.000000 0.034199 0.000000 -0.009453
# 5 -0.001306 -0.015171 -0.001279 0.000000 0.051615 0.000000
# 6 0.000000 0.000000 0.000000 -0.009453 0.000000 0.107905
#
#
# Mechanical properties :
#
#
# Convention : Reuss Voigt Hill
#
# Bulk Modulus (GPa) = 30.95181 46.21131 38.58156
# Shear Modulus (GPa) = 17.41555 24.77900 21.09727
#
# Velocity S-wave (km/s) = 2.79234 3.33075 3.07336
# Velocity P-wave (km/s) = 4.92482 5.95662 5.46512
#
# Compressibility (1/GPa) = 0.03230829
#
# Stress axis : x y z
#
# Youngs Moduli (GPa) = 37.42806 48.32410 99.51972
#
# Poissons Ratio (x) = 0.39618 0.04221
# Poissons Ratio (y) = 0.30685 0.39342
# Poissons Ratio (z) = 0.01587 0.19103
#
# Static dielectric constant tensor:
#      x y z
#    x 2.119180 0.000000 0.329700 
#    y 0.000000 1.777270 0.000000 
#    z 0.329700 0.000000 2.343420 
# 
# From -- ./inp_files/48300.got.cif
#   From: 2010.05.17/outbox.cif.g08.bks.cpg/sg13_25_cif.got.tgz:48300.got - 2010.06.03 16:44:36.
