data_PCOD9228024
_publ_section_title
;
Structure prediction by ZEFSAII (Michael W. Deem and Ramdas Pophale) SiO2 
 PCOD9228024
Probable space group: P 2/C
;
_chemical_formula_sum "Si O2"
_cell_formula_units_Z 32
_cell_length_a 14.459166
_cell_length_b 8.806421
_cell_length_c 13.773948
_cell_angle_alpha 90.000000
_cell_angle_beta 120.545193
_cell_angle_gamma 90.000000
_cell_volume 1510.495902
_symmetry_space_group_name_H-M "P 2/C"
_symmetry_group_IT_number 13
_symmetry_cell_setting 'monoclinic'
loop_
_space_group_symop_operation_xyz
x,y,z
-x,y,1/2-z
-x,-y,-z
x,-y,1/2+z
loop_
_atom_site_type_symbol
_atom_site_label
_atom_site_fract_x
_atom_site_fract_y
_atom_site_fract_z
Si Si1 0.330519 0.507203 0.382597
Si Si2 0.040389 0.589799 0.381407
Si Si3 0.383835 0.192058 0.171604
Si Si4 0.456393 0.476499 0.632249
Si Si5 0.115378 0.074915 0.358605
Si Si6 0.768273 0.776447 0.069063
Si Si7 0.978433 0.259399 0.033843
Si Si8 0.787929 0.756376 0.759614
O O1 0.367589 0.430594 0.504962
O O2 0.435884 0.496253 0.372444
O O3 0.296070 0.680268 0.385640
O O4 0.234577 0.419030 0.278772
O O5 0.162683 0.648938 0.450174
O O6 0.038777 0.417996 0.418664
O O7 0.000000 0.594550 0.250000
O O8 0.972242 0.697382 0.417472
O O9 0.500000 0.120417 0.250000
O O10 0.408095 0.366250 0.149992
O O11 0.311866 0.189861 0.229113
O O12 0.313363 0.134662 0.044504
O O13 0.500000 0.386579 0.750000
O O14 0.099934 0.134577 0.460452
O O15 0.199935 0.163871 0.337628
O O16 0.000000 0.109765 0.250000
O O17 0.143440 0.900200 0.357341
O O18 0.102457 0.217461 0.122864
#
# Coordination Sequence:
#
# PCOD9228024 Si02
#       8
#     4   4   4   4   4   4   4   4
#     4  10  19  31  63  90 115 153 209 254 303 362
#     4  11  21  38  61  95 127 157 203 263 309 351
#     4  10  19  37  63  86 117 164 208 250 301 378
#     4   9  17  33  56  89 120 153 194 261 308 353
#     4  10  23  41  61  88 127 167 205 247 312 382
#     4  11  22  38  59  91 125 160 204 252 312 367
#     4  10  22  39  62  92 128 163 204 256 305 378
#     4  11  19  39  64  90 117 168 212 244 308 381
#
# _framework density 21.185096000000001
#
# number of rings (size 3 to 8) (size 9 to 14) (size 15 to 20)
#    0.000    1.750    3.750    3.000    0.000    0.500 
#    2.250    0.625    0.000    0.000    0.000    0.000 
#    0.000    0.000    0.000    0.000    0.000    0.000 
#
# Total GULP energy -178365.759479 kJ/mol
# GULP energy per Si atom -5573.929984 kJ/mol
# Density = 2.113688 g / cm^3
# Si number density = 21.185096 Si / 1000 Ang^3
#
#
#
# Elastic Constant Matrix: (Units=GPa)
#
#
# Indices 1 2 3 4 5 6 
#
# 1 130.2732 31.3689 21.7813 0.0000 -15.6205 0.0000
# 2 31.3689 35.8218 -2.2042 0.0000 -3.5892 0.0000
# 3 21.7813 -2.2042 65.9560 0.0000 -28.2464 0.0000
# 4 0.0000 0.0000 0.0000 10.1557 0.0000 3.2435
# 5 -15.6205 -3.5892 -28.2464 0.0000 23.3931 0.0000
# 6 0.0000 0.0000 0.0000 3.2435 0.0000 8.8781
#
#
#
# Elastic Compliance Matrix: (Units=1/GPa)
#
#
# Indices 1 2 3 4 5 6 
#
# 1 0.010661 -0.009292 -0.002885 0.000000 0.002210 0.000000
# 2 -0.009292 0.037572 0.008565 0.000000 0.009902 0.000000
# 3 -0.002885 0.008565 0.033420 0.000000 0.039742 0.000000
# 4 0.000000 0.000000 0.000000 0.111474 0.000000 -0.040725
# 5 0.002210 0.009902 0.039742 0.000000 0.093729 0.000000
# 6 0.000000 0.000000 0.000000 -0.040725 0.000000 0.127514
#
#
# Mechanical properties :
#
#
# Convention : Reuss Voigt Hill
#
# Bulk Modulus (GPa) = 13.43562 37.10475 25.27019
# Shear Modulus (GPa) = 11.20064 20.55906 15.87985
#
# Velocity S-wave (km/s) = 2.30185 3.11858 2.74081
# Velocity P-wave (km/s) = 3.66340 5.52449 4.68724
#
# Compressibility (1/GPa) = 0.07442900
#
# Stress axis : x y z
#
# Youngs Moduli (GPa) = 93.80113 26.61572 29.92199
#
# Poissons Ratio (x) = 0.24731 0.08632
# Poissons Ratio (y) = 0.87157 -0.25627
# Poissons Ratio (z) = 0.27060 -0.22795
#
# Static dielectric constant tensor:
#      x y z
#    x 1.784120 0.000000 0.014620 
#    y 0.000000 1.768250 0.000000 
#    z 0.014620 0.000000 1.881550 
# 
# From -- ./inp_files/53088.got.cif
#   From: 2010.05.17/outbox.cif.g08.bks.cpg/sg13_27_cif.got.tgz:53088.got - 2010.06.03 16:44:36.
