data_PCOD9228948
_publ_section_title
;
Structure prediction by ZEFSAII (Michael W. Deem and Ramdas Pophale) SiO2 
 PCOD9228948
Probable space group: P 2/C
;
_chemical_formula_sum "Si O2"
_cell_formula_units_Z 28
_cell_length_a 21.358407
_cell_length_b 8.677867
_cell_length_c 20.255892
_cell_angle_alpha 90.000000
_cell_angle_beta 20.740635
_cell_angle_gamma 90.000000
_cell_volume 1329.553991
_symmetry_space_group_name_H-M "P 2/C"
_symmetry_group_IT_number 13
_symmetry_cell_setting 'monoclinic'
loop_
_space_group_symop_operation_xyz
x,y,z
-x,y,1/2-z
-x,-y,-z
x,-y,1/2+z
loop_
_atom_site_type_symbol
_atom_site_label
_atom_site_fract_x
_atom_site_fract_y
_atom_site_fract_z
Si Si1 0.806887 0.545469 0.105927
Si Si2 0.708639 0.024269 0.038505
Si Si3 0.104844 0.674261 0.088391
Si Si4 0.836484 0.343055 0.196026
Si Si5 0.966724 0.863861 0.104747
Si Si6 0.262828 0.893669 0.352128
Si Si7 0.662881 0.939527 0.936000
O O1 0.748784 0.461019 0.230702
O O2 0.734484 0.716194 0.170157
O O3 0.773627 0.437083 0.075559
O O4 0.021027 0.567856 0.899796
O O5 0.500000 0.048485 0.250000
O O6 0.759053 0.907018 0.047058
O O7 0.798043 0.185432 0.969938
O O8 0.739590 0.960115 0.934756
O O9 0.982713 0.758909 0.154255
O O10 0.000000 0.589151 0.250000
O O11 0.711533 0.227904 0.359151
O O12 0.958379 0.237134 0.028296
O O13 0.771794 0.932077 0.288203
O O14 0.102955 0.005403 0.980973
O O15 0.453204 0.964581 0.145028
#
# Coordination Sequence:
#
# PCOD9228948 Si02
#       7
#     4   4   4   4   4   4   4
#     4  10  22  39  54  83 125 155 192 237 291 362
#     4   9  20  38  59  89 114 141 199 253 286 340
#     4  10  19  36  62  86 110 157 196 233 303 351
#     4  10  22  39  59  83 120 159 193 241 290 348
#     4  10  20  39  62  87 115 149 200 252 280 334
#     4  10  22  37  61  89 118 150 194 248 288 350
#     4  11  20  36  65  88 113 153 198 241 298 334
#
# _framework density 21.059695000000001
#
# number of rings (size 3 to 8) (size 9 to 14) (size 15 to 20)
#    0.000    2.000    2.857    0.429    0.000    2.286 
#    0.000    3.571    9.429    0.000    0.000    0.000 
#    0.000    0.000    0.000    0.000    0.000    0.000 
#
# Total GULP energy -156322.362754 kJ/mol
# GULP energy per Si atom -5582.941527 kJ/mol
# Density = 2.101176 g / cm^3
# Si number density = 21.059695 Si / 1000 Ang^3
#
#
#
# Elastic Constant Matrix: (Units=GPa)
#
#
# Indices 1 2 3 4 5 6 
#
# 1 67.7012 27.9159 16.7834 0.0000 15.1948 0.0000
# 2 27.9159 100.0720 20.5472 0.0000 2.3597 0.0000
# 3 16.7834 20.5472 58.6790 0.0000 9.9347 0.0000
# 4 0.0000 0.0000 0.0000 22.2602 0.0000 1.6071
# 5 15.1948 2.3597 9.9347 0.0000 24.2584 0.0000
# 6 0.0000 0.0000 0.0000 1.6071 0.0000 20.4539
#
#
#
# Elastic Compliance Matrix: (Units=1/GPa)
#
#
# Indices 1 2 3 4 5 6 
#
# 1 0.019757 -0.004821 -0.002092 0.000000 -0.011050 0.000000
# 2 -0.004821 0.011950 -0.003352 0.000000 0.003230 0.000000
# 3 -0.002092 -0.003352 0.019918 0.000000 -0.006521 0.000000
# 4 0.000000 0.000000 0.000000 0.045179 0.000000 -0.003550
# 5 -0.011050 0.003230 -0.006521 0.000000 0.050500 0.000000
# 6 0.000000 0.000000 0.000000 -0.003550 0.000000 0.049169
#
#
# Mechanical properties :
#
#
# Convention : Reuss Voigt Hill
#
# Bulk Modulus (GPa) = 32.16051 39.66058 35.91054
# Shear Modulus (GPa) = 21.99051 24.14155 23.06603
#
# Velocity S-wave (km/s) = 3.23491 3.38944 3.31308
# Velocity P-wave (km/s) = 5.40899 5.84731 5.63241
#
# Compressibility (1/GPa) = 0.03109403
#
# Stress axis : x y z
#
# Youngs Moduli (GPa) = 50.61374 83.68257 50.20559
#
# Poissons Ratio (x) = 0.40347 0.10503
# Poissons Ratio (y) = 0.24403 0.16831
# Poissons Ratio (z) = 0.10588 0.28053
#
# Static dielectric constant tensor:
#      x y z
#    x 1.815440 0.000000 0.024330 
#    y 0.000000 1.758400 0.000000 
#    z 0.024330 0.000000 1.759850 
# 
# From -- ./inp_files/82132.got.cif
#   From: 2010.05.17/outbox.cif.g08.bks.cpg/sg13_42_cif.got.tgz:82132.got - 2010.06.03 16:44:36.
