data_PCOD9228228
_publ_section_title
;
Structure prediction by ZEFSAII (Michael W. Deem and Ramdas Pophale) SiO2 
 PCOD9228228
Probable space group: P 2/C
;
_chemical_formula_sum "Si O2"
_cell_formula_units_Z 32
_cell_length_a 15.081973
_cell_length_b 20.129680
_cell_length_c 15.797151
_cell_angle_alpha 90.000000
_cell_angle_beta 18.587748
_cell_angle_gamma 90.000000
_cell_volume 1528.737893
_symmetry_space_group_name_H-M "P 2/C"
_symmetry_group_IT_number 13
_symmetry_cell_setting 'monoclinic'
loop_
_space_group_symop_operation_xyz
x,y,z
-x,y,1/2-z
-x,-y,-z
x,-y,1/2+z
loop_
_atom_site_type_symbol
_atom_site_label
_atom_site_fract_x
_atom_site_fract_y
_atom_site_fract_z
Si Si1 0.271418 0.379438 0.124914
Si Si2 0.188349 0.128970 0.495807
Si Si3 0.282262 0.298599 0.869140
Si Si4 0.181826 0.407517 0.401775
Si Si5 0.810418 0.843207 0.005305
Si Si6 0.811816 0.726366 0.503642
Si Si7 0.812431 0.986746 0.003567
Si Si8 0.765075 0.525986 0.393979
O O1 0.232417 0.400680 0.256918
O O2 0.289359 0.447367 0.055937
O O3 0.991457 0.339057 0.358362
O O4 0.543544 0.334686 0.862149
O O5 0.500000 0.129267 0.250000
O O6 0.142865 0.200880 0.495229
O O7 0.142034 0.057881 0.492271
O O8 0.000000 0.128862 0.750000
O O9 0.500000 0.297994 0.750000
O O10 0.187080 0.222678 0.940185
O O11 0.135913 0.334654 0.482072
O O12 0.917092 0.451507 0.669313
O O13 0.472056 0.438193 0.172940
O O14 0.500000 0.848216 0.250000
O O15 0.870618 0.915051 0.992804
O O16 0.000000 0.833120 0.750000
O O17 0.500000 0.722891 0.750000
O O18 0.000000 0.720813 0.250000
O O19 0.500000 0.987356 0.250000
O O20 0.000000 0.986504 0.750000
O O21 0.000000 0.543852 0.250000
#
# Coordination Sequence:
#
# PCOD9228228 Si02
#       8
#     4   4   4   4   4   4   4   4
#     4  12  25  40  58  82 111 142 175 221 272 322
#     4   8  14  24  41  68 100 132 167 211 259 305
#     4  11  21  37  57  80 107 142 183 222 265 319
#     4  12  24  40  58  83 112 141 176 221 271 322
#     4   9  16  27  46  72 102 135 172 219 265 307
#     4  10  19  33  54  78 106 140 178 217 260 313
#     4   8  13  22  38  65 100 131 163 210 266 304
#     4  12  24  41  62  82 105 139 180 223 267 320
#
# _framework density 20.932299
#
# number of rings (size 3 to 8) (size 9 to 14) (size 15 to 20)
#    0.000    1.750    0.000    7.125    0.000    0.000 
#    0.000    0.000    0.000    0.000    0.000    1.750 
#    0.000    0.000    0.000    1.500    0.000    0.000 
#
# Total GULP energy -178560.938379 kJ/mol
# GULP energy per Si atom -5580.029324 kJ/mol
# Density = 2.088466 g / cm^3
# Si number density = 20.932299 Si / 1000 Ang^3
#
#
#
# Elastic Constant Matrix: (Units=GPa)
#
#
# Indices 1 2 3 4 5 6 
#
# 1 19.7544 7.9480 -5.8181 0.0000 1.2150 0.0000
# 2 7.9480 215.2075 32.7815 0.0000 -3.2636 0.0000
# 3 -5.8181 32.7815 147.6155 0.0000 -4.4386 0.0000
# 4 0.0000 0.0000 0.0000 30.4352 0.0000 4.7080
# 5 1.2150 -3.2636 -4.4386 0.0000 18.9121 0.0000
# 6 0.0000 0.0000 0.0000 4.7080 0.0000 5.3996
#
#
#
# Elastic Compliance Matrix: (Units=1/GPa)
#
#
# Indices 1 2 3 4 5 6 
#
# 1 0.052507 -0.002368 0.002499 0.000000 -0.003195 0.000000
# 2 -0.002368 0.004923 -0.001165 0.000000 0.000728 0.000000
# 3 0.002499 -0.001165 0.007171 0.000000 0.001322 0.000000
# 4 0.000000 0.000000 0.000000 0.037979 0.000000 -0.033115
# 5 -0.003195 0.000728 0.001322 0.000000 0.053517 0.000000
# 6 0.000000 0.000000 0.000000 -0.033115 0.000000 0.214073
#
#
# Mechanical properties :
#
#
# Convention : Reuss Voigt Hill
#
# Bulk Modulus (GPa) = 15.99139 50.26670 33.12905
# Shear Modulus (GPa) = 12.72001 34.12712 23.42356
#
# Velocity S-wave (km/s) = 2.46778 4.04215 3.34880
# Velocity P-wave (km/s) = 3.97191 6.77136 5.55101
#
# Compressibility (1/GPa) = 0.06253363
#
# Stress axis : x y z
#
# Youngs Moduli (GPa) = 19.04507 203.14502 139.44601
#
# Poissons Ratio (x) = 0.48112 -0.34853
# Poissons Ratio (y) = 0.04511 0.16240
# Poissons Ratio (z) = -0.04760 0.23659
#
# Static dielectric constant tensor:
#      x y z
#    x 1.735590 0.000000 0.006470 
#    y 0.000000 1.860980 0.000000 
#    z 0.006470 0.000000 1.701780 
# 
# From -- ./inp_files/53971.got.cif
#   From: 2010.05.17/outbox.cif.g08.bks.cpg/sg13_27_cif.got.tgz:53971.got - 2010.06.03 16:44:36.
