data_PCOD9228316
_publ_section_title
;
Structure prediction by ZEFSAII (Michael W. Deem and Ramdas Pophale) SiO2 
 PCOD9228316
Probable space group: P 2/C
;
_chemical_formula_sum "Si O2"
_cell_formula_units_Z 20
_cell_length_a 6.268678
_cell_length_b 10.253304
_cell_length_c 19.460714
_cell_angle_alpha 90.000000
_cell_angle_beta 114.520143
_cell_angle_gamma 90.000000
_cell_volume 1138.025155
_symmetry_space_group_name_H-M "P 2/C"
_symmetry_group_IT_number 13
_symmetry_cell_setting 'monoclinic'
loop_
_space_group_symop_operation_xyz
x,y,z
-x,y,1/2-z
-x,-y,-z
x,-y,1/2+z
loop_
_atom_site_type_symbol
_atom_site_label
_atom_site_fract_x
_atom_site_fract_y
_atom_site_fract_z
Si Si1 0.077086 0.619656 0.960882
Si Si2 0.424011 0.284564 0.940014
Si Si3 0.071761 0.130835 0.970881
Si Si4 0.334266 0.218006 0.669637
Si Si5 0.980293 0.546872 0.329142
O O1 0.973460 0.585041 0.872609
O O2 0.357976 0.639579 0.996930
O O3 0.000000 0.500000 0.000000
O O4 0.982737 0.749757 0.984546
O O5 0.326075 0.167465 0.974355
O O6 0.521363 0.232690 0.880878
O O7 0.208185 0.378826 0.891172
O O8 0.897194 0.139913 0.882192
O O9 0.000000 0.000000 0.000000
O O10 0.500000 0.161062 0.750000
O O11 0.237660 0.358594 0.682283
O O12 0.000000 0.531368 0.250000
#
# Coordination Sequence:
#
# PCOD9228316 Si02
#       5
#     4   4   4   4   4
#     4  11  20  34  57  88 110 145 198 239 291 365
#     4  10  19  34  60  80 115 147 189 238 290 343
#     4  10  23  38  58  80 115 154 203 243 290 357
#     4  10  19  33  57  87 110 145 195 235 292 362
#     4  11  20  31  54  86 118 143 181 243 300 347
#
# _framework density 17.574301999999999
#
# number of rings (size 3 to 8) (size 9 to 14) (size 15 to 20)
#    0.000    1.600    8.000    0.600    0.000    3.200 
#    0.000    0.000    8.800    0.000    0.000    0.000 
#    0.000    0.000    0.000    0.000    0.000    0.000 
#
# Total GULP energy -111423.617175 kJ/mol
# GULP energy per Si atom -5571.180859 kJ/mol
# Density = 1.753430 g / cm^3
# Si number density = 17.574302 Si / 1000 Ang^3
#
#
#
# Elastic Constant Matrix: (Units=GPa)
#
#
# Indices 1 2 3 4 5 6 
#
# 1 104.5891 35.5126 29.7684 0.0000 -11.7616 0.0000
# 2 35.5126 98.3740 41.3169 0.0000 -14.4378 0.0000
# 3 29.7684 41.3169 107.1211 0.0000 -12.8385 0.0000
# 4 0.0000 0.0000 0.0000 17.4716 0.0000 -7.8412
# 5 -11.7616 -14.4378 -12.8385 0.0000 32.1302 0.0000
# 6 0.0000 0.0000 0.0000 -7.8412 0.0000 22.3248
#
#
#
# Elastic Compliance Matrix: (Units=1/GPa)
#
#
# Indices 1 2 3 4 5 6 
#
# 1 0.011323 -0.003061 -0.001716 0.000000 0.002084 0.000000
# 2 -0.003061 0.013407 -0.003920 0.000000 0.003337 0.000000
# 3 -0.001716 -0.003920 0.011593 0.000000 0.002242 0.000000
# 4 0.000000 0.000000 0.000000 0.067946 0.000000 0.023865
# 5 0.002084 0.003337 0.002242 0.000000 0.034282 0.000000
# 6 0.000000 0.000000 0.000000 0.023865 0.000000 0.053175
#
#
# Mechanical properties :
#
#
# Convention : Reuss Voigt Hill
#
# Bulk Modulus (GPa) = 52.83270 58.14221 55.48745
# Shear Modulus (GPa) = 23.20927 27.95107 25.58017
#
# Velocity S-wave (km/s) = 3.63800 3.99237 3.81930
# Velocity P-wave (km/s) = 6.91191 7.37615 7.14780
#
# Compressibility (1/GPa) = 0.01892767
#
# Stress axis : x y z
#
# Youngs Moduli (GPa) = 88.31257 74.58986 86.25868
#
# Poissons Ratio (x) = 0.22832 0.14805
# Poissons Ratio (y) = 0.27033 0.33816
# Poissons Ratio (z) = 0.15157 0.29242
#
# Static dielectric constant tensor:
#      x y z
#    x 1.666270 0.000000 0.009970 
#    y 0.000000 1.608750 0.000000 
#    z 0.009970 0.000000 1.607490 
# 
# From -- ./inp_files/60588.got.cif
#   From: 2010.05.17/outbox.cif.g08.bks.cpg/sg13_31_cif.got.tgz:60588.got - 2010.06.03 16:44:36.
