data_PCOD9228141
_publ_section_title
;
Structure prediction by ZEFSAII (Michael W. Deem and Ramdas Pophale) SiO2 
 PCOD9228141
Probable space group: P 2/C
;
_chemical_formula_sum "Si O2"
_cell_formula_units_Z 26
_cell_length_a 12.520204
_cell_length_b 13.512345
_cell_length_c 8.818316
_cell_angle_alpha 90.000000
_cell_angle_beta 54.119419
_cell_angle_gamma 90.000000
_cell_volume 1208.764355
_symmetry_space_group_name_H-M "P 2/C"
_symmetry_group_IT_number 13
_symmetry_cell_setting 'monoclinic'
loop_
_space_group_symop_operation_xyz
x,y,z
-x,y,1/2-z
-x,-y,-z
x,-y,1/2+z
loop_
_atom_site_type_symbol
_atom_site_label
_atom_site_fract_x
_atom_site_fract_y
_atom_site_fract_z
Si Si1 0.006679 0.838827 0.082607
Si Si2 0.789155 0.805003 0.814568
Si Si3 0.306576 0.452445 0.663757
Si Si4 0.581245 0.929297 0.822348
Si Si5 0.833388 0.956936 0.019492
Si Si6 0.500000 0.557310 0.750000
Si Si7 0.844146 0.389164 0.424352
O O1 0.000000 0.789371 0.250000
O O2 0.875552 0.876846 0.110318
O O3 0.099099 0.775516 0.897739
O O4 0.083320 0.942970 0.043716
O O5 0.656713 0.841854 0.846396
O O6 0.780980 0.717262 0.937991
O O7 0.846200 0.902451 0.849479
O O8 0.408831 0.495438 0.706333
O O9 0.395092 0.395159 0.460007
O O10 0.232067 0.534803 0.623999
O O11 0.193795 0.406239 0.867286
O O12 0.500000 0.887640 0.750000
O O13 0.687468 0.004506 0.663179
O O14 0.500000 0.000000 0.000000
O O15 0.000000 0.391162 0.250000
#
# Coordination Sequence:
#
# PCOD9228141 Si02
#       7
#     4   4   4   4   4   2   4
#     4  10  19  32  56  85 115 158 205 257 307 368
#     4  11  23  39  59  89 124 165 213 261 316 381
#     4   9  19  38  67  94 129 167 209 270 336 396
#     4  11  22  39  60  87 127 169 208 251 312 388
#     4  10  19  34  57  82 118 160 203 248 311 376
#     4   8  16  38  66  96 118 154 212 246 312 412
#     4  11  22  40  65  96 129 172 220 276 338 395
#
# _framework density 21.509567000000001
#
# number of rings (size 3 to 8) (size 9 to 14) (size 15 to 20)
#    0.000    1.846    1.538    4.615    2.154    0.000 
#    1.385   16.154    0.000    0.000    0.000    0.000 
#    0.000    0.000    0.000    0.000    0.000    0.000 
#
# Total GULP energy -144891.682730 kJ/mol
# GULP energy per Si atom -5572.757028 kJ/mol
# Density = 2.146061 g / cm^3
# Si number density = 21.509567 Si / 1000 Ang^3
#
#
#
# Elastic Constant Matrix: (Units=GPa)
#
#
# Indices 1 2 3 4 5 6 
#
# 1 113.6888 15.5209 21.4659 0.0000 6.3122 0.0000
# 2 15.5209 44.1655 22.8680 0.0000 4.9244 0.0000
# 3 21.4659 22.8680 160.2629 0.0000 8.7212 0.0000
# 4 0.0000 0.0000 0.0000 15.5780 0.0000 7.4270
# 5 6.3122 4.9244 8.7212 0.0000 36.4646 0.0000
# 6 0.0000 0.0000 0.0000 7.4270 0.0000 8.9443
#
#
#
# Elastic Compliance Matrix: (Units=1/GPa)
#
#
# Indices 1 2 3 4 5 6 
#
# 1 0.009384 -0.002763 -0.000805 0.000000 -0.001059 0.000000
# 2 -0.002763 0.025489 -0.003147 0.000000 -0.002211 0.000000
# 3 -0.000805 -0.003147 0.006855 0.000000 -0.001075 0.000000
# 4 0.000000 0.000000 0.000000 0.106260 0.000000 -0.088234
# 5 -0.001059 -0.002211 -0.001075 0.000000 0.028163 0.000000
# 6 0.000000 0.000000 0.000000 -0.088234 0.000000 0.185069
#
#
# Mechanical properties :
#
#
# Convention : Reuss Voigt Hill
#
# Bulk Modulus (GPa) = 35.33717 48.64744 41.99230
# Shear Modulus (GPa) = 13.01806 29.41488 21.21647
#
# Velocity S-wave (km/s) = 2.46279 3.70202 3.14407
# Velocity P-wave (km/s) = 4.95494 6.39836 5.72234
#
# Compressibility (1/GPa) = 0.02829881
#
# Stress axis : x y z
#
# Youngs Moduli (GPa) = 106.56534 39.23277 145.87720
#
# Poissons Ratio (x) = 0.10839 0.11744
# Poissons Ratio (y) = 0.29443 0.45902
# Poissons Ratio (z) = 0.08579 0.12345
#
# Static dielectric constant tensor:
#      x y z
#    x 1.814650 0.000000 0.026240 
#    y 0.000000 1.879370 0.000000 
#    z 0.026240 0.000000 1.793690 
# 
# From -- ./inp_files/16421.got.cif
#   From: 2010.05.17/outbox.cif.g08.bks.cpg/sg13_9_cif.got.tgz:16421.got - 2010.06.03 16:44:36.
