data_PCOD9228275
_publ_section_title
;
Structure prediction by ZEFSAII (Michael W. Deem and Ramdas Pophale) SiO2 
 PCOD9228275
Probable space group: P 2/C
;
_chemical_formula_sum "Si O2"
_cell_formula_units_Z 20
_cell_length_a 9.165781
_cell_length_b 5.115216
_cell_length_c 22.087597
_cell_angle_alpha 90.000000
_cell_angle_beta 124.752637
_cell_angle_gamma 90.000000
_cell_volume 850.850577
_symmetry_space_group_name_H-M "P 2/C"
_symmetry_group_IT_number 13
_symmetry_cell_setting 'monoclinic'
loop_
_space_group_symop_operation_xyz
x,y,z
-x,y,1/2-z
-x,-y,-z
x,-y,1/2+z
loop_
_atom_site_type_symbol
_atom_site_label
_atom_site_fract_x
_atom_site_fract_y
_atom_site_fract_z
Si Si1 0.335122 0.924412 0.919359
Si Si2 0.627801 0.862071 0.902966
Si Si3 0.798355 0.365776 0.006265
Si Si4 0.026975 0.822112 0.186006
Si Si5 0.162709 0.320263 0.152796
O O1 0.422196 0.881894 0.874611
O O2 0.175166 0.128386 0.883807
O O3 0.262816 0.676774 0.938604
O O4 0.500000 0.000000 0.000000
O O5 0.716846 0.633446 0.963920
O O6 0.664949 0.771118 0.843473
O O7 0.722325 0.134899 0.944737
O O8 0.009231 0.332570 0.063892
O O9 0.000000 0.767354 0.250000
O O10 0.139890 0.598919 0.179437
O O11 0.116166 0.098197 0.190387
#
# Coordination Sequence:
#
# PCOD9228275 Si02
#       5
#     4   4   4   4   4
#     4   9  20  37  60  87 117 154 196 242 296 359
#     4  11  20  33  57  90 121 149 191 251 300 349
#     4  10  19  33  55  89 123 155 187 236 303 368
#     4  11  24  42  61  82 117 164 206 245 302 376
#     4  11  21  37  59  86 116 156 200 246 299 360
#
# _framework density 23.505887999999999
#
# number of rings (size 3 to 8) (size 9 to 14) (size 15 to 20)
#    0.000    1.600    0.000    7.200    0.000    4.800 
#    0.000    1.000    0.000    2.400    0.000    0.000 
#    0.000    0.000    0.000    0.000    0.000    0.000 
#
# Total GULP energy -111700.110515 kJ/mol
# GULP energy per Si atom -5585.005526 kJ/mol
# Density = 2.345239 g / cm^3
# Si number density = 23.505888 Si / 1000 Ang^3
#
#
#
# Elastic Constant Matrix: (Units=GPa)
#
#
# Indices 1 2 3 4 5 6 
#
# 1 69.8757 -5.8413 -2.6306 0.0000 -24.4151 0.0000
# 2 -5.8413 112.0514 9.9316 0.0000 0.5313 0.0000
# 3 -2.6306 9.9316 57.0115 0.0000 -11.9862 0.0000
# 4 0.0000 0.0000 0.0000 8.8993 0.0000 -6.3225
# 5 -24.4151 0.5313 -11.9862 0.0000 24.7643 0.0000
# 6 0.0000 0.0000 0.0000 -6.3225 0.0000 11.5264
#
#
#
# Elastic Compliance Matrix: (Units=1/GPa)
#
#
# Indices 1 2 3 4 5 6 
#
# 1 0.023996 0.000533 0.006664 0.000000 0.026871 0.000000
# 2 0.000533 0.009102 -0.001661 0.000000 -0.000474 0.000000
# 3 0.006664 -0.001661 0.021738 0.000000 0.017127 0.000000
# 4 0.000000 0.000000 0.000000 0.184118 0.000000 0.100992
# 5 0.026871 -0.000474 0.017127 0.000000 0.075173 0.000000
# 6 0.000000 0.000000 0.000000 0.100992 0.000000 0.142154
#
#
# Mechanical properties :
#
#
# Convention : Reuss Voigt Hill
#
# Bulk Modulus (GPa) = 15.17285 26.87311 21.02298
# Shear Modulus (GPa) = 10.70260 24.86992 17.78626
#
# Velocity S-wave (km/s) = 2.13613 3.25627 2.75375
# Velocity P-wave (km/s) = 3.54302 5.05915 4.36738
#
# Compressibility (1/GPa) = 0.06590719
#
# Stress axis : x y z
#
# Youngs Moduli (GPa) = 41.67444 109.86979 46.00274
#
# Poissons Ratio (x) = -0.05854 -0.30655
# Poissons Ratio (y) = -0.02221 0.07639
# Poissons Ratio (z) = -0.27771 0.18244
#
# Static dielectric constant tensor:
#      x y z
#    x 2.120370 0.000000 -0.000140 
#    y 0.000000 1.866530 0.000000 
#    z -0.000140 0.000000 1.927430 
# 
# From -- ./inp_files/84048.got.cif
#   From: 2010.05.17/outbox.cif.g08.bks.cpg/sg13_43_cif.got.tgz:84048.got - 2010.06.03 16:44:36.
