data_PCOD9228055
_publ_section_title
;
Structure prediction by ZEFSAII (Michael W. Deem and Ramdas Pophale) SiO2 
 PCOD9228055
Probable space group: P 2/C
;
_chemical_formula_sum "Si O2"
_cell_formula_units_Z 28
_cell_length_a 22.958416
_cell_length_b 5.051355
_cell_length_c 10.307359
_cell_angle_alpha 90.000000
_cell_angle_beta 121.148783
_cell_angle_gamma 90.000000
_cell_volume 1023.017801
_symmetry_space_group_name_H-M "P 2/C"
_symmetry_group_IT_number 13
_symmetry_cell_setting 'monoclinic'
loop_
_space_group_symop_operation_xyz
x,y,z
-x,y,1/2-z
-x,-y,-z
x,-y,1/2+z
loop_
_atom_site_type_symbol
_atom_site_label
_atom_site_fract_x
_atom_site_fract_y
_atom_site_fract_z
Si Si1 0.500000 0.861464 0.250000
Si Si2 0.073933 0.415899 0.128749
Si Si3 0.218916 0.051498 0.441041
Si Si4 0.077118 0.085618 0.790552
Si Si5 0.350589 0.413850 0.379096
Si Si6 0.358167 0.910931 0.564366
Si Si7 0.211361 0.448108 0.749583
Si Si8 0.500000 0.500000 0.000000
O O1 0.565750 0.040615 0.297256
O O2 0.513272 0.686423 0.390333
O O3 0.083659 0.606546 0.264123
O O4 0.136451 0.495942 0.109276
O O5 0.077342 0.108173 0.165334
O O6 0.000000 0.500000 0.000000
O O7 0.294381 0.988289 0.581130
O O8 0.217145 0.339349 0.374365
O O9 0.148953 0.001616 0.438942
O O10 0.214782 0.840218 0.316929
O O11 0.000000 0.042459 0.750000
O O12 0.351647 0.116262 0.435597
O O13 0.276381 0.488691 0.236588
O O14 0.416346 0.489828 0.372303
O O15 0.353933 0.615607 0.505892
#
# Coordination Sequence:
#
# PCOD9228055 Si02
#       8
#     2   4   4   4   4   4   4   2
#     4  10  22  38  62  90 124 160 202 254 310 370
#     4  10  19  32  51  75 105 142 184 231 286 343
#     4   8  15  29  50  73 100 140 183 224 279 344
#     4  10  19  32  51  75 106 143 184 231 286 344
#     4   9  18  34  56  80 108 145 192 240 292 352
#     4   9  18  34  56  80 108 146 192 241 293 353
#     4   8  15  29  50  73 100 140 182 225 279 343
#     4  10  22  40  62  90 122 160 202 252 308 370
#
# _framework density 27.370003000000001
#
# number of rings (size 3 to 8) (size 9 to 14) (size 15 to 20)
#    0.000    2.857    0.000    0.857    0.000    4.571 
#    0.000    1.429    0.000    6.857    0.000    0.000 
#    0.000    0.000    0.000    0.000    0.000    0.000 
#
# Total GULP energy -156076.967491 kJ/mol
# GULP energy per Si atom -5574.177410 kJ/mol
# Density = 2.730771 g / cm^3
# Si number density = 27.370003 Si / 1000 Ang^3
#
#
#
# Elastic Constant Matrix: (Units=GPa)
#
#
# Indices 1 2 3 4 5 6 
#
# 1 253.9942 27.7388 52.5867 0.0000 72.7672 0.0000
# 2 27.7388 134.0181 33.4661 0.0000 -13.0385 0.0000
# 3 52.5867 33.4661 70.4703 0.0000 14.9981 0.0000
# 4 0.0000 0.0000 0.0000 26.9596 0.0000 -2.8322
# 5 72.7672 -13.0385 14.9981 0.0000 49.0369 0.0000
# 6 0.0000 0.0000 0.0000 -2.8322 0.0000 50.0458
#
#
#
# Elastic Compliance Matrix: (Units=1/GPa)
#
#
# Indices 1 2 3 4 5 6 
#
# 1 0.008071 -0.002205 -0.002462 0.000000 -0.011810 0.000000
# 2 -0.002205 0.009755 -0.004531 0.000000 0.007251 0.000000
# 3 -0.002462 -0.004531 0.018888 0.000000 -0.003327 0.000000
# 4 0.000000 0.000000 0.000000 0.037314 0.000000 0.002112
# 5 -0.011810 0.007251 -0.003327 0.000000 0.040864 0.000000
# 6 0.000000 0.000000 0.000000 0.002112 0.000000 0.020101
#
#
# Mechanical properties :
#
#
# Convention : Reuss Voigt Hill
#
# Bulk Modulus (GPa) = 54.59008 76.22954 65.40981
# Shear Modulus (GPa) = 31.34909 48.18786 39.76847
#
# Velocity S-wave (km/s) = 3.38802 4.20051 3.81595
# Velocity P-wave (km/s) = 5.94083 7.17201 6.58525
#
# Compressibility (1/GPa) = 0.01831835
#
# Stress axis : x y z
#
# Youngs Moduli (GPa) = 123.89762 102.51399 52.94476
#
# Poissons Ratio (x) = 0.22601 0.13037
# Poissons Ratio (y) = 0.27315 0.23987
# Poissons Ratio (z) = 0.30509 0.46444
#
# Static dielectric constant tensor:
#      x y z
#    x 2.185110 0.000000 0.120110 
#    y 0.000000 2.032420 0.000000 
#    z 0.120110 0.000000 2.236750 
# 
# From -- ./inp_files/40170.got.cif
#   From: 2010.05.17/outbox.cif.g08.bks.cpg/sg13_21_cif.got.tgz:40170.got - 2010.06.03 16:44:36.
