data_PCOD9228248
_publ_section_title
;
Structure prediction by ZEFSAII (Michael W. Deem and Ramdas Pophale) SiO2 
 PCOD9228248
Probable space group: P 2/C
;
_chemical_formula_sum "Si O2"
_cell_formula_units_Z 28
_cell_length_a 23.332316
_cell_length_b 9.317028
_cell_length_c 21.268248
_cell_angle_alpha 90.000000
_cell_angle_beta 18.942696
_cell_angle_gamma 90.000000
_cell_volume 1500.877914
_symmetry_space_group_name_H-M "P 2/C"
_symmetry_group_IT_number 13
_symmetry_cell_setting 'monoclinic'
loop_
_space_group_symop_operation_xyz
x,y,z
-x,y,1/2-z
-x,-y,-z
x,-y,1/2+z
loop_
_atom_site_type_symbol
_atom_site_label
_atom_site_fract_x
_atom_site_fract_y
_atom_site_fract_z
Si Si1 0.782115 0.868227 0.599447
Si Si2 0.340591 0.196810 0.768275
Si Si3 0.362881 0.871133 0.442263
Si Si4 0.214660 0.698063 0.028274
Si Si5 0.542074 0.842601 0.484752
Si Si6 0.806389 0.860258 0.327339
Si Si7 0.204556 0.376317 0.020311
O O1 0.735778 0.807511 0.578553
O O2 0.643575 0.797858 0.791690
O O3 0.986968 0.835925 0.400577
O O4 0.752809 0.040292 0.632297
O O5 0.525410 0.174168 0.612970
O O6 0.380138 0.240556 0.655780
O O7 0.234314 0.309534 0.920608
O O8 0.500000 0.940277 0.250000
O O9 0.291001 0.733598 0.480006
O O10 0.217389 0.984393 0.614853
O O11 0.262322 0.750283 0.048360
O O12 0.277515 0.537303 0.949255
O O13 0.000000 0.698005 0.250000
O O14 0.685621 0.853604 0.391104
O O15 0.500000 0.000000 0.500000
O O16 0.000000 0.381869 0.250000
#
# Coordination Sequence:
#
# PCOD9228248 Si02
#       7
#     4   4   4   4   4   4   4
#     4  10  20  37  59  85 113 149 185 235 285 326
#     4  10  20  38  53  82 120 141 186 233 272 339
#     4  10  19  33  54  83 112 142 185 237 280 330
#     4   9  20  36  58  84 112 142 192 240 276 332
#     4  10  21  37  54  84 121 146 185 232 270 337
#     4  11  20  35  62  86 111 148 190 226 288 333
#     4  10  20  37  58  81 110 146 188 237 282 329
#
# _framework density 18.655747999999999
#
# number of rings (size 3 to 8) (size 9 to 14) (size 15 to 20)
#    0.000    2.000    2.857    2.571    0.000    3.429 
#   10.286    0.714    0.000    2.571    0.000    0.000 
#    0.000    0.000    0.000    0.000    0.000    0.000 
#
# Total GULP energy -156173.361666 kJ/mol
# GULP energy per Si atom -5577.620060 kJ/mol
# Density = 1.861329 g / cm^3
# Si number density = 18.655748 Si / 1000 Ang^3
#
#
#
# Elastic Constant Matrix: (Units=GPa)
#
#
# Indices 1 2 3 4 5 6 
#
# 1 134.4614 32.7824 55.7078 0.0000 22.1192 0.0000
# 2 32.7824 67.0546 34.2941 0.0000 17.4097 0.0000
# 3 55.7078 34.2941 112.0720 0.0000 18.4442 0.0000
# 4 0.0000 0.0000 0.0000 6.1934 0.0000 7.5922
# 5 22.1192 17.4097 18.4442 0.0000 33.3919 0.0000
# 6 0.0000 0.0000 0.0000 7.5922 0.0000 0.0524
#
#
#
# Elastic Compliance Matrix: (Units=1/GPa)
#
#
# Indices 1 2 3 4 5 6 
#
# 1 0.010097 -0.002081 -0.003806 0.000000 -0.003501 0.000000
# 2 -0.002081 0.019659 -0.003874 0.000000 -0.006732 0.000000
# 3 -0.003806 -0.003874 0.012378 0.000000 -0.002296 0.000000
# 4 0.000000 0.000000 0.000000 -0.000914 0.000000 0.132461
# 5 -0.003501 -0.006732 -0.002296 0.000000 0.037045 0.000000
# 6 0.000000 0.000000 0.000000 0.132461 0.000000 -0.108057
#
#
# Mechanical properties :
#
#
# Convention : Reuss Voigt Hill
#
# Bulk Modulus (GPa) = 44.22100 62.12854 53.17477
# Shear Modulus (GPa) = -1829.70883 20.64779 -904.53052
#
# Velocity S-wave (km/s) = -31.35130 3.33044 -22.04328
# Velocity P-wave (km/s) = 35.87177 6.94003 24.88593
#
# Compressibility (1/GPa) = 0.02261369
#
# Stress axis : x y z
#
# Youngs Moduli (GPa) = 99.03688 50.86611 80.78874
#
# Poissons Ratio (x) = 0.10584 0.30749
# Poissons Ratio (y) = 0.20608 0.31294
# Poissons Ratio (z) = 0.37694 0.19703
#
# Static dielectric constant tensor:
#      x y z
#    x 1.641990 0.000000 0.006330 
#    y 0.000000 1.648580 0.000000 
#    z 0.006330 0.000000 1.689680 
# 
# From -- ./inp_files/82121.got.cif
#   From: 2010.05.17/outbox.cif.g08.bks.cpg/sg13_42_cif.got.tgz:82121.got - 2010.06.03 16:44:36.
