data_PCOD9228165
_publ_section_title
;
Structure prediction by ZEFSAII (Michael W. Deem and Ramdas Pophale) SiO2 
 PCOD9228165
Probable space group: P 2/C
;
_chemical_formula_sum "Si O2"
_cell_formula_units_Z 32
_cell_length_a 6.726810
_cell_length_b 12.992885
_cell_length_c 24.156797
_cell_angle_alpha 90.000000
_cell_angle_beta 109.738094
_cell_angle_gamma 90.000000
_cell_volume 1987.272156
_symmetry_space_group_name_H-M "P 2/C"
_symmetry_group_IT_number 13
_symmetry_cell_setting 'monoclinic'
loop_
_space_group_symop_operation_xyz
x,y,z
-x,y,1/2-z
-x,-y,-z
x,-y,1/2+z
loop_
_atom_site_type_symbol
_atom_site_label
_atom_site_fract_x
_atom_site_fract_y
_atom_site_fract_z
Si Si1 0.928618 0.330799 0.477746
Si Si2 0.962740 0.065395 0.918490
Si Si3 0.378418 0.803457 0.485828
Si Si4 0.976540 0.627775 0.309011
Si Si5 0.177717 0.868765 0.974003
Si Si6 0.676819 0.186420 0.809524
Si Si7 0.828584 0.460193 0.907196
Si Si8 0.547085 0.320474 0.616169
O O1 0.720429 0.269248 0.476715
O O2 0.880200 0.427302 0.434432
O O3 0.082788 0.246027 0.465782
O O4 0.034746 0.378184 0.543521
O O5 0.181655 0.129388 0.945054
O O6 0.826811 0.103878 0.853841
O O7 0.030219 0.946694 0.926095
O O8 0.837583 0.091087 0.963707
O O9 0.580709 0.868974 0.523055
O O10 0.464575 0.733512 0.444129
O O11 0.824392 0.727938 0.293801
O O12 0.885019 0.555280 0.348415
O O13 0.000000 0.582557 0.250000
O O14 0.209307 0.661171 0.348880
O O15 0.500000 0.147676 0.750000
O O16 0.557224 0.247295 0.847510
O O17 0.588496 0.425011 0.895086
#
# Coordination Sequence:
#
# PCOD9228165 Si02
#       8
#     4   4   4   4   4   4   4   4
#     4  10  20  33  48  74 106 135 170 204 251 306
#     4  10  20  31  48  77 102 133 173 207 253 311
#     4  11  17  31  51  73 104 139 168 198 254 317
#     4  11  20  33  51  75 102 132 167 208 254 309
#     4  10  19  33  50  70 107 138 166 213 252 301
#     4  11  20  31  49  75 104 130 165 210 259 305
#     4  10  21  32  48  76 105 133 168 210 250 304
#     4  11  18  31  49  74 105 132 164 206 253 303
#
# _framework density 16.102475999999999
#
# number of rings (size 3 to 8) (size 9 to 14) (size 15 to 20)
#    0.000    1.500    6.250    1.875    0.000    1.500 
#    0.000    0.000    0.000    0.000    3.250    0.875 
#    0.000    0.000    0.000    0.000    0.000    0.000 
#
# Total GULP energy -178481.979232 kJ/mol
# GULP energy per Si atom -5577.561851 kJ/mol
# Density = 1.606583 g / cm^3
# Si number density = 16.102476 Si / 1000 Ang^3
#
#
#
# Elastic Constant Matrix: (Units=GPa)
#
#
# Indices 1 2 3 4 5 6 
#
# 1 91.8495 25.9060 19.5234 0.0000 10.2859 0.0000
# 2 25.9060 83.6045 35.0538 0.0000 10.4605 0.0000
# 3 19.5234 35.0538 72.5639 0.0000 5.1851 0.0000
# 4 0.0000 0.0000 0.0000 18.6423 0.0000 3.8017
# 5 10.2859 10.4605 5.1851 0.0000 24.9082 0.0000
# 6 0.0000 0.0000 0.0000 3.8017 0.0000 9.6886
#
#
#
# Elastic Compliance Matrix: (Units=1/GPa)
#
#
# Indices 1 2 3 4 5 6 
#
# 1 0.012423 -0.002635 -0.001809 0.000000 -0.003647 0.000000
# 2 -0.002635 0.016161 -0.006792 0.000000 -0.004285 0.000000
# 3 -0.001809 -0.006792 0.017553 0.000000 -0.000054 0.000000
# 4 0.000000 0.000000 0.000000 0.058307 0.000000 -0.022879
# 5 -0.003647 -0.004285 -0.000054 0.000000 0.043465 0.000000
# 6 0.000000 0.000000 0.000000 -0.022879 0.000000 0.112191
#
#
# Mechanical properties :
#
#
# Convention : Reuss Voigt Hill
#
# Bulk Modulus (GPa) = 42.25528 45.44267 43.84897
# Shear Modulus (GPa) = 17.21401 21.81679 19.51540
#
# Velocity S-wave (km/s) = 3.27315 3.68485 3.48508
# Velocity P-wave (km/s) = 6.37049 6.81075 6.59430
#
# Compressibility (1/GPa) = 0.02366568
#
# Stress axis : x y z
#
# Youngs Moduli (GPa) = 80.49272 61.87570 56.97131
#
# Poissons Ratio (x) = 0.16302 0.10307
# Poissons Ratio (y) = 0.21207 0.38695
# Poissons Ratio (z) = 0.14563 0.42027
#
# Static dielectric constant tensor:
#      x y z
#    x 1.563590 0.000000 0.011870 
#    y 0.000000 1.542100 0.000000 
#    z 0.011870 0.000000 1.543050 
# 
# From -- ./inp_files/83811.got.cif
#   From: 2010.05.17/outbox.cif.g08.bks.cpg/sg13_42_cif.got.tgz:83811.got - 2010.06.03 16:44:36.
