data_PCOD9228103
_publ_section_title
;
Structure prediction by ZEFSAII (Michael W. Deem and Ramdas Pophale) SiO2 
 PCOD9228103
Probable space group: P 2/C
;
_chemical_formula_sum "Si O2"
_cell_formula_units_Z 32
_cell_length_a 5.233750
_cell_length_b 15.897234
_cell_length_c 20.900414
_cell_angle_alpha 90.000000
_cell_angle_beta 82.134650
_cell_angle_gamma 90.000000
_cell_volume 1722.599919
_symmetry_space_group_name_H-M "P 2/C"
_symmetry_group_IT_number 13
_symmetry_cell_setting 'monoclinic'
loop_
_space_group_symop_operation_xyz
x,y,z
-x,y,1/2-z
-x,-y,-z
x,-y,1/2+z
loop_
_atom_site_type_symbol
_atom_site_label
_atom_site_fract_x
_atom_site_fract_y
_atom_site_fract_z
Si Si1 0.734439 0.853353 0.407550
Si Si2 0.726966 0.652275 0.795302
Si Si3 0.206206 0.068618 0.412714
Si Si4 0.274379 0.716414 0.204032
Si Si5 0.724923 0.528590 0.295003
Si Si6 0.785132 0.101686 0.519134
Si Si7 0.086666 0.996800 0.181777
Si Si8 0.600526 0.166299 0.320298
O O1 0.721711 0.780545 0.355204
O O2 0.485899 0.852615 0.461941
O O3 0.999932 0.860755 0.438903
O O4 0.728212 0.939140 0.366201
O O5 0.500000 0.651246 0.750000
O O6 0.709066 0.561563 0.831252
O O7 0.704417 0.740762 0.832250
O O8 0.000000 0.654756 0.750000
O O9 0.395727 0.139818 0.381706
O O10 0.931654 0.104809 0.446429
O O11 0.165637 0.012708 0.351147
O O12 0.265258 0.997769 0.463871
O O13 0.500000 0.729521 0.250000
O O14 0.298712 0.621353 0.174743
O O15 0.000000 0.723207 0.250000
O O16 0.500000 0.526932 0.250000
O O17 0.000000 0.528247 0.250000
O O18 0.203202 0.088441 0.189470
O O19 0.000000 0.954309 0.250000
O O20 0.500000 0.170717 0.250000
#
# Coordination Sequence:
#
# PCOD9228103 Si02
#       8
#     4   4   4   4   4   4   4   4
#     4  11  22  36  52  75 102 135 172 211 250 299
#     4   9  18  30  46  71 105 135 162 197 246 312
#     4  10  22  36  51  70  98 139 177 214 244 300
#     4  10  19  32  53  79 106 133 166 209 261 312
#     4   8  15  29  47  70 101 134 162 197 247 307
#     4  10  23  38  53  69  97 139 183 215 244 280
#     4  11  21  32  49  74 107 132 163 204 264 305
#     4  11  20  31  50  75 105 134 164 204 259 310
#
# _framework density 18.576571999999999
#
# number of rings (size 3 to 8) (size 9 to 14) (size 15 to 20)
#    0.000    2.000    2.500    1.500    3.500    3.000 
#    0.000    0.000    0.000    0.000    0.000    1.750 
#    0.000    0.000    0.000    0.000    0.000    0.000 
#
# Total GULP energy -178222.847680 kJ/mol
# GULP energy per Si atom -5569.463990 kJ/mol
# Density = 1.853429 g / cm^3
# Si number density = 18.576572 Si / 1000 Ang^3
#
#
#
# Elastic Constant Matrix: (Units=GPa)
#
#
# Indices 1 2 3 4 5 6 
#
# 1 103.0405 21.5054 22.5284 0.0000 -10.2051 0.0000
# 2 21.5054 130.1122 14.6468 0.0000 -2.9434 0.0000
# 3 22.5284 14.6468 68.2583 0.0000 -11.2114 0.0000
# 4 0.0000 0.0000 0.0000 3.7630 0.0000 -4.6490
# 5 -10.2051 -2.9434 -11.2114 0.0000 27.9957 0.0000
# 6 0.0000 0.0000 0.0000 -4.6490 0.0000 20.8413
#
#
#
# Elastic Compliance Matrix: (Units=1/GPa)
#
#
# Indices 1 2 3 4 5 6 
#
# 1 0.010889 -0.001418 -0.002850 0.000000 0.002679 0.000000
# 2 -0.001418 0.008061 -0.001292 0.000000 -0.000187 0.000000
# 3 -0.002850 -0.001292 0.016779 0.000000 0.005545 0.000000
# 4 0.000000 0.000000 0.000000 0.366842 0.000000 0.081831
# 5 0.002679 -0.000187 0.005545 0.000000 0.038897 0.000000
# 6 0.000000 0.000000 0.000000 0.081831 0.000000 0.066236
#
#
# Mechanical properties :
#
#
# Convention : Reuss Voigt Hill
#
# Bulk Modulus (GPa) = 40.63604 46.53024 43.58314
# Shear Modulus (GPa) = 9.48716 26.70203 18.09459
#
# Velocity S-wave (km/s) = 2.26233 3.79542 3.12437
# Velocity P-wave (km/s) = 5.36158 6.65651 6.04383
#
# Compressibility (1/GPa) = 0.02460870
#
# Stress axis : x y z
#
# Youngs Moduli (GPa) = 91.83308 124.04841 59.59912
#
# Poissons Ratio (x) = 0.17595 0.16983
# Poissons Ratio (y) = 0.13026 0.07702
# Poissons Ratio (z) = 0.26169 0.16032
#
# Static dielectric constant tensor:
#      x y z
#    x 1.715360 0.000000 0.025020 
#    y 0.000000 1.692780 0.000000 
#    z 0.025020 0.000000 1.668890 
# 
# From -- ./inp_files/73907.got.cif
#   From: 2010.05.17/outbox.cif.g08.bks.cpg/sg13_37_cif.got.tgz:73907.got - 2010.06.03 16:44:36.
