data_PCOD9228854
_publ_section_title
;
Structure prediction by ZEFSAII (Michael W. Deem and Ramdas Pophale) SiO2 
 PCOD9228854
Probable space group: P 2/C
;
_chemical_formula_sum "Si O2"
_cell_formula_units_Z 18
_cell_length_a 10.911377
_cell_length_b 15.890211
_cell_length_c 5.223278
_cell_angle_alpha 90.000000
_cell_angle_beta 91.658671
_cell_angle_gamma 90.000000
_cell_volume 905.253804
_symmetry_space_group_name_H-M "P 2/C"
_symmetry_group_IT_number 13
_symmetry_cell_setting 'monoclinic'
loop_
_space_group_symop_operation_xyz
x,y,z
-x,y,1/2-z
-x,-y,-z
x,-y,1/2+z
loop_
_atom_site_type_symbol
_atom_site_label
_atom_site_fract_x
_atom_site_fract_y
_atom_site_fract_z
Si Si1 0.637111 0.532879 0.067787
Si Si2 0.270510 0.182111 0.245470
Si Si3 0.000000 0.819293 0.750000
Si Si4 0.500000 0.942189 0.750000
Si Si5 0.268293 0.701271 0.245529
Si Si6 0.000000 0.297816 0.750000
O O1 0.695795 0.473521 0.289454
O O2 0.640836 0.625855 0.183039
O O3 0.500000 0.500000 0.000000
O O4 0.134980 0.139286 0.262674
O O5 0.379978 0.116251 0.255635
O O6 0.285057 0.249093 0.480159
O O7 0.275104 0.231945 0.977217
O O8 0.002061 0.761002 0.499804
O O9 0.500000 0.000000 0.500000
O O10 0.132174 0.659182 0.245135
#
# Coordination Sequence:
#
# PCOD9228854 Si02
#       6
#     4   4   2   2   4   2
#     4  10  21  34  48  73 111 145 177 232 279 317
#     4  10  21  38  63  84 108 148 188 231 272 331
#     4   8  16  34  58  86 106 132 188 234 270 316
#     4  12  26  42  56  86 126 150 174 222 282 334
#     4  10  19  36  58  82 105 144 195 230 275 331
#     4   8  16  30  54  80 106 132 180 248 276 308
#
# _framework density 19.883925000000001
#
# number of rings (size 3 to 8) (size 9 to 14) (size 15 to 20)
#    0.000    2.222    0.000    2.667    0.000    5.333 
#    0.000    2.222    0.000    0.000    0.000    0.000 
#    0.000    0.000    0.000    0.000    0.000    0.000 
#
# Total GULP energy -100253.044448 kJ/mol
# GULP energy per Si atom -5569.613580 kJ/mol
# Density = 1.983867 g / cm^3
# Si number density = 19.883925 Si / 1000 Ang^3
#
#
#
# Elastic Constant Matrix: (Units=GPa)
#
#
# Indices 1 2 3 4 5 6 
#
# 1 157.4065 58.9717 10.5782 0.0000 14.6449 0.0000
# 2 58.9717 57.3529 11.2481 0.0000 10.7658 0.0000
# 3 10.5782 11.2481 146.8418 0.0000 0.1416 0.0000
# 4 0.0000 0.0000 0.0000 28.3040 0.0000 -6.9623
# 5 14.6449 10.7658 0.1416 0.0000 23.4371 0.0000
# 6 0.0000 0.0000 0.0000 -6.9623 0.0000 -9.5525
#
#
#
# Elastic Compliance Matrix: (Units=1/GPa)
#
#
# Indices 1 2 3 4 5 6 
#
# 1 0.010398 -0.010376 0.000047 0.000000 -0.001732 0.000000
# 2 -0.010376 0.029750 -0.001524 0.000000 -0.007173 0.000000
# 3 0.000047 -0.001524 0.006923 0.000000 0.000629 0.000000
# 4 0.000000 0.000000 0.000000 0.029960 0.000000 -0.021836
# 5 -0.001732 -0.007173 0.000629 0.000000 0.047041 0.000000
# 6 0.000000 0.000000 0.000000 -0.021836 0.000000 -0.088770
#
#
# Mechanical properties :
#
#
# Convention : Reuss Voigt Hill
#
# Bulk Modulus (GPa) = 42.79888 58.13303 50.46595
# Shear Modulus (GPa) = 74.85479 27.15792 51.00636
#
# Velocity S-wave (km/s) = 6.14228 3.69971 5.07028
# Velocity P-wave (km/s) = 8.47789 6.89566 7.72738
#
# Compressibility (1/GPa) = 0.02336510
#
# Stress axis : x y z
#
# Youngs Moduli (GPa) = 96.17050 33.61323 144.45015
#
# Poissons Ratio (x) = 0.34877 -0.00685
# Poissons Ratio (y) = 0.99786 0.22021
# Poissons Ratio (z) = -0.00456 0.05124
#
# Static dielectric constant tensor:
#      x y z
#    x 1.813790 0.000000 -0.039470 
#    y 0.000000 1.661590 0.000000 
#    z -0.039470 0.000000 1.765350 
# 
# From -- ./inp_files/3069.got.cif
#   From: 2010.05.17/outbox.cif.g08.bks.cpg/sg13_2_cif.got.tgz:3069.got - 2010.06.03 16:44:36.
