data_PCOD9228079
_publ_section_title
;
Structure prediction by ZEFSAII (Michael W. Deem and Ramdas Pophale) SiO2 
 PCOD9228079
Probable space group: P 2/C
;
_chemical_formula_sum "Si O2"
_cell_formula_units_Z 32
_cell_length_a 9.770674
_cell_length_b 11.250847
_cell_length_c 22.729012
_cell_angle_alpha 90.000000
_cell_angle_beta 131.994153
_cell_angle_gamma 90.000000
_cell_volume 1856.964748
_symmetry_space_group_name_H-M "P 2/C"
_symmetry_group_IT_number 13
_symmetry_cell_setting 'monoclinic'
loop_
_space_group_symop_operation_xyz
x,y,z
-x,y,1/2-z
-x,-y,-z
x,-y,1/2+z
loop_
_atom_site_type_symbol
_atom_site_label
_atom_site_fract_x
_atom_site_fract_y
_atom_site_fract_z
Si Si1 0.965942 0.389362 0.407769
Si Si2 0.932679 0.346765 0.536651
Si Si3 0.899157 0.101635 0.893805
Si Si4 0.463114 0.755666 0.573367
Si Si5 0.346095 0.258725 0.255116
Si Si6 0.261481 0.799133 0.952036
Si Si7 0.062098 0.051175 0.202211
Si Si8 0.709641 0.995746 0.447554
O O1 0.008630 0.528821 0.418436
O O2 0.144955 0.310959 0.443526
O O3 0.919409 0.359671 0.462141
O O4 0.800052 0.347166 0.317893
O O5 0.730775 0.304373 0.497927
O O6 0.076258 0.241680 0.591382
O O7 0.741444 0.046496 0.889932
O O8 0.885808 0.060401 0.823047
O O9 0.090631 0.044263 0.973162
O O10 0.555988 0.695446 0.657290
O O11 0.591965 0.758313 0.553751
O O12 0.421629 0.892018 0.581115
O O13 0.500000 0.230050 0.250000
O O14 0.227192 0.145469 0.242287
O O15 0.113200 0.882206 0.876429
O O16 0.340695 0.882887 0.026556
O O17 0.000000 0.021930 0.250000
#
# Coordination Sequence:
#
# PCOD9228079 Si02
#       8
#     4   4   4   4   4   4   4   4
#     4  10  21  35  58  75 107 144 192 224 266 322
#     4  10  20  37  55  81 100 146 192 227 261 321
#     4   9  17  31  55  74 106 139 176 214 265 324
#     4  11  20  31  55  84 112 134 179 231 277 321
#     4  11  20  34  54  83 106 140 180 227 273 324
#     4  10  19  33  52  82 111 141 173 226 276 321
#     4  10  19  32  52  78 111 141 169 214 280 337
#     4   9  17  30  51  85 107 134 170 219 272 328
#
# _framework density 17.232422
#
# number of rings (size 3 to 8) (size 9 to 14) (size 15 to 20)
#    0.000    2.000    3.750    1.125    3.500    0.500 
#    0.000    0.000    2.750    3.750    0.000    0.000 
#    0.000    0.000    0.000    0.000    0.000    0.000 
#
# Total GULP energy -178427.732766 kJ/mol
# GULP energy per Si atom -5575.866649 kJ/mol
# Density = 1.719320 g / cm^3
# Si number density = 17.232422 Si / 1000 Ang^3
#
#
#
# Elastic Constant Matrix: (Units=GPa)
#
#
# Indices 1 2 3 4 5 6 
#
# 1 124.3622 35.8863 29.0435 0.0000 -7.1723 0.0000
# 2 35.8863 94.9047 25.7352 0.0000 -9.4033 0.0000
# 3 29.0435 25.7352 46.9974 0.0000 -8.8884 0.0000
# 4 0.0000 0.0000 0.0000 13.0045 0.0000 -5.5428
# 5 -7.1723 -9.4033 -8.8884 0.0000 27.2894 0.0000
# 6 0.0000 0.0000 0.0000 -5.5428 0.0000 10.5831
#
#
#
# Elastic Compliance Matrix: (Units=1/GPa)
#
#
# Indices 1 2 3 4 5 6 
#
# 1 0.009856 -0.002425 -0.004722 0.000000 0.000217 0.000000
# 2 -0.002425 0.013095 -0.005264 0.000000 0.002161 0.000000
# 3 -0.004722 -0.005264 0.028240 0.000000 0.006143 0.000000
# 4 0.000000 0.000000 0.000000 0.098995 0.000000 0.051848
# 5 0.000217 0.002161 0.006143 0.000000 0.039447 0.000000
# 6 0.000000 0.000000 0.000000 0.051848 0.000000 0.121645
#
#
# Mechanical properties :
#
#
# Convention : Reuss Voigt Hill
#
# Bulk Modulus (GPa) = 37.92151 49.73269 43.82710
# Shear Modulus (GPa) = 14.49739 21.88203 18.18971
#
# Velocity S-wave (km/s) = 2.90364 3.56732 3.25245
# Velocity P-wave (km/s) = 5.77020 6.77424 6.29227
#
# Compressibility (1/GPa) = 0.02637026
#
# Stress axis : x y z
#
# Youngs Moduli (GPa) = 101.46055 76.36376 35.41076
#
# Poissons Ratio (x) = 0.18518 0.16721
# Poissons Ratio (y) = 0.24603 0.18639
# Poissons Ratio (z) = 0.47909 0.40195
#
# Static dielectric constant tensor:
#      x y z
#    x 1.585700 0.000000 0.005330 
#    y 0.000000 1.570210 0.000000 
#    z 0.005330 0.000000 1.607940 
# 
# From -- ./inp_files/85131.got.cif
#   From: 2010.05.17/outbox.cif.g08.bks.cpg/sg13_43_cif.got.tgz:85131.got - 2010.06.03 16:44:36.
