data_PCOD9228439
_publ_section_title
;
Structure prediction by ZEFSAII (Michael W. Deem and Ramdas Pophale) SiO2 
 PCOD9228439
Probable space group: P 2/C
;
_chemical_formula_sum "Si O2"
_cell_formula_units_Z 28
_cell_length_a 14.031342
_cell_length_b 11.440582
_cell_length_c 10.212003
_cell_angle_alpha 90.000000
_cell_angle_beta 66.321233
_cell_angle_gamma 90.000000
_cell_volume 1501.289159
_symmetry_space_group_name_H-M "P 2/C"
_symmetry_group_IT_number 13
_symmetry_cell_setting 'monoclinic'
loop_
_space_group_symop_operation_xyz
x,y,z
-x,y,1/2-z
-x,-y,-z
x,-y,1/2+z
loop_
_atom_site_type_symbol
_atom_site_label
_atom_site_fract_x
_atom_site_fract_y
_atom_site_fract_z
Si Si1 0.716593 0.225331 0.393274
Si Si2 0.708630 0.153417 0.694292
Si Si3 0.566341 0.058645 0.346530
Si Si4 0.936427 0.858796 0.157318
Si Si5 0.929055 0.141413 0.166992
Si Si6 0.638448 0.459533 0.544668
Si Si7 0.602794 0.385556 0.837638
O O1 0.722416 0.156637 0.529460
O O2 0.615262 0.178691 0.372866
O O3 0.816456 0.195678 0.251508
O O4 0.708531 0.359586 0.440644
O O5 0.818882 0.183338 0.699980
O O6 0.628009 0.253858 0.782249
O O7 0.661245 0.030048 0.763223
O O8 0.500000 0.071352 0.250000
O O9 0.500000 0.000000 0.500000
O O10 0.000000 0.823011 0.250000
O O11 0.923283 0.000047 0.167930
O O12 0.009249 0.824577 0.996431
O O13 0.000000 0.175466 0.250000
O O14 0.652841 0.463909 0.692887
O O15 0.520066 0.411099 0.595076
O O16 0.644936 0.576228 0.455711
#
# Coordination Sequence:
#
# PCOD9228439 Si02
#       7
#     4   4   4   4   4   4   4
#     4  11  21  37  59  83 114 154 191 226 284 342
#     4  11  21  37  60  80 116 158 182 229 294 338
#     4  12  24  36  53  84 122 152 184 225 281 343
#     4  10  21  34  55  83 114 144 189 237 277 328
#     4  10  19  34  56  79 108 148 192 229 271 340
#     4   9  19  38  58  82 109 147 191 237 273 334
#     4   9  19  37  60  79 108 148 193 231 281 330
#
# _framework density 18.650638000000001
#
# number of rings (size 3 to 8) (size 9 to 14) (size 15 to 20)
#    0.000    1.714    4.286    0.857    2.000    1.143 
#   10.286    0.000    0.000    1.714    0.000    0.000 
#    0.000    0.000    0.000    0.000    0.000    0.000 
#
# Total GULP energy -156216.382473 kJ/mol
# GULP energy per Si atom -5579.156517 kJ/mol
# Density = 1.860819 g / cm^3
# Si number density = 18.650638 Si / 1000 Ang^3
#
#
#
# Elastic Constant Matrix: (Units=GPa)
#
#
# Indices 1 2 3 4 5 6 
#
# 1 81.7534 -7.0017 37.5567 0.0000 2.5912 0.0000
# 2 -7.0017 12.4606 7.7129 0.0000 -4.9889 0.0000
# 3 37.5567 7.7129 95.4628 0.0000 2.5603 0.0000
# 4 0.0000 0.0000 0.0000 -23.5251 0.0000 7.8796
# 5 2.5912 -4.9889 2.5603 0.0000 34.9521 0.0000
# 6 0.0000 0.0000 0.0000 7.8796 0.0000 13.6302
#
#
#
# Elastic Compliance Matrix: (Units=1/GPa)
#
#
# Indices 1 2 3 4 5 6 
#
# 1 0.017175 0.015214 -0.008026 0.000000 0.001486 0.000000
# 2 0.015214 0.103864 -0.014773 0.000000 0.014779 0.000000
# 3 -0.008026 -0.014773 0.014896 0.000000 -0.002605 0.000000
# 4 0.000000 0.000000 0.000000 -0.035612 0.000000 0.020587
# 5 0.001486 0.014779 -0.002605 0.000000 0.030801 0.000000
# 6 0.000000 0.000000 0.000000 0.020587 0.000000 0.061465
#
#
# Mechanical properties :
#
#
# Convention : Reuss Voigt Hill
#
# Bulk Modulus (GPa) = 8.28063 29.57919 18.92991
# Shear Modulus (GPa) = 20.16011 15.10536 17.63274
#
# Velocity S-wave (km/s) = 3.29132 2.84898 3.07811
# Velocity P-wave (km/s) = 4.34664 5.16878 4.77543
#
# Compressibility (1/GPa) = 0.12076372
#
# Stress axis : x y z
#
# Youngs Moduli (GPa) = 58.22483 9.62799 67.13075
#
# Poissons Ratio (x) = -0.14648 0.53879
# Poissons Ratio (y) = -0.88582 0.99175
# Poissons Ratio (z) = 0.46731 0.14224
#
# Static dielectric constant tensor:
#      x y z
#    x 1.654340 0.000000 0.012310 
#    y 0.000000 1.636440 0.000000 
#    z 0.012310 0.000000 1.651490 
# 
# From -- ./inp_files/18735.got.cif
#   From: 2010.05.17/outbox.cif.g08.bks.cpg/sg13_10_cif.got.tgz:18735.got - 2010.06.03 16:44:36.
