data_PCOD9228171
_publ_section_title
;
Structure prediction by ZEFSAII (Michael W. Deem and Ramdas Pophale) SiO2 
 PCOD9228171
Probable space group: P 2/C
;
_chemical_formula_sum "Si O2"
_cell_formula_units_Z 28
_cell_length_a 20.702166
_cell_length_b 4.939291
_cell_length_c 20.839451
_cell_angle_alpha 90.000000
_cell_angle_beta 147.188406
_cell_angle_gamma 90.000000
_cell_volume 1154.698033
_symmetry_space_group_name_H-M "P 2/C"
_symmetry_group_IT_number 13
_symmetry_cell_setting 'monoclinic'
loop_
_space_group_symop_operation_xyz
x,y,z
-x,y,1/2-z
-x,-y,-z
x,-y,1/2+z
loop_
_atom_site_type_symbol
_atom_site_label
_atom_site_fract_x
_atom_site_fract_y
_atom_site_fract_z
Si Si1 0.217030 0.690545 0.755580
Si Si2 0.844591 0.421635 0.428294
Si Si3 0.907252 0.383353 0.616192
Si Si4 0.465408 0.183100 0.410424
Si Si5 0.759200 0.886555 0.516842
Si Si6 0.273109 0.215427 0.880122
Si Si7 0.323663 0.921444 0.183645
O O1 0.125827 0.617550 0.622069
O O2 0.349781 0.646267 0.834748
O O3 0.202958 0.487320 0.803293
O O4 0.229319 0.002075 0.788262
O O5 0.931488 0.458416 0.562065
O O6 0.743713 0.649878 0.352895
O O7 0.775764 0.146020 0.385899
O O8 0.795173 0.572609 0.543274
O O9 0.000000 0.433909 0.750000
O O10 0.873589 0.066166 0.590116
O O11 0.590580 0.323549 0.501662
O O12 0.500000 0.000000 0.500000
O O13 0.429822 0.000428 0.319564
O O14 0.658599 0.924674 0.378183
O O15 0.736009 0.025951 0.565155
#
# Coordination Sequence:
#
# PCOD9228171 Si02
#       7
#     4   4   4   4   4   4   4
#     4  10  19  33  51  75 104 142 181 207 242 292
#     4   9  17  32  53  76  98 127 170 215 253 292
#     4  10  20  37  61  79  96 126 169 218 260 316
#     4   9  18  31  50  76 102 139 184 209 233 281
#     4  10  21  36  52  79 107 133 165 205 271 313
#     4  11  21  32  51  74 109 144 169 211 250 296
#     4   9  18  31  49  72 104 134 168 214 248 294
#
# _framework density 24.248764000000001
#
# number of rings (size 3 to 8) (size 9 to 14) (size 15 to 20)
#    0.000    2.286    0.000    4.286    0.000    4.000 
#    0.000    0.000    0.000   17.143    0.000    0.000 
#    0.000    0.000    0.000    0.000    0.000    0.000 
#
# Total GULP energy -155992.640681 kJ/mol
# GULP energy per Si atom -5571.165739 kJ/mol
# Density = 2.419357 g / cm^3
# Si number density = 24.248764 Si / 1000 Ang^3
#
#
#
# Elastic Constant Matrix: (Units=GPa)
#
#
# Indices 1 2 3 4 5 6 
#
# 1 57.9024 -20.1676 27.0315 0.0000 -32.3538 0.0000
# 2 -20.1676 128.2761 7.6795 0.0000 5.5032 0.0000
# 3 27.0315 7.6795 181.7129 0.0000 -44.6500 0.0000
# 4 0.0000 0.0000 0.0000 29.3794 0.0000 -14.1022
# 5 -32.3538 5.5032 -44.6500 0.0000 47.8323 0.0000
# 6 0.0000 0.0000 0.0000 -14.1022 0.0000 13.4305
#
#
#
# Elastic Compliance Matrix: (Units=1/GPa)
#
#
# Indices 1 2 3 4 5 6 
#
# 1 0.029513 0.003770 0.000323 0.000000 0.019831 0.000000
# 2 0.003770 0.008389 -0.000682 0.000000 0.000948 0.000000
# 3 0.000323 -0.000682 0.007211 0.000000 0.007028 0.000000
# 4 0.000000 0.000000 0.000000 0.068625 0.000000 0.072057
# 5 0.019831 0.000948 0.007028 0.000000 0.040771 0.000000
# 6 0.000000 0.000000 0.000000 0.072057 0.000000 0.150118
#
#
# Mechanical properties :
#
#
# Convention : Reuss Voigt Hill
#
# Bulk Modulus (GPa) = 19.25515 44.10868 31.68191
# Shear Modulus (GPa) = 15.86708 41.68499 28.77603
#
# Velocity S-wave (km/s) = 2.56079 4.15065 3.44859
# Velocity P-wave (km/s) = 4.08674 6.41873 5.38059
#
# Compressibility (1/GPa) = 0.05193417
#
# Stress axis : x y z
#
# Youngs Moduli (GPa) = 33.88287 119.20940 138.67863
#
# Poissons Ratio (x) = -0.44942 -0.04480
# Poissons Ratio (y) = -0.12774 0.09464
# Poissons Ratio (z) = -0.01094 0.08135
#
# Static dielectric constant tensor:
#      x y z
#    x 2.079100 0.000000 -0.026010 
#    y 0.000000 1.842940 0.000000 
#    z -0.026010 0.000000 2.010310 
# 
# From -- ./inp_files/81968.got.cif
#   From: 2010.05.17/outbox.cif.g08.bks.cpg/sg13_41_cif.got.tgz:81968.got - 2010.06.03 16:44:36.
