data_PCOD9228271
_publ_section_title
;
Structure prediction by ZEFSAII (Michael W. Deem and Ramdas Pophale) SiO2 
 PCOD9228271
Probable space group: P 2/C
;
_chemical_formula_sum "Si O2"
_cell_formula_units_Z 28
_cell_length_a 19.868240
_cell_length_b 8.111204
_cell_length_c 23.834933
_cell_angle_alpha 90.000000
_cell_angle_beta 20.609804
_cell_angle_gamma 90.000000
_cell_volume 1352.083644
_symmetry_space_group_name_H-M "P 2/C"
_symmetry_group_IT_number 13
_symmetry_cell_setting 'monoclinic'
loop_
_space_group_symop_operation_xyz
x,y,z
-x,y,1/2-z
-x,-y,-z
x,-y,1/2+z
loop_
_atom_site_type_symbol
_atom_site_label
_atom_site_fract_x
_atom_site_fract_y
_atom_site_fract_z
Si Si1 0.010395 0.822939 0.045698
Si Si2 0.636422 0.230343 0.397336
Si Si3 0.738467 0.591425 0.310615
Si Si4 0.193568 0.290825 0.622280
Si Si5 0.322459 0.981747 0.742353
Si Si6 0.377161 0.038784 0.403181
Si Si7 0.966659 0.032287 0.189696
O O1 0.939016 0.659505 0.131965
O O2 0.843440 0.882917 0.134270
O O3 0.011837 0.962230 0.092667
O O4 0.212913 0.829230 0.858134
O O5 0.708293 0.404683 0.316783
O O6 0.428030 0.285577 0.581886
O O7 0.611419 0.092201 0.368672
O O8 0.802021 0.167633 0.309931
O O9 0.723542 0.606907 0.390260
O O10 0.320732 0.221144 0.471852
O O11 0.000000 0.371863 0.750000
O O12 0.125823 0.120444 0.704981
O O13 0.492076 0.036300 0.649965
O O14 0.500000 0.046763 0.250000
O O15 0.177316 0.940303 0.550863
#
# Coordination Sequence:
#
# PCOD9228271 Si02
#       7
#     4   4   4   4   4   4   4
#     4   9  19  33  55  81 107 141 181 231 272 323
#     4  10  21  35  56  84 113 146 186 226 270 335
#     4  10  20  36  57  81 114 150 184 222 274 329
#     4   9  19  34  55  81 107 143 183 228 275 323
#     4  10  19  33  55  85 108 139 185 233 277 319
#     4  11  19  32  55  85 107 139 177 236 281 326
#     4   9  19  34  53  83 109 135 184 231 277 320
#
# _framework density 20.708779
#
# number of rings (size 3 to 8) (size 9 to 14) (size 15 to 20)
#    0.000    2.286    2.857    0.000    2.000    2.286 
#    0.000    2.143    0.000    0.000    0.000    0.000 
#    0.000    0.000    0.000    0.000    0.000    0.000 
#
# Total GULP energy -156040.153967 kJ/mol
# GULP energy per Si atom -5572.862642 kJ/mol
# Density = 2.066164 g / cm^3
# Si number density = 20.708779 Si / 1000 Ang^3
#
#
#
# Elastic Constant Matrix: (Units=GPa)
#
#
# Indices 1 2 3 4 5 6 
#
# 1 104.1072 15.5807 43.2240 0.0000 -26.6443 0.0000
# 2 15.5807 39.8466 8.1505 0.0000 -2.1981 0.0000
# 3 43.2240 8.1505 89.1872 0.0000 -9.7292 0.0000
# 4 0.0000 0.0000 0.0000 20.7097 0.0000 -4.5394
# 5 -26.6443 -2.1981 -9.7292 0.0000 53.2557 0.0000
# 6 0.0000 0.0000 0.0000 -4.5394 0.0000 15.7379
#
#
#
# Elastic Compliance Matrix: (Units=1/GPa)
#
#
# Indices 1 2 3 4 5 6 
#
# 1 0.014124 -0.004006 -0.005843 0.000000 0.005834 0.000000
# 2 -0.004006 0.026732 -0.000612 0.000000 -0.001013 0.000000
# 3 -0.005843 -0.000612 0.014058 0.000000 -0.000380 0.000000
# 4 0.000000 0.000000 0.000000 0.051545 0.000000 0.014867
# 5 0.005834 -0.001013 -0.000380 0.000000 0.021585 0.000000
# 6 0.000000 0.000000 0.000000 0.014867 0.000000 0.067829
#
#
# Mechanical properties :
#
#
# Convention : Reuss Voigt Hill
#
# Bulk Modulus (GPa) = 29.41748 40.78348 35.10048
# Shear Modulus (GPa) = 21.91782 29.01971 25.46876
#
# Velocity S-wave (km/s) = 3.25681 3.74749 3.51073
# Velocity P-wave (km/s) = 5.32715 6.20173 5.78100
#
# Compressibility (1/GPa) = 0.03399339
#
# Stress axis : x y z
#
# Youngs Moduli (GPa) = 70.80291 37.40848 71.13189
#
# Poissons Ratio (x) = 0.14985 0.41559
# Poissons Ratio (y) = 0.28362 0.04354
# Poissons Ratio (z) = 0.41367 0.02290
#
# Static dielectric constant tensor:
#      x y z
#    x 1.835310 0.000000 -0.012660 
#    y 0.000000 1.727210 0.000000 
#    z -0.012660 0.000000 1.805950 
# 
# From -- ./inp_files/93465.got.cif
#   From: 2010.05.17/outbox.cif.g08.bks.cpg/sg13_47_cif.got.tgz:93465.got - 2010.06.03 16:44:36.
