data_PCOD9228100
_publ_section_title
;
Structure prediction by ZEFSAII (Michael W. Deem and Ramdas Pophale) SiO2 
 PCOD9228100
Probable space group: P 2/C
;
_chemical_formula_sum "Si O2"
_cell_formula_units_Z 26
_cell_length_a 7.937399
_cell_length_b 10.850996
_cell_length_c 23.635919
_cell_angle_alpha 90.000000
_cell_angle_beta 130.688400
_cell_angle_gamma 90.000000
_cell_volume 1543.626011
_symmetry_space_group_name_H-M "P 2/C"
_symmetry_group_IT_number 13
_symmetry_cell_setting 'monoclinic'
loop_
_space_group_symop_operation_xyz
x,y,z
-x,y,1/2-z
-x,-y,-z
x,-y,1/2+z
loop_
_atom_site_type_symbol
_atom_site_label
_atom_site_fract_x
_atom_site_fract_y
_atom_site_fract_z
Si Si1 0.500000 0.943729 0.750000
Si Si2 0.924855 0.754643 0.112233
Si Si3 0.511374 0.228027 0.929969
Si Si4 0.786891 0.125357 0.737032
Si Si5 0.045692 0.356964 0.518423
Si Si6 0.225993 0.000076 0.479928
Si Si7 0.224715 0.854368 0.588759
O O1 0.672924 0.031167 0.754969
O O2 0.382202 0.864218 0.676378
O O3 0.688932 0.702094 0.082032
O O4 0.021891 0.688921 0.078247
O O5 0.855733 0.896595 0.081942
O O6 0.105092 0.765377 0.201547
O O7 0.393784 0.170729 0.848238
O O8 0.718753 0.310461 0.955308
O O9 0.605782 0.115009 0.989704
O O10 0.000000 0.072105 0.750000
O O11 0.854252 0.280853 0.444284
O O12 0.000000 0.500000 0.500000
O O13 0.317866 0.921975 0.553411
O O14 0.998024 0.068868 0.446391
#
# Coordination Sequence:
#
# PCOD9228100 Si02
#       7
#     2   4   4   4   4   4   4
#     4  12  16  32  50  70 112 134 148 204 268 304
#     4  10  19  32  53  78 105 134 167 209 257 306
#     4  10  19  32  53  78 105 134 167 209 257 306
#     4  10  20  30  49  83 109 133 162 193 258 332
#     4  10  22  39  51  70 100 136 186 222 242 288
#     4   9  15  30  46  79 105 128 165 197 256 317
#     4   9  18  28  51  73  97 135 167 203 250 311
#
# _framework density 16.843457000000001
#
# number of rings (size 3 to 8) (size 9 to 14) (size 15 to 20)
#    0.000    2.154    3.077    2.308    0.000    0.615 
#    0.000    1.538    0.000    0.000    0.000    0.000 
#    0.000    0.000    0.000    0.000    0.000    0.000 
#
# Total GULP energy -144767.737393 kJ/mol
# GULP energy per Si atom -5567.989900 kJ/mol
# Density = 1.680512 g / cm^3
# Si number density = 16.843457 Si / 1000 Ang^3
#
#
#
# Elastic Constant Matrix: (Units=GPa)
#
#
# Indices 1 2 3 4 5 6 
#
# 1 73.7848 34.4883 0.8954 0.0000 0.8651 0.0000
# 2 34.4883 72.1352 18.2046 0.0000 10.2657 0.0000
# 3 0.8954 18.2046 86.6471 0.0000 -1.8250 0.0000
# 4 0.0000 0.0000 0.0000 9.8186 0.0000 0.0065
# 5 0.8651 10.2657 -1.8250 0.0000 21.1215 0.0000
# 6 0.0000 0.0000 0.0000 0.0065 0.0000 4.1445
#
#
#
# Elastic Compliance Matrix: (Units=1/GPa)
#
#
# Indices 1 2 3 4 5 6 
#
# 1 0.018009 -0.009688 0.001937 0.000000 0.004138 0.000000
# 2 -0.009688 0.021102 -0.004549 0.000000 -0.010252 0.000000
# 3 0.001937 -0.004549 0.012545 0.000000 0.003216 0.000000
# 4 0.000000 0.000000 0.000000 0.101847 0.000000 -0.000159
# 5 0.004138 -0.010252 0.003216 0.000000 0.052436 0.000000
# 6 0.000000 0.000000 0.000000 -0.000159 0.000000 0.241286
#
#
# Mechanical properties :
#
#
# Convention : Reuss Voigt Hill
#
# Bulk Modulus (GPa) = 36.96297 37.74930 37.35613
# Shear Modulus (GPa) = 10.39835 18.94885 14.67360
#
# Velocity S-wave (km/s) = 2.48735 3.35774 2.95477
# Velocity P-wave (km/s) = 5.49926 6.12316 5.81958
#
# Compressibility (1/GPa) = 0.02705410
#
# Stress axis : x y z
#
# Youngs Moduli (GPa) = 55.52710 47.38917 79.71555
#
# Poissons Ratio (x) = 0.45910 -0.15437
# Poissons Ratio (y) = 0.53794 0.36265
# Poissons Ratio (z) = -0.10753 0.21559
#
# Static dielectric constant tensor:
#      x y z
#    x 1.633740 0.000000 -0.009100 
#    y 0.000000 1.540580 0.000000 
#    z -0.009100 0.000000 1.579050 
# 
# From -- ./inp_files/85081.got.cif
#   From: 2010.05.17/outbox.cif.g08.bks.cpg/sg13_43_cif.got.tgz:85081.got - 2010.06.03 16:44:36.
