data_PCOD9228792
_publ_section_title
;
Structure prediction by ZEFSAII (Michael W. Deem and Ramdas Pophale) SiO2 
 PCOD9228792
Probable space group: P 2/C
;
_chemical_formula_sum "Si O2"
_cell_formula_units_Z 28
_cell_length_a 6.429725
_cell_length_b 12.513152
_cell_length_c 19.934992
_cell_angle_alpha 90.000000
_cell_angle_beta 118.513949
_cell_angle_gamma 90.000000
_cell_volume 1409.341580
_symmetry_space_group_name_H-M "P 2/C"
_symmetry_group_IT_number 13
_symmetry_cell_setting 'monoclinic'
loop_
_space_group_symop_operation_xyz
x,y,z
-x,y,1/2-z
-x,-y,-z
x,-y,1/2+z
loop_
_atom_site_type_symbol
_atom_site_label
_atom_site_fract_x
_atom_site_fract_y
_atom_site_fract_z
Si Si1 0.663537 0.860206 0.136811
Si Si2 0.500000 0.941471 0.250000
Si Si3 0.010570 0.432163 0.177691
Si Si4 0.125173 0.158898 0.514402
Si Si5 0.981331 0.997293 0.884515
Si Si6 0.138129 0.395865 0.491984
Si Si7 0.500000 0.551173 0.250000
Si Si8 0.643095 0.375172 0.630348
O O1 0.611262 0.872591 0.207372
O O2 0.406913 0.861361 0.062139
O O3 0.830558 0.956233 0.139156
O O4 0.754613 0.741128 0.135631
O O5 0.718444 0.006712 0.314193
O O6 0.273430 0.475549 0.206300
O O7 0.000000 0.377654 0.250000
O O8 0.840674 0.535087 0.157495
O O9 0.921481 0.378878 0.095601
O O10 0.069857 0.283448 0.516126
O O11 0.015774 0.087284 0.556416
O O12 0.043004 0.112524 0.430640
O O13 0.420732 0.403090 0.548323
O O14 0.000000 0.500000 0.500000
O O15 0.463324 0.620223 0.310947
#
# Coordination Sequence:
#
# PCOD9228792 Si02
#       8
#     4   2   4   4   4   4   2   4
#     4  10  20  34  59  87 116 150 192 245 300 345
#     4  10  21  34  57  90 120 146 197 239 294 366
#     4  10  22  37  55  80 120 155 195 237 298 353
#     4   9  22  39  59  85 114 151 200 245 291 350
#     4  10  20  39  59  83 118 153 193 242 299 351
#     4  11  21  39  63  85 118 154 201 249 292 351
#     4  10  19  36  51  80 120 158 185 251 294 348
#     4  10  21  34  58  86 116 154 197 244 301 353
#
# _framework density 19.867433999999999
#
# number of rings (size 3 to 8) (size 9 to 14) (size 15 to 20)
#    0.000    2.000    1.429    1.714    2.000    4.571 
#    0.000    2.143    0.000    0.000    0.000    0.000 
#    0.000    0.000    0.000    0.000    0.000    0.000 
#
# Total GULP energy -156198.984804 kJ/mol
# GULP energy per Si atom -5578.535172 kJ/mol
# Density = 1.982221 g / cm^3
# Si number density = 19.867434 Si / 1000 Ang^3
#
#
#
# Elastic Constant Matrix: (Units=GPa)
#
#
# Indices 1 2 3 4 5 6 
#
# 1 60.4810 21.4479 19.5540 0.0000 -6.8431 0.0000
# 2 21.4479 68.6664 14.3949 0.0000 5.1302 0.0000
# 3 19.5540 14.3949 121.2477 0.0000 8.1660 0.0000
# 4 0.0000 0.0000 0.0000 0.4371 0.0000 -9.0956
# 5 -6.8431 5.1302 8.1660 0.0000 22.7153 0.0000
# 6 0.0000 0.0000 0.0000 -9.0956 0.0000 10.5103
#
#
#
# Elastic Compliance Matrix: (Units=1/GPa)
#
#
# Indices 1 2 3 4 5 6 
#
# 1 0.020888 -0.006521 -0.003195 0.000000 0.008914 0.000000
# 2 -0.006521 0.017147 -0.000606 0.000000 -0.005619 0.000000
# 3 -0.003195 -0.000606 0.009111 0.000000 -0.004101 0.000000
# 4 0.000000 0.000000 0.000000 -0.134514 0.000000 -0.116407
# 5 0.008914 -0.005619 -0.004101 0.000000 0.049452 0.000000
# 6 0.000000 0.000000 0.000000 -0.116407 0.000000 -0.005594
#
#
# Mechanical properties :
#
#
# Convention : Reuss Voigt Hill
#
# Bulk Modulus (GPa) = 37.73108 40.13208 38.93158
# Shear Modulus (GPa) = -356.29909 19.73241 -168.28334
#
# Velocity S-wave (km/s) = -13.40625 3.15493 -9.21341
# Velocity P-wave (km/s) = 14.85275 5.78924 9.67184
#
# Compressibility (1/GPa) = 0.02650335
#
# Stress axis : x y z
#
# Youngs Moduli (GPa) = 47.87456 58.32051 109.75822
#
# Poissons Ratio (x) = 0.38028 0.35066
# Poissons Ratio (y) = 0.31217 0.06648
# Poissons Ratio (z) = 0.15295 0.03532
#
# Static dielectric constant tensor:
#      x y z
#    x 1.689950 0.000000 -0.016680 
#    y 0.000000 1.673390 0.000000 
#    z -0.016680 0.000000 1.754760 
# 
# From -- ./inp_files/73705.got.cif
#   From: 2010.05.17/outbox.cif.g08.bks.cpg/sg13_37_cif.got.tgz:73705.got - 2010.06.03 16:44:36.
