data_PCOD9228192
_publ_section_title
;
Structure prediction by ZEFSAII (Michael W. Deem and Ramdas Pophale) SiO2 
 PCOD9228192
Probable space group: P 2/C
;
_chemical_formula_sum "Si O2"
_cell_formula_units_Z 24
_cell_length_a 5.113296
_cell_length_b 14.080328
_cell_length_c 18.207768
_cell_angle_alpha 90.000000
_cell_angle_beta 89.905719
_cell_angle_gamma 90.000000
_cell_volume 1310.900801
_symmetry_space_group_name_H-M "P 2/C"
_symmetry_group_IT_number 13
_symmetry_cell_setting 'monoclinic'
loop_
_space_group_symop_operation_xyz
x,y,z
-x,y,1/2-z
-x,-y,-z
x,-y,1/2+z
loop_
_atom_site_type_symbol
_atom_site_label
_atom_site_fract_x
_atom_site_fract_y
_atom_site_fract_z
Si Si1 0.916786 0.927509 0.667780
Si Si2 0.748228 0.549531 0.037192
Si Si3 0.585856 0.057899 0.428147
Si Si4 0.083007 0.296216 0.360436
Si Si5 0.240925 0.488276 0.295496
Si Si6 0.586665 0.281936 0.449911
O O1 0.634196 0.954272 0.635183
O O2 0.911302 0.811779 0.667226
O O3 0.000000 0.957162 0.750000
O O4 0.135159 0.962741 0.609618
O O5 0.751246 0.530437 0.123248
O O6 0.500000 0.500000 0.000000
O O7 0.699728 0.660138 0.018313
O O8 0.000000 0.500000 0.000000
O O9 0.604118 0.168549 0.452058
O O10 0.500000 0.000000 0.500000
O O11 0.190745 0.375565 0.306331
O O12 0.286777 0.302730 0.428696
O O13 0.785998 0.316059 0.385373
O O14 0.500000 0.504435 0.250000
O O15 0.000000 0.528448 0.250000
#
# Coordination Sequence:
#
# PCOD9228192 Si02
#       6
#     4   4   4   4   4   4
#     4  10  20  34  55  84 116 145 176 227 290 355
#     4  12  21  37  57  76 108 150 197 222 269 338
#     4  10  21  36  58  83 113 145 190 233 287 336
#     4  10  19  33  52  79 111 141 176 216 286 345
#     4  12  23  33  50  79 113 146 185 235 281 325
#     4  10  19  35  56  79 103 146 187 230 269 330
#
# _framework density 18.308021
#
# number of rings (size 3 to 8) (size 9 to 14) (size 15 to 20)
#    0.000    1.333    3.333    3.500    0.000    2.667 
#    0.000    0.000    0.000    3.000    0.000    0.000 
#    0.000    0.000    0.000    0.000    0.000    0.000 
#
# Total GULP energy -133908.075818 kJ/mol
# GULP energy per Si atom -5579.503159 kJ/mol
# Density = 1.826635 g / cm^3
# Si number density = 18.308021 Si / 1000 Ang^3
#
#
#
# Elastic Constant Matrix: (Units=GPa)
#
#
# Indices 1 2 3 4 5 6 
#
# 1 127.5962 22.8739 47.1261 0.0000 -5.3796 0.0000
# 2 22.8739 34.0982 27.7585 0.0000 -2.4013 0.0000
# 3 47.1261 27.7585 128.7636 0.0000 3.4620 0.0000
# 4 0.0000 0.0000 0.0000 35.4130 0.0000 -13.0274
# 5 -5.3796 -2.4013 3.4620 0.0000 31.0343 0.0000
# 6 0.0000 0.0000 0.0000 -13.0274 0.0000 25.4192
#
#
#
# Elastic Compliance Matrix: (Units=1/GPa)
#
#
# Indices 1 2 3 4 5 6 
#
# 1 0.009643 -0.004177 -0.002673 0.000000 0.001647 0.000000
# 2 -0.004177 0.037788 -0.006697 0.000000 0.002947 0.000000
# 3 -0.002673 -0.006697 0.010245 0.000000 -0.002124 0.000000
# 4 0.000000 0.000000 0.000000 0.034799 0.000000 0.017835
# 5 0.001647 0.002947 -0.002124 0.000000 0.032973 0.000000
# 6 0.000000 0.000000 0.000000 0.017835 0.000000 0.048481
#
#
# Mechanical properties :
#
#
# Convention : Reuss Voigt Hill
#
# Bulk Modulus (GPa) = 32.69778 53.99722 43.34750
# Shear Modulus (GPa) = 23.67247 31.21993 27.44620
#
# Velocity S-wave (km/s) = 3.59975 4.13396 3.87607
# Velocity P-wave (km/s) = 5.93095 7.23491 6.61514
#
# Compressibility (1/GPa) = 0.03058312
#
# Stress axis : x y z
#
# Youngs Moduli (GPa) = 103.70654 26.46333 97.60596
#
# Poissons Ratio (x) = 0.11052 0.26090
# Poissons Ratio (y) = 0.43313 0.65366
# Poissons Ratio (z) = 0.27721 0.17722
#
# Static dielectric constant tensor:
#      x y z
#    x 1.640380 0.000000 0.010100 
#    y 0.000000 1.640420 0.000000 
#    z 0.010100 0.000000 1.635680 
# 
# From -- ./inp_files/43813.got.cif
#   From: 2010.05.17/outbox.cif.g08.bks.cpg/sg13_22_cif.got.tgz:43813.got - 2010.06.03 16:44:36.
