data_PCOD9228688
_publ_section_title
;
Structure prediction by ZEFSAII (Michael W. Deem and Ramdas Pophale) SiO2 
 PCOD9228688
Probable space group: P 2/C
;
_chemical_formula_sum "Si O2"
_cell_formula_units_Z 32
_cell_length_a 17.660222
_cell_length_b 15.686953
_cell_length_c 11.972169
_cell_angle_alpha 90.000000
_cell_angle_beta 24.522602
_cell_angle_gamma 90.000000
_cell_volume 1376.607980
_symmetry_space_group_name_H-M "P 2/C"
_symmetry_group_IT_number 13
_symmetry_cell_setting 'monoclinic'
loop_
_space_group_symop_operation_xyz
x,y,z
-x,y,1/2-z
-x,-y,-z
x,-y,1/2+z
loop_
_atom_site_type_symbol
_atom_site_label
_atom_site_fract_x
_atom_site_fract_y
_atom_site_fract_z
Si Si1 0.231223 0.920272 0.169697
Si Si2 0.779015 0.680653 0.550543
Si Si3 0.231698 0.590945 0.703731
Si Si4 0.787639 0.402953 0.811175
Si Si5 0.762097 0.264081 0.460174
Si Si6 0.181114 0.756860 0.371133
Si Si7 0.333608 0.098714 0.053507
Si Si8 0.374752 0.133307 0.258160
O O1 0.137086 0.843785 0.362969
O O2 0.433723 0.898309 0.948646
O O3 0.227961 0.905941 0.041154
O O4 0.194654 0.019583 0.237158
O O5 0.724423 0.641498 0.742267
O O6 0.746232 0.613694 0.495948
O O7 0.667854 0.766620 0.677611
O O8 0.000000 0.699531 0.250000
O O9 0.290406 0.492750 0.624599
O O10 0.300719 0.645755 0.505258
O O11 0.008630 0.590783 0.003038
O O12 0.730898 0.317403 0.821578
O O13 0.713823 0.236298 0.651433
O O14 0.715632 0.188951 0.435831
O O15 0.978755 0.273899 0.169100
O O16 0.500000 0.069479 0.750000
O O17 0.371260 0.108719 0.133693
#
# Coordination Sequence:
#
# PCOD9228688 Si02
#       8
#     4   4   4   4   4   4   4   4
#     4  11  24  39  62  84 112 152 201 236 290 354
#     4  10  19  35  59  88 120 151 193 244 289 337
#     4   9  18  33  52  88 115 150 196 231 281 340
#     4   9  18  31  57  82 118 155 187 234 284 339
#     4  10  22  37  58  85 121 153 187 244 290 345
#     4  10  21  39  57  86 120 153 192 235 298 342
#     4  12  24  40  62  84 113 152 196 242 287 348
#     4  11  22  39  60  86 113 151 196 244 282 346
#
# _framework density 23.245543999999999
#
# number of rings (size 3 to 8) (size 9 to 14) (size 15 to 20)
#    0.000    1.750    3.750    1.125    3.500    0.500 
#    0.000    0.000    0.000    2.250    0.000    0.000 
#    0.000    0.000    0.000    0.000    0.000    0.000 
#
# Total GULP energy -178568.760578 kJ/mol
# GULP energy per Si atom -5580.273768 kJ/mol
# Density = 2.319264 g / cm^3
# Si number density = 23.245544 Si / 1000 Ang^3
#
#
#
# Elastic Constant Matrix: (Units=GPa)
#
#
# Indices 1 2 3 4 5 6 
#
# 1 107.8377 25.5984 20.4307 0.0000 31.6042 0.0000
# 2 25.5984 135.7763 -0.7878 0.0000 3.1735 0.0000
# 3 20.4307 -0.7878 40.1965 0.0000 8.3833 0.0000
# 4 0.0000 0.0000 0.0000 6.8135 0.0000 6.4261
# 5 31.6042 3.1735 8.3833 0.0000 26.2534 0.0000
# 6 0.0000 0.0000 0.0000 6.4261 0.0000 -0.1863
#
#
#
# Elastic Compliance Matrix: (Units=1/GPa)
#
#
# Indices 1 2 3 4 5 6 
#
# 1 0.015804 -0.002602 -0.004480 0.000000 -0.017280 0.000000
# 2 -0.002602 0.007819 0.001092 0.000000 0.001838 0.000000
# 3 -0.004480 0.001092 0.027940 0.000000 -0.003661 0.000000
# 4 0.000000 0.000000 0.000000 0.004378 0.000000 0.150973
# 5 -0.017280 0.001838 -0.003661 0.000000 0.059839 0.000000
# 6 0.000000 0.000000 0.000000 0.150973 0.000000 -0.160075
#
#
# Mechanical properties :
#
#
# Convention : Reuss Voigt Hill
#
# Bulk Modulus (GPa) = 25.26268 41.58810 33.42539
# Shear Modulus (GPa) = -261.45428 22.48074 -119.48677
#
# Velocity S-wave (km/s) = -10.61693 3.11320 -7.17730
# Velocity P-wave (km/s) = 11.80682 5.55448 7.36711
#
# Compressibility (1/GPa) = 0.03958408
#
# Stress axis : x y z
#
# Youngs Moduli (GPa) = 63.27626 127.89479 35.79143
#
# Poissons Ratio (x) = 0.33274 0.16034
# Poissons Ratio (y) = 0.16462 -0.03909
# Poissons Ratio (z) = 0.28346 -0.13969
#
# Static dielectric constant tensor:
#      x y z
#    x 1.887740 0.000000 -0.034270 
#    y 0.000000 1.861680 0.000000 
#    z -0.034270 0.000000 1.982580 
# 
# From -- ./inp_files/39456.got.cif
#   From: 2010.05.17/outbox.cif.g08.bks.cpg/sg13_20_cif.got.tgz:39456.got - 2010.06.03 16:44:36.
