data_PCOD9228415
_publ_section_title
;
Structure prediction by ZEFSAII (Michael W. Deem and Ramdas Pophale) SiO2 
 PCOD9228415
Probable space group: P 2/C
;
_chemical_formula_sum "Si O2"
_cell_formula_units_Z 22
_cell_length_a 29.171336
_cell_length_b 8.061840
_cell_length_c 5.194807
_cell_angle_alpha 90.000000
_cell_angle_beta 100.766367
_cell_angle_gamma 90.000000
_cell_volume 1200.181622
_symmetry_space_group_name_H-M "P 2/C"
_symmetry_group_IT_number 13
_symmetry_cell_setting 'monoclinic'
loop_
_space_group_symop_operation_xyz
x,y,z
-x,y,1/2-z
-x,-y,-z
x,-y,1/2+z
loop_
_atom_site_type_symbol
_atom_site_label
_atom_site_fract_x
_atom_site_fract_y
_atom_site_fract_z
Si Si1 0.078443 0.388472 0.334650
Si Si2 0.000000 0.113716 0.250000
Si Si3 0.188302 0.611931 0.956649
Si Si4 0.266838 0.115338 0.512842
Si Si5 0.451313 0.388956 0.760199
Si Si6 0.651434 0.383723 0.924165
O O1 0.069052 0.498885 0.575989
O O2 0.133374 0.344565 0.392271
O O3 0.045241 0.231033 0.297762
O O4 0.000000 0.000000 0.500000
O O5 0.197942 0.488755 0.728553
O O6 0.220467 0.772192 0.970710
O O7 0.309845 0.243539 0.558642
O O8 0.268315 0.996870 0.760924
O O9 0.500000 0.296960 0.750000
O O10 0.452049 0.540195 0.551304
O O11 0.401000 0.309404 0.656653
O O12 0.656049 0.482729 0.197587
#
# Coordination Sequence:
#
# PCOD9228415 Si02
#       6
#     4   2   4   4   4   4
#     4  10  21  39  61  81 107 144 183 220 260 312
#     4  12  24  36  56  86 118 146 176 218 264 312
#     4  10  21  39  61  81 103 139 184 222 260 312
#     4  12  24  36  53  79 111 140 170 217 269 315
#     4   8  14  25  45  73  97 121 164 218 258 290
#     4  10  19  34  55  75 101 138 177 214 254 312
#
# _framework density 18.330559000000001
#
# number of rings (size 3 to 8) (size 9 to 14) (size 15 to 20)
#    0.000    1.818    0.000    4.909    0.000    1.455 
#    0.000    0.000    0.000    1.091    0.000    0.000 
#    0.000    0.000    0.000    0.000    0.000    0.000 
#
# Total GULP energy -122843.447030 kJ/mol
# GULP energy per Si atom -5583.793047 kJ/mol
# Density = 1.828884 g / cm^3
# Si number density = 18.330559 Si / 1000 Ang^3
#
#
#
# Elastic Constant Matrix: (Units=GPa)
#
#
# Indices 1 2 3 4 5 6 
#
# 1 129.3227 93.3566 56.5560 0.0000 -4.1098 0.0000
# 2 93.3566 98.7725 48.9721 0.0000 1.5602 0.0000
# 3 56.5560 48.9721 135.2938 0.0000 -17.6396 0.0000
# 4 0.0000 0.0000 0.0000 21.1011 0.0000 -5.1627
# 5 -4.1098 1.5602 -17.6396 0.0000 26.0340 0.0000
# 6 0.0000 0.0000 0.0000 -5.1627 0.0000 -9.1576
#
#
#
# Elastic Compliance Matrix: (Units=1/GPa)
#
#
# Indices 1 2 3 4 5 6 
#
# 1 0.025330 -0.023199 -0.001633 0.000000 0.004283 0.000000
# 2 -0.023199 0.034005 -0.003679 0.000000 -0.008193 0.000000
# 3 -0.001633 -0.003679 0.010312 0.000000 0.006949 0.000000
# 4 0.000000 0.000000 0.000000 0.041646 0.000000 -0.023479
# 5 0.004283 -0.008193 0.006949 0.000000 0.044287 0.000000
# 6 0.000000 0.000000 0.000000 -0.023479 0.000000 -0.095962
#
#
# Mechanical properties :
#
#
# Convention : Reuss Voigt Hill
#
# Bulk Modulus (GPa) = 79.21155 84.57315 81.89235
# Shear Modulus (GPa) = 41.37428 18.56246 29.96837
#
# Velocity S-wave (km/s) = 4.75607 3.18567 4.04776
# Velocity P-wave (km/s) = 8.57128 7.73106 8.16199
#
# Compressibility (1/GPa) = 0.01262442
#
# Stress axis : x y z
#
# Youngs Moduli (GPa) = 39.47886 29.40745 96.97767
#
# Poissons Ratio (x) = 0.68223 0.15834
# Poissons Ratio (y) = 0.91588 0.35679
# Poissons Ratio (z) = 0.06446 0.10819
#
# Static dielectric constant tensor:
#      x y z
#    x 1.670400 0.000000 0.007680 
#    y 0.000000 1.564760 0.000000 
#    z 0.007680 0.000000 1.615870 
# 
# From -- ./inp_files/7954.got.cif
#   From: 2010.05.17/outbox.cif.g08.bks.cpg/sg13_4_cif.got.tgz:7954.got - 2010.06.03 16:44:36.
