data_PCOD9228943
_publ_section_title
;
Structure prediction by ZEFSAII (Michael W. Deem and Ramdas Pophale) SiO2 
 PCOD9228943
Probable space group: P 2/C
;
_chemical_formula_sum "Si O2"
_cell_formula_units_Z 16
_cell_length_a 7.026199
_cell_length_b 11.350681
_cell_length_c 7.233081
_cell_angle_alpha 90.000000
_cell_angle_beta 89.948183
_cell_angle_gamma 90.000000
_cell_volume 576.853478
_symmetry_space_group_name_H-M "P 2/C"
_symmetry_group_IT_number 13
_symmetry_cell_setting 'monoclinic'
loop_
_space_group_symop_operation_xyz
x,y,z
-x,y,1/2-z
-x,-y,-z
x,-y,1/2+z
loop_
_atom_site_type_symbol
_atom_site_label
_atom_site_fract_x
_atom_site_fract_y
_atom_site_fract_z
Si Si1 0.500000 0.920197 0.250000
Si Si2 0.724687 0.341309 0.278720
Si Si3 0.239576 0.885666 0.571001
Si Si4 0.000000 0.795180 0.250000
Si Si5 0.724139 0.399863 0.700592
O O1 0.415016 0.854436 0.427474
O O2 0.673309 0.999085 0.331432
O O3 0.500000 0.338931 0.250000
O O4 0.790112 0.207246 0.262718
O O5 0.761116 0.360646 0.494096
O O6 0.792398 0.464177 0.195417
O O7 0.067661 0.873883 0.423988
O O8 0.163680 0.700421 0.185498
O O9 0.500000 0.401780 0.750000
#
# Coordination Sequence:
#
# PCOD9228943 Si02
#       5
#     2   4   4   2   4
#     4  10  22  44  68  86 120 168 214 268 312 360
#     4  10  19  36  61  92 126 169 204 242 309 382
#     4  10  22  40  66  92 122 162 215 259 317 363
#     4  10  24  38  64 100 128 160 206 258 308 384
#     4  10  21  37  60  90 134 166 200 246 308 379
#
# _framework density 27.736681000000001
#
# number of rings (size 3 to 8) (size 9 to 14) (size 15 to 20)
#    0.000    2.000    1.250    3.000    7.000    5.000 
#    0.000    0.000    0.000   13.500    0.000    0.000 
#    0.000    0.000    0.000    0.000    0.000    0.000 
#
# Total GULP energy -89309.715086 kJ/mol
# GULP energy per Si atom -5581.857193 kJ/mol
# Density = 2.767355 g / cm^3
# Si number density = 27.736681 Si / 1000 Ang^3
#
#
#
# Elastic Constant Matrix: (Units=GPa)
#
#
# Indices 1 2 3 4 5 6 
#
# 1 143.5455 40.0592 14.1572 0.0000 30.6739 0.0000
# 2 40.0592 151.0843 41.8877 0.0000 19.5782 0.0000
# 3 14.1572 41.8877 62.2921 0.0000 28.9865 0.0000
# 4 0.0000 0.0000 0.0000 64.9474 0.0000 62.8025
# 5 30.6739 19.5782 28.9865 0.0000 63.9858 0.0000
# 6 0.0000 0.0000 0.0000 62.8025 0.0000 69.0092
#
#
#
# Elastic Compliance Matrix: (Units=1/GPa)
#
#
# Indices 1 2 3 4 5 6 
#
# 1 0.008246 -0.002046 0.001330 0.000000 -0.003930 0.000000
# 2 -0.002046 0.008643 -0.005794 0.000000 0.000961 0.000000
# 3 0.001330 -0.005794 0.024226 0.000000 -0.009840 0.000000
# 4 0.000000 0.000000 0.000000 0.128313 0.000000 -0.116773
# 5 -0.003930 0.000961 -0.009840 0.000000 0.021676 0.000000
# 6 0.000000 0.000000 0.000000 -0.116773 0.000000 0.120761
#
#
# Mechanical properties :
#
#
# Convention : Reuss Voigt Hill
#
# Bulk Modulus (GPa) = 35.59316 61.01446 48.30381
# Shear Modulus (GPa) = 14.95888 56.97633 35.96760
#
# Velocity S-wave (km/s) = 2.32484 4.53723 3.60495
# Velocity P-wave (km/s) = 4.47961 7.03521 5.89750
#
# Compressibility (1/GPa) = 0.02809529
#
# Stress axis : x y z
#
# Youngs Moduli (GPa) = 121.27226 115.69794 41.27794
#
# Poissons Ratio (x) = 0.23671 -0.05491
# Poissons Ratio (y) = 0.24812 0.23917
# Poissons Ratio (z) = -0.16133 0.67038
#
# Static dielectric constant tensor:
#      x y z
#    x 1.932190 0.000000 -0.315720 
#    y 0.000000 2.324670 0.000000 
#    z -0.315720 0.000000 1.802290 
# 
# From -- ./inp_files/11112.got.cif
#   From: 2010.05.17/outbox.cif.g08.bks.cpg/sg13_6_cif.got.tgz:11112.got - 2010.06.03 16:44:36.
