data_PCOD9228864
_publ_section_title
;
Structure prediction by ZEFSAII (Michael W. Deem and Ramdas Pophale) SiO2 
 PCOD9228864
Probable space group: P 2/C
;
_chemical_formula_sum "Si O2"
_cell_formula_units_Z 18
_cell_length_a 14.255038
_cell_length_b 11.856603
_cell_length_c 10.475074
_cell_angle_alpha 90.000000
_cell_angle_beta 148.916400
_cell_angle_gamma 90.000000
_cell_volume 914.066872
_symmetry_space_group_name_H-M "P 2/C"
_symmetry_group_IT_number 13
_symmetry_cell_setting 'monoclinic'
loop_
_space_group_symop_operation_xyz
x,y,z
-x,y,1/2-z
-x,-y,-z
x,-y,1/2+z
loop_
_atom_site_type_symbol
_atom_site_label
_atom_site_fract_x
_atom_site_fract_y
_atom_site_fract_z
Si Si1 0.000000 0.933528 0.250000
Si Si2 0.159874 0.278626 0.543678
Si Si3 0.849735 0.764091 0.875470
Si Si4 0.697039 0.102283 0.968613
Si Si5 0.874470 0.478306 0.478113
O O1 0.121620 0.854781 0.481194
O O2 0.137379 0.015005 0.334709
O O3 0.283503 0.177405 0.637435
O O4 0.238568 0.405463 0.639563
O O5 0.000000 0.284151 0.250000
O O6 0.050600 0.252056 0.545552
O O7 0.724123 0.812444 0.617822
O O8 0.784424 0.642613 0.849249
O O9 0.500000 0.048111 0.750000
O O10 0.000000 0.466560 0.750000
O O11 0.000000 0.500000 0.500000
#
# Coordination Sequence:
#
# PCOD9228864 Si02
#       5
#     2   4   4   4   4
#     4  12  22  38  58  82 118 150 200 236 282 332
#     4   8  16  34  57  82 112 144 187 231 287 345
#     4  10  19  36  58  85 113 147 192 240 287 338
#     4  11  23  38  58  82 116 158 192 232 286 344
#     4   9  16  30  59  90 112 146 190 239 294 350
#
# _framework density 19.692214
#
# number of rings (size 3 to 8) (size 9 to 14) (size 15 to 20)
#    0.000    2.222    4.444    2.000    0.000    0.889 
#    0.000    1.111    0.000    1.333    0.000    0.000 
#    0.000    0.000    0.000    0.000    0.000    0.000 
#
# Total GULP energy -100271.710663 kJ/mol
# GULP energy per Si atom -5570.650592 kJ/mol
# Density = 1.964739 g / cm^3
# Si number density = 19.692214 Si / 1000 Ang^3
#
#
#
# Elastic Constant Matrix: (Units=GPa)
#
#
# Indices 1 2 3 4 5 6 
#
# 1 33.5277 -4.1378 0.9684 0.0000 -11.6165 0.0000
# 2 -4.1378 81.1427 -8.4568 0.0000 5.2175 0.0000
# 3 0.9684 -8.4568 19.4057 0.0000 11.7400 0.0000
# 4 0.0000 0.0000 0.0000 2.1873 0.0000 -2.2577
# 5 -11.6165 5.2175 11.7400 0.0000 27.4844 0.0000
# 6 0.0000 0.0000 0.0000 -2.2577 0.0000 -0.3646
#
#
#
# Elastic Compliance Matrix: (Units=1/GPa)
#
#
# Indices 1 2 3 4 5 6 
#
# 1 0.038330 -0.001311 -0.016769 0.000000 0.023612 0.000000
# 2 -0.001311 0.013892 0.010855 0.000000 -0.007828 0.000000
# 3 -0.016769 0.010855 0.084458 0.000000 -0.045225 0.000000
# 4 0.000000 0.000000 0.000000 0.061852 0.000000 -0.383007
# 5 0.023612 -0.007828 -0.045225 0.000000 0.067168 0.000000
# 6 0.000000 0.000000 0.000000 -0.383007 0.000000 -0.371072
#
#
# Mechanical properties :
#
#
# Convention : Reuss Voigt Hill
#
# Bulk Modulus (GPa) = 8.18132 12.31374 10.24753
# Shear Modulus (GPa) = -99.64297 15.57492 -42.03403
#
# Velocity S-wave (km/s) = -7.12110 2.81538 -4.62513
# Velocity P-wave (km/s) = 7.96554 4.10306 4.82777
#
# Compressibility (1/GPa) = 0.12222966
#
# Stress axis : x y z
#
# Youngs Moduli (GPa) = 26.08956 71.98482 11.84014
#
# Poissons Ratio (x) = 0.09440 0.19855
# Poissons Ratio (y) = 0.03421 -0.12853
# Poissons Ratio (z) = 0.43750 -0.78141
#
# Static dielectric constant tensor:
#      x y z
#    x 1.707370 0.000000 0.000560 
#    y 0.000000 1.753840 0.000000 
#    z 0.000560 0.000000 1.657070 
# 
# From -- ./inp_files/28510.got.cif
#   From: 2010.05.17/outbox.cif.g08.bks.cpg/sg13_15_cif.got.tgz:28510.got - 2010.06.03 16:44:36.
