data_PCOD9228148
_publ_section_title
;
Structure prediction by ZEFSAII (Michael W. Deem and Ramdas Pophale) SiO2 
 PCOD9228148
Probable space group: P 2/C
;
_chemical_formula_sum "Si O2"
_cell_formula_units_Z 26
_cell_length_a 10.210880
_cell_length_b 9.367944
_cell_length_c 17.853797
_cell_angle_alpha 90.000000
_cell_angle_beta 135.713810
_cell_angle_gamma 90.000000
_cell_volume 1192.461848
_symmetry_space_group_name_H-M "P 2/C"
_symmetry_group_IT_number 13
_symmetry_cell_setting 'monoclinic'
loop_
_space_group_symop_operation_xyz
x,y,z
-x,y,1/2-z
-x,-y,-z
x,-y,1/2+z
loop_
_atom_site_type_symbol
_atom_site_label
_atom_site_fract_x
_atom_site_fract_y
_atom_site_fract_z
Si Si1 0.421110 0.797361 0.009485
Si Si2 0.500000 0.510505 0.250000
Si Si3 0.748737 0.382160 0.576963
Si Si4 0.818232 0.607486 0.483347
Si Si5 0.318372 0.967514 0.816841
Si Si6 0.793152 0.705699 0.809763
Si Si7 0.000000 0.613742 0.750000
Si Si8 0.000000 0.145008 0.750000
O O1 0.552023 0.672105 0.028502
O O2 0.261626 0.724874 0.992326
O O3 0.528636 0.906189 0.109601
O O4 0.352624 0.879453 0.907814
O O5 0.666571 0.603610 0.354637
O O6 0.378844 0.405344 0.254202
O O7 0.781671 0.453491 0.509421
O O8 0.832011 0.506937 0.661636
O O9 0.876648 0.244591 0.645540
O O10 0.039209 0.649933 0.564708
O O11 0.302739 0.862263 0.738890
O O12 0.124081 0.048400 0.747523
O O13 0.911899 0.698060 0.781872
#
# Coordination Sequence:
#
# PCOD9228148 Si02
#       8
#     4   2   4   4   4   4   2   2
#     4  10  19  32  57  91 124 156 195 252 309 365
#     4  12  26  42  60  86 126 164 210 260 302 354
#     4   9  17  30  54  88 119 146 189 250 311 351
#     4  11  22  38  61  86 119 165 211 252 303 361
#     4  10  19  33  56  88 124 157 196 246 309 369
#     4  11  22  39  62  88 121 162 202 251 308 369
#     4   9  17  32  60  88 111 145 198 254 304 355
#     4   9  17  30  52  88 121 147 188 250 306 367
#
# _framework density 21.803632
#
# number of rings (size 3 to 8) (size 9 to 14) (size 15 to 20)
#    0.000    1.846    0.000    6.000    0.000    1.231 
#    0.000    0.769    0.000    2.769    0.000    0.000 
#    0.000    0.000    0.000    0.000    0.000    0.000 
#
# Total GULP energy -144751.688410 kJ/mol
# GULP energy per Si atom -5567.372631 kJ/mol
# Density = 2.175401 g / cm^3
# Si number density = 21.803632 Si / 1000 Ang^3
#
#
#
# Elastic Constant Matrix: (Units=GPa)
#
#
# Indices 1 2 3 4 5 6 
#
# 1 63.5946 15.4474 13.7101 0.0000 16.2380 0.0000
# 2 15.4474 78.1257 30.0317 0.0000 13.3484 0.0000
# 3 13.7101 30.0317 106.2233 0.0000 22.6098 0.0000
# 4 0.0000 0.0000 0.0000 4.8268 0.0000 20.9016
# 5 16.2380 13.3484 22.6098 0.0000 27.1110 0.0000
# 6 0.0000 0.0000 0.0000 20.9016 0.0000 7.1350
#
#
#
# Elastic Compliance Matrix: (Units=1/GPa)
#
#
# Indices 1 2 3 4 5 6 
#
# 1 0.018849 -0.002072 0.000412 0.000000 -0.010613 0.000000
# 2 -0.002072 0.015050 -0.003252 0.000000 -0.003457 0.000000
# 3 0.000412 -0.003252 0.012149 0.000000 -0.008777 0.000000
# 4 0.000000 0.000000 0.000000 -0.017730 0.000000 0.051938
# 5 -0.010613 -0.003457 -0.008777 0.000000 0.052264 0.000000
# 6 0.000000 0.000000 0.000000 0.051938 0.000000 -0.011994
#
#
# Mechanical properties :
#
#
# Convention : Reuss Voigt Hill
#
# Bulk Modulus (GPa) = 27.60586 40.70246 34.15416
# Shear Modulus (GPa) = 55.25684 20.39819 37.82751
#
# Velocity S-wave (km/s) = 5.03964 3.06198 4.16975
# Velocity P-wave (km/s) = 6.82294 5.58652 6.23546
#
# Compressibility (1/GPa) = 0.03622419
#
# Stress axis : x y z
#
# Youngs Moduli (GPa) = 53.05344 66.44409 82.31440
#
# Poissons Ratio (x) = 0.13767 -0.03391
# Poissons Ratio (y) = 0.10993 0.26766
# Poissons Ratio (z) = -0.02186 0.21606
#
# Static dielectric constant tensor:
#      x y z
#    x 1.785480 0.000000 -0.041170 
#    y 0.000000 1.841390 0.000000 
#    z -0.041170 0.000000 1.846210 
# 
# From -- ./inp_files/78365.got.cif
#   From: 2010.05.17/outbox.cif.g08.bks.cpg/sg13_40_cif.got.tgz:78365.got - 2010.06.03 16:44:36.
