data_PCOD9228780
_publ_section_title
;
Structure prediction by ZEFSAII (Michael W. Deem and Ramdas Pophale) SiO2 
 PCOD9228780
Probable space group: P 2/C
;
_chemical_formula_sum "Si O2"
_cell_formula_units_Z 20
_cell_length_a 5.551154
_cell_length_b 7.086136
_cell_length_c 20.745914
_cell_angle_alpha 90.000000
_cell_angle_beta 102.526410
_cell_angle_gamma 90.000000
_cell_volume 796.640565
_symmetry_space_group_name_H-M "P 2/C"
_symmetry_group_IT_number 13
_symmetry_cell_setting 'monoclinic'
loop_
_space_group_symop_operation_xyz
x,y,z
-x,y,1/2-z
-x,-y,-z
x,-y,1/2+z
loop_
_atom_site_type_symbol
_atom_site_label
_atom_site_fract_x
_atom_site_fract_y
_atom_site_fract_z
Si Si1 0.245107 0.084058 0.740333
Si Si2 0.718295 0.660515 0.712766
Si Si3 0.305487 0.199252 0.984979
Si Si4 0.241495 0.591838 0.927853
Si Si5 0.061397 0.063292 0.096848
O O1 0.500000 0.192612 0.750000
O O2 0.000000 0.185355 0.750000
O O3 0.273463 0.893166 0.785441
O O4 0.198864 0.013511 0.665733
O O5 0.500000 0.615916 0.750000
O O6 0.650265 0.576706 0.638311
O O7 0.000000 0.609949 0.750000
O O8 0.175627 0.396721 0.958245
O O9 0.576274 0.285542 0.015321
O O10 0.229645 0.076686 0.043162
O O11 0.189291 0.059608 0.925100
O O12 0.006787 0.719112 0.899975
#
# Coordination Sequence:
#
# PCOD9228780 Si02
#       5
#     4   4   4   4   4
#     4  10  19  35  64  91 120 173 219 266 331 391
#     4  10  19  35  64  91 120 173 219 266 331 391
#     4  10  24  38  62  98 126 172 218 270 342 396
#     4  11  21  40  64  91 133 167 223 273 336 402
#     4  11  21  40  64  91 133 167 223 273 336 402
#
# _framework density 25.105422999999998
#
# number of rings (size 3 to 8) (size 9 to 14) (size 15 to 20)
#    0.000    1.600    4.000    3.600    0.000    0.000 
#    0.000    1.000    0.000    4.800    0.000    0.000 
#    0.000    0.000    0.000    0.000    0.000    0.000 
#
# Total GULP energy -111540.813703 kJ/mol
# GULP energy per Si atom -5577.040685 kJ/mol
# Density = 2.504828 g / cm^3
# Si number density = 25.105423 Si / 1000 Ang^3
#
#
#
# Elastic Constant Matrix: (Units=GPa)
#
#
# Indices 1 2 3 4 5 6 
#
# 1 128.7744 20.3167 27.6193 0.0000 19.3267 0.0000
# 2 20.3167 119.1705 18.1528 0.0000 5.4553 0.0000
# 3 27.6193 18.1528 107.6401 0.0000 -1.8315 0.0000
# 4 0.0000 0.0000 0.0000 -3.5980 0.0000 -4.6273
# 5 19.3267 5.4553 -1.8315 0.0000 29.4490 0.0000
# 6 0.0000 0.0000 0.0000 -4.6273 0.0000 -11.6992
#
#
#
# Elastic Compliance Matrix: (Units=1/GPa)
#
#
# Indices 1 2 3 4 5 6 
#
# 1 0.009332 -0.000956 -0.002337 0.000000 -0.006093 0.000000
# 2 -0.000956 0.008795 -0.001256 0.000000 -0.001080 0.000000
# 3 -0.002337 -0.001256 0.010142 0.000000 0.002397 0.000000
# 4 0.000000 0.000000 0.000000 -0.565654 0.000000 0.223727
# 5 -0.006093 -0.001080 0.002397 0.000000 0.038305 0.000000
# 6 0.000000 0.000000 0.000000 0.223727 0.000000 -0.173964
#
#
# Mechanical properties :
#
#
# Convention : Reuss Voigt Hill
#
# Bulk Modulus (GPa) = 52.16205 54.19585 53.17895
# Shear Modulus (GPa) = -7.60393 22.13009 7.26308
#
# Velocity S-wave (km/s) = -1.74223 2.97220 1.70274
# Velocity P-wave (km/s) = 4.09575 5.78038 5.00939
#
# Compressibility (1/GPa) = 0.01917103
#
# Stress axis : x y z
#
# Youngs Moduli (GPa) = 107.15868 113.69912 98.59507
#
# Poissons Ratio (x) = 0.10871 0.23041
# Poissons Ratio (y) = 0.10245 0.12387
# Poissons Ratio (z) = 0.25042 0.14284
#
# Static dielectric constant tensor:
#      x y z
#    x 2.257230 0.000000 -0.091640 
#    y 0.000000 1.940150 0.000000 
#    z -0.091640 0.000000 2.058420 
# 
# From -- ./inp_files/83244.got.cif
#   From: 2010.05.17/outbox.cif.g08.bks.cpg/sg13_42_cif.got.tgz:83244.got - 2010.06.03 16:44:36.
