data_PCOD9228058
_publ_section_title
;
Structure prediction by ZEFSAII (Michael W. Deem and Ramdas Pophale) SiO2 
 PCOD9228058
Probable space group: P 2/C
;
_chemical_formula_sum "Si O2"
_cell_formula_units_Z 26
_cell_length_a 15.290486
_cell_length_b 8.410832
_cell_length_c 12.411255
_cell_angle_alpha 90.000000
_cell_angle_beta 113.944621
_cell_angle_gamma 90.000000
_cell_volume 1458.789933
_symmetry_space_group_name_H-M "P 2/C"
_symmetry_group_IT_number 13
_symmetry_cell_setting 'monoclinic'
loop_
_space_group_symop_operation_xyz
x,y,z
-x,y,1/2-z
-x,-y,-z
x,-y,1/2+z
loop_
_atom_site_type_symbol
_atom_site_label
_atom_site_fract_x
_atom_site_fract_y
_atom_site_fract_z
Si Si1 0.762580 0.499998 0.631291
Si Si2 0.681402 1.000000 0.590702
Si Si3 0.000000 0.000003 0.250000
Si Si4 0.159799 0.801040 0.708325
Si Si5 0.606962 0.701797 0.430480
Si Si6 0.159801 0.801043 0.451473
Si Si7 0.606964 0.701799 0.176486
O O1 0.823862 0.632737 0.723937
O O2 0.691164 0.587223 0.512513
O O3 0.823861 0.367261 0.599927
O O4 0.691166 0.412773 0.678656
O O5 0.750430 0.910695 0.710479
O O6 0.620650 0.866298 0.500648
O O7 0.750427 0.089305 0.539948
O O8 0.620650 0.133699 0.620006
O O9 0.932830 0.110160 0.290523
O O10 0.932828 0.889846 0.142309
O O11 0.155528 0.784019 0.577763
O O12 0.616188 0.729139 0.308096
O O13 0.499999 0.637417 0.397577
#
# Coordination Sequence:
#
# PCOD9228058 Si02
#       7
#     4   4   2   4   4   4   4
#     4  10  21  35  52  78 106 138 172 207 255 312
#     4   9  19  33  53  78 104 138 179 213 249 297
#     4  10  22  38  58  82  98 126 172 216 260 314
#     4  10  20  37  57  77 105 135 168 212 260 308
#     4  10  19  32  51  76 107 141 176 213 251 293
#     4  10  20  37  57  77 105 135 168 212 260 308
#     4  10  19  32  51  76 107 141 176 213 251 293
#
# _framework density 17.822991999999999
#
# number of rings (size 3 to 8) (size 9 to 14) (size 15 to 20)
#    0.000    2.154    0.000    3.231    0.000    0.615 
#    0.000    6.154    0.000   14.769    0.000    0.000 
#    0.000    0.000    0.000    0.000    0.000    0.000 
#
# Total GULP energy -145107.371145 kJ/mol
# GULP energy per Si atom -5581.052736 kJ/mol
# Density = 1.778243 g / cm^3
# Si number density = 17.822992 Si / 1000 Ang^3
#
#
#
# Elastic Constant Matrix: (Units=GPa)
#
#
# Indices 1 2 3 4 5 6 
#
# 1 98.8053 55.0026 80.5905 0.0000 -1.5829 0.0000
# 2 55.0026 112.0078 56.8558 0.0000 -1.2585 0.0000
# 3 80.5905 56.8558 126.4657 0.0000 -17.1384 0.0000
# 4 0.0000 0.0000 0.0000 16.7401 0.0000 7.6349
# 5 -1.5829 -1.2585 -17.1384 0.0000 20.7920 0.0000
# 6 0.0000 0.0000 0.0000 7.6349 0.0000 28.0322
#
#
#
# Elastic Compliance Matrix: (Units=1/GPa)
#
#
# Indices 1 2 3 4 5 6 
#
# 1 0.025082 -0.004621 -0.015406 0.000000 -0.011069 0.000000
# 2 -0.004621 0.012728 -0.003063 0.000000 -0.002106 0.000000
# 3 -0.015406 -0.003063 0.021297 0.000000 0.016196 0.000000
# 4 0.000000 0.000000 0.000000 0.068210 0.000000 -0.018578
# 5 -0.011069 -0.002106 0.016196 0.000000 0.060475 0.000000
# 6 0.000000 0.000000 0.000000 -0.018578 0.000000 0.040733
#
#
# Mechanical properties :
#
#
# Convention : Reuss Voigt Hill
#
# Bulk Modulus (GPa) = 77.35840 80.24184 78.80012
# Shear Modulus (GPa) = 17.92020 22.76820 20.34420
#
# Velocity S-wave (km/s) = 3.17433 3.57804 3.38221
# Velocity P-wave (km/s) = 7.54540 7.88601 7.71758
#
# Compressibility (1/GPa) = 0.01292684
#
# Stress axis : x y z
#
# Youngs Moduli (GPa) = 39.86926 78.56543 46.95526
#
# Poissons Ratio (x) = 0.36304 0.72340
# Poissons Ratio (y) = 0.18423 0.14383
# Poissons Ratio (z) = 0.61423 0.24065
#
# Static dielectric constant tensor:
#      x y z
#    x 1.588820 0.000000 0.011460 
#    y 0.000000 1.611020 0.000000 
#    z 0.011460 0.000000 1.571870 
# 
# From -- ./inp_files/36026.got.cif
#   From: 2010.05.17/outbox.cif.g08.bks.cpg/sg13_19_cif.got.tgz:36026.got - 2010.06.03 16:44:36.
