data_PCOD9228053
_publ_section_title
;
Structure prediction by ZEFSAII (Michael W. Deem and Ramdas Pophale) SiO2 
 PCOD9228053
Probable space group: P 2/C
;
_chemical_formula_sum "Si O2"
_cell_formula_units_Z 28
_cell_length_a 13.084269
_cell_length_b 5.135999
_cell_length_c 19.950079
_cell_angle_alpha 90.000000
_cell_angle_beta 117.020701
_cell_angle_gamma 90.000000
_cell_volume 1194.317821
_symmetry_space_group_name_H-M "P 2/C"
_symmetry_group_IT_number 13
_symmetry_cell_setting 'monoclinic'
loop_
_space_group_symop_operation_xyz
x,y,z
-x,y,1/2-z
-x,-y,-z
x,-y,1/2+z
loop_
_atom_site_type_symbol
_atom_site_label
_atom_site_fract_x
_atom_site_fract_y
_atom_site_fract_z
Si Si1 0.172394 0.145703 0.386063
Si Si2 0.607213 0.529163 0.579538
Si Si3 0.832062 0.059173 0.758986
Si Si4 0.213041 0.647611 0.450521
Si Si5 0.100685 0.953029 0.582019
Si Si6 0.751545 0.452899 0.897180
Si Si7 0.318248 0.561056 0.760294
O O1 0.306194 0.234391 0.412919
O O2 0.129175 0.029793 0.303118
O O3 0.126313 0.425288 0.398397
O O4 0.164404 0.933255 0.441796
O O5 0.500000 0.500000 0.500000
O O6 0.694812 0.307272 0.581222
O O7 0.588388 0.525648 0.653301
O O8 0.730757 0.852799 0.747475
O O9 0.921138 0.013536 0.845830
O O10 0.781824 0.351684 0.748925
O O11 0.274275 0.533993 0.534437
O O12 0.201787 0.160859 0.594753
O O13 0.146130 0.657721 0.589474
O O14 0.000000 0.000000 0.500000
O O15 0.659298 0.501478 0.810850
#
# Coordination Sequence:
#
# PCOD9228053 Si02
#       7
#     4   4   4   4   4   4   4
#     4   9  17  31  51  73  99 134 173 200 249 299
#     4   9  19  32  52  79 100 132 174 219 247 290
#     4   9  15  31  50  73  94 128 172 205 232 309
#     4  10  19  32  51  75 102 137 170 202 253 303
#     4  10  20  33  56  79 101 128 168 218 255 294
#     4  10  20  34  54  76 104 134 171 204 253 315
#     4   9  17  31  49  75  94 135 172 200 245 304
#
# _framework density 23.444344999999998
#
# number of rings (size 3 to 8) (size 9 to 14) (size 15 to 20)
#    0.857    1.714    1.429    1.286    0.000    0.571 
#    0.000    0.714    0.000    5.143    3.714    0.000 
#    0.000    0.000    0.000    0.000    0.000    0.000 
#
# Total GULP energy -155919.157872 kJ/mol
# GULP energy per Si atom -5568.541353 kJ/mol
# Density = 2.339098 g / cm^3
# Si number density = 23.444345 Si / 1000 Ang^3
#
#
#
# Elastic Constant Matrix: (Units=GPa)
#
#
# Indices 1 2 3 4 5 6 
#
# 1 27.8570 6.0495 23.3280 0.0000 -9.0031 0.0000
# 2 6.0495 119.7322 5.6524 0.0000 -0.3061 0.0000
# 3 23.3280 5.6524 205.3395 0.0000 -14.8321 0.0000
# 4 0.0000 0.0000 0.0000 30.8579 0.0000 -11.2589
# 5 -9.0031 -0.3061 -14.8321 0.0000 42.7053 0.0000
# 6 0.0000 0.0000 0.0000 -11.2589 0.0000 8.2672
#
#
#
# Elastic Compliance Matrix: (Units=1/GPa)
#
#
# Indices 1 2 3 4 5 6 
#
# 1 0.042240 -0.001916 -0.004209 0.000000 0.007429 0.000000
# 2 -0.001916 0.008450 -0.000041 0.000000 -0.000358 0.000000
# 3 -0.004209 -0.000041 0.005421 0.000000 0.000995 0.000000
# 4 0.000000 0.000000 0.000000 0.064414 0.000000 0.087724
# 5 0.007429 -0.000358 0.000995 0.000000 0.025326 0.000000
# 6 0.000000 0.000000 0.000000 0.087724 0.000000 0.240428
#
#
# Mechanical properties :
#
#
# Convention : Reuss Voigt Hill
#
# Bulk Modulus (GPa) = 22.84260 46.99872 34.92066
# Shear Modulus (GPa) = 12.10055 37.55933 24.82994
#
# Velocity S-wave (km/s) = 2.27434 4.00692 3.25791
# Velocity P-wave (km/s) = 4.08182 6.44187 5.39254
#
# Compressibility (1/GPa) = 0.04377786
#
# Stress axis : x y z
#
# Youngs Moduli (GPa) = 23.67429 118.34587 184.46109
#
# Poissons Ratio (x) = 0.22681 0.77646
# Poissons Ratio (y) = 0.04537 0.00751
# Poissons Ratio (z) = 0.09965 0.00482
#
# Static dielectric constant tensor:
#      x y z
#    x 1.976570 0.000000 -0.011760 
#    y 0.000000 1.934450 0.000000 
#    z -0.011760 0.000000 1.977070 
# 
# From -- ./inp_files/80609.got.cif
#   From: 2010.05.17/outbox.cif.g08.bks.cpg/sg13_41_cif.got.tgz:80609.got - 2010.06.03 16:44:36.
