data_PCOD9228173
_publ_section_title
;
Structure prediction by ZEFSAII (Michael W. Deem and Ramdas Pophale) SiO2 
 PCOD9228173
Probable space group: P 2/C
;
_chemical_formula_sum "Si O2"
_cell_formula_units_Z 24
_cell_length_a 17.986100
_cell_length_b 9.972568
_cell_length_c 9.197735
_cell_angle_alpha 90.000000
_cell_angle_beta 139.527954
_cell_angle_gamma 90.000000
_cell_volume 1070.831425
_symmetry_space_group_name_H-M "P 2/C"
_symmetry_group_IT_number 13
_symmetry_cell_setting 'monoclinic'
loop_
_space_group_symop_operation_xyz
x,y,z
-x,y,1/2-z
-x,-y,-z
x,-y,1/2+z
loop_
_atom_site_type_symbol
_atom_site_label
_atom_site_fract_x
_atom_site_fract_y
_atom_site_fract_z
Si Si1 0.609168 0.291065 0.513191
Si Si2 0.278941 0.763993 0.054518
Si Si3 0.897949 0.390931 0.992708
Si Si4 0.813881 0.750436 0.111179
Si Si5 0.285486 0.418025 0.299570
Si Si6 0.084977 0.024716 0.259225
O O1 0.500000 0.276690 0.250000
O O2 0.613723 0.219637 0.676815
O O3 0.712950 0.223650 0.576904
O O4 0.630868 0.452297 0.572222
O O5 0.194369 0.674251 0.031941
O O6 0.318522 0.688850 0.969354
O O7 0.197006 0.887730 0.894753
O O8 0.912644 0.304395 0.868069
O O9 0.836662 0.520554 0.835039
O O10 0.000000 0.424209 0.250000
O O11 0.749752 0.650011 0.905093
O O12 0.865765 0.881417 0.113786
O O13 0.000000 0.091521 0.250000
O O14 0.000000 0.000000 0.000000
#
# Coordination Sequence:
#
# PCOD9228173 Si02
#       6
#     4   4   4   4   4   4
#     4  10  21  41  64  83 113 154 190 241 309 351
#     4  10  21  37  55  84 116 148 196 242 279 343
#     4  10  19  33  51  76 114 152 184 233 297 344
#     4  10  22  37  55  86 114 147 201 242 275 347
#     4  10  21  34  55  85 114 141 189 248 290 345
#     4  12  23  38  61  84 119 166 197 228 284 348
#
# _framework density 22.412490999999999
#
# number of rings (size 3 to 8) (size 9 to 14) (size 15 to 20)
#    0.000    2.000    0.000    8.500    0.000    7.333 
#    0.000    0.833    0.000    2.000    0.000    0.000 
#    0.000    0.000    0.000    0.000    0.000    0.000 
#
# Total GULP energy -133710.798456 kJ/mol
# GULP energy per Si atom -5571.283269 kJ/mol
# Density = 2.236148 g / cm^3
# Si number density = 22.412491 Si / 1000 Ang^3
#
#
#
# Elastic Constant Matrix: (Units=GPa)
#
#
# Indices 1 2 3 4 5 6 
#
# 1 15.9805 -2.1251 4.2419 0.0000 -12.4548 0.0000
# 2 -2.1251 25.2488 14.5484 0.0000 2.4331 0.0000
# 3 4.2419 14.5484 184.8201 0.0000 -6.2813 0.0000
# 4 0.0000 0.0000 0.0000 21.3996 0.0000 -3.8001
# 5 -12.4548 2.4331 -6.2813 0.0000 31.7442 0.0000
# 6 0.0000 0.0000 0.0000 -3.8001 0.0000 17.0870
#
#
#
# Elastic Compliance Matrix: (Units=1/GPa)
#
#
# Indices 1 2 3 4 5 6 
#
# 1 0.090876 0.005018 -0.001291 0.000000 0.035015 0.000000
# 2 0.005018 0.042238 -0.003507 0.000000 -0.001962 0.000000
# 3 -0.001291 -0.003507 0.005747 0.000000 0.000900 0.000000
# 4 0.000000 0.000000 0.000000 0.048651 0.000000 0.010820
# 5 0.035015 -0.001962 0.000900 0.000000 0.045568 0.000000
# 6 0.000000 0.000000 0.000000 0.010820 0.000000 0.060930
#
#
# Mechanical properties :
#
#
# Convention : Reuss Voigt Hill
#
# Bulk Modulus (GPa) = 7.17863 28.81996 17.99929
# Shear Modulus (GPa) = 14.70573 28.00511 21.35542
#
# Velocity S-wave (km/s) = 2.56430 3.53871 3.09015
# Velocity P-wave (km/s) = 3.46084 5.43906 4.55855
#
# Compressibility (1/GPa) = 0.13930242
#
# Stress axis : x y z
#
# Youngs Moduli (GPa) = 11.00398 23.67540 174.00695
#
# Poissons Ratio (x) = -0.11881 0.22460
# Poissons Ratio (y) = -0.05522 0.61019
# Poissons Ratio (z) = 0.01420 0.08302
#
# Static dielectric constant tensor:
#      x y z
#    x 1.868660 0.000000 0.007760 
#    y 0.000000 1.917090 0.000000 
#    z 0.007760 0.000000 1.929060 
# 
# From -- ./inp_files/23285.got.cif
#   From: 2010.05.17/outbox.cif.g08.bks.cpg/sg13_12_cif.got.tgz:23285.got - 2010.06.03 16:44:36.
