data_PCOD9228237
_publ_section_title
;
Structure prediction by ZEFSAII (Michael W. Deem and Ramdas Pophale) SiO2 
 PCOD9228237
Probable space group: P 2/C
;
_chemical_formula_sum "Si O2"
_cell_formula_units_Z 32
_cell_length_a 15.514298
_cell_length_b 21.143255
_cell_length_c 15.464050
_cell_angle_alpha 90.000000
_cell_angle_beta 161.599107
_cell_angle_gamma 90.000000
_cell_volume 1601.223805
_symmetry_space_group_name_H-M "P 2/C"
_symmetry_group_IT_number 13
_symmetry_cell_setting 'monoclinic'
loop_
_space_group_symop_operation_xyz
x,y,z
-x,y,1/2-z
-x,-y,-z
x,-y,1/2+z
loop_
_atom_site_type_symbol
_atom_site_label
_atom_site_fract_x
_atom_site_fract_y
_atom_site_fract_z
Si Si1 0.463504 0.243497 0.923195
Si Si2 0.461224 0.901158 0.472627
Si Si3 0.746960 0.965904 0.053352
Si Si4 0.148868 0.361213 0.689724
Si Si5 0.410330 0.594335 0.760109
Si Si6 0.018630 0.774699 0.867025
Si Si7 0.995900 0.920250 0.595247
Si Si8 0.274055 0.523637 0.217259
O O1 0.438499 0.174417 0.942328
O O2 0.290805 0.293577 0.813564
O O3 0.309596 0.240342 0.684927
O O4 0.780654 0.254752 0.201519
O O5 0.357824 0.927607 0.463993
O O6 0.775710 0.919459 0.761768
O O7 0.291100 0.928197 0.227756
O O8 0.000000 0.929716 0.250000
O O9 0.899191 0.027485 0.238512
O O10 0.500000 0.978148 0.750000
O O11 0.228433 0.401067 0.678176
O O12 0.835969 0.368001 0.424623
O O13 0.319970 0.395870 0.926988
O O14 0.500000 0.614442 0.750000
O O15 0.324923 0.519847 0.682113
O O16 0.990098 0.851017 0.848015
O O17 0.000000 0.755679 0.750000
O O18 0.500000 0.500000 0.500000
O O19 0.000000 0.500000 0.000000
#
# Coordination Sequence:
#
# PCOD9228237 Si02
#       8
#     4   4   4   4   4   4   4   4
#     4  10  21  36  57  77 106 149 181 208 259 329
#     4  10  21  38  55  76 106 143 179 215 264 328
#     4  12  23  35  54  81 109 136 174 227 274 315
#     4  10  19  35  55  77 107 146 183 212 260 326
#     4  10  19  33  54  81 107 135 181 233 264 295
#     4  10  20  35  55  81 106 131 173 229 272 311
#     4  10  20  36  58  77 101 138 178 217 272 334
#     4   8  16  30  51  74 101 134 166 209 264 310
#
# _framework density 19.984714
#
# number of rings (size 3 to 8) (size 9 to 14) (size 15 to 20)
#    0.000    2.000    0.000    4.125    0.000    2.000 
#    0.000    3.125    0.000    0.000    0.000    0.000 
#    0.000    0.000    0.000    0.000    0.000    0.000 
#
# Total GULP energy -178302.103346 kJ/mol
# GULP energy per Si atom -5571.940730 kJ/mol
# Density = 1.993923 g / cm^3
# Si number density = 19.984714 Si / 1000 Ang^3
#
#
#
# Elastic Constant Matrix: (Units=GPa)
#
#
# Indices 1 2 3 4 5 6 
#
# 1 68.2296 8.0973 -9.1613 0.0000 2.6246 0.0000
# 2 8.0973 50.5440 -12.9018 0.0000 1.1953 0.0000
# 3 -9.1613 -12.9018 83.8033 0.0000 10.9948 0.0000
# 4 0.0000 0.0000 0.0000 17.9792 0.0000 4.6528
# 5 2.6246 1.1953 10.9948 0.0000 25.7056 0.0000
# 6 0.0000 0.0000 0.0000 4.6528 0.0000 12.4073
#
#
#
# Elastic Compliance Matrix: (Units=1/GPa)
#
#
# Indices 1 2 3 4 5 6 
#
# 1 0.015193 -0.001964 0.001642 0.000000 -0.002162 0.000000
# 2 -0.001964 0.020995 0.003305 0.000000 -0.002189 0.000000
# 3 0.001642 0.003305 0.013416 0.000000 -0.006060 0.000000
# 4 0.000000 0.000000 0.000000 0.061598 0.000000 -0.023100
# 5 -0.002162 -0.002189 -0.006060 0.000000 0.041816 0.000000
# 6 0.000000 0.000000 0.000000 -0.023100 0.000000 0.089260
#
#
# Mechanical properties :
#
#
# Convention : Reuss Voigt Hill
#
# Bulk Modulus (GPa) = 17.99510 19.40503 18.70007
# Shear Modulus (GPa) = 19.62051 25.65459 22.63755
#
# Velocity S-wave (km/s) = 3.13673 3.58678 3.36928
# Velocity P-wave (km/s) = 4.70561 5.18501 4.95111
#
# Compressibility (1/GPa) = 0.05557068
#
# Stress axis : x y z
#
# Youngs Moduli (GPa) = 65.81924 47.63111 74.53764
#
# Poissons Ratio (x) = 0.09353 -0.12241
# Poissons Ratio (y) = 0.12925 -0.24633
# Poissons Ratio (z) = -0.10809 -0.15741
#
# Static dielectric constant tensor:
#      x y z
#    x 1.729890 0.000000 0.005430 
#    y 0.000000 1.785330 0.000000 
#    z 0.005430 0.000000 1.697000 
# 
# From -- ./inp_files/54003.got.cif
#   From: 2010.05.17/outbox.cif.g08.bks.cpg/sg13_28_cif.got.tgz:54003.got - 2010.06.03 16:44:36.
