data_PCOD9228063
_publ_section_title
;
Structure prediction by ZEFSAII (Michael W. Deem and Ramdas Pophale) SiO2 
 PCOD9228063
Probable space group: P 2/C
;
_chemical_formula_sum "Si O2"
_cell_formula_units_Z 28
_cell_length_a 4.928405
_cell_length_b 24.743842
_cell_length_c 11.625917
_cell_angle_alpha 90.000000
_cell_angle_beta 76.634080
_cell_angle_gamma 90.000000
_cell_volume 1379.351636
_symmetry_space_group_name_H-M "P 2/C"
_symmetry_group_IT_number 13
_symmetry_cell_setting 'monoclinic'
loop_
_space_group_symop_operation_xyz
x,y,z
-x,y,1/2-z
-x,-y,-z
x,-y,1/2+z
loop_
_atom_site_type_symbol
_atom_site_label
_atom_site_fract_x
_atom_site_fract_y
_atom_site_fract_z
Si Si1 0.225193 0.524533 0.131672
Si Si2 0.943252 0.755130 0.389664
Si Si3 0.805251 0.131216 0.006978
Si Si4 0.788089 0.572339 0.016585
Si Si5 0.255550 0.095258 0.134645
Si Si6 0.558184 0.315524 0.608655
Si Si7 0.146996 0.020155 0.608771
O O1 0.540568 0.543610 0.114803
O O2 0.000000 0.536108 0.250000
O O3 0.090122 0.558250 0.038700
O O4 0.226868 0.461231 0.099924
O O5 0.823118 0.809589 0.453621
O O6 0.730165 0.704828 0.416260
O O7 0.000000 0.765147 0.250000
O O8 0.232920 0.735185 0.414084
O O9 0.543565 0.126769 0.119094
O O10 0.100653 0.117989 0.036986
O O11 0.755901 0.081172 0.924525
O O12 0.703613 0.634392 0.031776
O O13 0.000000 0.097955 0.250000
O O14 0.340189 0.032030 0.113937
O O15 0.500000 0.329208 0.750000
O O16 0.000000 0.023734 0.750000
O O17 0.000000 0.000000 0.500000
#
# Coordination Sequence:
#
# PCOD9228063 Si02
#       7
#     4   4   4   4   4   4   4
#     4  10  19  32  51  78 107 134 168 208 254 304
#     4  10  21  34  52  78 104 135 173 216 265 313
#     4  11  20  36  56  79 109 142 177 227 276 324
#     4  10  20  32  52  78 104 138 171 206 254 309
#     4  10  21  36  56  80 106 140 181 223 274 331
#     4  10  19  33  51  73 105 139 173 213 257 309
#     4   9  19  35  56  84 115 148 184 227 284 348
#
# _framework density 20.299392000000001
#
# number of rings (size 3 to 8) (size 9 to 14) (size 15 to 20)
#    0.000    2.000    0.000    4.286    0.000    1.143 
#    0.000   10.000    0.000    5.143    0.000    0.000 
#    0.000    0.000    0.000    0.000    0.000    0.000 
#
# Total GULP energy -155912.558089 kJ/mol
# GULP energy per Si atom -5568.305646 kJ/mol
# Density = 2.025319 g / cm^3
# Si number density = 20.299392 Si / 1000 Ang^3
#
#
#
# Elastic Constant Matrix: (Units=GPa)
#
#
# Indices 1 2 3 4 5 6 
#
# 1 80.6238 -1.0022 2.7468 0.0000 -8.7475 0.0000
# 2 -1.0022 104.3525 16.5935 0.0000 -4.0999 0.0000
# 3 2.7468 16.5935 45.4883 0.0000 -5.6316 0.0000
# 4 0.0000 0.0000 0.0000 20.0756 0.0000 -16.7779
# 5 -8.7475 -4.0999 -5.6316 0.0000 17.4842 0.0000
# 6 0.0000 0.0000 0.0000 -16.7779 0.0000 23.6993
#
#
#
# Elastic Compliance Matrix: (Units=1/GPa)
#
#
# Indices 1 2 3 4 5 6 
#
# 1 0.013131 0.000406 -0.000121 0.000000 0.006626 0.000000
# 2 0.000406 0.010211 -0.003570 0.000000 0.001447 0.000000
# 3 -0.000121 -0.003570 0.024145 0.000000 0.006880 0.000000
# 4 0.000000 0.000000 0.000000 0.121985 0.000000 0.086359
# 5 0.006626 0.001447 0.006880 0.000000 0.063065 0.000000
# 6 0.000000 0.000000 0.000000 0.086359 0.000000 0.103333
#
#
# Mechanical properties :
#
#
# Convention : Reuss Voigt Hill
#
# Bulk Modulus (GPa) = 24.43949 29.68230 27.06089
# Shear Modulus (GPa) = 14.04181 26.39359 20.21770
#
# Velocity S-wave (km/s) = 2.63294 3.60976 3.15933
# Velocity P-wave (km/s) = 4.61615 5.65932 5.16414
#
# Compressibility (1/GPa) = 0.04091738
#
# Stress axis : x y z
#
# Youngs Moduli (GPa) = 76.15367 97.92986 41.41633
#
# Poissons Ratio (x) = -0.03972 0.00499
# Poissons Ratio (y) = -0.03089 0.14787
# Poissons Ratio (z) = 0.00918 0.34964
#
# Static dielectric constant tensor:
#      x y z
#    x 1.747040 0.000000 0.027480 
#    y 0.000000 1.697660 0.000000 
#    z 0.027480 0.000000 1.818250 
# 
# From -- ./inp_files/26712.got.cif
#   From: 2010.05.17/outbox.cif.g08.bks.cpg/sg13_14_cif.got.tgz:26712.got - 2010.06.03 16:44:36.
