data_PCOD9228773
_publ_section_title
;
Structure prediction by ZEFSAII (Michael W. Deem and Ramdas Pophale) SiO2 
 PCOD9228773
Probable space group: P 2/C
;
_chemical_formula_sum "Si O2"
_cell_formula_units_Z 24
_cell_length_a 20.021799
_cell_length_b 7.978293
_cell_length_c 20.645005
_cell_angle_alpha 90.000000
_cell_angle_beta 22.240943
_cell_angle_gamma 90.000000
_cell_volume 1248.235712
_symmetry_space_group_name_H-M "P 2/C"
_symmetry_group_IT_number 13
_symmetry_cell_setting 'monoclinic'
loop_
_space_group_symop_operation_xyz
x,y,z
-x,y,1/2-z
-x,-y,-z
x,-y,1/2+z
loop_
_atom_site_type_symbol
_atom_site_label
_atom_site_fract_x
_atom_site_fract_y
_atom_site_fract_z
Si Si1 0.342997 0.777155 0.029479
Si Si2 0.811728 0.092922 0.384899
Si Si3 0.500000 0.703892 0.750000
Si Si4 0.728577 0.459561 0.618648
Si Si5 0.145218 0.421072 0.236138
Si Si6 0.369515 0.379002 0.155848
Si Si7 0.500000 0.196553 0.750000
O O1 0.224338 0.943392 0.133725
O O2 0.232112 0.603320 0.140611
O O3 0.437536 0.775639 0.874598
O O4 0.504689 0.774191 0.935471
O O5 0.000000 0.069988 0.250000
O O6 0.801492 0.276769 0.362063
O O7 0.657998 0.094411 0.576380
O O8 0.669478 0.595793 0.619121
O O9 0.691091 0.530021 0.723869
O O10 0.597913 0.307611 0.717163
O O11 0.934121 0.426098 0.426006
O O12 0.211487 0.358787 0.247274
O O13 0.500000 0.500000 0.000000
#
# Coordination Sequence:
#
# PCOD9228773 Si02
#       7
#     4   4   2   4   4   4   2
#     4  10  23  39  61  89 122 159 202 252 300 360
#     4  12  25  39  62  93 122 162 206 250 306 360
#     4   9  19  34  58  87 117 160 197 245 312 345
#     4  10  19  35  63  91 119 161 202 248 305 361
#     4  11  22  39  63  89 125 159 203 252 298 368
#     4   9  19  39  62  87 117 164 204 243 306 358
#     4  11  21  40  60  89 133 156 203 261 298 357
#
# _framework density 19.227138
#
# number of rings (size 3 to 8) (size 9 to 14) (size 15 to 20)
#    0.000    1.667    1.667    5.000    2.333    0.667 
#    0.000    0.000    0.000    6.000    0.000    0.000 
#    0.000    0.000    0.000    0.000    0.000    0.000 
#
# Total GULP energy -133692.768058 kJ/mol
# GULP energy per Si atom -5570.532002 kJ/mol
# Density = 1.918338 g / cm^3
# Si number density = 19.227138 Si / 1000 Ang^3
#
#
#
# Elastic Constant Matrix: (Units=GPa)
#
#
# Indices 1 2 3 4 5 6 
#
# 1 95.5600 11.2680 39.0201 0.0000 -24.7971 0.0000
# 2 11.2680 70.4108 23.0521 0.0000 -17.9507 0.0000
# 3 39.0201 23.0521 109.8061 0.0000 -24.8167 0.0000
# 4 0.0000 0.0000 0.0000 -27.8539 0.0000 -11.8177
# 5 -24.7971 -17.9507 -24.8167 0.0000 40.8469 0.0000
# 6 0.0000 0.0000 0.0000 -11.8177 0.0000 15.5224
#
#
#
# Elastic Compliance Matrix: (Units=1/GPa)
#
#
# Indices 1 2 3 4 5 6 
#
# 1 0.013454 0.000596 -0.003479 0.000000 0.006316 0.000000
# 2 0.000596 0.016429 -0.002257 0.000000 0.006211 0.000000
# 3 -0.003479 -0.002257 0.011726 0.000000 0.004020 0.000000
# 4 0.000000 0.000000 0.000000 -0.027136 0.000000 -0.020660
# 5 0.006316 0.006211 0.004020 0.000000 0.033488 0.000000
# 6 0.000000 0.000000 0.000000 -0.020660 0.000000 0.048694
#
#
# Mechanical properties :
#
#
# Convention : Reuss Voigt Hill
#
# Bulk Modulus (GPa) = 31.91936 46.93971 39.42954
# Shear Modulus (GPa) = 42.59792 19.19887 30.89839
#
# Velocity S-wave (km/s) = 4.71203 3.16338 4.01311
# Velocity P-wave (km/s) = 6.80011 6.14889 6.48268
#
# Compressibility (1/GPa) = 0.03132895
#
# Stress axis : x y z
#
# Youngs Moduli (GPa) = 74.32919 60.86676 85.28398
#
# Poissons Ratio (x) = -0.03628 0.29666
# Poissons Ratio (y) = -0.04430 0.19251
# Poissons Ratio (z) = 0.25856 0.13739
#
# Static dielectric constant tensor:
#      x y z
#    x 1.671450 0.000000 -0.023880 
#    y 0.000000 1.741080 0.000000 
#    z -0.023880 0.000000 1.656050 
# 
# From -- ./inp_files/81653.got.cif
#   From: 2010.05.17/outbox.cif.g08.bks.cpg/sg13_41_cif.got.tgz:81653.got - 2010.06.03 16:44:36.
