data_PCOD9228629
_publ_section_title
;
Structure prediction by ZEFSAII (Michael W. Deem and Ramdas Pophale) SiO2 
 PCOD9228629
Probable space group: P 2/C
;
_chemical_formula_sum "Si O2"
_cell_formula_units_Z 28
_cell_length_a 9.293247
_cell_length_b 14.148726
_cell_length_c 22.290793
_cell_angle_alpha 90.000000
_cell_angle_beta 27.646816
_cell_angle_gamma 90.000000
_cell_volume 1360.025424
_symmetry_space_group_name_H-M "P 2/C"
_symmetry_group_IT_number 13
_symmetry_cell_setting 'monoclinic'
loop_
_space_group_symop_operation_xyz
x,y,z
-x,y,1/2-z
-x,-y,-z
x,-y,1/2+z
loop_
_atom_site_type_symbol
_atom_site_label
_atom_site_fract_x
_atom_site_fract_y
_atom_site_fract_z
Si Si1 0.653764 0.537981 0.126862
Si Si2 0.931132 0.560548 0.705862
Si Si3 0.603530 0.729879 0.277734
Si Si4 0.171942 0.252101 0.122069
Si Si5 0.764679 0.920221 0.279401
Si Si6 0.747494 0.959223 0.956156
Si Si7 0.830507 0.362303 0.879541
O O1 0.500000 0.536874 0.250000
O O2 0.414327 0.476730 0.176529
O O3 0.627022 0.646872 0.115944
O O4 0.000000 0.500000 0.000000
O O5 0.000000 0.576955 0.750000
O O6 0.982162 0.663699 0.659157
O O7 0.163153 0.473699 0.605342
O O8 0.500000 0.759664 0.250000
O O9 0.656184 0.817284 0.301036
O O10 0.939623 0.681053 0.155981
O O11 0.195218 0.150666 0.081238
O O12 0.000000 0.232637 0.250000
O O13 0.513534 0.302542 0.999159
O O14 0.445261 0.971653 0.412557
O O15 0.000000 0.913973 0.250000
O O16 0.951254 0.977509 0.161030
O O17 0.500000 0.000000 0.000000
O O18 0.000000 0.356500 0.750000
#
# Coordination Sequence:
#
# PCOD9228629 Si02
#       7
#     4   4   4   4   4   4   4
#     4  10  23  41  59  83 120 162 196 229 284 353
#     4   9  21  36  58  88 120 152 194 244 284 330
#     4  10  21  36  59  84 113 154 195 231 282 349
#     4  11  21  33  55  89 119 145 186 245 296 329
#     4  10  20  38  61  85 110 144 190 239 285 336
#     4  10  20  35  57  83 111 145 185 235 291 345
#     4  10  19  35  57  84 117 154 192 231 279 342
#
# _framework density 20.587848999999999
#
# number of rings (size 3 to 8) (size 9 to 14) (size 15 to 20)
#    0.000    2.000    0.000    4.714    0.000   12.000 
#    0.000    0.714    0.000    0.857    0.000    0.000 
#    0.000    0.000    0.000    0.000    0.000    0.000 
#
# Total GULP energy -156043.780155 kJ/mol
# GULP energy per Si atom -5572.992148 kJ/mol
# Density = 2.054099 g / cm^3
# Si number density = 20.587849 Si / 1000 Ang^3
#
#
#
# Elastic Constant Matrix: (Units=GPa)
#
#
# Indices 1 2 3 4 5 6 
#
# 1 59.2781 14.6139 28.0250 0.0000 -14.4989 0.0000
# 2 14.6139 99.3741 50.5984 0.0000 -16.0415 0.0000
# 3 28.0250 50.5984 145.6971 0.0000 -15.3807 0.0000
# 4 0.0000 0.0000 0.0000 22.3420 0.0000 -10.5397
# 5 -14.4989 -16.0415 -15.3807 0.0000 25.4506 0.0000
# 6 0.0000 0.0000 0.0000 -10.5397 0.0000 14.8807
#
#
#
# Elastic Compliance Matrix: (Units=1/GPa)
#
#
# Indices 1 2 3 4 5 6 
#
# 1 0.020705 0.000081 -0.002948 0.000000 0.010065 0.000000
# 2 0.000081 0.012988 -0.003906 0.000000 0.005872 0.000000
# 3 -0.002948 -0.003906 0.008919 0.000000 0.001248 0.000000
# 4 0.000000 0.000000 0.000000 0.067218 0.000000 0.047609
# 5 0.010065 0.005872 0.001248 0.000000 0.049481 0.000000
# 6 0.000000 0.000000 0.000000 0.047609 0.000000 0.100922
#
#
# Mechanical properties :
#
#
# Convention : Reuss Voigt Hill
#
# Bulk Modulus (GPa) = 34.40544 54.53599 44.47071
# Shear Modulus (GPa) = 17.63864 26.60878 22.12371
#
# Velocity S-wave (km/s) = 2.93020 3.59897 3.28167
# Velocity P-wave (km/s) = 5.30998 6.61944 6.00054
#
# Compressibility (1/GPa) = 0.02906517
#
# Stress axis : x y z
#
# Youngs Moduli (GPa) = 48.29670 76.99510 112.11994
#
# Poissons Ratio (x) = -0.00624 0.33057
# Poissons Ratio (y) = -0.00391 0.43796
# Poissons Ratio (z) = 0.14239 0.30076
#
# Static dielectric constant tensor:
#      x y z
#    x 1.756710 0.000000 0.073680 
#    y 0.000000 1.833120 0.000000 
#    z 0.073680 0.000000 1.851540 
# 
# From -- ./inp_files/76689.got.cif
#   From: 2010.05.17/outbox.cif.g08.bks.cpg/sg13_39_cif.got.tgz:76689.got - 2010.06.03 16:44:36.
