data_PCOD9228521
_publ_section_title
;
Structure prediction by ZEFSAII (Michael W. Deem and Ramdas Pophale) SiO2 
 PCOD9228521
Probable space group: P 2/C
;
_chemical_formula_sum "Si O2"
_cell_formula_units_Z 32
_cell_length_a 16.887558
_cell_length_b 8.888850
_cell_length_c 20.266558
_cell_angle_alpha 90.000000
_cell_angle_beta 37.755786
_cell_angle_gamma 90.000000
_cell_volume 1862.750321
_symmetry_space_group_name_H-M "P 2/C"
_symmetry_group_IT_number 13
_symmetry_cell_setting 'monoclinic'
loop_
_space_group_symop_operation_xyz
x,y,z
-x,y,1/2-z
-x,-y,-z
x,-y,1/2+z
loop_
_atom_site_type_symbol
_atom_site_label
_atom_site_fract_x
_atom_site_fract_y
_atom_site_fract_z
Si Si1 0.628528 0.149082 0.207675
Si Si2 0.534828 0.198581 0.405540
Si Si3 0.372913 0.295948 0.012389
Si Si4 0.154914 0.193490 0.758517
Si Si5 0.140996 0.196767 0.543009
Si Si6 0.730575 0.370021 0.930728
Si Si7 0.396462 0.882000 0.186087
Si Si8 0.854079 0.057904 0.349143
O O1 0.500000 0.180303 0.250000
O O2 0.615987 0.235836 0.285807
O O3 0.624354 0.973066 0.232508
O O4 0.756098 0.185391 0.083127
O O5 0.584675 0.272742 0.439359
O O6 0.388673 0.251685 0.490254
O O7 0.547295 0.017274 0.397561
O O8 0.328758 0.465248 0.029714
O O9 0.254802 0.183139 0.077173
O O10 0.495549 0.245875 0.887585
O O11 0.191259 0.333179 0.687420
O O12 0.262537 0.173176 0.743380
O O13 0.008148 0.206101 0.879684
O O14 0.162018 0.049494 0.704379
O O15 0.180159 0.333488 0.565525
O O16 0.154418 0.051015 0.581811
O O17 0.000000 0.120491 0.250000
#
# Coordination Sequence:
#
# PCOD9228521 Si02
#       8
#     4   4   4   4   4   4   4   4
#     4  10  19  34  59  76 108 145 189 225 276 334
#     4  10  20  33  57  80 109 141 186 232 282 320
#     4  12  20  33  56  86 113 136 189 240 281 326
#     4  10  19  35  54  84 108 142 186 230 278 334
#     4  10  20  37  57  77 113 149 185 222 279 348
#     4  11  21  33  56  83 112 145 182 229 286 335
#     4  10  20  32  58  81 106 144 185 236 280 313
#     4   9  18  32  54  78 106 139 179 234 279 314
#
# _framework density 17.178899999999999
#
# number of rings (size 3 to 8) (size 9 to 14) (size 15 to 20)
#    0.750    1.000    3.750    4.125    0.000    1.500 
#    0.000    0.000    8.250    0.750    0.000    0.000 
#    0.000    0.000    0.000    0.000    0.000    0.000 
#
# Total GULP energy -178358.357191 kJ/mol
# GULP energy per Si atom -5573.698662 kJ/mol
# Density = 1.713980 g / cm^3
# Si number density = 17.178900 Si / 1000 Ang^3
#
#
#
# Elastic Constant Matrix: (Units=GPa)
#
#
# Indices 1 2 3 4 5 6 
#
# 1 20.3943 10.8245 7.5857 0.0000 -17.8369 0.0000
# 2 10.8245 58.3924 20.2697 0.0000 -19.3723 0.0000
# 3 7.5857 20.2697 111.7634 0.0000 -19.4121 0.0000
# 4 0.0000 0.0000 0.0000 14.2842 0.0000 -5.4267
# 5 -17.8369 -19.3723 -19.4121 0.0000 37.5714 0.0000
# 6 0.0000 0.0000 0.0000 -5.4267 0.0000 8.5781
#
#
#
# Elastic Compliance Matrix: (Units=1/GPa)
#
#
# Indices 1 2 3 4 5 6 
#
# 1 0.084514 -0.003197 0.001677 0.000000 0.039341 0.000000
# 2 -0.003197 0.021232 -0.002193 0.000000 0.008297 0.000000
# 3 0.001677 -0.002193 0.010078 0.000000 0.004872 0.000000
# 4 0.000000 0.000000 0.000000 0.092156 0.000000 0.058300
# 5 0.039341 0.008297 0.004872 0.000000 0.052088 0.000000
# 6 0.000000 0.000000 0.000000 0.058300 0.000000 0.153458
#
#
# Mechanical properties :
#
#
# Convention : Reuss Voigt Hill
#
# Bulk Modulus (GPa) = 9.22531 29.76777 19.49654
# Shear Modulus (GPa) = 10.93887 22.21141 16.57514
#
# Velocity S-wave (km/s) = 2.52615 3.59966 3.10958
# Velocity P-wave (km/s) = 3.72698 5.88578 4.92609
#
# Compressibility (1/GPa) = 0.10839748
#
# Stress axis : x y z
#
# Youngs Moduli (GPa) = 11.83230 47.09906 99.23013
#
# Poissons Ratio (x) = 0.15059 -0.16637
# Poissons Ratio (y) = 0.03783 0.21757
# Poissons Ratio (z) = -0.01984 0.10327
#
# Static dielectric constant tensor:
#      x y z
#    x 1.587500 0.000000 0.003250 
#    y 0.000000 1.577080 0.000000 
#    z 0.003250 0.000000 1.587350 
# 
# From -- ./inp_files/87892.got.cif
#   From: 2010.05.17/outbox.cif.g08.bks.cpg/sg13_44_cif.got.tgz:87892.got - 2010.06.03 16:44:36.
