data_PCOD9228217
_publ_section_title
;
Structure prediction by ZEFSAII (Michael W. Deem and Ramdas Pophale) SiO2 
 PCOD9228217
Probable space group: P 2/C
;
_chemical_formula_sum "Si O2"
_cell_formula_units_Z 28
_cell_length_a 6.011421
_cell_length_b 13.555411
_cell_length_c 17.736131
_cell_angle_alpha 90.000000
_cell_angle_beta 71.943248
_cell_angle_gamma 90.000000
_cell_volume 1374.089561
_symmetry_space_group_name_H-M "P 2/C"
_symmetry_group_IT_number 13
_symmetry_cell_setting 'monoclinic'
loop_
_space_group_symop_operation_xyz
x,y,z
-x,y,1/2-z
-x,-y,-z
x,-y,1/2+z
loop_
_atom_site_type_symbol
_atom_site_label
_atom_site_fract_x
_atom_site_fract_y
_atom_site_fract_z
Si Si1 0.649774 0.980574 0.411519
Si Si2 0.078076 0.742603 0.968937
Si Si3 0.628546 0.207538 0.615992
Si Si4 0.587902 0.122143 0.166158
Si Si5 0.855527 0.553912 0.948711
Si Si6 0.879156 0.068484 0.681882
Si Si7 0.367458 0.630497 0.069575
O O1 0.532210 0.885997 0.385510
O O2 0.913675 0.950675 0.399559
O O3 0.500000 0.000000 0.500000
O O4 0.621404 0.077442 0.362679
O O5 0.234696 0.819314 0.906185
O O6 0.004464 0.652850 0.920339
O O7 0.229190 0.698098 0.023146
O O8 0.836103 0.781600 0.031696
O O9 0.756491 0.172414 0.678409
O O10 0.464740 0.302946 0.627332
O O11 0.500000 0.178668 0.250000
O O12 0.715325 0.025207 0.186467
O O13 0.792235 0.465735 0.897638
O O14 0.605135 0.591769 0.005160
O O15 0.000000 0.500000 0.000000
O O16 0.000000 0.066782 0.750000
#
# Coordination Sequence:
#
# PCOD9228217 Si02
#       7
#     4   4   4   4   4   4   4
#     4  11  21  35  54  76 108 155 189 236 278 327
#     4  10  19  33  53  83 115 141 188 234 290 351
#     4  10  20  31  53  79 109 144 188 235 281 346
#     4  11  22  36  51  75 114 157 196 232 278 340
#     4   8  16  30  52  80 119 134 168 226 295 348
#     4  11  22  37  51  72 112 157 197 238 280 333
#     4   9  16  31  52  83 116 134 170 235 295 343
#
# _framework density 20.377129
#
# number of rings (size 3 to 8) (size 9 to 14) (size 15 to 20)
#    0.000    2.000    1.429    3.429    0.000    3.429 
#    0.000    0.000    0.000    0.000    0.000    0.000 
#  355.714    0.000    0.000    0.000    0.000    0.143 
#
# Total GULP energy -156036.510337 kJ/mol
# GULP energy per Si atom -5572.732512 kJ/mol
# Density = 2.033075 g / cm^3
# Si number density = 20.377129 Si / 1000 Ang^3
#
#
#
# Elastic Constant Matrix: (Units=GPa)
#
#
# Indices 1 2 3 4 5 6 
#
# 1 83.3217 32.4969 4.3584 0.0000 -7.9157 0.0000
# 2 32.4969 102.1065 9.2546 0.0000 6.6696 0.0000
# 3 4.3584 9.2546 35.1034 0.0000 -5.6390 0.0000
# 4 0.0000 0.0000 0.0000 9.8646 0.0000 2.3675
# 5 -7.9157 6.6696 -5.6390 0.0000 27.7002 0.0000
# 6 0.0000 0.0000 0.0000 2.3675 0.0000 36.2083
#
#
#
# Elastic Compliance Matrix: (Units=1/GPa)
#
#
# Indices 1 2 3 4 5 6 
#
# 1 0.014439 -0.004984 0.000389 0.000000 0.005405 0.000000
# 2 -0.004984 0.012010 -0.003350 0.000000 -0.004998 0.000000
# 3 0.000389 -0.003350 0.030466 0.000000 0.007120 0.000000
# 4 0.000000 0.000000 0.000000 0.102989 0.000000 -0.006734
# 5 0.005405 -0.004998 0.007120 0.000000 0.040298 0.000000
# 6 0.000000 0.000000 0.000000 -0.006734 0.000000 0.028058
#
#
# Mechanical properties :
#
#
# Convention : Reuss Voigt Hill
#
# Bulk Modulus (GPa) = 24.37518 34.75017 29.56268
# Shear Modulus (GPa) = 19.39307 26.38274 22.88790
#
# Velocity S-wave (km/s) = 3.08832 3.60213 3.35508
# Velocity P-wave (km/s) = 4.97041 5.86438 5.43581
#
# Compressibility (1/GPa) = 0.04102533
#
# Stress axis : x y z
#
# Youngs Moduli (GPa) = 69.25922 83.26438 32.82354
#
# Poissons Ratio (x) = 0.41496 -0.01278
# Poissons Ratio (y) = 0.34516 0.10997
# Poissons Ratio (z) = -0.02698 0.27897
#
# Static dielectric constant tensor:
#      x y z
#    x 1.773290 0.000000 0.008250 
#    y 0.000000 1.770670 0.000000 
#    z 0.008250 0.000000 1.772160 
# 
# From -- ./inp_files/61345.got.cif
#   From: 2010.05.17/outbox.cif.g08.bks.cpg/sg13_31_cif.got.tgz:61345.got - 2010.06.03 16:44:36.
