data_PCOD9228052
_publ_section_title
;
Structure prediction by ZEFSAII (Michael W. Deem and Ramdas Pophale) SiO2 
 PCOD9228052
Probable space group: P 2/C
;
_chemical_formula_sum "Si O2"
_cell_formula_units_Z 32
_cell_length_a 22.384660
_cell_length_b 8.397134
_cell_length_c 24.293199
_cell_angle_alpha 90.000000
_cell_angle_beta 160.541580
_cell_angle_gamma 90.000000
_cell_volume 1521.144625
_symmetry_space_group_name_H-M "P 2/C"
_symmetry_group_IT_number 13
_symmetry_cell_setting 'monoclinic'
loop_
_space_group_symop_operation_xyz
x,y,z
-x,y,1/2-z
-x,-y,-z
x,-y,1/2+z
loop_
_atom_site_type_symbol
_atom_site_label
_atom_site_fract_x
_atom_site_fract_y
_atom_site_fract_z
Si Si1 0.727992 0.448553 0.404384
Si Si2 0.404509 0.260114 0.915104
Si Si3 0.912932 0.713911 0.898500
Si Si4 0.709923 0.424110 0.779284
Si Si5 0.849949 0.497332 0.745834
Si Si6 0.646355 0.945450 0.700715
Si Si7 0.786745 0.386494 0.574004
Si Si8 0.488833 0.871491 0.801744
O O1 0.642586 0.556394 0.282565
O O2 0.709042 0.476827 0.452830
O O3 0.654117 0.271898 0.329947
O O4 0.939039 0.463397 0.576726
O O5 0.441111 0.386904 0.897400
O O6 0.236862 0.348785 0.797242
O O7 0.379623 0.098680 0.859302
O O8 0.532217 0.202686 0.075117
O O9 0.822210 0.581128 0.859247
O O10 0.841451 0.656749 0.775969
O O11 0.844150 0.878310 0.862838
O O12 0.127613 0.703280 0.082351
O O13 0.772916 0.488103 0.617520
O O14 0.580007 0.969485 0.705444
O O15 0.673498 0.221850 0.477661
O O16 0.000000 0.355034 0.750000
O O17 0.500000 0.946622 0.750000
#
# Coordination Sequence:
#
# PCOD9228052 Si02
#       8
#     4   4   4   4   4   4   4   4
#     4   9  17  30  53  77 104 127 171 216 249 302
#     4  10  22  32  49  72 112 138 169 211 254 307
#     4   9  18  30  52  73 105 133 166 210 250 306
#     4   9  17  33  49  77 104 133 166 208 257 300
#     4   9  17  33  50  79 104 135 166 208 262 302
#     4  11  21  35  48  77 103 140 174 208 253 307
#     4   9  17  30  51  77 100 130 168 215 257 298
#     4  10  19  32  51  74  99 127 171 217 250 293
#
# _framework density 21.036788999999999
#
# number of rings (size 3 to 8) (size 9 to 14) (size 15 to 20)
#    0.000    2.500    2.500    0.750    0.000    3.500 
#    0.000    0.000    0.000    5.250    0.000    2.625 
#    0.000    0.000    0.000    0.000    0.000    0.000 
#
# Total GULP energy -178258.051658 kJ/mol
# GULP energy per Si atom -5570.564114 kJ/mol
# Density = 2.098891 g / cm^3
# Si number density = 21.036789 Si / 1000 Ang^3
#
#
#
# Elastic Constant Matrix: (Units=GPa)
#
#
# Indices 1 2 3 4 5 6 
#
# 1 146.7872 23.1482 34.2802 0.0000 -21.5508 0.0000
# 2 23.1482 18.9699 1.2147 0.0000 2.6877 0.0000
# 3 34.2802 1.2147 70.1618 0.0000 -17.6851 0.0000
# 4 0.0000 0.0000 0.0000 25.7599 0.0000 -9.0600
# 5 -21.5508 2.6877 -17.6851 0.0000 42.9625 0.0000
# 6 0.0000 0.0000 0.0000 -9.0600 0.0000 18.3070
#
#
#
# Elastic Compliance Matrix: (Units=1/GPa)
#
#
# Indices 1 2 3 4 5 6 
#
# 1 0.010411 -0.013104 -0.003723 0.000000 0.004509 0.000000
# 2 -0.013104 0.069924 0.002714 0.000000 -0.009830 0.000000
# 3 -0.003723 0.002714 0.017307 0.000000 0.005087 0.000000
# 4 0.000000 0.000000 0.000000 0.047001 0.000000 0.023260
# 5 0.004509 -0.009830 0.005087 0.000000 0.028247 0.000000
# 6 0.000000 0.000000 0.000000 0.023260 0.000000 0.066135
#
#
# Mechanical properties :
#
#
# Convention : Reuss Voigt Hill
#
# Bulk Modulus (GPa) = 14.40591 39.24502 26.82546
# Shear Modulus (GPa) = 17.21821 29.22426 23.22124
#
# Velocity S-wave (km/s) = 2.86401 3.73124 3.32601
# Velocity P-wave (km/s) = 4.21896 6.10400 5.24683
#
# Compressibility (1/GPa) = 0.06941594
#
# Stress axis : x y z
#
# Youngs Moduli (GPa) = 96.05601 14.30115 57.78000
#
# Poissons Ratio (x) = 0.18740 0.21511
# Poissons Ratio (y) = 1.25873 -0.15682
# Poissons Ratio (z) = 0.35761 -0.03881
#
# Static dielectric constant tensor:
#      x y z
#    x 1.816440 0.000000 -0.024910 
#    y 0.000000 1.763970 0.000000 
#    z -0.024910 0.000000 1.863790 
# 
# From -- ./inp_files/88976.got.cif
#   From: 2010.05.17/outbox.cif.g08.bks.cpg/sg13_45_cif.got.tgz:88976.got - 2010.06.03 16:44:36.
