data_PCOD9228632
_publ_section_title
;
Structure prediction by ZEFSAII (Michael W. Deem and Ramdas Pophale) SiO2 
 PCOD9228632
Probable space group: P 2/C
;
_chemical_formula_sum "Si O2"
_cell_formula_units_Z 26
_cell_length_a 7.759347
_cell_length_b 12.747463
_cell_length_c 13.431402
_cell_angle_alpha 90.000000
_cell_angle_beta 112.432824
_cell_angle_gamma 90.000000
_cell_volume 1227.993844
_symmetry_space_group_name_H-M "P 2/C"
_symmetry_group_IT_number 13
_symmetry_cell_setting 'monoclinic'
loop_
_space_group_symop_operation_xyz
x,y,z
-x,y,1/2-z
-x,-y,-z
x,-y,1/2+z
loop_
_atom_site_type_symbol
_atom_site_label
_atom_site_fract_x
_atom_site_fract_y
_atom_site_fract_z
Si Si1 0.500000 0.078610 0.750000
Si Si2 0.311974 0.965098 0.014921
Si Si3 0.298810 0.405344 0.698076
Si Si4 0.045769 0.460453 0.377535
Si Si5 0.810774 0.863085 0.148650
Si Si6 0.284364 0.281628 0.503704
Si Si7 0.691302 0.649291 0.072255
O O1 0.354885 0.021128 0.642303
O O2 0.360856 0.128631 0.806455
O O3 0.171200 0.039005 0.923511
O O4 0.275616 0.842076 0.987803
O O5 0.500000 0.000000 0.000000
O O6 0.500000 0.459332 0.750000
O O7 0.306536 0.308173 0.625099
O O8 0.267567 0.361985 0.800581
O O9 0.141428 0.483817 0.626805
O O10 0.108221 0.346899 0.427106
O O11 0.210373 0.543220 0.440347
O O12 0.000000 0.453386 0.250000
O O13 0.780554 0.761854 0.071090
O O14 0.000000 0.851275 0.250000
O O15 0.473096 0.335134 0.500947
#
# Coordination Sequence:
#
# PCOD9228632 Si02
#       7
#     2   4   4   4   4   4   4
#     4  10  20  40  62  82 122 158 204 262 308 354
#     4  10  21  37  61  90 118 162 211 253 311 374
#     4   9  19  33  57  85 114 153 202 246 295 358
#     4  10  21  35  52  87 121 152 194 242 301 373
#     4  11  22  38  63  95 122 157 213 260 309 379
#     4  11  19  34  61  82 113 156 195 245 308 357
#     4  10  19  35  57  86 114 151 195 251 297 360
#
# _framework density 21.172746
#
# number of rings (size 3 to 8) (size 9 to 14) (size 15 to 20)
#    0.000    1.846    3.077    3.231    2.154    1.231 
#    0.000    0.000    0.000    7.385   10.000    0.000 
#    0.000    0.000    0.000    0.000    0.000    0.000 
#
# Total GULP energy -144783.464975 kJ/mol
# GULP energy per Si atom -5568.594807 kJ/mol
# Density = 2.112456 g / cm^3
# Si number density = 21.172746 Si / 1000 Ang^3
#
#
#
# Elastic Constant Matrix: (Units=GPa)
#
#
# Indices 1 2 3 4 5 6 
#
# 1 32.0313 41.6535 12.9759 0.0000 9.6165 0.0000
# 2 41.6535 147.8125 38.3755 0.0000 6.9136 0.0000
# 3 12.9759 38.3755 46.6058 0.0000 -9.3964 0.0000
# 4 0.0000 0.0000 0.0000 12.8577 0.0000 26.6228
# 5 9.6165 6.9136 -9.3964 0.0000 38.5098 0.0000
# 6 0.0000 0.0000 0.0000 26.6228 0.0000 4.7806
#
#
#
# Elastic Compliance Matrix: (Units=1/GPa)
#
#
# Indices 1 2 3 4 5 6 
#
# 1 0.055033 -0.013004 -0.007273 0.000000 -0.013183 0.000000
# 2 -0.013004 0.012134 -0.006474 0.000000 -0.000511 0.000000
# 3 -0.007273 -0.006474 0.030935 0.000000 0.010527 0.000000
# 4 0.000000 0.000000 0.000000 -0.007385 0.000000 0.041129
# 5 -0.013183 -0.000511 0.010527 0.000000 0.031920 0.000000
# 6 0.000000 0.000000 0.000000 0.041129 0.000000 -0.019863
#
#
# Mechanical properties :
#
#
# Convention : Reuss Voigt Hill
#
# Bulk Modulus (GPa) = 22.42094 45.82882 34.12488
# Shear Modulus (GPa) = 29.21558 20.12594 24.67076
#
# Velocity S-wave (km/s) = 3.71869 3.08646 3.41722
# Velocity P-wave (km/s) = 5.38987 5.86462 5.63225
#
# Compressibility (1/GPa) = 0.04460116
#
# Stress axis : x y z
#
# Youngs Moduli (GPa) = 18.17083 82.40978 32.32619
#
# Poissons Ratio (x) = 1.07162 0.23510
# Poissons Ratio (y) = 0.23629 0.20929
# Poissons Ratio (z) = 0.13215 0.53354
#
# Static dielectric constant tensor:
#      x y z
#    x 1.904060 0.000000 0.003150 
#    y 0.000000 1.793900 0.000000 
#    z 0.003150 0.000000 1.821220 
# 
# From -- ./inp_files/47057.got.cif
#   From: 2010.05.17/outbox.cif.g08.bks.cpg/sg13_24_cif.got.tgz:47057.got - 2010.06.03 16:44:36.
