data_PCOD9228724
_publ_section_title
;
Structure prediction by ZEFSAII (Michael W. Deem and Ramdas Pophale) SiO2 
 PCOD9228724
Probable space group: P 2/C
;
_chemical_formula_sum "Si O2"
_cell_formula_units_Z 26
_cell_length_a 25.351257
_cell_length_b 5.367262
_cell_length_c 17.532756
_cell_angle_alpha 90.000000
_cell_angle_beta 153.883689
_cell_angle_gamma 90.000000
_cell_volume 1050.140465
_symmetry_space_group_name_H-M "P 2/C"
_symmetry_group_IT_number 13
_symmetry_cell_setting 'monoclinic'
loop_
_space_group_symop_operation_xyz
x,y,z
-x,y,1/2-z
-x,-y,-z
x,-y,1/2+z
loop_
_atom_site_type_symbol
_atom_site_label
_atom_site_fract_x
_atom_site_fract_y
_atom_site_fract_z
Si Si1 0.079816 0.751595 0.604026
Si Si2 0.332697 0.323769 0.721960
Si Si3 0.559222 0.270041 0.913324
Si Si4 0.775201 0.163197 0.360735
Si Si5 0.367954 0.764645 0.539239
Si Si6 0.178774 0.541213 0.880515
Si Si7 0.000000 0.269687 0.750000
O O1 0.162715 0.768105 0.637774
O O2 0.150892 0.722966 0.775176
O O3 0.000000 0.500000 0.500000
O O4 0.000000 0.000000 0.500000
O O5 0.462242 0.269852 0.854134
O O6 0.307465 0.601813 0.721091
O O7 0.249551 0.319678 0.538518
O O8 0.293949 0.098238 0.725822
O O9 0.500000 0.281743 0.750000
O O10 0.628399 0.527999 0.011061
O O11 0.637109 0.022380 0.011019
O O12 0.886703 0.134637 0.565274
O O13 0.500000 0.774406 0.750000
O O14 0.263856 0.687655 0.462733
O O15 0.056993 0.437103 0.757494
#
# Coordination Sequence:
#
# PCOD9228724 Si02
#       7
#     4   4   4   4   4   4   2
#     4  12  27  47  64  94 140 189 223 275 338 414
#     4  11  23  40  70  99 128 173 223 285 329 400
#     4  10  19  35  60  99 131 154 216 277 335 379
#     4  11  25  42  63  95 136 175 221 276 344 397
#     4  10  20  36  62 100 126 167 212 284 327 392
#     4  11  24  43  70 100 137 177 228 279 339 405
#     4  10  24  38  68  98 128 172 226 280 326 394
#
# _framework density 24.758595
#
# number of rings (size 3 to 8) (size 9 to 14) (size 15 to 20)
#    0.000    1.231    4.615    1.846   10.769    1.846 
#    0.000    0.000    0.000    5.538    0.000    0.000 
#    0.000    0.000    0.000    0.000    0.000    0.000 
#
# Total GULP energy -145573.946033 kJ/mol
# GULP energy per Si atom -5598.997924 kJ/mol
# Density = 2.470224 g / cm^3
# Si number density = 24.758595 Si / 1000 Ang^3
#
#
#
# Elastic Constant Matrix: (Units=GPa)
#
#
# Indices 1 2 3 4 5 6 
#
# 1 137.4280 59.5349 29.2944 0.0000 39.4549 0.0000
# 2 59.5349 211.7938 38.6318 0.0000 28.1787 0.0000
# 3 29.2944 38.6318 64.2004 0.0000 1.2823 0.0000
# 4 0.0000 0.0000 0.0000 31.2131 0.0000 17.0091
# 5 39.4549 28.1787 1.2823 0.0000 55.9413 0.0000
# 6 0.0000 0.0000 0.0000 17.0091 0.0000 36.9909
#
#
#
# Elastic Compliance Matrix: (Units=1/GPa)
#
#
# Indices 1 2 3 4 5 6 
#
# 1 0.010632 -0.001388 -0.003882 0.000000 -0.006711 0.000000
# 2 -0.001388 0.005892 -0.002874 0.000000 -0.001923 0.000000
# 3 -0.003882 -0.002874 0.019002 0.000000 0.003750 0.000000
# 4 0.000000 0.000000 0.000000 0.042750 0.000000 -0.019657
# 5 -0.006711 -0.001923 0.003750 0.000000 0.023492 0.000000
# 6 0.000000 0.000000 0.000000 -0.019657 0.000000 0.036072
#
#
# Mechanical properties :
#
#
# Convention : Reuss Voigt Hill
#
# Bulk Modulus (GPa) = 51.97941 74.26051 63.11996
# Shear Modulus (GPa) = 31.14510 43.89311 37.51910
#
# Velocity S-wave (km/s) = 3.55061 4.21508 3.89703
# Velocity P-wave (km/s) = 6.15217 7.33131 6.76747
#
# Compressibility (1/GPa) = 0.01923839
#
# Stress axis : x y z
#
# Youngs Moduli (GPa) = 94.05765 169.73103 52.62613
#
# Poissons Ratio (x) = 0.23552 0.20431
# Poissons Ratio (y) = 0.13052 0.15123
# Poissons Ratio (z) = 0.36515 0.48775
#
# Static dielectric constant tensor:
#      x y z
#    x 1.922700 0.000000 0.044010 
#    y 0.000000 1.955650 0.000000 
#    z 0.044010 0.000000 1.922290 
# 
# From -- ./inp_files/70973.got.cif
#   From: 2010.05.17/outbox.cif.g08.bks.cpg/sg13_36_cif.got.tgz:70973.got - 2010.06.03 16:44:36.
