data_PCOD9228559
_publ_section_title
;
Structure prediction by ZEFSAII (Michael W. Deem and Ramdas Pophale) SiO2 
 PCOD9228559
Probable space group: P 2/C
;
_chemical_formula_sum "Si O2"
_cell_formula_units_Z 26
_cell_length_a 8.618949
_cell_length_b 20.260433
_cell_length_c 8.072919
_cell_angle_alpha 90.000000
_cell_angle_beta 53.154045
_cell_angle_gamma 90.000000
_cell_volume 1128.131350
_symmetry_space_group_name_H-M "P 2/C"
_symmetry_group_IT_number 13
_symmetry_cell_setting 'monoclinic'
loop_
_space_group_symop_operation_xyz
x,y,z
-x,y,1/2-z
-x,-y,-z
x,-y,1/2+z
loop_
_atom_site_type_symbol
_atom_site_label
_atom_site_fract_x
_atom_site_fract_y
_atom_site_fract_z
Si Si1 0.176888 0.426377 0.753306
Si Si2 0.076859 0.142786 0.522948
Si Si3 0.693015 0.556296 0.009292
Si Si4 0.291126 0.894652 0.414279
Si Si5 0.694445 0.033887 0.232823
Si Si6 0.500000 0.789290 0.750000
Si Si7 0.503308 0.662164 0.935979
O O1 0.282443 0.491198 0.613302
O O2 0.132182 0.438970 0.972823
O O3 0.313528 0.362890 0.650023
O O4 0.000000 0.413779 0.750000
O O5 0.130431 0.065450 0.480917
O O6 0.291713 0.174895 0.365861
O O7 0.000000 0.163772 0.750000
O O8 0.899694 0.148386 0.504265
O O9 0.500000 0.550620 0.250000
O O10 0.673142 0.623375 0.919212
O O11 0.500000 0.860644 0.250000
O O12 0.293397 0.930590 0.594348
O O13 0.293432 0.954983 0.279003
O O14 0.500000 0.048337 0.250000
O O15 0.500777 0.739860 0.907872
O O16 0.500000 0.634741 0.750000
#
# Coordination Sequence:
#
# PCOD9228559 Si02
#       7
#     4   4   4   4   4   2   4
#     4  11  20  32  62 100 135 161 209 272 352 416
#     4  12  24  44  73  98 138 183 245 287 352 418
#     4  10  19  34  61  95 128 169 204 265 346 419
#     4  11  23  39  72 114 143 183 223 292 367 433
#     4  11  21  41  70 108 151 176 227 284 367 432
#     4  10  26  46  76  86 134 198 242 300 338 406
#     4   9  20  41  63  82 122 169 226 266 335 387
#
# _framework density 23.046959999999999
#
# number of rings (size 3 to 8) (size 9 to 14) (size 15 to 20)
#    0.462    0.923    0.769    8.308    0.000    0.615 
#    0.000    0.000   27.077    0.000    0.000    0.000 
#    0.000    0.000    0.000    0.000    0.000    0.000 
#
# Total GULP energy -144974.401801 kJ/mol
# GULP energy per Si atom -5575.938531 kJ/mol
# Density = 2.299450 g / cm^3
# Si number density = 23.046960 Si / 1000 Ang^3
#
#
#
# Elastic Constant Matrix: (Units=GPa)
#
#
# Indices 1 2 3 4 5 6 
#
# 1 174.8937 37.7615 59.0012 0.0000 -7.4208 0.0000
# 2 37.7615 70.0971 26.5899 0.0000 -13.7995 0.0000
# 3 59.0012 26.5899 73.7984 0.0000 3.2614 0.0000
# 4 0.0000 0.0000 0.0000 18.9500 0.0000 7.8346
# 5 -7.4208 -13.7995 3.2614 0.0000 51.7718 0.0000
# 6 0.0000 0.0000 0.0000 7.8346 0.0000 20.3709
#
#
#
# Elastic Compliance Matrix: (Units=1/GPa)
#
#
# Indices 1 2 3 4 5 6 
#
# 1 0.008164 -0.001976 -0.005860 0.000000 0.001013 0.000000
# 2 -0.001976 0.018280 -0.005224 0.000000 0.004918 0.000000
# 3 -0.005860 -0.005224 0.020273 0.000000 -0.003510 0.000000
# 4 0.000000 0.000000 0.000000 0.062748 0.000000 -0.024133
# 5 0.001013 0.004918 -0.003510 0.000000 0.020993 0.000000
# 6 0.000000 0.000000 0.000000 -0.024133 0.000000 0.058371
#
#
# Mechanical properties :
#
#
# Convention : Reuss Voigt Hill
#
# Bulk Modulus (GPa) = 48.55020 62.83271 55.69145
# Shear Modulus (GPa) = 22.54131 31.24764 26.89448
#
# Velocity S-wave (km/s) = 3.13079 3.68615 3.41976
# Velocity P-wave (km/s) = 5.84642 6.74085 6.30950
#
# Compressibility (1/GPa) = 0.02059724
#
# Stress axis : x y z
#
# Youngs Moduli (GPa) = 122.48483 54.70389 49.32691
#
# Poissons Ratio (x) = 0.10809 0.28906
# Poissons Ratio (y) = 0.24201 0.25769
# Poissons Ratio (z) = 0.71778 0.28578
#
# Static dielectric constant tensor:
#      x y z
#    x 2.021390 0.000000 -0.004680 
#    y 0.000000 1.851680 0.000000 
#    z -0.004680 0.000000 1.998770 
# 
# From -- ./inp_files/13641.got.cif
#   From: 2010.05.17/outbox.cif.g08.bks.cpg/sg13_7_cif.got.tgz:13641.got - 2010.06.03 16:44:36.
