data_PCOD9228270
_publ_section_title
;
Structure prediction by ZEFSAII (Michael W. Deem and Ramdas Pophale) SiO2 
 PCOD9228270
Probable space group: P 2/C
;
_chemical_formula_sum "Si O2"
_cell_formula_units_Z 28
_cell_length_a 11.703287
_cell_length_b 12.096823
_cell_length_c 19.255573
_cell_angle_alpha 90.000000
_cell_angle_beta 30.904215
_cell_angle_gamma 90.000000
_cell_volume 1400.117044
_symmetry_space_group_name_H-M "P 2/C"
_symmetry_group_IT_number 13
_symmetry_cell_setting 'monoclinic'
loop_
_space_group_symop_operation_xyz
x,y,z
-x,y,1/2-z
-x,-y,-z
x,-y,1/2+z
loop_
_atom_site_type_symbol
_atom_site_label
_atom_site_fract_x
_atom_site_fract_y
_atom_site_fract_z
Si Si1 0.111511 0.565900 0.266295
Si Si2 0.578514 0.150960 0.283015
Si Si3 0.183653 0.670577 0.772124
Si Si4 0.958239 0.007790 0.605246
Si Si5 0.875897 0.211479 0.905740
Si Si6 0.448055 0.269358 0.536320
Si Si7 0.844083 0.848178 0.895763
O O1 0.134707 0.458237 0.301007
O O2 0.348293 0.625162 0.128340
O O3 0.000000 0.533016 0.250000
O O4 0.957825 0.664031 0.375477
O O5 0.500000 0.111096 0.250000
O O6 0.729834 0.262010 0.205994
O O7 0.730443 0.058391 0.238679
O O8 0.352790 0.181766 0.437335
O O9 0.379971 0.687962 0.612452
O O10 0.969119 0.737057 0.856428
O O11 0.144410 0.937267 0.549285
O O12 0.000000 0.000000 0.500000
O O13 0.958640 0.125754 0.643089
O O14 0.775093 0.212969 0.879387
O O15 0.598224 0.184095 0.500428
O O16 0.000000 0.888140 0.750000
#
# Coordination Sequence:
#
# PCOD9228270 Si02
#       7
#     4   4   4   4   4   4   4
#     4  10  19  33  55  84 121 151 181 234 288 347
#     4  10  20  39  61  78 107 153 199 240 289 342
#     4   9  18  33  58  86 112 150 193 233 284 349
#     4  11  22  38  61  81 110 155 202 243 291 353
#     4  10  22  36  56  87 114 150 194 235 289 351
#     4   9  18  33  55  86 120 150 187 232 292 347
#     4   9  19  34  56  86 115 145 193 246 287 343
#
# _framework density 19.998328000000001
#
# number of rings (size 3 to 8) (size 9 to 14) (size 15 to 20)
#    0.000    2.286    1.429    2.571    0.000    5.714 
#    0.000    0.714    3.143    0.000    0.000    0.000 
#    0.000    0.000    0.000    0.000    0.000    0.000 
#
# Total GULP energy -155984.967506 kJ/mol
# GULP energy per Si atom -5570.891697 kJ/mol
# Density = 1.995281 g / cm^3
# Si number density = 19.998328 Si / 1000 Ang^3
#
#
#
# Elastic Constant Matrix: (Units=GPa)
#
#
# Indices 1 2 3 4 5 6 
#
# 1 82.0446 44.5866 5.6463 0.0000 -20.5358 0.0000
# 2 44.5866 112.5450 12.2766 0.0000 -11.0013 0.0000
# 3 5.6463 12.2766 45.6990 0.0000 -23.6101 0.0000
# 4 0.0000 0.0000 0.0000 14.7422 0.0000 2.0858
# 5 -20.5358 -11.0013 -23.6101 0.0000 28.7011 0.0000
# 6 0.0000 0.0000 0.0000 2.0858 0.0000 15.0991
#
#
#
# Elastic Compliance Matrix: (Units=1/GPa)
#
#
# Indices 1 2 3 4 5 6 
#
# 1 0.020371 -0.007190 0.009602 0.000000 0.019718 0.000000
# 2 -0.007190 0.011803 -0.004527 0.000000 -0.004344 0.000000
# 3 0.009602 -0.004527 0.042722 0.000000 0.040279 0.000000
# 4 0.000000 0.000000 0.000000 0.069185 0.000000 -0.009557
# 5 0.019718 -0.004344 0.040279 0.000000 0.080419 0.000000
# 6 0.000000 0.000000 0.000000 -0.009557 0.000000 0.067550
#
#
# Mechanical properties :
#
#
# Convention : Reuss Voigt Hill
#
# Bulk Modulus (GPa) = 14.15127 40.58971 27.37049
# Shear Modulus (GPa) = 15.63313 23.56042 19.59677
#
# Velocity S-wave (km/s) = 2.79896 3.43610 3.13376
# Velocity P-wave (km/s) = 4.18774 6.00691 5.17784
#
# Compressibility (1/GPa) = 0.07066504
#
# Stress axis : x y z
#
# Youngs Moduli (GPa) = 49.09055 84.72459 23.40726
#
# Poissons Ratio (x) = 0.60918 -0.22475
# Poissons Ratio (y) = 0.35297 0.10596
# Poissons Ratio (z) = -0.47136 0.38353
#
# Static dielectric constant tensor:
#      x y z
#    x 1.847720 0.000000 0.121200 
#    y 0.000000 1.711350 0.000000 
#    z 0.121200 0.000000 1.871340 
# 
# From -- ./inp_files/78543.got.cif
#   From: 2010.05.17/outbox.cif.g08.bks.cpg/sg13_40_cif.got.tgz:78543.got - 2010.06.03 16:44:36.
