data_PCOD9228353
_publ_section_title
;
Structure prediction by ZEFSAII (Michael W. Deem and Ramdas Pophale) SiO2 
 PCOD9228353
Probable space group: P 2/C
;
_chemical_formula_sum "Si O2"
_cell_formula_units_Z 28
_cell_length_a 20.550885
_cell_length_b 7.678871
_cell_length_c 14.098280
_cell_angle_alpha 90.000000
_cell_angle_beta 148.185443
_cell_angle_gamma 90.000000
_cell_volume 1172.859872
_symmetry_space_group_name_H-M "P 2/C"
_symmetry_group_IT_number 13
_symmetry_cell_setting 'monoclinic'
loop_
_space_group_symop_operation_xyz
x,y,z
-x,y,1/2-z
-x,-y,-z
x,-y,1/2+z
loop_
_atom_site_type_symbol
_atom_site_label
_atom_site_fract_x
_atom_site_fract_y
_atom_site_fract_z
Si Si1 0.193081 0.261567 0.265359
Si Si2 0.811237 0.342666 0.708363
Si Si3 0.262406 0.595162 0.582215
Si Si4 0.142006 0.221708 0.409784
Si Si5 0.050821 0.171519 0.910697
Si Si6 0.685373 0.142041 0.726212
Si Si7 0.578040 0.237724 0.058587
O O1 0.144774 0.460921 0.210561
O O2 0.164598 0.172280 0.329540
O O3 0.338026 0.297151 0.425350
O O4 0.132113 0.143488 0.108120
O O5 0.719095 0.351310 0.504081
O O6 0.748585 0.249668 0.720050
O O7 0.928006 0.241649 0.810554
O O8 0.222706 0.395019 0.529123
O O9 0.139338 0.685296 0.471940
O O10 0.370004 0.659163 0.785308
O O11 0.207363 0.094743 0.565468
O O12 0.000000 0.269058 0.250000
O O13 0.000000 0.075409 0.750000
O O14 0.568381 0.245846 0.625235
O O15 0.620185 0.963799 0.614974
#
# Coordination Sequence:
#
# PCOD9228353 Si02
#       7
#     4   4   4   4   4   4   4
#     4  10  20  36  59  88 120 153 199 252 301 355
#     4  10  19  33  60  90 115 153 198 250 304 352
#     4   9  19  37  62  89 119 153 195 249 304 360
#     4  11  22  39  64  94 122 154 197 250 307 361
#     4   9  16  31  57  88 120 151 187 237 301 360
#     4  11  24  41  60  83 122 165 207 250 294 360
#     4  10  24  43  58  82 120 167 207 246 301 353
#
# _framework density 23.873270000000002
#
# number of rings (size 3 to 8) (size 9 to 14) (size 15 to 20)
#    0.000    2.000    0.000    5.143    0.000    4.571 
#    0.000   18.571    0.000    0.000    0.000    0.000 
#    0.000    0.000    0.000    0.000    0.000    0.000 
#
# Total GULP energy -156264.343404 kJ/mol
# GULP energy per Si atom -5580.869407 kJ/mol
# Density = 2.381893 g / cm^3
# Si number density = 23.873270 Si / 1000 Ang^3
#
#
#
# Elastic Constant Matrix: (Units=GPa)
#
#
# Indices 1 2 3 4 5 6 
#
# 1 181.8675 11.5155 81.3334 0.0000 -20.7701 0.0000
# 2 11.5155 60.0271 7.6860 0.0000 -15.4690 0.0000
# 3 81.3334 7.6860 148.1330 0.0000 10.1945 0.0000
# 4 0.0000 0.0000 0.0000 27.6371 0.0000 -10.4303
# 5 -20.7701 -15.4690 10.1945 0.0000 37.2409 0.0000
# 6 0.0000 0.0000 0.0000 -10.4303 0.0000 37.5636
#
#
#
# Elastic Compliance Matrix: (Units=1/GPa)
#
#
# Indices 1 2 3 4 5 6 
#
# 1 0.008486 0.000685 -0.005137 0.000000 0.006424 0.000000
# 2 0.000685 0.019058 -0.001973 0.000000 0.008839 0.000000
# 3 -0.005137 -0.001973 0.010118 0.000000 -0.006454 0.000000
# 4 0.000000 0.000000 0.000000 0.040419 0.000000 0.011223
# 5 0.006424 0.008839 -0.006454 0.000000 0.035873 0.000000
# 6 0.000000 0.000000 0.000000 0.011223 0.000000 0.029738
#
#
# Mechanical properties :
#
#
# Convention : Reuss Voigt Hill
#
# Bulk Modulus (GPa) = 40.30355 65.67750 52.99052
# Shear Modulus (GPa) = 30.33753 39.78783 35.06268
#
# Velocity S-wave (km/s) = 3.56866 4.08686 3.83652
# Velocity P-wave (km/s) = 5.82232 7.05978 6.47070
#
# Compressibility (1/GPa) = 0.02481171
#
# Stress axis : x y z
#
# Youngs Moduli (GPa) = 117.84055 52.47113 98.83631
#
# Poissons Ratio (x) = -0.03595 0.50772
# Poissons Ratio (y) = -0.08074 0.19504
# Poissons Ratio (z) = 0.60534 0.10354
#
# Static dielectric constant tensor:
#      x y z
#    x 1.931290 0.000000 -0.037390 
#    y 0.000000 2.001580 0.000000 
#    z -0.037390 0.000000 1.985530 
# 
# From -- ./inp_files/57318.got.cif
#   From: 2010.05.17/outbox.cif.g08.bks.cpg/sg13_29_cif.got.tgz:57318.got - 2010.06.03 16:44:36.
