data_PCOD9228090
_publ_section_title
;
Structure prediction by ZEFSAII (Michael W. Deem and Ramdas Pophale) SiO2 
 PCOD9228090
Probable space group: P 2/C
;
_chemical_formula_sum "Si O2"
_cell_formula_units_Z 30
_cell_length_a 19.618821
_cell_length_b 8.449492
_cell_length_c 15.458376
_cell_angle_alpha 90.000000
_cell_angle_beta 31.387631
_cell_angle_gamma 90.000000
_cell_volume 1334.625718
_symmetry_space_group_name_H-M "P 2/C"
_symmetry_group_IT_number 13
_symmetry_cell_setting 'monoclinic'
loop_
_space_group_symop_operation_xyz
x,y,z
-x,y,1/2-z
-x,-y,-z
x,-y,1/2+z
loop_
_atom_site_type_symbol
_atom_site_label
_atom_site_fract_x
_atom_site_fract_y
_atom_site_fract_z
Si Si1 0.634635 0.798457 0.198935
Si Si2 0.227723 0.673891 0.887510
Si Si3 0.213482 0.938207 0.027505
Si Si4 0.648305 0.495334 0.583206
Si Si5 0.876816 0.351511 0.542573
Si Si6 0.486702 0.189387 0.019430
Si Si7 0.254937 0.276057 0.650627
Si Si8 0.000000 0.793184 0.750000
O O1 0.643403 0.690158 0.105570
O O2 0.753682 0.739229 0.130806
O O3 0.512863 0.758461 0.392090
O O4 0.652960 0.980856 0.153199
O O5 0.282659 0.573430 0.908947
O O6 0.144863 0.540499 0.928241
O O7 0.349943 0.741719 0.701073
O O8 0.161042 0.821689 0.008669
O O9 0.233810 0.846536 0.094940
O O10 0.118813 0.086837 0.138440
O O11 0.500000 0.556692 0.750000
O O12 0.722446 0.554882 0.419145
O O13 0.865092 0.281946 0.651820
O O14 0.984731 0.311147 0.353469
O O15 0.607901 0.243200 0.948627
O O16 0.500000 0.000000 0.000000
#
# Coordination Sequence:
#
# PCOD9228090 Si02
#       8
#     4   4   4   4   4   4   4   2
#     4   9  20  34  53  85 121 162 202 239 303 368
#     4  10  20  36  60  86 124 163 204 242 308 375
#     4  10  21  40  61  89 122 160 205 261 313 368
#     4  10  19  32  52  84 123 166 195 236 290 360
#     4   9  21  39  62  84 115 159 212 263 302 364
#     4  11  20  34  58  90 130 167 203 245 300 377
#     4  10  22  37  58  91 128 160 208 250 305 377
#     4  10  22  44  68  86 116 160 214 272 326 352
#
# _framework density 22.478213
#
# number of rings (size 3 to 8) (size 9 to 14) (size 15 to 20)
#    0.000    2.133    2.667    0.000    1.867    3.733 
#    0.000    0.000    0.000   13.600    0.000    0.000 
#    0.000    0.000    0.000    0.000    0.000    0.000 
#
# Total GULP energy -167296.883963 kJ/mol
# GULP energy per Si atom -5576.562799 kJ/mol
# Density = 2.242705 g / cm^3
# Si number density = 22.478213 Si / 1000 Ang^3
#
#
#
# Elastic Constant Matrix: (Units=GPa)
#
#
# Indices 1 2 3 4 5 6 
#
# 1 40.1817 15.7926 22.8597 0.0000 19.6874 0.0000
# 2 15.7926 120.2836 59.4242 0.0000 24.7716 0.0000
# 3 22.8597 59.4242 140.9464 0.0000 35.2146 0.0000
# 4 0.0000 0.0000 0.0000 26.4310 0.0000 -4.6922
# 5 19.6874 24.7716 35.2146 0.0000 30.8642 0.0000
# 6 0.0000 0.0000 0.0000 -4.6922 0.0000 16.7000
#
#
#
# Elastic Compliance Matrix: (Units=1/GPa)
#
#
# Indices 1 2 3 4 5 6 
#
# 1 0.036203 0.000052 -0.000159 0.000000 -0.022954 0.000000
# 2 0.000052 0.011017 -0.003407 0.000000 -0.004989 0.000000
# 3 -0.000159 -0.003407 0.010978 0.000000 -0.009689 0.000000
# 4 0.000000 0.000000 0.000000 0.039821 0.000000 0.011188
# 5 -0.022954 -0.004989 -0.009689 0.000000 0.062100 0.000000
# 6 0.000000 0.000000 0.000000 0.011188 0.000000 0.063024
#
#
# Mechanical properties :
#
#
# Convention : Reuss Voigt Hill
#
# Bulk Modulus (GPa) = 19.54225 55.28497 37.41361
# Shear Modulus (GPa) = 20.22427 28.35475 24.28951
#
# Velocity S-wave (km/s) = 3.00280 3.55552 3.29078
# Velocity P-wave (km/s) = 4.55359 6.44235 5.57849
#
# Compressibility (1/GPa) = 0.05117119
#
# Stress axis : x y z
#
# Youngs Moduli (GPa) = 27.62188 90.76533 91.09126
#
# Poissons Ratio (x) = -0.00476 0.01448
# Poissons Ratio (y) = -0.00145 0.31036
# Poissons Ratio (z) = 0.00439 0.30925
#
# Static dielectric constant tensor:
#      x y z
#    x 1.893840 0.000000 -0.030400 
#    y 0.000000 1.871560 0.000000 
#    z -0.030400 0.000000 1.950880 
# 
# From -- ./inp_files/53143.got.cif
#   From: 2010.05.17/outbox.cif.g08.bks.cpg/sg13_27_cif.got.tgz:53143.got - 2010.06.03 16:44:36.
