data_PCOD9228621
_publ_section_title
;
Structure prediction by ZEFSAII (Michael W. Deem and Ramdas Pophale) SiO2 
 PCOD9228621
Probable space group: P 2/C
;
_chemical_formula_sum "Si O2"
_cell_formula_units_Z 16
_cell_length_a 10.829086
_cell_length_b 7.518982
_cell_length_c 8.287571
_cell_angle_alpha 90.000000
_cell_angle_beta 83.167974
_cell_angle_gamma 90.000000
_cell_volume 670.013044
_symmetry_space_group_name_H-M "P 2/C"
_symmetry_group_IT_number 13
_symmetry_cell_setting 'monoclinic'
loop_
_space_group_symop_operation_xyz
x,y,z
-x,y,1/2-z
-x,-y,-z
x,-y,1/2+z
loop_
_atom_site_type_symbol
_atom_site_label
_atom_site_fract_x
_atom_site_fract_y
_atom_site_fract_z
Si Si1 0.373537 0.401387 0.865451
Si Si2 0.524643 0.211287 0.074609
Si Si3 0.912242 0.880169 0.627356
Si Si4 0.756296 0.168513 0.854435
O O1 0.500000 0.356888 0.750000
O O2 0.395189 0.605937 0.904580
O O3 0.265626 0.330518 0.767795
O O4 0.395704 0.284257 0.020793
O O5 0.500000 0.127716 0.250000
O O6 0.621912 0.108729 0.947405
O O7 0.836845 0.778473 0.499585
O O8 0.000000 0.789689 0.750000
O O9 0.820847 0.010746 0.742728
O O10 0.000000 0.000000 0.500000
#
# Coordination Sequence:
#
# PCOD9228621 Si02
#       4
#     4   4   4   4
#     4   8  16  32  53  80 112 142 173 208 258 328
#     4   9  17  31  53  82 115 143 167 207 262 328
#     4   9  20  38  57  73  98 140 189 239 273 303
#     4  10  19  35  57  78 103 145 185 215 270 326
#
# _framework density 23.880132
#
# number of rings (size 3 to 8) (size 9 to 14) (size 15 to 20)
#    0.000    3.000    0.000    1.500    0.000    4.000 
#    0.000   16.250    0.000   19.500    0.000    0.000 
#    0.000    0.000    0.000    0.000    0.000    0.000 
#
# Total GULP energy -89192.324744 kJ/mol
# GULP energy per Si atom -5574.520296 kJ/mol
# Density = 2.382578 g / cm^3
# Si number density = 23.880132 Si / 1000 Ang^3
#
#
#
# Elastic Constant Matrix: (Units=GPa)
#
#
# Indices 1 2 3 4 5 6 
#
# 1 88.2976 19.0191 62.5362 0.0000 29.8724 0.0000
# 2 19.0191 75.5613 39.5048 0.0000 27.8148 0.0000
# 3 62.5362 39.5048 171.6576 0.0000 41.0636 0.0000
# 4 0.0000 0.0000 0.0000 41.4507 0.0000 8.7886
# 5 29.8724 27.8148 41.0636 0.0000 86.9271 0.0000
# 6 0.0000 0.0000 0.0000 8.7886 0.0000 25.0342
#
#
#
# Elastic Compliance Matrix: (Units=1/GPa)
#
#
# Indices 1 2 3 4 5 6 
#
# 1 0.015971 -0.000277 -0.005032 0.000000 -0.003023 0.000000
# 2 -0.000277 0.016109 -0.002701 0.000000 -0.003783 0.000000
# 3 -0.005032 -0.002701 0.008636 0.000000 -0.001486 0.000000
# 4 0.000000 0.000000 0.000000 0.026065 0.000000 -0.009151
# 5 -0.003023 -0.003783 -0.001486 0.000000 0.014455 0.000000
# 6 0.000000 0.000000 0.000000 -0.009151 0.000000 0.043158
#
#
# Mechanical properties :
#
#
# Convention : Reuss Voigt Hill
#
# Bulk Modulus (GPa) = 40.49128 64.18185 52.33657
# Shear Modulus (GPa) = 33.63698 44.97949 39.30823
#
# Velocity S-wave (km/s) = 3.75717 4.34470 4.06157
# Velocity P-wave (km/s) = 5.98453 7.21828 6.63017
#
# Compressibility (1/GPa) = 0.02469668
#
# Stress axis : x y z
#
# Youngs Moduli (GPa) = 62.61235 62.07721 115.79718
#
# Poissons Ratio (x) = 0.01717 0.58265
# Poissons Ratio (y) = 0.01732 0.31282
# Poissons Ratio (z) = 0.31504 0.16770
#
# Static dielectric constant tensor:
#      x y z
#    x 1.982350 0.000000 0.070280 
#    y 0.000000 2.013760 0.000000 
#    z 0.070280 0.000000 2.070120 
# 
# From -- ./inp_files/11076.got.cif
#   From: 2010.05.17/outbox.cif.g08.bks.cpg/sg13_6_cif.got.tgz:11076.got - 2010.06.03 16:44:36.
