data_PCOD9228747
_publ_section_title
;
Structure prediction by ZEFSAII (Michael W. Deem and Ramdas Pophale) SiO2 
 PCOD9228747
Probable space group: P 2/C
;
_chemical_formula_sum "Si O2"
_cell_formula_units_Z 32
_cell_length_a 9.420438
_cell_length_b 13.437839
_cell_length_c 12.392148
_cell_angle_alpha 90.000000
_cell_angle_beta 92.091246
_cell_angle_gamma 90.000000
_cell_volume 1567.681292
_symmetry_space_group_name_H-M "P 2/C"
_symmetry_group_IT_number 13
_symmetry_cell_setting 'monoclinic'
loop_
_space_group_symop_operation_xyz
x,y,z
-x,y,1/2-z
-x,-y,-z
x,-y,1/2+z
loop_
_atom_site_type_symbol
_atom_site_label
_atom_site_fract_x
_atom_site_fract_y
_atom_site_fract_z
Si Si1 0.426099 0.717526 0.136709
Si Si2 0.552820 0.053588 0.137907
Si Si3 0.902506 0.213169 0.462531
Si Si4 0.778604 0.200066 0.047312
Si Si5 0.048308 0.418603 0.914942
Si Si6 0.832036 0.672307 0.754972
Si Si7 0.235209 0.546273 0.222052
Si Si8 0.632803 0.140235 0.550898
O O1 0.500000 0.752800 0.250000
O O2 0.363135 0.610082 0.173269
O O3 0.553819 0.752811 0.059639
O O4 0.293519 0.767793 0.068397
O O5 0.500000 0.091365 0.250000
O O6 0.686012 0.112951 0.095501
O O7 0.591412 0.937284 0.142807
O O8 0.426920 0.080253 0.052992
O O9 0.927133 0.318695 0.519730
O O10 0.832937 0.240145 0.344351
O O11 0.797314 0.154311 0.536178
O O12 0.058210 0.167814 0.456470
O O13 0.780307 0.289167 0.136901
O O14 0.188912 0.440904 0.847002
O O15 0.907361 0.413010 0.838450
O O16 0.000000 0.500000 0.000000
O O17 0.752681 0.572768 0.791741
O O18 0.000000 0.643526 0.750000
#
# Coordination Sequence:
#
# PCOD9228747 Si02
#       8
#     4   4   4   4   4   4   4   4
#     4  11  23  42  57  84 124 169 212 254 313 381
#     4  10  21  42  65  87 122 169 209 254 327 398
#     4  11  20  37  63  95 126 156 211 268 316 371
#     4  10  22  38  66  93 120 160 216 270 315 379
#     4  11  19  34  58  90 121 165 210 254 312 374
#     4  10  19  35  61  93 126 164 201 258 323 374
#     4  11  21  34  58  86 122 167 215 248 302 376
#     4  10  23  40  64  89 123 169 209 262 324 381
#
# _framework density 20.412312
#
# number of rings (size 3 to 8) (size 9 to 14) (size 15 to 20)
#    0.000    1.500    3.750    2.625    0.000    0.500 
#    0.000    4.375    0.000    3.000    0.000    0.000 
#    0.000    0.000    0.000    0.000    0.000    0.000 
#
# Total GULP energy -178151.098642 kJ/mol
# GULP energy per Si atom -5567.221833 kJ/mol
# Density = 2.036585 g / cm^3
# Si number density = 20.412312 Si / 1000 Ang^3
#
#
#
# Elastic Constant Matrix: (Units=GPa)
#
#
# Indices 1 2 3 4 5 6 
#
# 1 84.3197 40.0054 18.3879 0.0000 0.6307 0.0000
# 2 40.0054 72.8954 12.0907 0.0000 -1.9734 0.0000
# 3 18.3879 12.0907 74.3215 0.0000 11.3769 0.0000
# 4 0.0000 0.0000 0.0000 17.2857 0.0000 -19.2064
# 5 0.6307 -1.9734 11.3769 0.0000 26.4660 0.0000
# 6 0.0000 0.0000 0.0000 -19.2064 0.0000 20.6062
#
#
#
# Elastic Compliance Matrix: (Units=1/GPa)
#
#
# Indices 1 2 3 4 5 6 
#
# 1 0.016542 -0.008625 -0.002709 0.000000 0.000127 0.000000
# 2 -0.008625 0.018715 -0.001237 0.000000 0.002133 0.000000
# 3 -0.002709 -0.001237 0.015340 0.000000 -0.006622 0.000000
# 4 0.000000 0.000000 0.000000 -1.623212 0.000000 -1.512951
# 5 0.000127 0.002133 -0.006622 0.000000 0.040787 0.000000
# 6 0.000000 0.000000 0.000000 -1.512951 0.000000 -1.361650
#
#
# Mechanical properties :
#
#
# Convention : Reuss Voigt Hill
#
# Bulk Modulus (GPa) = 39.28631 41.38940 40.33785
# Shear Modulus (GPa) = -1.74834 23.60841 10.93003
#
# Velocity S-wave (km/s) = -0.92648 3.40454 2.31652
# Velocity P-wave (km/s) = 4.25954 5.98124 5.19225
#
# Compressibility (1/GPa) = 0.02545416
#
# Stress axis : x y z
#
# Youngs Moduli (GPa) = 60.45312 53.43333 65.18839
#
# Poissons Ratio (x) = 0.46089 0.17659
# Poissons Ratio (y) = 0.52144 0.08064
# Poissons Ratio (z) = 0.16376 0.06610
#
# Static dielectric constant tensor:
#      x y z
#    x 1.801220 0.000000 -0.052040 
#    y 0.000000 1.747750 0.000000 
#    z -0.052040 0.000000 1.844820 
# 
# From -- ./inp_files/30435.got.cif
#   From: 2010.05.17/outbox.cif.g08.bks.cpg/sg13_16_cif.got.tgz:30435.got - 2010.06.03 16:44:36.
