data_PCOD9228605
_publ_section_title
;
Structure prediction by ZEFSAII (Michael W. Deem and Ramdas Pophale) SiO2 
 PCOD9228605
Probable space group: P 2/C
;
_chemical_formula_sum "Si O2"
_cell_formula_units_Z 30
_cell_length_a 12.033156
_cell_length_b 10.992930
_cell_length_c 14.851048
_cell_angle_alpha 90.000000
_cell_angle_beta 134.287761
_cell_angle_gamma 90.000000
_cell_volume 1406.265202
_symmetry_space_group_name_H-M "P 2/C"
_symmetry_group_IT_number 13
_symmetry_cell_setting 'monoclinic'
loop_
_space_group_symop_operation_xyz
x,y,z
-x,y,1/2-z
-x,-y,-z
x,-y,1/2+z
loop_
_atom_site_type_symbol
_atom_site_label
_atom_site_fract_x
_atom_site_fract_y
_atom_site_fract_z
Si Si1 0.358753 0.742424 0.239754
Si Si2 0.329377 0.989045 0.988184
Si Si3 0.171917 0.481033 0.555930
Si Si4 0.013835 0.318530 0.156841
Si Si5 0.500000 0.909113 0.750000
Si Si6 0.330250 0.307940 0.238732
Si Si7 0.887142 0.906170 0.482655
Si Si8 0.525091 0.211460 0.503530
O O1 0.500000 0.748314 0.250000
O O2 0.257283 0.626287 0.156648
O O3 0.250389 0.860112 0.160664
O O4 0.425440 0.725684 0.376833
O O5 0.456255 0.011057 0.139196
O O6 0.180255 0.958455 0.962035
O O7 0.384324 0.881120 0.953296
O O8 0.336141 0.118444 0.943265
O O9 0.115587 0.425373 0.428360
O O10 0.287690 0.594757 0.635901
O O11 0.000000 0.500000 0.500000
O O12 0.000000 0.273499 0.250000
O O13 0.191049 0.341428 0.229087
O O14 0.972992 0.215464 0.061538
O O15 0.641491 0.819767 0.798903
O O16 0.474229 0.294758 0.390956
O O17 0.000000 0.000000 0.500000
#
# Coordination Sequence:
#
# PCOD9228605 Si02
#       8
#     4   4   4   4   2   4   4   4
#     4  11  22  39  64  94 126 164 219 272 322 391
#     4  10  19  35  55  87 128 165 202 252 312 375
#     4   9  22  42  61  85 122 162 205 270 333 380
#     4  10  21  38  62  88 120 163 215 258 313 391
#     4  10  20  34  56  84 124 164 196 250 314 376
#     4  10  21  39  60  88 121 160 210 260 319 380
#     4  11  22  36  60  93 130 176 210 255 327 397
#     4  10  21  36  61  92 127 160 210 270 313 381
#
# _framework density 21.333100999999999
#
# number of rings (size 3 to 8) (size 9 to 14) (size 15 to 20)
#    0.000    1.867    1.333    2.400    2.800    3.733 
#    0.000    5.333    0.000    0.000    0.000    0.000 
#    0.000    0.000    0.000    0.000    0.000    0.000 
#
# Total GULP energy -167053.429298 kJ/mol
# GULP energy per Si atom -5568.447643 kJ/mol
# Density = 2.128455 g / cm^3
# Si number density = 21.333101 Si / 1000 Ang^3
#
#
#
# Elastic Constant Matrix: (Units=GPa)
#
#
# Indices 1 2 3 4 5 6 
#
# 1 71.0221 19.1947 8.0951 0.0000 3.9101 0.0000
# 2 19.1947 65.1729 24.4992 0.0000 17.9992 0.0000
# 3 8.0951 24.4992 84.8108 0.0000 0.3745 0.0000
# 4 0.0000 0.0000 0.0000 26.5807 0.0000 17.0866
# 5 3.9101 17.9992 0.3745 0.0000 25.8733 0.0000
# 6 0.0000 0.0000 0.0000 17.0866 0.0000 18.8447
#
#
#
# Elastic Compliance Matrix: (Units=1/GPa)
#
#
# Indices 1 2 3 4 5 6 
#
# 1 0.015320 -0.004750 -0.000095 0.000000 0.000991 0.000000
# 2 -0.004750 0.023343 -0.006222 0.000000 -0.015431 0.000000
# 3 -0.000095 -0.006222 0.013579 0.000000 0.004146 0.000000
# 4 0.000000 0.000000 0.000000 0.090187 0.000000 -0.081773
# 5 0.000991 -0.015431 0.004146 0.000000 0.049175 0.000000
# 6 0.000000 0.000000 0.000000 -0.081773 0.000000 0.127210
#
#
# Mechanical properties :
#
#
# Convention : Reuss Voigt Hill
#
# Bulk Modulus (GPa) = 33.21177 36.06488 34.63832
# Shear Modulus (GPa) = 14.24570 25.54085 19.89328
#
# Velocity S-wave (km/s) = 2.58694 3.46387 3.05701
# Velocity P-wave (km/s) = 4.95227 5.73935 5.36028
#
# Compressibility (1/GPa) = 0.03010981
#
# Stress axis : x y z
#
# Youngs Moduli (GPa) = 65.27352 42.83879 73.64369
#
# Poissons Ratio (x) = 0.20349 0.00696
# Poissons Ratio (y) = 0.31006 0.45818
# Poissons Ratio (z) = 0.00617 0.26653
#
# Static dielectric constant tensor:
#      x y z
#    x 1.797640 0.000000 0.016990 
#    y 0.000000 1.844350 0.000000 
#    z 0.016990 0.000000 1.795320 
# 
# From -- ./inp_files/51203.got.cif
#   From: 2010.05.17/outbox.cif.g08.bks.cpg/sg13_26_cif.got.tgz:51203.got - 2010.06.03 16:44:36.
