data_PCOD9228625
_publ_section_title
;
Structure prediction by ZEFSAII (Michael W. Deem and Ramdas Pophale) SiO2 
 PCOD9228625
Probable space group: P 2/C
;
_chemical_formula_sum "Si O2"
_cell_formula_units_Z 20
_cell_length_a 9.168718
_cell_length_b 7.064689
_cell_length_c 18.303225
_cell_angle_alpha 90.000000
_cell_angle_beta 41.131832
_cell_angle_gamma 90.000000
_cell_volume 779.864337
_symmetry_space_group_name_H-M "P 2/C"
_symmetry_group_IT_number 13
_symmetry_cell_setting 'monoclinic'
loop_
_space_group_symop_operation_xyz
x,y,z
-x,y,1/2-z
-x,-y,-z
x,-y,1/2+z
loop_
_atom_site_type_symbol
_atom_site_label
_atom_site_fract_x
_atom_site_fract_y
_atom_site_fract_z
Si Si1 0.732454 0.986897 0.096296
Si Si2 0.904397 0.538125 0.704833
Si Si3 0.441628 0.254230 0.609218
Si Si4 0.143469 0.019496 0.295274
Si Si5 0.741445 0.740940 0.474963
O O1 0.700873 0.967269 0.194785
O O2 0.655456 0.816628 0.072547
O O3 0.912770 0.091583 0.888060
O O4 0.000000 0.000000 0.000000
O O5 0.881510 0.757590 0.697989
O O6 0.675306 0.421846 0.800347
O O7 0.000000 0.515351 0.750000
O O8 0.090448 0.436612 0.584516
O O9 0.436157 0.289633 0.523626
O O10 0.276262 0.074537 0.679236
O O11 0.654139 0.180696 0.085113
#
# Coordination Sequence:
#
# PCOD9228625 Si02
#       5
#     4   4   4   4   4
#     4  10  21  36  53  78 113 147 178 223 277 320
#     4   9  18  34  59  85 106 140 188 229 269 323
#     4  10  19  36  58  80 106 144 189 223 264 324
#     4  10  19  35  57  82 111 140 178 227 276 326
#     4   9  19  35  58  81 109 143 178 226 273 324
#
# _framework density 25.645484
#
# number of rings (size 3 to 8) (size 9 to 14) (size 15 to 20)
#    0.000    2.400    0.000    4.200    0.000    0.800 
#    0.000   16.000    0.000   14.400    0.000    0.000 
#    0.000    0.000    0.000    0.000    0.000    0.000 
#
# Total GULP energy -111679.676619 kJ/mol
# GULP energy per Si atom -5583.983831 kJ/mol
# Density = 2.558711 g / cm^3
# Si number density = 25.645484 Si / 1000 Ang^3
#
#
#
# Elastic Constant Matrix: (Units=GPa)
#
#
# Indices 1 2 3 4 5 6 
#
# 1 119.0976 36.1638 25.6902 0.0000 20.2006 0.0000
# 2 36.1638 186.4491 8.2543 0.0000 -11.3342 0.0000
# 3 25.6902 8.2543 30.0196 0.0000 19.4478 0.0000
# 4 0.0000 0.0000 0.0000 20.1862 0.0000 -9.1470
# 5 20.2006 -11.3342 19.4478 0.0000 35.0203 0.0000
# 6 0.0000 0.0000 0.0000 -9.1470 0.0000 3.5470
#
#
#
# Elastic Compliance Matrix: (Units=1/GPa)
#
#
# Indices 1 2 3 4 5 6 
#
# 1 0.011028 -0.002038 -0.006761 0.000000 -0.003266 0.000000
# 2 -0.002038 0.006199 -0.003157 0.000000 0.004935 0.000000
# 3 -0.006761 -0.003157 0.059511 0.000000 -0.030170 0.000000
# 4 0.000000 0.000000 0.000000 -0.293945 0.000000 -0.758020
# 5 -0.003266 0.004935 -0.030170 0.000000 0.048790 0.000000
# 6 0.000000 0.000000 0.000000 -0.758020 0.000000 -1.672844
#
#
# Mechanical properties :
#
#
# Convention : Reuss Voigt Hill
#
# Bulk Modulus (GPa) = 18.93074 52.86479 35.89777
# Shear Modulus (GPa) = -2.77818 29.44790 13.33486
#
# Velocity S-wave (km/s) = -1.04195 3.39229 2.28276
# Velocity P-wave (km/s) = 2.43930 6.00016 4.57996
#
# Compressibility (1/GPa) = 0.05282413
#
# Stress axis : x y z
#
# Youngs Moduli (GPa) = 90.68043 161.32923 16.80370
#
# Poissons Ratio (x) = 0.32882 0.11361
# Poissons Ratio (y) = 0.18482 0.05305
# Poissons Ratio (z) = 0.61308 0.50936
#
# Static dielectric constant tensor:
#      x y z
#    x 2.046780 0.000000 -0.045430 
#    y 0.000000 2.070640 0.000000 
#    z -0.045430 0.000000 2.315660 
# 
# From -- ./inp_files/65853.got.cif
#   From: 2010.05.17/outbox.cif.g08.bks.cpg/sg13_33_cif.got.tgz:65853.got - 2010.06.03 16:44:36.
