data_PCOD9228213
_publ_section_title
;
Structure prediction by ZEFSAII (Michael W. Deem and Ramdas Pophale) SiO2 
 PCOD9228213
Probable space group: P 2/C
;
_chemical_formula_sum "Si O2"
_cell_formula_units_Z 32
_cell_length_a 20.298662
_cell_length_b 11.326734
_cell_length_c 9.076055
_cell_angle_alpha 90.000000
_cell_angle_beta 128.775771
_cell_angle_gamma 90.000000
_cell_volume 1626.831835
_symmetry_space_group_name_H-M "P 2/C"
_symmetry_group_IT_number 13
_symmetry_cell_setting 'monoclinic'
loop_
_space_group_symop_operation_xyz
x,y,z
-x,y,1/2-z
-x,-y,-z
x,-y,1/2+z
loop_
_atom_site_type_symbol
_atom_site_label
_atom_site_fract_x
_atom_site_fract_y
_atom_site_fract_z
Si Si1 0.259569 0.511406 0.890411
Si Si2 0.369741 0.418622 0.792920
Si Si3 0.350084 0.143122 0.148726
Si Si4 0.178750 0.280652 0.871393
Si Si5 0.470969 0.360076 0.360686
Si Si6 0.901113 0.392199 0.480591
Si Si7 0.951666 0.342345 0.045728
Si Si8 0.435812 0.041653 0.541057
O O1 0.299470 0.429764 0.818970
O O2 0.221496 0.411084 0.942970
O O3 0.185695 0.594680 0.731061
O O4 0.327828 0.586098 0.075642
O O5 0.415411 0.546005 0.868182
O O6 0.444326 0.327720 0.932782
O O7 0.413157 0.254112 0.229039
O O8 0.365106 0.103097 0.339699
O O9 0.386386 0.053322 0.075397
O O10 0.253957 0.186255 0.988631
O O11 0.126384 0.279076 0.645368
O O12 0.113033 0.294133 0.914203
O O13 0.500000 0.421408 0.250000
O O14 0.919192 0.528288 0.555621
O O15 0.978290 0.362779 0.481733
O O16 0.000000 0.283620 0.250000
O O17 0.500000 0.102582 0.750000
O O18 0.500000 0.000000 0.500000
#
# Coordination Sequence:
#
# PCOD9228213 Si02
#       8
#     4   4   4   4   4   4   4   4
#     4  11  19  32  47  74 116 156 194 235 261 315
#     4  11  21  32  47  74 117 161 194 228 267 334
#     4  11  21  41  61  86 107 147 194 246 309 351
#     4  11  21  35  57  80 115 153 191 243 285 342
#     4  11  20  34  52  73 112 159 192 224 283 348
#     4  10  19  33  53  80 119 162 201 224 268 328
#     4  10  20  33  54  83 119 163 195 228 272 329
#     4   9  20  39  65  81 108 140 189 252 301 355
#
# _framework density 19.670134999999998
#
# number of rings (size 3 to 8) (size 9 to 14) (size 15 to 20)
#    0.000    1.500    3.750    3.750    1.750    0.000 
#    4.500    2.500    0.000    0.000    0.000    6.125 
#    0.000    0.000    0.000    0.000    0.000    0.000 
#
# Total GULP energy -178258.282427 kJ/mol
# GULP energy per Si atom -5570.571326 kJ/mol
# Density = 1.962536 g / cm^3
# Si number density = 19.670135 Si / 1000 Ang^3
#
#
#
# Elastic Constant Matrix: (Units=GPa)
#
#
# Indices 1 2 3 4 5 6 
#
# 1 87.5450 21.3285 33.5876 0.0000 3.6252 0.0000
# 2 21.3285 27.2074 31.3728 0.0000 0.5189 0.0000
# 3 33.5876 31.3728 186.1298 0.0000 24.4492 0.0000
# 4 0.0000 0.0000 0.0000 24.5231 0.0000 0.7469
# 5 3.6252 0.5189 24.4492 0.0000 35.2448 0.0000
# 6 0.0000 0.0000 0.0000 0.7469 0.0000 21.2158
#
#
#
# Elastic Compliance Matrix: (Units=1/GPa)
#
#
# Indices 1 2 3 4 5 6 
#
# 1 0.014248 -0.010317 -0.000726 0.000000 -0.000810 0.000000
# 2 -0.010317 0.053951 -0.007996 0.000000 0.005813 0.000000
# 3 -0.000726 -0.007996 0.007510 0.000000 -0.005018 0.000000
# 4 0.000000 0.000000 0.000000 0.040822 0.000000 -0.001437
# 5 -0.000810 0.005813 -0.005018 0.000000 0.031851 0.000000
# 6 0.000000 0.000000 0.000000 -0.001437 0.000000 0.047185
#
#
# Mechanical properties :
#
#
# Convention : Reuss Voigt Hill
#
# Bulk Modulus (GPa) = 26.57245 52.60666 39.58956
# Shear Modulus (GPa) = 20.30957 30.50297 25.40627
#
# Velocity S-wave (km/s) = 3.21675 3.94220 3.59781
# Velocity P-wave (km/s) = 5.22829 6.89374 6.11795
#
# Compressibility (1/GPa) = 0.03763296
#
# Stress axis : x y z
#
# Youngs Moduli (GPa) = 70.18411 18.53522 133.15047
#
# Poissons Ratio (x) = 0.19123 0.09663
# Poissons Ratio (y) = 0.72411 1.06461
# Poissons Ratio (z) = 0.05093 0.14820
#
# Static dielectric constant tensor:
#      x y z
#    x 1.784290 0.000000 0.000610 
#    y 0.000000 1.694990 0.000000 
#    z 0.000610 0.000000 1.789820 
# 
# From -- ./inp_files/23374.got.cif
#   From: 2010.05.17/outbox.cif.g08.bks.cpg/sg13_12_cif.got.tgz:23374.got - 2010.06.03 16:44:36.
