data_PCOD9228086
_publ_section_title
;
Structure prediction by ZEFSAII (Michael W. Deem and Ramdas Pophale) SiO2 
 PCOD9228086
Probable space group: P 2/C
;
_chemical_formula_sum "Si O2"
_cell_formula_units_Z 28
_cell_length_a 20.218116
_cell_length_b 15.364484
_cell_length_c 8.973875
_cell_angle_alpha 90.000000
_cell_angle_beta 28.622597
_cell_angle_gamma 90.000000
_cell_volume 1335.391866
_symmetry_space_group_name_H-M "P 2/C"
_symmetry_group_IT_number 13
_symmetry_cell_setting 'monoclinic'
loop_
_space_group_symop_operation_xyz
x,y,z
-x,y,1/2-z
-x,-y,-z
x,-y,1/2+z
loop_
_atom_site_type_symbol
_atom_site_label
_atom_site_fract_x
_atom_site_fract_y
_atom_site_fract_z
Si Si1 0.728125 0.995422 0.717704
Si Si2 0.109275 0.618808 0.291280
Si Si3 0.000000 0.515247 0.250000
Si Si4 0.065594 0.214003 0.453399
Si Si5 0.658887 0.190585 0.448613
Si Si6 0.297220 0.758913 0.969676
Si Si7 0.115124 0.090324 0.865384
Si Si8 0.500000 0.134486 0.250000
O O1 0.780960 0.956165 0.457981
O O2 0.862921 0.030058 0.536266
O O3 0.665316 0.913890 0.931701
O O4 0.613420 0.071152 0.949513
O O5 0.105804 0.575715 0.133983
O O6 0.066087 0.547005 0.495876
O O7 0.999832 0.699287 0.491587
O O8 0.252534 0.659793 0.066174
O O9 0.018051 0.126657 0.458420
O O10 0.231070 0.219946 0.144887
O O11 0.000000 0.205892 0.750000
O O12 0.500000 0.219217 0.750000
O O13 0.720882 0.221435 0.168687
O O14 0.437379 0.800819 0.750174
O O15 0.185066 0.818294 0.275879
#
# Coordination Sequence:
#
# PCOD9228086 Si02
#       8
#     4   4   2   4   4   4   4   2
#     4  10  19  32  52  80 108 148 215 253 285 340
#     4  10  19  39  64  97 117 149 186 239 298 372
#     4  10  20  34  70 102 116 136 182 250 302 350
#     4  11  18  39  58  78 123 158 190 239 314 354
#     4  11  21  33  54  84 109 165 211 245 285 354
#     4   9  19  36  56  77 121 156 191 228 310 349
#     4   9  20  33  55  76 108 156 196 253 304 332
#     4  10  20  32  54  78 116 162 194 258 286 330
#
# _framework density 20.96763
#
# number of rings (size 3 to 8) (size 9 to 14) (size 15 to 20)
#    0.000    2.000    5.714    0.000    2.000    2.286 
#    2.571    1.429    0.000    0.857    7.429    0.000 
#    0.000    0.000    0.000    0.000    0.000    0.000 
#
# Total GULP energy -156011.748432 kJ/mol
# GULP energy per Si atom -5571.848158 kJ/mol
# Density = 2.091991 g / cm^3
# Si number density = 20.967630 Si / 1000 Ang^3
#
#
#
# Elastic Constant Matrix: (Units=GPa)
#
#
# Indices 1 2 3 4 5 6 
#
# 1 84.1214 40.2870 27.2358 0.0000 -18.0391 0.0000
# 2 40.2870 95.6807 24.5537 0.0000 -5.4421 0.0000
# 3 27.2358 24.5537 51.6896 0.0000 -21.8198 0.0000
# 4 0.0000 0.0000 0.0000 23.8634 0.0000 -6.0768
# 5 -18.0391 -5.4421 -21.8198 0.0000 38.5532 0.0000
# 6 0.0000 0.0000 0.0000 -6.0768 0.0000 6.2043
#
#
#
# Elastic Compliance Matrix: (Units=1/GPa)
#
#
# Indices 1 2 3 4 5 6 
#
# 1 0.017069 -0.005837 -0.004202 0.000000 0.004785 0.000000
# 2 -0.005837 0.014016 -0.005125 0.000000 -0.003653 0.000000
# 3 -0.004202 -0.005125 0.030035 0.000000 0.014309 0.000000
# 4 0.000000 0.000000 0.000000 0.055830 0.000000 0.054683
# 5 0.004785 -0.003653 0.014309 0.000000 0.035760 0.000000
# 6 0.000000 0.000000 0.000000 0.054683 0.000000 0.214737
#
#
# Mechanical properties :
#
#
# Convention : Reuss Voigt Hill
#
# Bulk Modulus (GPa) = 32.47318 46.18274 39.32796
# Shear Modulus (GPa) = 12.25375 23.01853 17.63614
#
# Velocity S-wave (km/s) = 2.42009 3.31692 2.90334
# Velocity P-wave (km/s) = 4.83011 6.06159 5.48055
#
# Compressibility (1/GPa) = 0.03079464
#
# Stress axis : x y z
#
# Youngs Moduli (GPa) = 58.58467 71.34527 33.29468
#
# Poissons Ratio (x) = 0.41643 0.13989
# Poissons Ratio (y) = 0.34195 0.17062
# Poissons Ratio (z) = 0.24615 0.36561
#
# Static dielectric constant tensor:
#      x y z
#    x 1.827690 0.000000 -0.036440 
#    y 0.000000 1.778660 0.000000 
#    z -0.036440 0.000000 1.866230 
# 
# From -- ./inp_files/23615.got.cif
#   From: 2010.05.17/outbox.cif.g08.bks.cpg/sg13_12_cif.got.tgz:23615.got - 2010.06.03 16:44:36.
