data_PCOD9228923
_publ_section_title
;
Structure prediction by ZEFSAII (Michael W. Deem and Ramdas Pophale) SiO2 
 PCOD9228923
Probable space group: P 2/C
;
_chemical_formula_sum "Si O2"
_cell_formula_units_Z 20
_cell_length_a 5.524942
_cell_length_b 21.190221
_cell_length_c 7.339535
_cell_angle_alpha 90.000000
_cell_angle_beta 109.231132
_cell_angle_gamma 90.000000
_cell_volume 811.324553
_symmetry_space_group_name_H-M "P 2/C"
_symmetry_group_IT_number 13
_symmetry_cell_setting 'monoclinic'
loop_
_space_group_symop_operation_xyz
x,y,z
-x,y,1/2-z
-x,-y,-z
x,-y,1/2+z
loop_
_atom_site_type_symbol
_atom_site_label
_atom_site_fract_x
_atom_site_fract_y
_atom_site_fract_z
Si Si1 0.118867 0.069744 0.028615
Si Si2 0.535612 0.739203 0.544092
Si Si3 0.500000 0.353420 0.750000
Si Si4 0.381016 0.884872 0.973435
Si Si5 0.000000 0.665583 0.750000
Si Si6 0.964953 0.426559 0.954798
O O1 0.358671 0.073998 0.949254
O O2 0.250257 0.092531 0.250547
O O3 0.860134 0.111284 0.949275
O O4 0.000000 0.000000 0.000000
O O5 0.500000 0.729491 0.750000
O O6 0.377908 0.695541 0.366314
O O7 0.522224 0.813162 0.506466
O O8 0.823294 0.712726 0.590792
O O9 0.676790 0.400743 0.909719
O O10 0.122829 0.616947 0.633863
O O11 0.000000 0.415637 0.750000
O O12 0.000000 0.500000 0.000000
#
# Coordination Sequence:
#
# PCOD9228923 Si02
#       6
#     4   4   2   4   2   4
#     4  10  19  36  60  92 130 170 228 276 333 416
#     4  11  21  42  68  90 131 171 221 279 338 409
#     4  10  26  42  64 102 128 172 230 270 338 406
#     4  10  21  37  63  94 126 177 226 277 344 408
#     4  10  22  38  64  92 126 176 214 274 342 398
#     4  11  22  42  62  95 133 170 222 273 331 403
#
# _framework density 24.651046000000001
#
# number of rings (size 3 to 8) (size 9 to 14) (size 15 to 20)
#    0.000    1.600    3.000    3.000    0.000    0.800 
#    1.800    6.000    0.000    0.000    0.000    0.000 
#    0.000    0.000    0.000    0.000    0.000    0.000 
#
# Total GULP energy -111474.817663 kJ/mol
# GULP energy per Si atom -5573.740883 kJ/mol
# Density = 2.459494 g / cm^3
# Si number density = 24.651046 Si / 1000 Ang^3
#
#
#
# Elastic Constant Matrix: (Units=GPa)
#
#
# Indices 1 2 3 4 5 6 
#
# 1 117.1064 34.0613 8.7070 0.0000 15.2797 0.0000
# 2 34.0613 186.2442 28.7240 0.0000 19.8729 0.0000
# 3 8.7070 28.7240 125.8043 0.0000 -1.5971 0.0000
# 4 0.0000 0.0000 0.0000 35.4701 0.0000 -0.0475
# 5 15.2797 19.8729 -1.5971 0.0000 23.2623 0.0000
# 6 0.0000 0.0000 0.0000 -0.0475 0.0000 29.3180
#
#
#
# Elastic Compliance Matrix: (Units=1/GPa)
#
#
# Indices 1 2 3 4 5 6 
#
# 1 0.009600 -0.001106 -0.000480 0.000000 -0.005394 0.000000
# 2 -0.001106 0.006298 -0.001422 0.000000 -0.004751 0.000000
# 3 -0.000480 -0.001422 0.008333 0.000000 0.002102 0.000000
# 4 0.000000 0.000000 0.000000 0.028193 0.000000 0.000046
# 5 -0.005394 -0.004751 0.002102 0.000000 0.050734 0.000000
# 6 0.000000 0.000000 0.000000 0.000046 0.000000 0.034109
#
#
# Mechanical properties :
#
#
# Convention : Reuss Voigt Hill
#
# Bulk Modulus (GPa) = 54.89895 63.57107 59.23501
# Shear Modulus (GPa) = 33.47707 41.45425 37.46566
#
# Velocity S-wave (km/s) = 3.68916 4.10523 3.90274
# Velocity P-wave (km/s) = 6.36123 6.95090 6.66259
#
# Compressibility (1/GPa) = 0.01821529
#
# Stress axis : x y z
#
# Youngs Moduli (GPa) = 104.16138 158.78476 119.99911
#
# Poissons Ratio (x) = 0.17564 0.05764
# Poissons Ratio (y) = 0.11522 0.17060
# Poissons Ratio (z) = 0.05004 0.22574
#
# Static dielectric constant tensor:
#      x y z
#    x 2.218410 0.000000 -0.082980 
#    y 0.000000 1.869180 0.000000 
#    z -0.082980 0.000000 2.222030 
# 
# From -- ./inp_files/10066.got.cif
#   From: 2010.05.17/outbox.cif.g08.bks.cpg/sg13_6_cif.got.tgz:10066.got - 2010.06.03 16:44:36.
