data_PCOD9228384
_publ_section_title
;
Structure prediction by ZEFSAII (Michael W. Deem and Ramdas Pophale) SiO2 
 PCOD9228384
Probable space group: P 2/C
;
_chemical_formula_sum "Si O2"
_cell_formula_units_Z 32
_cell_length_a 11.866925
_cell_length_b 23.477833
_cell_length_c 8.391385
_cell_angle_alpha 90.000000
_cell_angle_beta 145.426819
_cell_angle_gamma 90.000000
_cell_volume 1326.672952
_symmetry_space_group_name_H-M "P 2/C"
_symmetry_group_IT_number 13
_symmetry_cell_setting 'monoclinic'
loop_
_space_group_symop_operation_xyz
x,y,z
-x,y,1/2-z
-x,-y,-z
x,-y,1/2+z
loop_
_atom_site_type_symbol
_atom_site_label
_atom_site_fract_x
_atom_site_fract_y
_atom_site_fract_z
Si Si1 0.759398 0.065886 0.778289
Si Si2 0.758800 0.867425 0.961007
Si Si3 0.243037 0.735755 0.537334
Si Si4 0.311420 0.452119 0.415355
Si Si5 0.242277 0.939878 0.851642
Si Si6 0.214583 0.676480 0.822734
Si Si7 0.241242 0.311425 0.698638
Si Si8 0.620465 0.572905 0.025565
O O1 0.697520 0.110097 0.566223
O O2 0.708635 0.004361 0.643608
O O3 0.694139 0.071775 0.889153
O O4 0.001040 0.066252 0.071468
O O5 0.709731 0.801493 0.879378
O O6 0.000000 0.872313 0.250000
O O7 0.694187 0.901859 0.727170
O O8 0.305046 0.697137 0.761114
O O9 0.314208 0.719206 0.442977
O O10 0.000000 0.729573 0.250000
O O11 0.198327 0.392826 0.302258
O O12 0.242074 0.517755 0.352278
O O13 0.419733 0.450488 0.373001
O O14 0.500000 0.446605 0.750000
O O15 0.993123 0.700524 0.572241
O O16 0.311254 0.697974 0.099894
O O17 0.265846 0.379451 0.748355
O O18 0.500000 0.605480 0.750000
#
# Coordination Sequence:
#
# PCOD9228384 Si02
#       8
#     4   4   4   4   4   4   4   4
#     4   9  14  20  32  51  77 109 148 199 245 289
#     4   9  16  25  37  54  79 115 159 203 243 287
#     4   9  19  33  46  64  92 128 172 213 248 296
#     4  10  19  34  53  77 103 129 163 211 259 310
#     4   9  14  20  32  51  77 109 148 197 250 284
#     4  10  20  35  54  72 101 134 170 215 255 302
#     4  10  20  35  53  74  99 136 173 209 256 306
#     4  10  20  33  54  78 103 131 164 207 257 313
#
# _framework density 24.120488999999999
#
# number of rings (size 3 to 8) (size 9 to 14) (size 15 to 20)
#    0.000    2.500    2.500    0.750    0.000    1.500 
#    0.000    5.000    0.000    0.000    0.000    0.000 
#    0.000    0.000    0.000    0.000    0.000   16.250 
#
# Total GULP energy -178290.714258 kJ/mol
# GULP energy per Si atom -5571.584821 kJ/mol
# Density = 2.406559 g / cm^3
# Si number density = 24.120489 Si / 1000 Ang^3
#
#
#
# Elastic Constant Matrix: (Units=GPa)
#
#
# Indices 1 2 3 4 5 6 
#
# 1 145.2330 31.8491 48.3902 0.0000 -37.8988 0.0000
# 2 31.8491 107.5698 50.8998 0.0000 -46.6440 0.0000
# 3 48.3902 50.8998 127.0890 0.0000 -47.6561 0.0000
# 4 0.0000 0.0000 0.0000 22.3861 0.0000 -5.5543
# 5 -37.8988 -46.6440 -47.6561 0.0000 49.1455 0.0000
# 6 0.0000 0.0000 0.0000 -5.5543 0.0000 24.2355
#
#
#
# Elastic Compliance Matrix: (Units=1/GPa)
#
#
# Indices 1 2 3 4 5 6 
#
# 1 0.008776 0.000689 -0.001311 0.000000 0.006150 0.000000
# 2 0.000689 0.015952 -0.001217 0.000000 0.014490 0.000000
# 3 -0.001311 -0.001217 0.012638 0.000000 0.010089 0.000000
# 4 0.000000 0.000000 0.000000 0.047364 0.000000 0.010855
# 5 0.006150 0.014490 0.010089 0.000000 0.048626 0.000000
# 6 0.000000 0.000000 0.000000 0.010855 0.000000 0.043750
#
#
# Mechanical properties :
#
#
# Convention : Reuss Voigt Hill
#
# Bulk Modulus (GPa) = 29.68545 71.35223 50.51884
# Shear Modulus (GPa) = 26.03966 35.73692 30.88829
#
# Velocity S-wave (km/s) = 3.28924 3.85333 3.58241
# Velocity P-wave (km/s) = 5.17294 7.03160 6.17263
#
# Compressibility (1/GPa) = 0.03368654
#
# Stress axis : x y z
#
# Youngs Moduli (GPa) = 113.94459 62.68934 79.12338
#
# Poissons Ratio (x) = -0.04318 0.10376
# Poissons Ratio (y) = -0.07848 0.09632
# Poissons Ratio (z) = 0.14942 0.07631
#
# Static dielectric constant tensor:
#      x y z
#    x 1.772200 0.000000 0.403910 
#    y 0.000000 1.905520 0.000000 
#    z 0.403910 0.000000 1.371860 
# 
# From -- ./inp_files/20185.got.cif
#   From: 2010.05.17/outbox.cif.g08.bks.cpg/sg13_11_cif.got.tgz:20185.got - 2010.06.03 16:44:36.
