data_PCOD9228120
_publ_section_title
;
Structure prediction by ZEFSAII (Michael W. Deem and Ramdas Pophale) SiO2 
 PCOD9228120
Probable space group: P 2/C
;
_chemical_formula_sum "Si O2"
_cell_formula_units_Z 24
_cell_length_a 19.154911
_cell_length_b 9.982674
_cell_length_c 11.421108
_cell_angle_alpha 90.000000
_cell_angle_beta 157.441246
_cell_angle_gamma 90.000000
_cell_volume 837.815776
_symmetry_space_group_name_H-M "P 2/C"
_symmetry_group_IT_number 13
_symmetry_cell_setting 'monoclinic'
loop_
_space_group_symop_operation_xyz
x,y,z
-x,y,1/2-z
-x,-y,-z
x,-y,1/2+z
loop_
_atom_site_type_symbol
_atom_site_label
_atom_site_fract_x
_atom_site_fract_y
_atom_site_fract_z
Si Si1 0.742613 0.521673 0.503924
Si Si2 0.789269 0.805858 0.514004
Si Si3 0.135567 0.900195 0.359145
Si Si4 0.303761 0.167014 0.897185
Si Si5 0.616417 0.130968 0.058717
Si Si6 0.303768 0.573942 0.819991
O O1 0.846480 0.661572 0.645578
O O2 0.771591 0.488262 0.686478
O O3 0.775406 0.441497 0.433870
O O4 0.521930 0.545308 0.154327
O O5 0.750007 0.784418 0.314476
O O6 0.902306 0.940741 0.712870
O O7 0.595562 0.839964 0.272668
O O8 0.158439 0.819700 0.276384
O O9 0.332383 0.892152 0.725922
O O10 0.000000 0.853650 0.250000
O O11 0.323976 0.005540 0.909720
O O12 0.500000 0.217034 0.250000
O O13 0.711588 0.269332 0.171351
#
# Coordination Sequence:
#
# PCOD9228120 Si02
#       6
#     4   4   4   4   4   4
#     4   9  18  32  50  80 110 146 184 239 280 332
#     4  10  19  33  53  80 108 146 191 223 278 341
#     4  11  22  34  51  82 116 144 182 234 284 333
#     4  11  18  32  55  77 105 148 186 225 273 338
#     4  10  19  32  54  79 107 147 188 226 278 340
#     4   9  18  31  51  77 113 144 188 233 287 325
#
# _framework density 28.645917000000001
#
# number of rings (size 3 to 8) (size 9 to 14) (size 15 to 20)
#    0.000    2.000    3.333    2.000    2.333    4.000 
#    3.000    0.000    0.000    1.000    0.000    4.667 
#    0.000    0.000    0.000    0.000    0.000    0.000 
#
# Total GULP energy -134386.552897 kJ/mol
# GULP energy per Si atom -5599.439704 kJ/mol
# Density = 2.858072 g / cm^3
# Si number density = 28.645917 Si / 1000 Ang^3
#
#
#
# Elastic Constant Matrix: (Units=GPa)
#
#
# Indices 1 2 3 4 5 6 
#
# 1 218.8510 45.4907 36.9111 0.0000 -15.6446 0.0000
# 2 45.4907 78.8392 21.5639 0.0000 -2.1079 0.0000
# 3 36.9111 21.5639 80.8102 0.0000 -1.5507 0.0000
# 4 0.0000 0.0000 0.0000 25.4893 0.0000 -13.2493
# 5 -15.6446 -2.1079 -1.5507 0.0000 54.8600 0.0000
# 6 0.0000 0.0000 0.0000 -13.2493 0.0000 42.4175
#
#
#
# Elastic Compliance Matrix: (Units=1/GPa)
#
#
# Indices 1 2 3 4 5 6 
#
# 1 0.005526 -0.002662 -0.001786 0.000000 0.001423 0.000000
# 2 -0.002662 0.014975 -0.002785 0.000000 -0.000262 0.000000
# 3 -0.001786 -0.002785 0.013930 0.000000 -0.000223 0.000000
# 4 0.000000 0.000000 0.000000 0.046837 0.000000 0.014630
# 5 0.001423 -0.000262 -0.000223 0.000000 0.018618 0.000000
# 6 0.000000 0.000000 0.000000 0.014630 0.000000 0.028145
#
#
# Mechanical properties :
#
#
# Convention : Reuss Voigt Hill
#
# Bulk Modulus (GPa) = 50.09173 65.15909 57.62541
# Shear Modulus (GPa) = 33.52340 42.85568 38.18954
#
# Velocity S-wave (km/s) = 3.42463 3.87207 3.65520
# Velocity P-wave (km/s) = 5.75864 6.54113 6.16232
#
# Compressibility (1/GPa) = 0.01996338
#
# Stress axis : x y z
#
# Youngs Moduli (GPa) = 180.97664 66.77967 71.78983
#
# Poissons Ratio (x) = 0.17774 0.12824
# Poissons Ratio (y) = 0.48170 0.19995
# Poissons Ratio (z) = 0.32328 0.18600
#
# Static dielectric constant tensor:
#      x y z
#    x 2.245670 0.000000 -0.019460 
#    y 0.000000 2.187100 0.000000 
#    z -0.019460 0.000000 2.333560 
# 
# From -- ./inp_files/33701.got.cif
#   From: 2010.05.17/outbox.cif.g08.bks.cpg/sg13_17_cif.got.tgz:33701.got - 2010.06.03 16:44:36.
