data_PCOD9228027
_publ_section_title
;
Structure prediction by ZEFSAII (Michael W. Deem and Ramdas Pophale) SiO2 
 PCOD9228027
Probable space group: P 2/C
;
_chemical_formula_sum "Si O2"
_cell_formula_units_Z 20
_cell_length_a 11.273411
_cell_length_b 18.464457
_cell_length_c 5.434240
_cell_angle_alpha 90.000000
_cell_angle_beta 81.606571
_cell_angle_gamma 90.000000
_cell_volume 1119.061388
_symmetry_space_group_name_H-M "P 2/C"
_symmetry_group_IT_number 13
_symmetry_cell_setting 'monoclinic'
loop_
_space_group_symop_operation_xyz
x,y,z
-x,y,1/2-z
-x,-y,-z
x,-y,1/2+z
loop_
_atom_site_type_symbol
_atom_site_label
_atom_site_fract_x
_atom_site_fract_y
_atom_site_fract_z
Si Si1 0.853710 0.040174 0.293291
Si Si2 0.000000 0.734135 0.250000
Si Si3 0.862887 0.201521 0.186664
Si Si4 0.819184 0.343416 0.454249
Si Si5 0.357415 0.544233 0.284707
Si Si6 0.000000 0.545902 0.750000
O O1 0.813975 0.123159 0.266904
O O2 0.000000 0.041053 0.250000
O O3 0.816846 0.006533 0.565903
O O4 0.895421 0.784736 0.393028
O O5 0.929033 0.681738 0.091533
O O6 0.790797 0.270341 0.311858
O O7 0.000000 0.204627 0.250000
O O8 0.715973 0.382590 0.638483
O O9 0.881649 0.404374 0.270063
O O10 0.500000 0.557958 0.250000
O O11 0.330771 0.490820 0.525668
O O12 0.000000 0.500000 0.500000
#
# Coordination Sequence:
#
# PCOD9228027 Si02
#       6
#     4   2   4   4   4   2
#     4   9  18  28  43  65  94 134 173 201 234 291
#     4  10  19  32  48  73 108 136 168 206 261 302
#     4   9  19  30  46  68 102 138 169 206 252 301
#     4  11  21  34  51  75 103 137 170 212 259 307
#     4  10  23  41  58  75  99 135 176 220 263 302
#     4  12  23  32  46  71  98 128 164 200 247 302
#
# _framework density 17.872121
#
# number of rings (size 3 to 8) (size 9 to 14) (size 15 to 20)
#    0.000    2.000    3.000    1.800   12.600    0.000 
#    0.000    0.000    0.000    0.000    0.000    0.000 
#    0.000    1.600    0.000    0.200    0.000    0.000 
#
# Total GULP energy -111415.014873 kJ/mol
# GULP energy per Si atom -5570.750744 kJ/mol
# Density = 1.783144 g / cm^3
# Si number density = 17.872121 Si / 1000 Ang^3
#
#
#
# Elastic Constant Matrix: (Units=GPa)
#
#
# Indices 1 2 3 4 5 6 
#
# 1 23.8354 26.2944 17.6435 0.0000 -5.7733 0.0000
# 2 26.2944 153.2451 72.1499 0.0000 -9.1279 0.0000
# 3 17.6435 72.1499 114.4067 0.0000 2.1964 0.0000
# 4 0.0000 0.0000 0.0000 29.0263 0.0000 -1.0205
# 5 -5.7733 -9.1279 2.1964 0.0000 19.8927 0.0000
# 6 0.0000 0.0000 0.0000 -1.0205 0.0000 11.1277
#
#
#
# Elastic Compliance Matrix: (Units=1/GPa)
#
#
# Indices 1 2 3 4 5 6 
#
# 1 0.056056 -0.006545 -0.004782 0.000000 0.013793 0.000000
# 2 -0.006545 0.010551 -0.005713 0.000000 0.003573 0.000000
# 3 -0.004782 -0.005713 0.013186 0.000000 -0.005465 0.000000
# 4 0.000000 0.000000 0.000000 0.034563 0.000000 0.003170
# 5 0.013793 0.003573 -0.005465 0.000000 0.056516 0.000000
# 6 0.000000 0.000000 0.000000 0.003170 0.000000 0.090156
#
#
# Mechanical properties :
#
#
# Convention : Reuss Voigt Hill
#
# Bulk Modulus (GPa) = 21.87600 58.18477 40.03038
# Shear Modulus (GPa) = 16.11104 23.70263 19.90683
#
# Velocity S-wave (km/s) = 3.00569 3.64570 3.34106
# Velocity P-wave (km/s) = 4.93077 7.09566 6.10986
#
# Compressibility (1/GPa) = 0.04571220
#
# Stress axis : x y z
#
# Youngs Moduli (GPa) = 17.83946 94.77530 75.83718
#
# Poissons Ratio (x) = 0.62034 0.36263
# Poissons Ratio (y) = 0.11677 0.43328
# Poissons Ratio (z) = 0.08530 0.54148
#
# Static dielectric constant tensor:
#      x y z
#    x 1.601750 0.000000 0.067790 
#    y 0.000000 1.658180 0.000000 
#    z 0.067790 0.000000 1.946730 
# 
# From -- ./inp_files/3266.got.cif
#   From: 2010.05.17/outbox.cif.g08.bks.cpg/sg13_2_cif.got.tgz:3266.got - 2010.06.03 16:44:36.
