data_PCOD9228082
_publ_section_title
;
Structure prediction by ZEFSAII (Michael W. Deem and Ramdas Pophale) SiO2 
 PCOD9228082
Probable space group: P 2/C
;
_chemical_formula_sum "Si O2"
_cell_formula_units_Z 24
_cell_length_a 18.285523
_cell_length_b 11.783563
_cell_length_c 13.543503
_cell_angle_alpha 90.000000
_cell_angle_beta 158.092620
_cell_angle_gamma 90.000000
_cell_volume 1088.801617
_symmetry_space_group_name_H-M "P 2/C"
_symmetry_group_IT_number 13
_symmetry_cell_setting 'monoclinic'
loop_
_space_group_symop_operation_xyz
x,y,z
-x,y,1/2-z
-x,-y,-z
x,-y,1/2+z
loop_
_atom_site_type_symbol
_atom_site_label
_atom_site_fract_x
_atom_site_fract_y
_atom_site_fract_z
Si Si1 0.310539 0.421414 0.734852
Si Si2 0.820969 0.639918 0.967600
Si Si3 0.984983 0.694770 0.487455
Si Si4 0.505883 0.201049 0.006207
Si Si5 0.691524 0.884075 0.057808
Si Si6 0.705997 0.864045 0.564796
O O1 0.212253 0.511001 0.537920
O O2 0.160527 0.386722 0.634529
O O3 0.500000 0.500000 0.000000
O O4 0.382286 0.297158 0.792334
O O5 0.000000 0.691177 0.250000
O O6 0.633819 0.720008 0.739685
O O7 0.880511 0.635136 0.926427
O O8 0.127254 0.768637 0.737052
O O9 0.850019 0.784402 0.258409
O O10 0.381295 0.119606 0.919028
O O11 0.646887 0.141902 0.106094
O O12 0.500000 0.865473 0.750000
O O13 0.774142 0.007153 0.130932
O O14 0.500000 0.846705 0.250000
#
# Coordination Sequence:
#
# PCOD9228082 Si02
#       6
#     4   4   4   4   4   4
#     4   9  19  35  52  73 103 139 178 221 272 327
#     4  10  19  32  52  79 105 135 177 221 271 331
#     4  10  20  35  55  78 109 143 178 228 277 326
#     4   9  19  35  52  74 107 140 176 226 274 321
#     4  10  19  34  56  80 106 140 181 227 278 331
#     4  10  21  35  53  78 108 145 186 223 271 330
#
# _framework density 22.042583
#
# number of rings (size 3 to 8) (size 9 to 14) (size 15 to 20)
#    0.000    2.333    0.000    2.500    0.000    1.333 
#    0.000    2.500    0.000   19.000    0.000    0.000 
#    0.000    0.000    0.000    0.000    0.000    0.000 
#
# Total GULP energy -133633.650180 kJ/mol
# GULP energy per Si atom -5568.068757 kJ/mol
# Density = 2.199241 g / cm^3
# Si number density = 22.042583 Si / 1000 Ang^3
#
#
#
# Elastic Constant Matrix: (Units=GPa)
#
#
# Indices 1 2 3 4 5 6 
#
# 1 41.3736 13.5752 -12.8177 0.0000 17.8722 0.0000
# 2 13.5752 118.0334 35.0948 0.0000 3.6743 0.0000
# 3 -12.8177 35.0948 80.1197 0.0000 0.2135 0.0000
# 4 0.0000 0.0000 0.0000 9.7723 0.0000 13.9142
# 5 17.8722 3.6743 0.2135 0.0000 28.1714 0.0000
# 6 0.0000 0.0000 0.0000 13.9142 0.0000 6.5818
#
#
#
# Elastic Compliance Matrix: (Units=1/GPa)
#
#
# Indices 1 2 3 4 5 6 
#
# 1 0.039774 -0.006582 0.009311 0.000000 -0.024445 0.000000
# 2 -0.006582 0.010873 -0.005823 0.000000 0.002802 0.000000
# 3 0.009311 -0.005823 0.016536 0.000000 -0.005273 0.000000
# 4 0.000000 0.000000 0.000000 -0.050909 0.000000 0.107624
# 5 -0.024445 0.002802 -0.005273 0.000000 0.050680 0.000000
# 6 0.000000 0.000000 0.000000 0.107624 0.000000 -0.075587
#
#
# Mechanical properties :
#
#
# Convention : Reuss Voigt Hill
#
# Bulk Modulus (GPa) = 16.39476 34.58124 25.48800
# Shear Modulus (GPa) = 279.54107 22.48338 151.01223
#
# Velocity S-wave (km/s) = 11.27360 3.19720 8.28601
# Velocity P-wave (km/s) = 13.30085 5.41774 10.15540
#
# Compressibility (1/GPa) = 0.06099511
#
# Stress axis : x y z
#
# Youngs Moduli (GPa) = 25.14213 91.96725 60.47469
#
# Poissons Ratio (x) = 0.60533 -0.56310
# Poissons Ratio (y) = 0.16549 0.35217
# Poissons Ratio (z) = -0.23411 0.53556
#
# Static dielectric constant tensor:
#      x y z
#    x 1.796100 0.000000 0.027450 
#    y 0.000000 1.831840 0.000000 
#    z 0.027450 0.000000 1.895450 
# 
# From -- ./inp_files/57667.got.cif
#   From: 2010.05.17/outbox.cif.g08.bks.cpg/sg13_29_cif.got.tgz:57667.got - 2010.06.03 16:44:36.
