data_PCOD9228705
_publ_section_title
;
Structure prediction by ZEFSAII (Michael W. Deem and Ramdas Pophale) SiO2 
 PCOD9228705
Probable space group: P 2/C
;
_chemical_formula_sum "Si O2"
_cell_formula_units_Z 24
_cell_length_a 17.413179
_cell_length_b 7.543231
_cell_length_c 18.056274
_cell_angle_alpha 90.000000
_cell_angle_beta 148.009182
_cell_angle_gamma 90.000000
_cell_volume 1256.498330
_symmetry_space_group_name_H-M "P 2/C"
_symmetry_group_IT_number 13
_symmetry_cell_setting 'monoclinic'
loop_
_space_group_symop_operation_xyz
x,y,z
-x,y,1/2-z
-x,-y,-z
x,-y,1/2+z
loop_
_atom_site_type_symbol
_atom_site_label
_atom_site_fract_x
_atom_site_fract_y
_atom_site_fract_z
Si Si1 0.635017 0.139677 0.949513
Si Si2 0.261414 0.083746 0.773073
Si Si3 0.437221 0.515266 0.276513
Si Si4 0.204848 0.225909 0.564703
Si Si5 0.926723 0.086355 0.264549
Si Si6 0.500022 0.811951 0.928692
O O1 0.526207 0.304355 0.867049
O O2 0.689394 0.128547 0.908819
O O3 0.566695 0.959918 0.926513
O O4 0.781159 0.178392 0.115340
O O5 0.213036 0.139917 0.652260
O O6 0.128341 0.052728 0.719613
O O7 0.356313 0.903840 0.843542
O O8 0.378157 0.211860 0.908350
O O9 0.500000 0.447617 0.250000
O O10 0.272889 0.579165 0.129168
O O11 0.460844 0.367835 0.356549
O O12 0.045514 0.210951 0.400066
O O13 0.000000 0.007579 0.250000
#
# Coordination Sequence:
#
# PCOD9228705 Si02
#       6
#     4   4   4   4   4   4
#     4   9  19  38  60  83 115 155 185 234 284 338
#     4  10  20  35  57  88 113 150 190 235 289 331
#     4  10  21  34  60  88 110 151 191 229 286 336
#     4  10  19  35  60  85 116 149 191 237 283 334
#     4   9  19  37  60  78 113 157 193 231 287 342
#     4  10  21  36  56  88 118 145 190 234 286 339
#
# _framework density 19.100702999999999
#
# number of rings (size 3 to 8) (size 9 to 14) (size 15 to 20)
#    0.000    2.333    1.667    0.500    2.333    0.667 
#    0.000    0.833    7.333    8.000    0.000    0.000 
#    0.000    0.000    0.000    0.000    0.000    0.000 
#
# Total GULP energy -133820.310068 kJ/mol
# GULP energy per Si atom -5575.846253 kJ/mol
# Density = 1.905723 g / cm^3
# Si number density = 19.100703 Si / 1000 Ang^3
#
#
#
# Elastic Constant Matrix: (Units=GPa)
#
#
# Indices 1 2 3 4 5 6 
#
# 1 122.7341 36.3012 59.2553 0.0000 -16.7976 0.0000
# 2 36.3012 35.3353 34.9253 0.0000 -6.5227 0.0000
# 3 59.2553 34.9253 109.8027 0.0000 -11.9338 0.0000
# 4 0.0000 0.0000 0.0000 26.1006 0.0000 -16.1001
# 5 -16.7976 -6.5227 -11.9338 0.0000 34.7324 0.0000
# 6 0.0000 0.0000 0.0000 -16.1001 0.0000 21.4507
#
#
#
# Elastic Compliance Matrix: (Units=1/GPa)
#
#
# Indices 1 2 3 4 5 6 
#
# 1 0.013148 -0.009098 -0.003840 0.000000 0.003331 0.000000
# 2 -0.009098 0.047954 -0.010225 0.000000 0.001093 0.000000
# 3 -0.003840 -0.010225 0.014565 0.000000 0.001227 0.000000
# 4 0.000000 0.000000 0.000000 0.071344 0.000000 0.053548
# 5 0.003331 0.001093 0.001227 0.000000 0.031029 0.000000
# 6 0.000000 0.000000 0.000000 0.053548 0.000000 0.086809
#
#
# Mechanical properties :
#
#
# Convention : Reuss Voigt Hill
#
# Bulk Modulus (GPa) = 34.07904 58.75952 46.41928
# Shear Modulus (GPa) = 15.57848 25.61610 20.59729
#
# Velocity S-wave (km/s) = 2.85896 3.66609 3.28739
# Velocity P-wave (km/s) = 5.36458 6.98212 6.22611
#
# Compressibility (1/GPa) = 0.02934355
#
# Stress axis : x y z
#
# Youngs Moduli (GPa) = 76.05616 20.85315 68.65796
#
# Poissons Ratio (x) = 0.18971 0.26363
# Poissons Ratio (y) = 0.69192 0.70201
# Poissons Ratio (z) = 0.29204 0.21322
#
# Static dielectric constant tensor:
#      x y z
#    x 1.725440 0.000000 -0.013000 
#    y 0.000000 1.624120 0.000000 
#    z -0.013000 0.000000 1.695990 
# 
# From -- ./inp_files/69522.got.cif
#   From: 2010.05.17/outbox.cif.g08.bks.cpg/sg13_35_cif.got.tgz:69522.got - 2010.06.03 16:44:36.
