data_PCOD9228945
_publ_section_title
;
Structure prediction by ZEFSAII (Michael W. Deem and Ramdas Pophale) SiO2 
 PCOD9228945
Probable space group: P 2/C
;
_chemical_formula_sum "Si O2"
_cell_formula_units_Z 32
_cell_length_a 14.661849
_cell_length_b 8.851182
_cell_length_c 18.878845
_cell_angle_alpha 90.000000
_cell_angle_beta 30.896695
_cell_angle_gamma 90.000000
_cell_volume 1258.052917
_symmetry_space_group_name_H-M "P 2/C"
_symmetry_group_IT_number 13
_symmetry_cell_setting 'monoclinic'
loop_
_space_group_symop_operation_xyz
x,y,z
-x,y,1/2-z
-x,-y,-z
x,-y,1/2+z
loop_
_atom_site_type_symbol
_atom_site_label
_atom_site_fract_x
_atom_site_fract_y
_atom_site_fract_z
Si Si1 0.104687 0.311306 0.004682
Si Si2 0.667474 0.367361 0.527507
Si Si3 0.603247 0.097689 0.745543
Si Si4 0.449846 0.747541 0.532008
Si Si5 0.254325 0.964276 0.202318
Si Si6 0.073961 0.802104 0.122430
Si Si7 0.543145 0.298726 0.128564
Si Si8 0.825674 0.642716 0.582144
O O1 0.143879 0.329625 0.061708
O O2 0.219006 0.171243 0.903007
O O3 0.914323 0.302552 0.096042
O O4 0.182467 0.461786 0.914152
O O5 0.529494 0.235933 0.644042
O O6 0.641891 0.367025 0.460664
O O7 0.618531 0.531672 0.589297
O O8 0.500000 0.020095 0.750000
O O9 0.670969 0.007338 0.768391
O O10 0.648415 0.804806 0.379826
O O11 0.464349 0.693509 0.601637
O O12 0.333541 0.900787 0.603569
O O13 0.047631 0.941762 0.322684
O O14 0.712366 0.814229 0.511737
O O15 0.000000 0.757007 0.250000
O O16 0.060931 0.691507 0.062532
O O17 0.632663 0.284321 0.206883
#
# Coordination Sequence:
#
# PCOD9228945 Si02
#       8
#     4   4   4   4   4   4   4   4
#     4  10  19  36  62 100 145 186 221 289 370 431
#     4  10  20  37  65 105 143 180 234 293 371 435
#     4   9  17  33  65  94 134 185 233 288 361 429
#     4  10  23  42  70  95 140 185 241 299 354 424
#     4  10  21  44  67  97 130 190 250 290 347 432
#     4  12  24  42  70 100 139 192 243 294 358 439
#     4  12  23  42  69 109 146 187 233 305 373 437
#     4  11  23  39  65 103 150 186 232 296 369 436
#
# _framework density 25.436131
#
# number of rings (size 3 to 8) (size 9 to 14) (size 15 to 20)
#    0.000    1.500    5.000    0.750    0.000    0.000 
#    4.500    3.750    5.500    0.000    0.000    0.000 
#    0.000    0.000    0.000    0.000    0.000    0.000 
#
# Total GULP energy -178780.656464 kJ/mol
# GULP energy per Si atom -5586.895514 kJ/mol
# Density = 2.537824 g / cm^3
# Si number density = 25.436131 Si / 1000 Ang^3
#
#
#
# Elastic Constant Matrix: (Units=GPa)
#
#
# Indices 1 2 3 4 5 6 
#
# 1 161.3394 18.9022 52.5649 0.0000 -33.3517 0.0000
# 2 18.9022 63.2298 25.5344 0.0000 -9.1023 0.0000
# 3 52.5649 25.5344 113.1476 0.0000 -19.7146 0.0000
# 4 0.0000 0.0000 0.0000 26.4834 0.0000 0.1506
# 5 -33.3517 -9.1023 -19.7146 0.0000 44.9571 0.0000
# 6 0.0000 0.0000 0.0000 0.1506 0.0000 28.4193
#
#
#
# Elastic Compliance Matrix: (Units=1/GPa)
#
#
# Indices 1 2 3 4 5 6 
#
# 1 0.008164 -0.000621 -0.002836 0.000000 0.004687 0.000000
# 2 -0.000621 0.017608 -0.003405 0.000000 0.001612 0.000000
# 3 -0.002836 -0.003405 0.011301 0.000000 0.002162 0.000000
# 4 0.000000 0.000000 0.000000 0.037761 0.000000 -0.000200
# 5 0.004687 0.001612 0.002162 0.000000 0.026995 0.000000
# 6 0.000000 0.000000 0.000000 -0.000200 0.000000 0.035188
#
#
# Mechanical properties :
#
#
# Convention : Reuss Voigt Hill
#
# Bulk Modulus (GPa) = 42.82640 59.08000 50.95320
# Shear Modulus (GPa) = 31.54151 36.01963 33.78057
#
# Velocity S-wave (km/s) = 3.52522 3.76717 3.64820
# Velocity P-wave (km/s) = 5.78299 6.49610 6.14989
#
# Compressibility (1/GPa) = 0.02335008
#
# Stress axis : x y z
#
# Youngs Moduli (GPa) = 122.49429 56.79328 88.49123
#
# Poissons Ratio (x) = 0.03524 0.25095
# Poissons Ratio (y) = 0.07601 0.30127
# Poissons Ratio (z) = 0.34738 0.19335
#
# Static dielectric constant tensor:
#      x y z
#    x 2.069840 0.000000 0.029090 
#    y 0.000000 1.964970 0.000000 
#    z 0.029090 0.000000 2.002540 
# 
# From -- ./inp_files/79811.got.cif
#   From: 2010.05.17/outbox.cif.g08.bks.cpg/sg13_40_cif.got.tgz:79811.got - 2010.06.03 16:44:36.
