data_PCOD9228642
_publ_section_title
;
Structure prediction by ZEFSAII (Michael W. Deem and Ramdas Pophale) SiO2 
 PCOD9228642
Probable space group: P 2/C
;
_chemical_formula_sum "Si O2"
_cell_formula_units_Z 32
_cell_length_a 24.136692
_cell_length_b 12.179427
_cell_length_c 11.316235
_cell_angle_alpha 90.000000
_cell_angle_beta 148.454255
_cell_angle_gamma 90.000000
_cell_volume 1740.431714
_symmetry_space_group_name_H-M "P 2/C"
_symmetry_group_IT_number 13
_symmetry_cell_setting 'monoclinic'
loop_
_space_group_symop_operation_xyz
x,y,z
-x,y,1/2-z
-x,-y,-z
x,-y,1/2+z
loop_
_atom_site_type_symbol
_atom_site_label
_atom_site_fract_x
_atom_site_fract_y
_atom_site_fract_z
Si Si1 0.648662 0.745858 0.700246
Si Si2 0.407591 0.204444 0.734266
Si Si3 0.056705 0.865893 0.731666
Si Si4 0.020966 0.114014 0.914164
Si Si5 0.626226 0.583810 0.459107
Si Si6 0.286312 0.836513 0.237223
Si Si7 0.738306 0.077467 0.210688
Si Si8 0.378196 0.333056 0.079917
O O1 0.533011 0.788119 0.447656
O O2 0.673294 0.640330 0.662323
O O3 0.728287 0.843001 0.807513
O O4 0.634036 0.712019 0.809063
O O5 0.361183 0.326065 0.621334
O O6 0.381814 0.169295 0.819043
O O7 0.347152 0.122854 0.537208
O O8 0.006135 0.829802 0.514654
O O9 0.000000 0.831108 0.750000
O O10 0.177588 0.829960 0.965838
O O11 0.045248 0.999663 0.708116
O O12 0.000000 0.171815 0.750000
O O13 0.145477 0.084630 0.134398
O O14 0.500000 0.577098 0.250000
O O15 0.657738 0.460159 0.489134
O O16 0.304371 0.740022 0.362414
O O17 0.284116 0.953136 0.297054
O O18 0.500000 0.326032 0.250000
#
# Coordination Sequence:
#
# PCOD9228642 Si02
#       8
#     4   4   4   4   4   4   4   4
#     4  10  22  39  55  81 122 164 195 229 286 344
#     4  10  21  39  55  80 119 162 193 228 290 340
#     4  10  20  36  56  81 111 146 191 245 293 337
#     4  10  19  35  58  81 107 148 195 242 284 342
#     4   8  19  37  60  78 107 154 203 247 280 318
#     4  12  23  34  57  86 118 153 194 235 288 350
#     4  11  22  36  56  83 120 158 188 228 288 360
#     4  11  23  35  57  88 114 153 205 246 274 328
#
# _framework density 18.386241999999999
#
# number of rings (size 3 to 8) (size 9 to 14) (size 15 to 20)
#    0.000    1.750    5.000    1.125    3.500    4.000 
#    0.000    0.000    0.000    0.000    0.000    4.375 
#    0.000    0.000    0.000    0.000    0.000    0.000 
#
# Total GULP energy -178373.241966 kJ/mol
# GULP energy per Si atom -5574.163811 kJ/mol
# Density = 1.834439 g / cm^3
# Si number density = 18.386242 Si / 1000 Ang^3
#
#
#
# Elastic Constant Matrix: (Units=GPa)
#
#
# Indices 1 2 3 4 5 6 
#
# 1 66.7471 -6.4849 4.4994 0.0000 -6.3670 0.0000
# 2 -6.4849 38.4886 4.1060 0.0000 3.6191 0.0000
# 3 4.4994 4.1060 54.5530 0.0000 -10.7114 0.0000
# 4 0.0000 0.0000 0.0000 2.2032 0.0000 -7.5819
# 5 -6.3670 3.6191 -10.7114 0.0000 27.6245 0.0000
# 6 0.0000 0.0000 0.0000 -7.5819 0.0000 6.1219
#
#
#
# Elastic Compliance Matrix: (Units=1/GPa)
#
#
# Indices 1 2 3 4 5 6 
#
# 1 0.015558 0.002442 -0.000894 0.000000 0.002919 0.000000
# 2 0.002442 0.027113 -0.003062 0.000000 -0.004177 0.000000
# 3 -0.000894 -0.003062 0.020212 0.000000 0.008032 0.000000
# 4 0.000000 0.000000 0.000000 -0.139143 0.000000 -0.172326
# 5 0.002919 -0.004177 0.008032 0.000000 0.040534 0.000000
# 6 0.000000 0.000000 0.000000 -0.172326 0.000000 -0.050076
#
#
# Mechanical properties :
#
#
# Convention : Reuss Voigt Hill
#
# Bulk Modulus (GPa) = 16.70698 18.22551 17.46624
# Shear Modulus (GPa) = -79.58920 17.70114 -30.94403
#
# Velocity S-wave (km/s) = -6.58645 3.10617 -4.10689
# Velocity P-wave (km/s) = 6.98107 4.77477 3.60117
#
# Compressibility (1/GPa) = 0.05985522
#
# Stress axis : x y z
#
# Youngs Moduli (GPa) = 64.27591 36.88321 49.47514
#
# Poissons Ratio (x) = -0.09008 0.04422
# Poissons Ratio (y) = -0.15697 0.15150
# Poissons Ratio (z) = 0.05745 0.11294
#
# Static dielectric constant tensor:
#      x y z
#    x 1.692730 0.000000 -0.029960 
#    y 0.000000 1.609540 0.000000 
#    z -0.029960 0.000000 1.646460 
# 
# From -- ./inp_files/41871.got.cif
#   From: 2010.05.17/outbox.cif.g08.bks.cpg/sg13_21_cif.got.tgz:41871.got - 2010.06.03 16:44:36.
