data_PCOD9228202
_publ_section_title
;
Structure prediction by ZEFSAII (Michael W. Deem and Ramdas Pophale) SiO2 
 PCOD9228202
Probable space group: P 2/C
;
_chemical_formula_sum "Si O2"
_cell_formula_units_Z 14
_cell_length_a 20.384338
_cell_length_b 5.632052
_cell_length_c 13.690042
_cell_angle_alpha 90.000000
_cell_angle_beta 17.800321
_cell_angle_gamma 90.000000
_cell_volume 480.467919
_symmetry_space_group_name_H-M "P 2/C"
_symmetry_group_IT_number 13
_symmetry_cell_setting 'monoclinic'
loop_
_space_group_symop_operation_xyz
x,y,z
-x,y,1/2-z
-x,-y,-z
x,-y,1/2+z
loop_
_atom_site_type_symbol
_atom_site_label
_atom_site_fract_x
_atom_site_fract_y
_atom_site_fract_z
Si Si1 0.422609 0.209960 0.970970
Si Si2 0.000000 0.126566 0.250000
Si Si3 0.668726 0.671251 0.370811
Si Si4 0.065806 0.195063 0.827410
O O1 0.511266 0.463189 0.883255
O O2 0.174626 0.295701 0.346075
O O3 0.430638 0.940835 0.996122
O O4 0.500000 0.191935 0.750000
O O5 0.856028 0.286330 0.524504
O O6 0.123732 0.949077 0.148376
O O7 0.760933 0.666420 0.353901
O O8 0.000000 0.000000 0.000000
#
# Coordination Sequence:
#
# PCOD9228202 Si02
#       4
#     4   2   4   4
#     4  10  19  33  53  76 103 134 165 203 255 299
#     4   8  16  32  54  78  98 124 176 212 240 290
#     4  10  20  34  55  75  99 135 168 207 247 293
#     4   8  17  33  54  74  98 133 168 207 245 291
#
# _framework density 29.138265000000001
#
# number of rings (size 3 to 8) (size 9 to 14) (size 15 to 20)
#    0.000    3.429    0.000    1.714    0.000    4.571 
#    0.000    0.000    0.000  106.286    0.000    0.000 
#    0.000    0.000    0.000    0.000    0.000    0.000 
#
# Total GULP energy -77957.860350 kJ/mol
# GULP energy per Si atom -5568.418596 kJ/mol
# Density = 2.907194 g / cm^3
# Si number density = 29.138265 Si / 1000 Ang^3
#
#
#
# Elastic Constant Matrix: (Units=GPa)
#
#
# Indices 1 2 3 4 5 6 
#
# 1 -42.8532 -244.7568 -34.9148 0.0000 -27.1717 0.0000
# 2 -244.7568 -147.4301 -60.1888 0.0000 -19.6060 0.0000
# 3 -34.9148 -60.1888 145.7490 0.0000 9.3534 0.0000
# 4 0.0000 0.0000 0.0000 42.0768 0.0000 19.1935
# 5 -27.1717 -19.6060 9.3534 0.0000 50.0361 0.0000
# 6 0.0000 0.0000 0.0000 19.1935 0.0000 10.1231
#
#
#
# Elastic Compliance Matrix: (Units=1/GPa)
#
#
# Indices 1 2 3 4 5 6 
#
# 1 0.002953 -0.004449 -0.001134 0.000000 0.000072 0.000000
# 2 -0.004449 0.001062 -0.000505 0.000000 -0.001905 0.000000
# 3 -0.001134 -0.000505 0.006511 0.000000 -0.002031 0.000000
# 4 0.000000 0.000000 0.000000 0.175883 0.000000 -0.333476
# 5 0.000072 -0.001905 -0.002031 0.000000 0.019658 0.000000
# 6 0.000000 0.000000 0.000000 -0.333476 0.000000 0.731058
#
#
# Mechanical properties :
#
#
# Convention : Reuss Voigt Hill
#
# Bulk Modulus (GPa) = -606.22225 -80.47280 -343.34753
# Shear Modulus (GPa) = 5.27008 40.13561 22.70285
#
# Velocity S-wave (km/s) = 1.34632 3.71539 2.79434
# Velocity P-wave (km/s) = 14.35567 3.04501 10.37683
#
# Compressibility (1/GPa) = -0.00164956
#
# Stress axis : x y z
#
# Youngs Moduli (GPa) = 338.63842 941.21602 153.58045
#
# Poissons Ratio (x) = 4.18740 0.17423
# Poissons Ratio (y) = 1.50658 0.07752
# Poissons Ratio (z) = 0.38418 0.47506
#
# Static dielectric constant tensor:
#      x y z
#    x 2.573640 0.000000 -0.410440 
#    y 0.000000 4.239680 0.000000 
#    z -0.410440 0.000000 2.860960 
# 
# From -- ./inp_files/59069.got.cif
#   From: 2010.05.17/outbox.cif.g08.bks.cpg/sg13_30_cif.got.tgz:59069.got - 2010.06.03 16:44:36.
