data_PCOD9228157
_publ_section_title
;
Structure prediction by ZEFSAII (Michael W. Deem and Ramdas Pophale) SiO2 
 PCOD9228157
Probable space group: P 2/C
;
_chemical_formula_sum "Si O2"
_cell_formula_units_Z 30
_cell_length_a 13.694110
_cell_length_b 18.613797
_cell_length_c 5.191579
_cell_angle_alpha 90.000000
_cell_angle_beta 69.839723
_cell_angle_gamma 90.000000
_cell_volume 1242.252741
_symmetry_space_group_name_H-M "P 2/C"
_symmetry_group_IT_number 13
_symmetry_cell_setting 'monoclinic'
loop_
_space_group_symop_operation_xyz
x,y,z
-x,y,1/2-z
-x,-y,-z
x,-y,1/2+z
loop_
_atom_site_type_symbol
_atom_site_label
_atom_site_fract_x
_atom_site_fract_y
_atom_site_fract_z
Si Si1 0.400494 0.287792 0.236961
Si Si2 0.357634 0.795256 0.272352
Si Si3 0.500000 0.448348 0.750000
Si Si4 0.697428 0.955318 0.242220
Si Si5 0.839353 0.664461 0.581806
Si Si6 0.285498 0.549261 0.602780
Si Si7 0.935579 0.903083 0.061182
Si Si8 0.119396 0.740736 0.462670
O O1 0.500000 0.334105 0.250000
O O2 0.398064 0.227627 0.459758
O O3 0.285197 0.322177 0.350378
O O4 0.407954 0.246157 0.963688
O O5 0.356657 0.880886 0.288618
O O6 0.240272 0.764631 0.380249
O O7 0.500000 0.500000 0.500000
O O8 0.390509 0.407786 0.906237
O O9 0.820818 0.936108 0.142223
O O10 0.673315 0.985816 0.546530
O O11 0.821751 0.593083 0.772529
O O12 0.885510 0.679812 0.256578
O O13 0.900403 0.715376 0.725920
O O14 0.288867 0.487775 0.380898
O O15 0.928311 0.816226 0.078356
O O16 0.000000 0.926454 0.250000
O O17 0.000000 0.919716 0.750000
#
# Coordination Sequence:
#
# PCOD9228157 Si02
#       8
#     4   4   2   4   4   4   4   4
#     4  10  19  34  53  76  96 129 179 233 276 301
#     4   9  19  35  53  71 101 136 172 217 268 309
#     4   8  16  30  42  60  94 140 172 200 250 302
#     4  11  22  36  56  80 107 146 178 200 243 318
#     4  10  19  34  52  76 103 139 178 225 256 317
#     4  10  19  33  48  71 105 144 179 216 263 314
#     4  11  22  36  56  84 115 142 164 207 258 312
#     4   9  19  35  53  74 104 137 175 212 263 306
#
# _framework density 24.149674000000001
#
# number of rings (size 3 to 8) (size 9 to 14) (size 15 to 20)
#    0.000    2.133    0.000    3.600    0.000    5.867 
#   14.400    0.000    0.000    8.000    0.000    0.000 
#    0.000   37.333    0.000    0.000    0.000    0.000 
#
# Total GULP energy -167355.673798 kJ/mol
# GULP energy per Si atom -5578.522460 kJ/mol
# Density = 2.409471 g / cm^3
# Si number density = 24.149674 Si / 1000 Ang^3
#
#
#
# Elastic Constant Matrix: (Units=GPa)
#
#
# Indices 1 2 3 4 5 6 
#
# 1 70.2380 9.8829 11.3888 0.0000 27.3291 0.0000
# 2 9.8829 64.1706 18.8870 0.0000 10.8561 0.0000
# 3 11.3888 18.8870 155.8387 0.0000 31.4194 0.0000
# 4 0.0000 0.0000 0.0000 34.8946 0.0000 5.5307
# 5 27.3291 10.8561 31.4194 0.0000 32.7660 0.0000
# 6 0.0000 0.0000 0.0000 5.5307 0.0000 23.1271
#
#
#
# Elastic Compliance Matrix: (Units=1/GPa)
#
#
# Indices 1 2 3 4 5 6 
#
# 1 0.021910 -0.000667 0.002627 0.000000 -0.020573 0.000000
# 2 -0.000667 0.016686 -0.001204 0.000000 -0.003818 0.000000
# 3 0.002627 -0.001204 0.008346 0.000000 -0.009795 0.000000
# 4 0.000000 0.000000 0.000000 0.029787 0.000000 -0.007123
# 5 -0.020573 -0.003818 -0.009795 0.000000 0.058336 0.000000
# 6 0.000000 0.000000 0.000000 -0.007123 0.000000 0.044943
#
#
# Mechanical properties :
#
#
# Convention : Reuss Voigt Hill
#
# Bulk Modulus (GPa) = 20.63788 41.17386 30.90587
# Shear Modulus (GPa) = 25.68759 34.83012 30.25885
#
# Velocity S-wave (km/s) = 3.26495 3.80183 3.54357
# Velocity P-wave (km/s) = 4.77259 6.02979 5.43764
#
# Compressibility (1/GPa) = 0.04845459
#
# Stress axis : x y z
#
# Youngs Moduli (GPa) = 45.64145 59.92902 119.82296
#
# Poissons Ratio (x) = 0.03999 -0.31483
# Poissons Ratio (y) = 0.03045 0.14425
# Poissons Ratio (z) = -0.11992 0.07215
#
# Static dielectric constant tensor:
#      x y z
#    x 2.073020 0.000000 -0.073490 
#    y 0.000000 1.985250 0.000000 
#    z -0.073490 0.000000 1.912560 
# 
# From -- ./inp_files/5347.got.cif
#   From: 2010.05.17/outbox.cif.g08.bks.cpg/sg13_3_cif.got.tgz:5347.got - 2010.06.03 16:44:36.
