data_PCOD9228997
_publ_section_title
;
Structure prediction by ZEFSAII (Michael W. Deem and Ramdas Pophale) SiO2 
 PCOD9228997
Probable space group: P 2/C
;
_chemical_formula_sum "Si O2"
_cell_formula_units_Z 28
_cell_length_a 14.452293
_cell_length_b 7.748080
_cell_length_c 14.042033
_cell_angle_alpha 90.000000
_cell_angle_beta 43.604972
_cell_angle_gamma 90.000000
_cell_volume 1084.451106
_symmetry_space_group_name_H-M "P 2/C"
_symmetry_group_IT_number 13
_symmetry_cell_setting 'monoclinic'
loop_
_space_group_symop_operation_xyz
x,y,z
-x,y,1/2-z
-x,-y,-z
x,-y,1/2+z
loop_
_atom_site_type_symbol
_atom_site_label
_atom_site_fract_x
_atom_site_fract_y
_atom_site_fract_z
Si Si1 0.990519 0.248327 0.988220
Si Si2 0.609165 0.051631 0.294741
Si Si3 0.844253 0.025354 0.238757
Si Si4 0.390876 0.462072 0.190458
Si Si5 0.690452 0.946463 0.518447
Si Si6 0.305740 0.548755 0.054110
Si Si7 0.834872 0.555718 0.007117
O O1 0.935553 0.405661 0.967113
O O2 0.039625 0.106174 0.876796
O O3 0.110692 0.286297 0.972369
O O4 0.876733 0.187014 0.147050
O O5 0.596182 0.255328 0.327523
O O6 0.457172 0.985768 0.402019
O O7 0.682170 0.040112 0.138157
O O8 0.701234 0.960887 0.303548
O O9 0.811019 0.041909 0.374172
O O10 0.543951 0.525348 0.075387
O O11 0.312339 0.508132 0.343963
O O12 0.302000 0.537328 0.170641
O O13 0.704012 0.744140 0.478863
O O14 0.188932 0.444007 0.087576
#
# Coordination Sequence:
#
# PCOD9228997 Si02
#       7
#     4   4   4   4   4   4   4
#     4  10  24  39  66  92 138 175 221 261 317 385
#     4  10  20  39  65  94 128 164 215 278 328 395
#     4  11  21  43  61  93 131 175 215 271 315 396
#     4  10  19  36  65  96 128 157 211 275 333 388
#     4  10  20  37  68  96 121 173 219 260 342 399
#     4  10  20  35  66  98 122 167 212 269 338 392
#     4  11  20  43  63  92 129 173 213 271 315 393
#
# _framework density 25.819510999999999
#
# number of rings (size 3 to 8) (size 9 to 14) (size 15 to 20)
#    0.000    1.714    2.857    1.714    0.000    0.000 
#    2.571   15.000    6.286    0.000    0.000    0.000 
#    0.000    0.000    0.000    0.000    0.000    0.000 
#
# Total GULP energy -156677.566120 kJ/mol
# GULP energy per Si atom -5595.627361 kJ/mol
# Density = 2.576074 g / cm^3
# Si number density = 25.819511 Si / 1000 Ang^3
#
#
#
# Elastic Constant Matrix: (Units=GPa)
#
#
# Indices 1 2 3 4 5 6 
#
# 1 116.7738 17.0706 17.3584 0.0000 22.3157 0.0000
# 2 17.0706 51.2739 18.0789 0.0000 -2.4071 0.0000
# 3 17.3584 18.0789 111.3097 0.0000 18.4381 0.0000
# 4 0.0000 0.0000 0.0000 18.6276 0.0000 3.4952
# 5 22.3157 -2.4071 18.4381 0.0000 30.9479 0.0000
# 6 0.0000 0.0000 0.0000 3.4952 0.0000 26.8646
#
#
#
# Elastic Compliance Matrix: (Units=1/GPa)
#
#
# Indices 1 2 3 4 5 6 
#
# 1 0.010678 -0.004068 0.000359 0.000000 -0.008229 0.000000
# 2 -0.004068 0.022695 -0.004249 0.000000 0.007230 0.000000
# 3 0.000359 -0.004249 0.010780 0.000000 -0.007011 0.000000
# 4 0.000000 0.000000 0.000000 0.055027 0.000000 -0.007159
# 5 -0.008229 0.007230 -0.007011 0.000000 0.042986 0.000000
# 6 0.000000 0.000000 0.000000 -0.007159 0.000000 0.038155
#
#
# Mechanical properties :
#
#
# Convention : Reuss Voigt Hill
#
# Bulk Modulus (GPa) = 35.41647 42.70813 39.06230
# Shear Modulus (GPa) = 24.31325 30.41132 27.36229
#
# Velocity S-wave (km/s) = 3.07198 3.43569 3.25892
# Velocity P-wave (km/s) = 5.13122 5.68468 5.41503
#
# Compressibility (1/GPa) = 0.02823545
#
# Stress axis : x y z
#
# Youngs Moduli (GPa) = 93.65471 44.06238 92.76755
#
# Poissons Ratio (x) = 0.17923 -0.03328
# Poissons Ratio (y) = 0.38096 0.39421
# Poissons Ratio (z) = -0.03360 0.18724
#
# Static dielectric constant tensor:
#      x y z
#    x 2.010620 0.000000 -0.020460 
#    y 0.000000 2.056630 0.000000 
#    z -0.020460 0.000000 2.010090 
# 
# From -- ./inp_files/52985.got.cif
#   From: 2010.05.17/outbox.cif.g08.bks.cpg/sg13_27_cif.got.tgz:52985.got - 2010.06.03 16:44:36.
