data_PCOD9228710
_publ_section_title
;
Structure prediction by ZEFSAII (Michael W. Deem and Ramdas Pophale) SiO2 
 PCOD9228710
Probable space group: P 2/C
;
_chemical_formula_sum "Si O2"
_cell_formula_units_Z 18
_cell_length_a 9.570435
_cell_length_b 6.556297
_cell_length_c 16.428490
_cell_angle_alpha 90.000000
_cell_angle_beta 126.046950
_cell_angle_gamma 90.000000
_cell_volume 833.463927
_symmetry_space_group_name_H-M "P 2/C"
_symmetry_group_IT_number 13
_symmetry_cell_setting 'monoclinic'
loop_
_space_group_symop_operation_xyz
x,y,z
-x,y,1/2-z
-x,-y,-z
x,-y,1/2+z
loop_
_atom_site_type_symbol
_atom_site_label
_atom_site_fract_x
_atom_site_fract_y
_atom_site_fract_z
Si Si1 0.000000 0.927694 0.250000
Si Si2 0.517571 0.125800 0.378745
Si Si3 0.696803 0.764106 0.248915
Si Si4 0.344216 0.544445 0.100078
Si Si5 0.263804 0.188020 0.438416
O O1 0.139923 0.788497 0.252549
O O2 0.096100 0.076778 0.346281
O O3 0.629253 0.305422 0.378081
O O4 0.395441 0.216305 0.408483
O O5 0.388624 0.990215 0.279645
O O6 0.645737 0.970708 0.468495
O O7 0.541542 0.627481 0.159999
O O8 0.731963 0.664943 0.348562
O O9 0.243910 0.607154 0.984114
#
# Coordination Sequence:
#
# PCOD9228710 Si02
#       5
#     2   4   4   4   4
#     4  10  20  40  54  80 128 154 180 236 298 348
#     4   9  18  37  58  83 114 149 194 236 278 342
#     4   9  21  36  58  86 117 151 185 237 293 335
#     4  10  19  35  60  87 108 150 205 236 270 339
#     4   9  19  34  58  83 113 152 187 236 293 335
#
# _framework density 21.596616000000001
#
# number of rings (size 3 to 8) (size 9 to 14) (size 15 to 20)
#    0.000    2.667    0.000    2.000    0.000    8.000 
#    0.000   11.111    0.000    0.000    0.000   18.667 
#    0.000    0.000    0.000    0.000    0.000    0.000 
#
# Total GULP energy -100449.808197 kJ/mol
# GULP energy per Si atom -5580.544900 kJ/mol
# Density = 2.154746 g / cm^3
# Si number density = 21.596616 Si / 1000 Ang^3
#
#
#
# Elastic Constant Matrix: (Units=GPa)
#
#
# Indices 1 2 3 4 5 6 
#
# 1 99.0114 19.6471 15.0441 0.0000 -11.7790 0.0000
# 2 19.6471 87.2446 2.2650 0.0000 -32.2231 0.0000
# 3 15.0441 2.2650 35.2042 0.0000 -14.9041 0.0000
# 4 0.0000 0.0000 0.0000 16.9324 0.0000 -10.6293
# 5 -11.7790 -32.2231 -14.9041 0.0000 23.1686 0.0000
# 6 0.0000 0.0000 0.0000 -10.6293 0.0000 12.7162
#
#
#
# Elastic Compliance Matrix: (Units=1/GPa)
#
#
# Indices 1 2 3 4 5 6 
#
# 1 0.011328 -0.003364 -0.005726 0.000000 -0.002603 0.000000
# 2 -0.003364 0.035339 0.026452 0.000000 0.064455 0.000000
# 3 -0.005726 0.026452 0.059772 0.000000 0.072328 0.000000
# 4 0.000000 0.000000 0.000000 0.124264 0.000000 0.103871
# 5 -0.002603 0.064455 0.072328 0.000000 0.178012 0.000000
# 6 0.000000 0.000000 0.000000 0.103871 0.000000 0.165465
#
#
# Mechanical properties :
#
#
# Convention : Reuss Voigt Hill
#
# Bulk Modulus (GPa) = 7.08406 32.81918 19.95162
# Shear Modulus (GPa) = 8.52502 22.86369 15.69436
#
# Velocity S-wave (km/s) = 1.98896 3.25725 2.69867
# Velocity P-wave (km/s) = 2.92607 5.41993 4.35532
#
# Compressibility (1/GPa) = 0.14116194
#
# Stress axis : x y z
#
# Youngs Moduli (GPa) = 88.27909 28.29748 16.73034
#
# Poissons Ratio (x) = 0.09518 0.09580
# Poissons Ratio (y) = 0.29693 -0.44254
# Poissons Ratio (z) = 0.50550 -0.74851
#
# Static dielectric constant tensor:
#      x y z
#    x 1.784720 0.000000 -0.037010 
#    y 0.000000 1.828770 0.000000 
#    z -0.037010 0.000000 1.824440 
# 
# From -- ./inp_files/65199.got.cif
#   From: 2010.05.17/outbox.cif.g08.bks.cpg/sg13_33_cif.got.tgz:65199.got - 2010.06.03 16:44:36.
