data_PCOD9228850
_publ_section_title
;
Structure prediction by ZEFSAII (Michael W. Deem and Ramdas Pophale) SiO2 
 PCOD9228850
Probable space group: P 2/C
;
_chemical_formula_sum "Si O2"
_cell_formula_units_Z 24
_cell_length_a 15.642994
_cell_length_b 15.042711
_cell_length_c 8.837982
_cell_angle_alpha 90.000000
_cell_angle_beta 144.472214
_cell_angle_gamma 90.000000
_cell_volume 1208.504464
_symmetry_space_group_name_H-M "P 2/C"
_symmetry_group_IT_number 13
_symmetry_cell_setting 'monoclinic'
loop_
_space_group_symop_operation_xyz
x,y,z
-x,y,1/2-z
-x,-y,-z
x,-y,1/2+z
loop_
_atom_site_type_symbol
_atom_site_label
_atom_site_fract_x
_atom_site_fract_y
_atom_site_fract_z
Si Si1 0.170881 0.401394 0.050023
Si Si2 0.657898 0.890203 0.285264
Si Si3 0.652499 0.271248 0.562980
Si Si4 0.666641 0.468926 0.510300
Si Si5 0.682657 0.061392 0.149965
Si Si6 0.169984 0.212945 0.963436
O O1 0.273166 0.437285 0.063469
O O2 0.211887 0.297942 0.127610
O O3 0.000000 0.406653 0.750000
O O4 0.217828 0.461053 0.257890
O O5 0.659595 0.791352 0.219641
O O6 0.733608 0.908341 0.556334
O O7 0.711186 0.958990 0.232872
O O8 0.490321 0.918642 0.079032
O O9 0.659785 0.377412 0.599040
O O10 0.783229 0.242812 0.637087
O O11 0.500000 0.254690 0.250000
O O12 0.500000 0.503176 0.250000
O O13 0.752475 0.123528 0.377121
O O14 0.000000 0.200146 0.750000
#
# Coordination Sequence:
#
# PCOD9228850 Si02
#       6
#     4   4   4   4   4   4
#     4  10  21  38  58  81 114 156 191 228 287 349
#     4  10  20  34  59  84 110 142 187 231 274 330
#     4  10  19  36  58  80 112 149 189 231 280 329
#     4  10  21  36  57  84 114 148 191 243 285 326
#     4  10  20  35  56  86 111 143 185 230 276 331
#     4  10  21  38  57  81 115 150 184 229 283 335
#
# _framework density 19.859256999999999
#
# number of rings (size 3 to 8) (size 9 to 14) (size 15 to 20)
#    0.000    2.000    1.667    2.000    2.333    1.333 
#    3.000    4.167    0.000    0.000    0.000    0.000 
#    0.000    0.000    0.000    0.000    0.000    0.000 
#
# Total GULP energy -133811.256915 kJ/mol
# GULP energy per Si atom -5575.469038 kJ/mol
# Density = 1.981406 g / cm^3
# Si number density = 19.859257 Si / 1000 Ang^3
#
#
#
# Elastic Constant Matrix: (Units=GPa)
#
#
# Indices 1 2 3 4 5 6 
#
# 1 39.3256 -20.1845 -2.9179 0.0000 5.7351 0.0000
# 2 -20.1845 52.0649 -1.3575 0.0000 -10.9870 0.0000
# 3 -2.9179 -1.3575 17.1046 0.0000 6.7842 0.0000
# 4 0.0000 0.0000 0.0000 26.0334 0.0000 0.7669
# 5 5.7351 -10.9870 6.7842 0.0000 29.9070 0.0000
# 6 0.0000 0.0000 0.0000 0.7669 0.0000 23.9248
#
#
#
# Elastic Compliance Matrix: (Units=1/GPa)
#
#
# Indices 1 2 3 4 5 6 
#
# 1 0.032791 0.012153 0.008002 0.000000 -0.003639 0.000000
# 2 0.012153 0.025361 0.001445 0.000000 0.006659 0.000000
# 3 0.008002 0.001445 0.066307 0.000000 -0.016045 0.000000
# 4 0.000000 0.000000 0.000000 0.038448 0.000000 -0.001232
# 5 -0.003639 0.006659 -0.016045 0.000000 0.040221 0.000000
# 6 0.000000 0.000000 0.000000 -0.001232 0.000000 0.041837
#
#
# Mechanical properties :
#
#
# Convention : Reuss Voigt Hill
#
# Bulk Modulus (GPa) = 5.96450 6.61948 6.29199
# Shear Modulus (GPa) = 19.40599 24.83672 22.12136
#
# Velocity S-wave (km/s) = 3.12937 3.54027 3.34114
# Velocity P-wave (km/s) = 4.00839 4.47792 4.24965
#
# Compressibility (1/GPa) = 0.16765871
#
# Stress axis : x y z
#
# Youngs Moduli (GPa) = 30.49632 39.43042 15.08128
#
# Poissons Ratio (x) = -0.47920 -0.12067
# Poissons Ratio (y) = -0.37063 -0.02179
# Poissons Ratio (z) = -0.24402 -0.05698
#
# Static dielectric constant tensor:
#      x y z
#    x 1.705640 0.000000 -0.016180 
#    y 0.000000 1.713700 0.000000 
#    z -0.016180 0.000000 1.820410 
# 
# From -- ./inp_files/19749.got.cif
#   From: 2010.05.17/outbox.cif.g08.bks.cpg/sg13_10_cif.got.tgz:19749.got - 2010.06.03 16:44:36.
