data_PCOD9228143
_publ_section_title
;
Structure prediction by ZEFSAII (Michael W. Deem and Ramdas Pophale) SiO2 
 PCOD9228143
Probable space group: P 2/C
;
_chemical_formula_sum "Si O2"
_cell_formula_units_Z 30
_cell_length_a 12.090643
_cell_length_b 8.061839
_cell_length_c 16.111199
_cell_angle_alpha 90.000000
_cell_angle_beta 111.356100
_cell_angle_gamma 90.000000
_cell_volume 1462.572343
_symmetry_space_group_name_H-M "P 2/C"
_symmetry_group_IT_number 13
_symmetry_cell_setting 'monoclinic'
loop_
_space_group_symop_operation_xyz
x,y,z
-x,y,1/2-z
-x,-y,-z
x,-y,1/2+z
loop_
_atom_site_type_symbol
_atom_site_label
_atom_site_fract_x
_atom_site_fract_y
_atom_site_fract_z
Si Si1 0.455332 0.365438 0.898687
Si Si2 0.500000 0.046580 0.250000
Si Si3 0.633195 0.334609 0.219354
Si Si4 0.307799 0.539018 0.108441
Si Si5 0.137062 0.667399 0.811977
Si Si6 0.766880 0.650415 0.059435
Si Si7 0.865651 0.958546 0.181777
Si Si8 0.697873 0.173498 0.780151
O O1 0.417226 0.552752 0.867235
O O2 0.596759 0.370798 0.926834
O O3 0.372639 0.320378 0.953978
O O4 0.398021 0.259987 0.807792
O O5 0.386408 0.944068 0.188331
O O6 0.562611 0.164189 0.200370
O O7 0.623101 0.427075 0.305017
O O8 0.773567 0.321842 0.241603
O O9 0.247882 0.683004 0.147367
O O10 0.229401 0.414854 0.033180
O O11 0.178952 0.505160 0.873866
O O12 0.000000 0.648202 0.750000
O O13 0.152372 0.852373 0.854903
O O14 0.833027 0.817309 0.105839
O O15 0.786817 0.917351 0.242296
O O16 0.000000 0.944081 0.250000
#
# Coordination Sequence:
#
# PCOD9228143 Si02
#       8
#     4   2   4   4   4   4   4   4
#     4   9  17  34  50  75 107 149 179 209 257 328
#     4  12  16  30  54  86 110 130 184 232 254 314
#     4  10  19  32  57  80 105 142 184 220 262 315
#     4  11  19  35  51  82 115 144 171 221 283 328
#     4  10  21  40  60  78 103 144 192 226 259 320
#     4  10  22  35  56  81 114 144 176 223 280 324
#     4  10  21  40  60  78 103 144 192 226 259 320
#     4  10  19  32  57  80 105 142 184 220 262 315
#
# _framework density 20.511807000000001
#
# number of rings (size 3 to 8) (size 9 to 14) (size 15 to 20)
#    0.000    1.867    4.000    2.400    0.000    0.000 
#    2.400    2.667    0.000    9.600    0.000    0.000 
#    0.000    0.000    0.000    0.000    0.000    0.000 
#
# Total GULP energy -167017.274667 kJ/mol
# GULP energy per Si atom -5567.242489 kJ/mol
# Density = 2.046512 g / cm^3
# Si number density = 20.511807 Si / 1000 Ang^3
#
#
#
# Elastic Constant Matrix: (Units=GPa)
#
#
# Indices 1 2 3 4 5 6 
#
# 1 78.4892 5.9883 -7.0136 0.0000 11.3435 0.0000
# 2 5.9883 81.3375 -1.4881 0.0000 7.6399 0.0000
# 3 -7.0136 -1.4881 19.0341 0.0000 1.6891 0.0000
# 4 0.0000 0.0000 0.0000 1.1968 0.0000 4.3420
# 5 11.3435 7.6399 1.6891 0.0000 12.5215 0.0000
# 6 0.0000 0.0000 0.0000 4.3420 0.0000 29.9310
#
#
#
# Elastic Compliance Matrix: (Units=1/GPa)
#
#
# Indices 1 2 3 4 5 6 
#
# 1 0.015558 0.000423 0.007125 0.000000 -0.015314 0.000000
# 2 0.000423 0.013111 0.001948 0.000000 -0.008646 0.000000
# 3 0.007125 0.001948 0.056672 0.000000 -0.015288 0.000000
# 4 0.000000 0.000000 0.000000 1.763904 0.000000 -0.255885
# 5 -0.015314 -0.008646 -0.015288 0.000000 0.101073 0.000000
# 6 0.000000 0.000000 0.000000 -0.255885 0.000000 0.070531
#
#
# Mechanical properties :
#
#
# Convention : Reuss Voigt Hill
#
# Bulk Modulus (GPa) = 9.58466 19.31491 14.44978
# Shear Modulus (GPa) = 2.45503 20.82146 11.63825
#
# Velocity S-wave (km/s) = 1.09521 3.18951 2.38458
# Velocity P-wave (km/s) = 2.50643 4.79593 3.82643
#
# Compressibility (1/GPa) = 0.10433341
#
# Stress axis : x y z
#
# Youngs Moduli (GPa) = 64.27494 76.27176 17.64553
#
# Poissons Ratio (x) = -0.03229 -0.12572
# Poissons Ratio (y) = -0.02721 -0.03438
# Poissons Ratio (z) = -0.45795 -0.14859
#
# Static dielectric constant tensor:
#      x y z
#    x 1.776560 0.000000 -0.029390 
#    y 0.000000 1.830350 0.000000 
#    z -0.029390 0.000000 1.725820 
# 
# From -- ./inp_files/66089.got.cif
#   From: 2010.05.17/outbox.cif.g08.bks.cpg/sg13_34_cif.got.tgz:66089.got - 2010.06.03 16:44:36.
