data_PCOD9228051
_publ_section_title
;
Structure prediction by ZEFSAII (Michael W. Deem and Ramdas Pophale) SiO2 
 PCOD9228051
Probable space group: P 2/C
;
_chemical_formula_sum "Si O2"
_cell_formula_units_Z 30
_cell_length_a 12.637668
_cell_length_b 7.288258
_cell_length_c 14.591808
_cell_angle_alpha 90.000000
_cell_angle_beta 72.975438
_cell_angle_gamma 90.000000
_cell_volume 1285.106554
_symmetry_space_group_name_H-M "P 2/C"
_symmetry_group_IT_number 13
_symmetry_cell_setting 'monoclinic'
loop_
_space_group_symop_operation_xyz
x,y,z
-x,y,1/2-z
-x,-y,-z
x,-y,1/2+z
loop_
_atom_site_type_symbol
_atom_site_label
_atom_site_fract_x
_atom_site_fract_y
_atom_site_fract_z
Si Si1 0.500000 0.613513 0.750000
Si Si2 0.299023 0.602628 0.690613
Si Si3 0.230102 0.253408 0.907208
Si Si4 0.020990 0.332636 0.064127
Si Si5 0.391671 0.197078 0.452728
Si Si6 0.904629 0.584138 0.229569
Si Si7 0.414936 0.761875 0.484281
Si Si8 0.203652 0.162565 0.384213
O O1 0.400700 0.512152 0.721754
O O2 0.549245 0.742670 0.656971
O O3 0.199126 0.474707 0.682280
O O4 0.348959 0.713252 0.593438
O O5 0.242705 0.733433 0.782405
O O6 0.165876 0.349478 0.840726
O O7 0.242082 0.045993 0.870099
O O8 0.142831 0.259072 0.013813
O O9 0.347038 0.326572 0.917227
O O10 0.985278 0.426166 0.167725
O O11 0.927008 0.181071 0.071469
O O12 0.000000 0.500000 0.000000
O O13 0.458279 0.286745 0.520873
O O14 0.265236 0.241557 0.459356
O O15 0.405586 0.979627 0.467066
O O16 0.000000 0.712132 0.250000
#
# Coordination Sequence:
#
# PCOD9228051 Si02
#       8
#     2   4   4   4   4   4   4   4
#     4   8  14  28  52  76 102 134 168 206 258 308
#     4   9  17  31  53  74  98 134 172 207 252 313
#     4  10  19  32  51  74 104 132 167 214 255 300
#     4   9  18  32  51  71  96 133 169 207 253 303
#     4   8  15  27  49  80 108 131 163 210 253 304
#     4  10  20  34  49  68  99 136 174 213 258 304
#     4   9  16  29  51  78 104 132 168 206 252 303
#     4   9  17  31  51  77 103 131 166 207 255 304
#
# _framework density 23.344367999999999
#
# number of rings (size 3 to 8) (size 9 to 14) (size 15 to 20)
#    0.000    2.933    0.000    1.200    0.000    0.000 
#    0.000    9.333    0.000   36.800    0.000    0.000 
#    0.000    0.000    0.000    0.000    0.000    0.000 
#
# Total GULP energy -167034.449578 kJ/mol
# GULP energy per Si atom -5567.814986 kJ/mol
# Density = 2.329123 g / cm^3
# Si number density = 23.344368 Si / 1000 Ang^3
#
#
#
# Elastic Constant Matrix: (Units=GPa)
#
#
# Indices 1 2 3 4 5 6 
#
# 1 139.2661 -7.5797 23.7700 0.0000 30.9062 0.0000
# 2 -7.5797 31.6476 16.4740 0.0000 6.7884 0.0000
# 3 23.7700 16.4740 75.7247 0.0000 19.7120 0.0000
# 4 0.0000 0.0000 0.0000 16.7098 0.0000 3.1395
# 5 30.9062 6.7884 19.7120 0.0000 34.7841 0.0000
# 6 0.0000 0.0000 0.0000 3.1395 0.0000 17.2050
#
#
#
# Elastic Compliance Matrix: (Units=1/GPa)
#
#
# Indices 1 2 3 4 5 6 
#
# 1 0.009681 0.005156 -0.001947 0.000000 -0.008505 0.000000
# 2 0.005156 0.038649 -0.008060 0.000000 -0.007557 0.000000
# 3 -0.001947 -0.008060 0.017256 0.000000 -0.006476 0.000000
# 4 0.000000 0.000000 0.000000 0.061970 0.000000 -0.011308
# 5 -0.008505 -0.007557 -0.006476 0.000000 0.041450 0.000000
# 6 0.000000 0.000000 0.000000 -0.011308 0.000000 0.060186
#
#
# Mechanical properties :
#
#
# Convention : Reuss Voigt Hill
#
# Bulk Modulus (GPa) = 17.89365 34.66300 26.27832
# Shear Modulus (GPa) = 19.41588 28.00471 23.71030
#
# Velocity S-wave (km/s) = 2.88708 3.46733 3.19042
# Velocity P-wave (km/s) = 4.33536 5.55973 4.98528
#
# Compressibility (1/GPa) = 0.05588576
#
# Stress axis : x y z
#
# Youngs Moduli (GPa) = 103.29782 25.87372 57.95071
#
# Poissons Ratio (x) = -0.13341 0.11281
# Poissons Ratio (y) = -0.53262 0.46706
# Poissons Ratio (z) = 0.20109 0.20853
#
# Static dielectric constant tensor:
#      x y z
#    x 6.284800 0.000000 2.237440 
#    y 0.000000 1.943870 0.000000 
#    z 2.237440 0.000000 3.030060 
# 
# From -- ./inp_files/50051.got.cif
#   From: 2010.05.17/outbox.cif.g08.bks.cpg/sg13_26_cif.got.tgz:50051.got - 2010.06.03 16:44:36.
