data_PCOD9228238
_publ_section_title
;
Structure prediction by ZEFSAII (Michael W. Deem and Ramdas Pophale) SiO2 
 PCOD9228238
Probable space group: P 2/C
;
_chemical_formula_sum "Si O2"
_cell_formula_units_Z 30
_cell_length_a 20.605341
_cell_length_b 8.241230
_cell_length_c 9.030111
_cell_angle_alpha 90.000000
_cell_angle_beta 106.421321
_cell_angle_gamma 90.000000
_cell_volume 1470.882915
_symmetry_space_group_name_H-M "P 2/C"
_symmetry_group_IT_number 13
_symmetry_cell_setting 'monoclinic'
loop_
_space_group_symop_operation_xyz
x,y,z
-x,y,1/2-z
-x,-y,-z
x,-y,1/2+z
loop_
_atom_site_type_symbol
_atom_site_label
_atom_site_fract_x
_atom_site_fract_y
_atom_site_fract_z
Si Si1 0.797623 0.868983 0.315130
Si Si2 0.799035 0.677985 0.032504
Si Si3 0.295886 0.142246 0.230064
Si Si4 0.910260 0.138265 0.452413
Si Si5 0.435527 0.726152 0.781072
Si Si6 0.000000 0.952579 0.750000
Si Si7 0.276865 0.662970 0.002548
Si Si8 0.568604 0.383518 0.879888
O O1 0.772640 0.787017 0.448870
O O2 0.733509 0.977705 0.224348
O O3 0.858476 0.993525 0.376652
O O4 0.815653 0.730270 0.210011
O O5 0.747308 0.813915 0.940403
O O6 0.865666 0.707669 0.975093
O O7 0.757878 0.511316 0.000020
O O8 0.374134 0.149923 0.246483
O O9 0.281407 0.288712 0.334360
O O10 0.956959 0.154874 0.337933
O O11 0.953535 0.068059 0.617323
O O12 0.500000 0.809853 0.750000
O O13 0.424405 0.572823 0.663476
O O14 0.442563 0.652857 0.952327
O O15 0.355097 0.678907 0.108680
O O16 0.500000 0.327097 0.750000
#
# Coordination Sequence:
#
# PCOD9228238 Si02
#       8
#     4   4   4   4   4   2   4   4
#     4  11  23  39  62  93 124 159 205 255 310 370
#     4  11  21  37  61  91 124 157 204 254 302 354
#     4  10  21  37  57  88 119 159 206 254 315 366
#     4  10  21  39  66  99 120 176 202 249 287 372
#     4  10  19  33  54  81 116 159 206 256 310 366
#     4  10  20  40  68  94 132 164 218 228 298 374
#     4  11  23  38  61  92 124 161 207 266 315 358
#     4  10  20  34  55  85 119 162 211 254 308 373
#
# _framework density 20.395914999999999
#
# number of rings (size 3 to 8) (size 9 to 14) (size 15 to 20)
#    0.000    1.600    2.667    4.000    3.733    1.067 
#    0.000    0.667    0.000    8.800    0.000    0.000 
#    0.000    0.000    0.000    0.000    0.000    0.000 
#
# Total GULP energy -167229.208061 kJ/mol
# GULP energy per Si atom -5574.306935 kJ/mol
# Density = 2.034949 g / cm^3
# Si number density = 20.395915 Si / 1000 Ang^3
#
#
#
# Elastic Constant Matrix: (Units=GPa)
#
#
# Indices 1 2 3 4 5 6 
#
# 1 134.8097 21.5972 44.0114 0.0000 -27.0348 0.0000
# 2 21.5972 37.2922 1.6527 0.0000 -12.7026 0.0000
# 3 44.0114 1.6527 65.8527 0.0000 -11.5987 0.0000
# 4 0.0000 0.0000 0.0000 12.3676 0.0000 9.9621
# 5 -27.0348 -12.7026 -11.5987 0.0000 31.4851 0.0000
# 6 0.0000 0.0000 0.0000 9.9621 0.0000 -0.8873
#
#
#
# Elastic Compliance Matrix: (Units=1/GPa)
#
#
# Indices 1 2 3 4 5 6 
#
# 1 0.011365 -0.004388 -0.006500 0.000000 0.005593 0.000000
# 2 -0.004388 0.032926 0.004045 0.000000 0.011006 0.000000
# 3 -0.006500 0.004045 0.020032 0.000000 0.003430 0.000000
# 4 0.000000 0.000000 0.000000 0.008050 0.000000 0.090387
# 5 0.005593 0.011006 0.003430 0.000000 0.042268 0.000000
# 6 0.000000 0.000000 0.000000 0.090387 0.000000 -0.112211
#
#
# Mechanical properties :
#
#
# Convention : Reuss Voigt Hill
#
# Bulk Modulus (GPa) = 19.74856 41.38637 30.56747
# Shear Modulus (GPa) = 151.53520 19.97262 85.75391
#
# Velocity S-wave (km/s) = 8.62891 3.13269 6.49122
# Velocity P-wave (km/s) = 10.43940 5.78105 8.43806
#
# Compressibility (1/GPa) = 0.05063660
#
# Stress axis : x y z
#
# Youngs Moduli (GPa) = 87.99191 30.37073 49.91938
#
# Poissons Ratio (x) = 0.13328 0.32448
# Poissons Ratio (y) = 0.38615 -0.20193
# Poissons Ratio (z) = 0.57196 -0.12285
#
# Static dielectric constant tensor:
#      x y z
#    x 1.781570 0.000000 0.022900 
#    y 0.000000 1.699630 0.000000 
#    z 0.022900 0.000000 1.737820 
# 
# From -- ./inp_files/22789.got.cif
#   From: 2010.05.17/outbox.cif.g08.bks.cpg/sg13_12_cif.got.tgz:22789.got - 2010.06.03 16:44:36.
