data_PCOD9228372
_publ_section_title
;
Structure prediction by ZEFSAII (Michael W. Deem and Ramdas Pophale) SiO2 
 PCOD9228372
Probable space group: P 2/C
;
_chemical_formula_sum "Si O2"
_cell_formula_units_Z 32
_cell_length_a 5.657198
_cell_length_b 10.588578
_cell_length_c 24.749858
_cell_angle_alpha 90.000000
_cell_angle_beta 87.902713
_cell_angle_gamma 90.000000
_cell_volume 1481.565006
_symmetry_space_group_name_H-M "P 2/C"
_symmetry_group_IT_number 13
_symmetry_cell_setting 'monoclinic'
loop_
_space_group_symop_operation_xyz
x,y,z
-x,y,1/2-z
-x,-y,-z
x,-y,1/2+z
loop_
_atom_site_type_symbol
_atom_site_label
_atom_site_fract_x
_atom_site_fract_y
_atom_site_fract_z
Si Si1 0.252091 0.013320 0.225981
Si Si2 0.108203 0.002023 0.057915
Si Si3 0.830249 0.545597 0.953832
Si Si4 0.245043 0.723480 0.266480
Si Si5 0.172247 0.748320 0.926016
Si Si6 0.514228 0.077280 0.380037
Si Si7 0.770334 0.168263 0.615652
Si Si8 0.451159 0.308498 0.529658
O O1 0.500000 0.059069 0.250000
O O2 0.279042 0.057387 0.164470
O O3 0.000000 0.058889 0.250000
O O4 0.249959 0.860900 0.235255
O O5 0.383434 0.030345 0.063226
O O6 0.992437 0.131268 0.080122
O O7 0.021679 0.874665 0.088660
O O8 0.000000 0.000000 0.000000
O O9 0.683452 0.422213 0.937381
O O10 0.011338 0.626082 0.915836
O O11 0.641196 0.634049 0.985650
O O12 0.000000 0.500000 0.000000
O O13 0.500000 0.664632 0.250000
O O14 0.223990 0.748561 0.330769
O O15 0.000000 0.660200 0.250000
O O16 0.397697 0.786347 0.887627
O O17 0.263148 0.747239 0.987898
O O18 0.334366 0.966725 0.364849
O O19 0.601654 0.227573 0.571089
#
# Coordination Sequence:
#
# PCOD9228372 Si02
#       8
#     4   4   4   4   4   4   4   4
#     4  10  19  34  52  73 110 161 192 234 281 340
#     4  11  21  31  47  76 117 154 189 226 276 357
#     4   9  19  37  55  74 107 148 190 250 290 341
#     4  10  19  35  52  75 112 160 187 237 285 342
#     4  10  20  33  51  77 110 152 196 233 290 348
#     4  11  21  32  51  77 115 160 189 238 288 360
#     4  11  21  32  52  80 111 159 198 230 294 366
#     4  10  20  36  55  77 111 152 195 244 295 353
#
# _framework density 21.598783000000001
#
# number of rings (size 3 to 8) (size 9 to 14) (size 15 to 20)
#    0.000    1.750    2.500    4.500    1.750    3.000 
#    0.000    0.000    0.000    0.000    0.000    0.000 
#    0.000   24.000    0.250    0.000    0.000    0.000 
#
# Total GULP energy -178289.869753 kJ/mol
# GULP energy per Si atom -5571.558430 kJ/mol
# Density = 2.154962 g / cm^3
# Si number density = 21.598783 Si / 1000 Ang^3
#
#
#
# Elastic Constant Matrix: (Units=GPa)
#
#
# Indices 1 2 3 4 5 6 
#
# 1 115.8464 25.9744 9.8907 0.0000 3.6676 0.0000
# 2 25.9744 60.4506 8.1150 0.0000 -2.9742 0.0000
# 3 9.8907 8.1150 46.4741 0.0000 5.0976 0.0000
# 4 0.0000 0.0000 0.0000 5.1610 0.0000 -0.3067
# 5 3.6676 -2.9742 5.0976 0.0000 37.3929 0.0000
# 6 0.0000 0.0000 0.0000 -0.3067 0.0000 39.8684
#
#
#
# Elastic Compliance Matrix: (Units=1/GPa)
#
#
# Indices 1 2 3 4 5 6 
#
# 1 0.009680 -0.004048 -0.001232 0.000000 -0.001103 0.000000
# 2 -0.004048 0.018750 -0.002659 0.000000 0.002251 0.000000
# 3 -0.001232 -0.002659 0.022592 0.000000 -0.003171 0.000000
# 4 0.000000 0.000000 0.000000 0.193851 0.000000 0.001491
# 5 -0.001103 0.002251 -0.003171 0.000000 0.027463 0.000000
# 6 0.000000 0.000000 0.000000 0.001491 0.000000 0.025094
#
#
# Mechanical properties :
#
#
# Convention : Reuss Voigt Hill
#
# Bulk Modulus (GPa) = 28.45603 34.52570 31.49086
# Shear Modulus (GPa) = 15.38358 28.40387 21.89372
#
# Velocity S-wave (km/s) = 2.67168 3.63032 3.18725
# Velocity P-wave (km/s) = 4.76662 5.79586 5.30625
#
# Compressibility (1/GPa) = 0.03514193
#
# Stress axis : x y z
#
# Youngs Moduli (GPa) = 103.30685 53.33457 44.26399
#
# Poissons Ratio (x) = 0.21591 0.05454
# Poissons Ratio (y) = 0.41820 0.11771
# Poissons Ratio (z) = 0.12730 0.14183
#
# Static dielectric constant tensor:
#      x y z
#    x 2.083050 0.000000 -0.091550 
#    y 0.000000 1.815520 0.000000 
#    z -0.091550 0.000000 1.947600 
# 
# From -- ./inp_files/83698.got.cif
#   From: 2010.05.17/outbox.cif.g08.bks.cpg/sg13_42_cif.got.tgz:83698.got - 2010.06.03 16:44:36.
