data_PCOD9228903
_publ_section_title
;
Structure prediction by ZEFSAII (Michael W. Deem and Ramdas Pophale) SiO2 
 PCOD9228903
Probable space group: P 2/C
;
_chemical_formula_sum "Si O2"
_cell_formula_units_Z 28
_cell_length_a 8.721202
_cell_length_b 12.646960
_cell_length_c 12.736678
_cell_angle_alpha 90.000000
_cell_angle_beta 85.947720
_cell_angle_gamma 90.000000
_cell_volume 1401.301407
_symmetry_space_group_name_H-M "P 2/C"
_symmetry_group_IT_number 13
_symmetry_cell_setting 'monoclinic'
loop_
_space_group_symop_operation_xyz
x,y,z
-x,y,1/2-z
-x,-y,-z
x,-y,1/2+z
loop_
_atom_site_type_symbol
_atom_site_label
_atom_site_fract_x
_atom_site_fract_y
_atom_site_fract_z
Si Si1 0.679437 0.384229 0.752948
Si Si2 0.153247 0.664106 0.452468
Si Si3 0.652606 0.135133 0.481375
Si Si4 0.317082 0.791497 0.748337
Si Si5 0.704199 0.899585 0.530991
Si Si6 0.846478 0.579109 0.819242
Si Si7 0.107350 0.787661 0.153755
O O1 0.500000 0.369548 0.750000
O O2 0.753814 0.405101 0.635357
O O3 0.724923 0.484459 0.820441
O O4 0.760234 0.280101 0.795816
O O5 0.262383 0.764961 0.472641
O O6 0.117723 0.607290 0.562635
O O7 0.000881 0.705546 0.403211
O O8 0.697074 0.136517 0.355468
O O9 0.467171 0.139998 0.493291
O O10 0.699018 0.026296 0.534429
O O11 0.500000 0.768738 0.750000
O O12 0.262962 0.848517 0.857207
O O13 0.225467 0.683858 0.730716
O O14 0.821667 0.864614 0.435531
O O15 0.000000 0.547889 0.750000
O O16 0.000000 0.836818 0.250000
#
# Coordination Sequence:
#
# PCOD9228903 Si02
#       7
#     4   4   4   4   4   4   4
#     4  11  24  40  60  84 111 148 190 232 280 336
#     4  10  22  40  57  82 119 148 184 235 282 335
#     4   9  20  36  58  86 113 151 192 232 283 331
#     4   9  19  35  55  83 114 146 191 235 276 333
#     4  10  19  36  60  83 115 153 191 236 279 326
#     4  11  22  37  59  84 112 148 186 229 285 339
#     4  10  22  38  57  85 116 149 187 229 281 337
#
# _framework density 19.981424000000001
#
# number of rings (size 3 to 8) (size 9 to 14) (size 15 to 20)
#    0.000    2.000    0.000    3.429    0.000    6.857 
#    0.000    7.143    0.000    0.000    0.000    0.000 
#    0.000    0.000    0.000    0.000    0.000    0.000 
#
# Total GULP energy -156450.382842 kJ/mol
# GULP energy per Si atom -5587.513673 kJ/mol
# Density = 1.993595 g / cm^3
# Si number density = 19.981424 Si / 1000 Ang^3
#
#
#
# Elastic Constant Matrix: (Units=GPa)
#
#
# Indices 1 2 3 4 5 6 
#
# 1 65.0589 2.7735 19.5541 0.0000 -3.2228 0.0000
# 2 2.7735 14.6286 3.5468 0.0000 -6.6580 0.0000
# 3 19.5541 3.5468 104.6520 0.0000 -5.0420 0.0000
# 4 0.0000 0.0000 0.0000 -48.0588 0.0000 83.3202
# 5 -3.2228 -6.6580 -5.0420 0.0000 25.3256 0.0000
# 6 0.0000 0.0000 0.0000 83.3202 0.0000 -81.9386
#
#
#
# Elastic Compliance Matrix: (Units=1/GPa)
#
#
# Indices 1 2 3 4 5 6 
#
# 1 0.016389 -0.001943 -0.002949 0.000000 0.000988 0.000000
# 2 -0.001943 0.078169 -0.001321 0.000000 0.020040 0.000000
# 3 -0.002949 -0.001321 0.010214 0.000000 0.001311 0.000000
# 4 0.000000 0.000000 0.000000 0.027273 0.000000 0.027733
# 5 0.000988 0.020040 0.001311 0.000000 0.045141 0.000000
# 6 0.000000 0.000000 0.000000 0.027733 0.000000 0.015996
#
#
# Mechanical properties :
#
#
# Convention : Reuss Voigt Hill
#
# Bulk Modulus (GPa) = 10.82866 26.23203 18.53035
# Shear Modulus (GPa) = 21.15156 -10.37003 5.39077
#
# Velocity S-wave (km/s) = 3.25708 -2.28059 1.64431
# Velocity P-wave (km/s) = 4.42447 2.49438 3.59151
#
# Compressibility (1/GPa) = 0.09234749
#
# Stress axis : x y z
#
# Youngs Moduli (GPa) = 61.01762 12.79282 97.90115
#
# Poissons Ratio (x) = 0.02485 0.28869
# Poissons Ratio (y) = 0.11854 0.12931
# Poissons Ratio (z) = 0.17993 0.01690
#
# Static dielectric constant tensor:
#      x y z
#    x 1.695670 0.000000 -0.000350 
#    y 0.000000 1.664790 0.000000 
#    z -0.000350 0.000000 1.699410 
# 
# From -- ./inp_files/30071.got.cif
#   From: 2010.05.17/outbox.cif.g08.bks.cpg/sg13_16_cif.got.tgz:30071.got - 2010.06.03 16:44:36.
