data_PCOD9228460
_publ_section_title
;
Structure prediction by ZEFSAII (Michael W. Deem and Ramdas Pophale) SiO2 
 PCOD9228460
Probable space group: P 2/C
;
_chemical_formula_sum "Si O2"
_cell_formula_units_Z 18
_cell_length_a 5.096601
_cell_length_b 23.622263
_cell_length_c 7.761060
_cell_angle_alpha 90.000000
_cell_angle_beta 114.256068
_cell_angle_gamma 90.000000
_cell_volume 851.890869
_symmetry_space_group_name_H-M "P 2/C"
_symmetry_group_IT_number 13
_symmetry_cell_setting 'monoclinic'
loop_
_space_group_symop_operation_xyz
x,y,z
-x,y,1/2-z
-x,-y,-z
x,-y,1/2+z
loop_
_atom_site_type_symbol
_atom_site_label
_atom_site_fract_x
_atom_site_fract_y
_atom_site_fract_z
Si Si1 0.000000 0.785146 0.250000
Si Si2 0.828656 0.292779 0.385642
Si Si3 0.000000 0.501328 0.750000
Si Si4 0.782524 0.960227 0.543412
Si Si5 0.500000 0.137782 0.750000
Si Si6 0.764143 0.421985 0.451316
O O1 0.720003 0.823837 0.202701
O O2 0.040808 0.748178 0.434308
O O3 0.500000 0.277156 0.250000
O O4 0.819274 0.355503 0.468195
O O5 0.000000 0.294420 0.250000
O O6 0.753981 0.455385 0.628820
O O7 0.010187 0.545631 0.910688
O O8 0.677371 0.904866 0.417809
O O9 0.000000 0.940525 0.750000
O O10 0.500000 0.000000 0.500000
O O11 0.000000 0.000000 0.500000
O O12 0.500000 0.431500 0.250000
#
# Coordination Sequence:
#
# PCOD9228460 Si02
#       6
#     2   4   2   4   2   4
#     4  12  27  46  68 100 138 181 240 294 332 396
#     4  11  24  45  69  93 132 181 234 286 351 407
#     4  10  19  34  56  88 124 155 212 274 346 414
#     4  12  23  43  72 105 144 181 216 266 334 403
#     4  12  26  44  72 106 142 180 234 280 332 406
#     4  10  20  35  57  87 121 164 212 275 343 417
#
# _framework density 21.129467999999999
#
# number of rings (size 3 to 8) (size 9 to 14) (size 15 to 20)
#    0.000    0.889    3.333    4.000    0.000    2.667 
#    0.000    0.000    0.000    0.000    0.000    0.000 
#    0.000    0.000    0.000    0.000    0.000    0.000 
#
# Total GULP energy -100313.845422 kJ/mol
# GULP energy per Si atom -5572.991412 kJ/mol
# Density = 2.108138 g / cm^3
# Si number density = 21.129468 Si / 1000 Ang^3
#
#
#
# Elastic Constant Matrix: (Units=GPa)
#
#
# Indices 1 2 3 4 5 6 
#
# 1 99.7922 23.9828 21.6227 0.0000 13.7614 0.0000
# 2 23.9828 124.8423 73.4905 0.0000 8.0243 0.0000
# 3 21.6227 73.4905 140.4148 0.0000 19.9965 0.0000
# 4 0.0000 0.0000 0.0000 5.9399 0.0000 2.1399
# 5 13.7614 8.0243 19.9965 0.0000 30.6481 0.0000
# 6 0.0000 0.0000 0.0000 2.1399 0.0000 25.0260
#
#
#
# Elastic Compliance Matrix: (Units=1/GPa)
#
#
# Indices 1 2 3 4 5 6 
#
# 1 0.011085 -0.001750 -0.000163 0.000000 -0.004413 0.000000
# 2 -0.001750 0.011882 -0.006194 0.000000 0.001716 0.000000
# 3 -0.000163 -0.006194 0.011187 0.000000 -0.005604 0.000000
# 4 0.000000 0.000000 0.000000 0.173704 0.000000 -0.014853
# 5 -0.004413 0.001716 -0.005604 0.000000 0.037817 0.000000
# 6 0.000000 0.000000 0.000000 -0.014853 0.000000 0.041228
#
#
# Mechanical properties :
#
#
# Convention : Reuss Voigt Hill
#
# Bulk Modulus (GPa) = 55.73837 67.02680 61.38259
# Shear Modulus (GPa) = 16.17615 28.71967 22.44791
#
# Velocity S-wave (km/s) = 2.76990 3.69076 3.26298
# Velocity P-wave (km/s) = 6.05529 7.06775 6.58102
#
# Compressibility (1/GPa) = 0.01794096
#
# Stress axis : x y z
#
# Youngs Moduli (GPa) = 90.21003 84.16043 89.39314
#
# Poissons Ratio (x) = 0.14730 0.01453
# Poissons Ratio (y) = 0.15788 0.55368
# Poissons Ratio (z) = 0.01466 0.52127
#
# Static dielectric constant tensor:
#      x y z
#    x 1.858650 0.000000 -0.067990 
#    y 0.000000 1.888380 0.000000 
#    z -0.067990 0.000000 1.777020 
# 
# From -- ./inp_files/9365.got.cif
#   From: 2010.05.17/outbox.cif.g08.bks.cpg/sg13_5_cif.got.tgz:9365.got - 2010.06.03 16:44:36.
