data_PCOD9228681
_publ_section_title
;
Structure prediction by ZEFSAII (Michael W. Deem and Ramdas Pophale) SiO2 
 PCOD9228681
Probable space group: P 2/C
;
_chemical_formula_sum "Si O2"
_cell_formula_units_Z 26
_cell_length_a 7.850324
_cell_length_b 9.142806
_cell_length_c 15.930483
_cell_angle_alpha 90.000000
_cell_angle_beta 103.772048
_cell_angle_gamma 90.000000
_cell_volume 1110.522341
_symmetry_space_group_name_H-M "P 2/C"
_symmetry_group_IT_number 13
_symmetry_cell_setting 'monoclinic'
loop_
_space_group_symop_operation_xyz
x,y,z
-x,y,1/2-z
-x,-y,-z
x,-y,1/2+z
loop_
_atom_site_type_symbol
_atom_site_label
_atom_site_fract_x
_atom_site_fract_y
_atom_site_fract_z
Si Si1 0.698408 0.493548 0.994113
Si Si2 0.500000 0.680446 0.250000
Si Si3 0.253663 0.233931 0.094311
Si Si4 0.330597 0.938272 0.135823
Si Si5 0.143104 0.819291 0.975170
Si Si6 0.178841 0.631274 0.321903
Si Si7 0.693835 0.089388 0.581903
O O1 0.815453 0.554209 0.085687
O O2 0.500000 0.500000 0.000000
O O3 0.707426 0.594628 0.911962
O O4 0.752160 0.326784 0.990159
O O5 0.360880 0.798998 0.196871
O O6 0.365988 0.595428 0.296482
O O7 0.327788 0.107510 0.164801
O O8 0.308373 0.169425 0.008888
O O9 0.046076 0.225897 0.076204
O O10 0.152045 0.911231 0.062947
O O11 0.498499 0.921529 0.094447
O O12 0.231107 0.927403 0.918974
O O13 0.194144 0.803710 0.346097
O O14 0.000000 0.599036 0.250000
#
# Coordination Sequence:
#
# PCOD9228681 Si02
#       7
#     4   2   4   4   4   4   4
#     4  11  22  40  59  85 118 160 197 243 301 351
#     4  10  22  36  62  90 110 160 198 242 302 364
#     4  10  20  32  57  89 112 147 192 242 286 340
#     4  10  19  35  59  85 117 146 195 241 291 350
#     4  11  20  33  60  87 116 144 195 248 286 347
#     4  10  23  40  64  84 120 155 201 247 299 365
#     4   9  18  35  56  87 108 150 184 241 289 335
#
# _framework density 23.412403999999999
#
# number of rings (size 3 to 8) (size 9 to 14) (size 15 to 20)
#    0.000    1.846    0.000    7.846    6.462    0.000 
#    2.769    0.769    3.385    1.846    0.000    0.000 
#    0.000    0.000    0.000    0.000    0.000    0.000 
#
# Total GULP energy -144980.106485 kJ/mol
# GULP energy per Si atom -5576.157942 kJ/mol
# Density = 2.335912 g / cm^3
# Si number density = 23.412404 Si / 1000 Ang^3
#
#
#
# Elastic Constant Matrix: (Units=GPa)
#
#
# Indices 1 2 3 4 5 6 
#
# 1 64.8721 20.1804 -2.2914 0.0000 13.9748 0.0000
# 2 20.1804 117.6759 -2.3481 0.0000 -2.7083 0.0000
# 3 -2.2914 -2.3481 39.3879 0.0000 15.2171 0.0000
# 4 0.0000 0.0000 0.0000 13.9653 0.0000 1.7613
# 5 13.9748 -2.7083 15.2171 0.0000 39.1753 0.0000
# 6 0.0000 0.0000 0.0000 1.7613 0.0000 38.8686
#
#
#
# Elastic Compliance Matrix: (Units=1/GPa)
#
#
# Indices 1 2 3 4 5 6 
#
# 1 0.018380 -0.003263 0.004112 0.000000 -0.008380 0.000000
# 2 -0.003263 0.009094 -0.000400 0.000000 0.001948 0.000000
# 3 0.004112 -0.000400 0.030804 0.000000 -0.013460 0.000000
# 4 0.000000 0.000000 0.000000 0.072017 0.000000 -0.003263
# 5 -0.008380 0.001948 -0.013460 0.000000 0.033878 0.000000
# 6 0.000000 0.000000 0.000000 -0.003263 0.000000 0.025876
#
#
# Mechanical properties :
#
#
# Convention : Reuss Voigt Hill
#
# Bulk Modulus (GPa) = 16.89861 28.11308 22.50584
# Shear Modulus (GPa) = 23.93745 32.16150 28.04948
#
# Velocity S-wave (km/s) = 3.20101 3.71036 3.46506
# Velocity P-wave (km/s) = 4.57115 5.51267 5.06384
#
# Compressibility (1/GPa) = 0.05917647
#
# Stress axis : x y z
#
# Youngs Moduli (GPa) = 54.40599 109.95867 32.46336
#
# Poissons Ratio (x) = 0.35878 -0.13349
# Poissons Ratio (y) = 0.17752 0.01300
# Poissons Ratio (z) = -0.22372 0.04402
#
# Static dielectric constant tensor:
#      x y z
#    x 1.894100 0.000000 -0.005760 
#    y 0.000000 1.977950 0.000000 
#    z -0.005760 0.000000 2.016160 
# 
# From -- ./inp_files/63807.got.cif
#   From: 2010.05.17/outbox.cif.g08.bks.cpg/sg13_32_cif.got.tgz:63807.got - 2010.06.03 16:44:36.
