data_PCOD9228073
_publ_section_title
;
Structure prediction by ZEFSAII (Michael W. Deem and Ramdas Pophale) SiO2 
 PCOD9228073
Probable space group: P 2/C
;
_chemical_formula_sum "Si O2"
_cell_formula_units_Z 32
_cell_length_a 21.447367
_cell_length_b 9.215156
_cell_length_c 30.844891
_cell_angle_alpha 90.000000
_cell_angle_beta 17.155862
_cell_angle_gamma 90.000000
_cell_volume 1798.211607
_symmetry_space_group_name_H-M "P 2/C"
_symmetry_group_IT_number 13
_symmetry_cell_setting 'monoclinic'
loop_
_space_group_symop_operation_xyz
x,y,z
-x,y,1/2-z
-x,-y,-z
x,-y,1/2+z
loop_
_atom_site_type_symbol
_atom_site_label
_atom_site_fract_x
_atom_site_fract_y
_atom_site_fract_z
Si Si1 0.091886 0.844615 0.060489
Si Si2 0.265393 0.349049 0.246802
Si Si3 0.400697 0.925765 0.499443
Si Si4 0.079949 0.236217 0.961423
Si Si5 0.207294 0.102857 0.218165
Si Si6 0.287677 0.680666 0.236027
Si Si7 0.725662 0.948079 0.645266
Si Si8 0.616642 0.153249 0.060215
O O1 0.905325 0.747397 0.164137
O O2 0.262928 0.873240 0.909079
O O3 0.195907 0.783082 0.035043
O O4 0.990352 0.000718 0.139524
O O5 0.207208 0.255124 0.243138
O O6 0.320579 0.514762 0.201313
O O7 0.462874 0.269039 0.139222
O O8 0.060922 0.337030 0.414252
O O9 0.245070 0.886110 0.641876
O O10 0.512203 0.785001 0.404744
O O11 0.593683 0.016322 0.393133
O O12 0.310002 0.035030 0.523721
O O13 0.218390 0.312317 0.832525
O O14 0.216387 0.117627 0.896873
O O15 0.912166 0.136774 0.046786
O O16 0.529126 0.929896 0.807712
#
# Coordination Sequence:
#
# PCOD9228073 Si02
#       8
#     4   4   4   4   4   4   4   4
#     4  10  19  32  52  75 101 131 170 218 261 301
#     4  10  19  32  52  77 105 139 170 206 253 311
#     4   9  18  33  52  73  96 128 173 213 246 294
#     4   9  15  28  51  75  99 131 171 207 244 300
#     4   9  18  33  52  73  96 128 173 213 246 294
#     4  10  19  32  52  77 105 139 170 206 253 311
#     4   9  15  28  51  75  98 125 166 214 255 294
#     4  10  19  32  52  75 101 131 170 218 261 301
#
# _framework density 17.795458
#
# number of rings (size 3 to 8) (size 9 to 14) (size 15 to 20)
#    0.000    2.500    2.500    0.750    0.000    1.000 
#    0.000    1.250    0.000    0.000    0.000    0.000 
#    0.000    0.000    0.000    0.000    0.000    0.000 
#
# Total GULP energy -178249.812649 kJ/mol
# GULP energy per Si atom -5570.306645 kJ/mol
# Density = 1.775496 g / cm^3
# Si number density = 17.795458 Si / 1000 Ang^3
#
#
#
# Elastic Constant Matrix: (Units=GPa)
#
#
# Indices 1 2 3 4 5 6 
#
# 1 85.4404 20.9861 21.7837 0.0000 15.7798 0.0000
# 2 20.9861 91.8236 13.2144 0.0000 13.0024 0.0000
# 3 21.7837 13.2144 37.5913 0.0000 20.5965 0.0000
# 4 0.0000 0.0000 0.0000 5.2912 0.0000 0.5114
# 5 15.7798 13.0024 20.5965 0.0000 29.0821 0.0000
# 6 0.0000 0.0000 0.0000 0.5114 0.0000 9.8279
#
#
#
# Elastic Compliance Matrix: (Units=1/GPa)
#
#
# Indices 1 2 3 4 5 6 
#
# 1 0.014230 -0.002016 -0.006211 0.000000 -0.002421 0.000000
# 2 -0.002016 0.012007 -0.001161 0.000000 -0.003452 0.000000
# 3 -0.006211 -0.001161 0.046536 0.000000 -0.029069 0.000000
# 4 0.000000 0.000000 0.000000 0.189949 0.000000 -0.009884
# 5 -0.002421 -0.003452 -0.029069 0.000000 0.057829 0.000000
# 6 0.000000 0.000000 0.000000 -0.009884 0.000000 0.102266
#
#
# Mechanical properties :
#
#
# Convention : Reuss Voigt Hill
#
# Bulk Modulus (GPa) = 18.51943 36.31377 27.41660
# Shear Modulus (GPa) = 10.87922 19.43165 15.15544
#
# Velocity S-wave (km/s) = 2.47523 3.30804 2.92146
# Velocity P-wave (km/s) = 4.31259 5.91957 5.17879
#
# Compressibility (1/GPa) = 0.05399735
#
# Stress axis : x y z
#
# Youngs Moduli (GPa) = 70.27503 83.28437 21.48870
#
# Poissons Ratio (x) = 0.16786 0.13346
# Poissons Ratio (y) = 0.14164 0.02496
# Poissons Ratio (z) = 0.43647 0.09672
#
# Static dielectric constant tensor:
#      x y z
#    x 1.642870 0.000000 -0.012620 
#    y 0.000000 1.572950 0.000000 
#    z -0.012620 0.000000 1.633090 
# 
# From -- ./inp_files/97542.got.cif
#   From: 2010.05.17/outbox.cif.g08.bks.cpg/sg13_49_cif.got.tgz:97542.got - 2010.06.03 16:44:36.
