data_PCOD9228720
_publ_section_title
;
Structure prediction by ZEFSAII (Michael W. Deem and Ramdas Pophale) SiO2 
 PCOD9228720
Probable space group: P 2/C
;
_chemical_formula_sum "Si O2"
_cell_formula_units_Z 26
_cell_length_a 13.189202
_cell_length_b 15.083870
_cell_length_c 15.263908
_cell_angle_alpha 90.000000
_cell_angle_beta 153.132366
_cell_angle_gamma 90.000000
_cell_volume 1372.363140
_symmetry_space_group_name_H-M "P 2/C"
_symmetry_group_IT_number 13
_symmetry_cell_setting 'monoclinic'
loop_
_space_group_symop_operation_xyz
x,y,z
-x,y,1/2-z
-x,-y,-z
x,-y,1/2+z
loop_
_atom_site_type_symbol
_atom_site_label
_atom_site_fract_x
_atom_site_fract_y
_atom_site_fract_z
Si Si1 0.403963 0.285987 0.416345
Si Si2 0.600311 0.081449 0.136259
Si Si3 0.024754 0.407674 0.430346
Si Si4 0.715846 0.438064 0.688444
Si Si5 0.720358 0.272289 0.976636
Si Si6 0.057470 0.909923 0.892368
Si Si7 0.500000 0.019601 0.250000
O O1 0.446481 0.184848 0.421137
O O2 0.629531 0.345285 0.582718
O O3 0.345698 0.276369 0.473927
O O4 0.189235 0.342038 0.211650
O O5 0.513880 0.070486 0.168725
O O6 0.864535 0.075219 0.314744
O O7 0.500000 0.000000 0.000000
O O8 0.198857 0.420080 0.645606
O O9 0.162478 0.362248 0.460267
O O10 0.923306 0.500650 0.319377
O O11 0.500000 0.500000 0.500000
O O12 0.500000 0.258699 0.750000
O O13 0.886116 0.193247 0.077073
O O14 0.000000 0.942961 0.750000
O O15 0.283548 0.958251 0.090698
#
# Coordination Sequence:
#
# PCOD9228720 Si02
#       7
#     4   4   4   4   4   4   2
#     4  11  21  38  61  95 133 165 219 275 331 393
#     4  12  25  43  69  99 136 183 227 284 334 406
#     4  10  19  35  60  92 125 164 209 269 336 387
#     4   9  20  36  58  88 124 168 205 262 328 397
#     4  12  20  34  65 101 128 166 217 284 343 385
#     4  12  22  42  65 100 136 169 229 287 334 397
#     4  12  26  44  64  94 138 184 226 266 344 408
#
# _framework density 18.945423000000002
#
# number of rings (size 3 to 8) (size 9 to 14) (size 15 to 20)
#    0.000    0.923    6.923    0.923    0.000    0.000 
#    2.769    0.000    0.000   24.000    0.000    0.000 
#    0.000    0.000    0.000    0.000    0.000    0.000 
#
# Total GULP energy -144748.697316 kJ/mol
# GULP energy per Si atom -5567.257589 kJ/mol
# Density = 1.890230 g / cm^3
# Si number density = 18.945423 Si / 1000 Ang^3
#
#
#
# Elastic Constant Matrix: (Units=GPa)
#
#
# Indices 1 2 3 4 5 6 
#
# 1 106.3433 58.0539 22.9257 0.0000 0.0860 0.0000
# 2 58.0539 142.1564 50.1099 0.0000 4.5009 0.0000
# 3 22.9257 50.1099 117.5370 0.0000 -2.2372 0.0000
# 4 0.0000 0.0000 0.0000 30.1517 0.0000 -1.2180
# 5 0.0860 4.5009 -2.2372 0.0000 29.0909 0.0000
# 6 0.0000 0.0000 0.0000 -1.2180 0.0000 21.3882
#
#
#
# Elastic Compliance Matrix: (Units=1/GPa)
#
#
# Indices 1 2 3 4 5 6 
#
# 1 0.012124 -0.004877 -0.000272 0.000000 0.000698 0.000000
# 2 -0.004877 0.010312 -0.003480 0.000000 -0.001849 0.000000
# 3 -0.000272 -0.003480 0.010070 0.000000 0.001314 0.000000
# 4 0.000000 0.000000 0.000000 0.033242 0.000000 0.001893
# 5 0.000698 -0.001849 0.001314 0.000000 0.034760 0.000000
# 6 0.000000 0.000000 0.000000 0.001893 0.000000 0.046862
#
#
# Mechanical properties :
#
#
# Convention : Reuss Voigt Hill
#
# Bulk Modulus (GPa) = 65.58962 69.80174 67.69568
# Shear Modulus (GPa) = 29.46175 31.78930 30.62553
#
# Velocity S-wave (km/s) = 3.94774 4.10071 4.02495
# Velocity P-wave (km/s) = 7.44815 7.70355 7.57693
#
# Compressibility (1/GPa) = 0.01524632
#
# Stress axis : x y z
#
# Youngs Moduli (GPa) = 82.47904 96.97806 99.30800
#
# Poissons Ratio (x) = 0.47301 0.02702
# Poissons Ratio (y) = 0.40229 0.34559
# Poissons Ratio (z) = 0.02244 0.33748
#
# Static dielectric constant tensor:
#      x y z
#    x 1.667700 0.000000 -0.049350 
#    y 0.000000 1.726910 0.000000 
#    z -0.049350 0.000000 1.732680 
# 
# From -- ./inp_files/51539.got.cif
#   From: 2010.05.17/outbox.cif.g08.bks.cpg/sg13_26_cif.got.tgz:51539.got - 2010.06.03 16:44:36.
