data_PCOD9228140
_publ_section_title
;
Structure prediction by ZEFSAII (Michael W. Deem and Ramdas Pophale) SiO2 
 PCOD9228140
Probable space group: P 2/C
;
_chemical_formula_sum "Si O2"
_cell_formula_units_Z 24
_cell_length_a 14.994488
_cell_length_b 9.509778
_cell_length_c 14.362236
_cell_angle_alpha 90.000000
_cell_angle_beta 38.155780
_cell_angle_gamma 90.000000
_cell_volume 1265.240767
_symmetry_space_group_name_H-M "P 2/C"
_symmetry_group_IT_number 13
_symmetry_cell_setting 'monoclinic'
loop_
_space_group_symop_operation_xyz
x,y,z
-x,y,1/2-z
-x,-y,-z
x,-y,1/2+z
loop_
_atom_site_type_symbol
_atom_site_label
_atom_site_fract_x
_atom_site_fract_y
_atom_site_fract_z
Si Si1 0.544036 0.396431 0.607555
Si Si2 0.837686 0.972294 0.526557
Si Si3 0.636795 0.354891 0.918154
Si Si4 0.348792 0.078999 0.993738
Si Si5 0.564442 0.171372 0.295927
Si Si6 0.160162 0.901097 0.278702
O O1 0.500000 0.424757 0.750000
O O2 0.406269 0.398872 0.650830
O O3 0.649900 0.512317 0.475421
O O4 0.610383 0.240661 0.546379
O O5 0.734416 0.845818 0.645956
O O6 0.998831 0.922065 0.373894
O O7 0.754451 0.036282 0.507212
O O8 0.845697 0.081963 0.605222
O O9 0.766969 0.244707 0.811091
O O10 0.498842 0.268915 0.072158
O O11 0.493035 0.983329 0.869183
O O12 0.262632 0.024741 0.154497
O O13 0.500000 0.222020 0.250000
#
# Coordination Sequence:
#
# PCOD9228140 Si02
#       6
#     4   4   4   4   4   4
#     4  11  21  34  55  80 109 143 184 225 266 318
#     4  10  19  32  56  82 107 139 177 223 270 320
#     4  10  21  35  54  81 110 142 180 224 270 318
#     4  10  19  33  55  79 106 139 181 225 267 315
#     4   9  17  32  55  80 103 135 181 225 266 315
#     4  10  20  34  54  81 111 139 176 221 272 323
#
# _framework density 18.968723000000001
#
# number of rings (size 3 to 8) (size 9 to 14) (size 15 to 20)
#    0.000    2.000    0.000    5.500    0.000    2.667 
#    0.000    0.000    0.000   34.000    0.000    0.000 
#    0.000    0.000    0.000    0.000    0.000    0.000 
#
# Total GULP energy -134004.317350 kJ/mol
# GULP energy per Si atom -5583.513223 kJ/mol
# Density = 1.892555 g / cm^3
# Si number density = 18.968723 Si / 1000 Ang^3
#
#
#
# Elastic Constant Matrix: (Units=GPa)
#
#
# Indices 1 2 3 4 5 6 
#
# 1 79.8161 22.1815 35.7137 0.0000 18.2326 0.0000
# 2 22.1815 110.4788 36.5067 0.0000 7.5295 0.0000
# 3 35.7137 36.5067 95.4784 0.0000 2.9291 0.0000
# 4 0.0000 0.0000 0.0000 10.2612 0.0000 -1.3409
# 5 18.2326 7.5295 2.9291 0.0000 39.1813 0.0000
# 6 0.0000 0.0000 0.0000 -1.3409 0.0000 13.9625
#
#
#
# Elastic Compliance Matrix: (Units=1/GPa)
#
#
# Indices 1 2 3 4 5 6 
#
# 1 0.017064 -0.001022 -0.005768 0.000000 -0.007313 0.000000
# 2 -0.001022 0.010536 -0.003607 0.000000 -0.001280 0.000000
# 3 -0.005768 -0.003607 0.013939 0.000000 0.002335 0.000000
# 4 0.000000 0.000000 0.000000 0.098693 0.000000 0.009478
# 5 -0.007313 -0.001280 0.002335 0.000000 0.028997 0.000000
# 6 0.000000 0.000000 0.000000 0.009478 0.000000 0.072531
#
#
# Mechanical properties :
#
#
# Convention : Reuss Voigt Hill
#
# Bulk Modulus (GPa) = 48.20357 52.73079 50.46718
# Shear Modulus (GPa) = 18.55517 25.43910 21.99713
#
# Velocity S-wave (km/s) = 3.13101 3.66609 3.40906
# Velocity P-wave (km/s) = 6.20792 6.76605 6.49298
#
# Compressibility (1/GPa) = 0.02074535
#
# Stress axis : x y z
#
# Youngs Moduli (GPa) = 58.60253 94.91501 71.74353
#
# Poissons Ratio (x) = 0.09698 0.41380
# Poissons Ratio (y) = 0.05988 0.25878
# Poissons Ratio (z) = 0.33801 0.34235
#
# Static dielectric constant tensor:
#      x y z
#    x 1.695510 0.000000 0.046050 
#    y 0.000000 1.662440 0.000000 
#    z 0.046050 0.000000 1.671080 
# 
# From -- ./inp_files/52880.got.cif
#   From: 2010.05.17/outbox.cif.g08.bks.cpg/sg13_27_cif.got.tgz:52880.got - 2010.06.03 16:44:36.
