data_PCOD9228036
_publ_section_title
;
Structure prediction by ZEFSAII (Michael W. Deem and Ramdas Pophale) SiO2 
 PCOD9228036
Probable space group: P 2/C
;
_chemical_formula_sum "Si O2"
_cell_formula_units_Z 28
_cell_length_a 23.774284
_cell_length_b 13.866050
_cell_length_c 21.309169
_cell_angle_alpha 90.000000
_cell_angle_beta 12.005797
_cell_angle_gamma 90.000000
_cell_volume 1461.208886
_symmetry_space_group_name_H-M "P 2/C"
_symmetry_group_IT_number 13
_symmetry_cell_setting 'monoclinic'
loop_
_space_group_symop_operation_xyz
x,y,z
-x,y,1/2-z
-x,-y,-z
x,-y,1/2+z
loop_
_atom_site_type_symbol
_atom_site_label
_atom_site_fract_x
_atom_site_fract_y
_atom_site_fract_z
Si Si1 0.371899 0.574765 0.553778
Si Si2 0.335502 0.207389 0.125432
Si Si3 0.500000 0.953860 0.750000
Si Si4 0.184505 0.913771 0.354989
Si Si5 0.959103 0.251572 0.926214
Si Si6 0.000000 0.828041 0.250000
Si Si7 0.105821 0.530036 0.980440
Si Si8 0.764405 0.061734 0.841424
O O1 0.398931 0.689934 0.524930
O O2 0.242253 0.546621 0.763041
O O3 0.653335 0.516852 0.241726
O O4 0.146359 0.541167 0.750935
O O5 0.073149 0.155139 0.381538
O O6 0.261735 0.229717 0.279012
O O7 0.598954 0.141055 0.839812
O O8 0.760454 0.892912 0.485290
O O9 0.588986 0.994373 0.584873
O O10 0.312571 0.942331 0.147682
O O11 0.055964 0.009315 0.525058
O O12 0.888261 0.229693 0.931649
O O13 0.196520 0.175244 0.685108
O O14 0.008054 0.365378 0.876578
#
# Coordination Sequence:
#
# PCOD9228036 Si02
#       8
#     4   4   2   4   4   2   4   4
#     4   9  17  29  45  68  94 122 158 197 237 287
#     4  10  19  32  50  72 100 131 164 206 251 289
#     4  10  20  34  50  68  98 136 168 202 242 288
#     4  10  20  32  50  74 101 133 166 203 252 297
#     4   9  19  32  49  72 103 133 161 199 244 297
#     4  10  20  32  48  70  98 134 168 194 236 298
#     4   9  17  28  45  68  95 125 155 190 239 287
#     4   9  20  34  50  73 103 133 166 203 246 302
#
# _framework density 19.162216000000001
#
# number of rings (size 3 to 8) (size 9 to 14) (size 15 to 20)
#    0.000    2.571    0.000    1.714    0.000   16.571 
#    0.000    0.000    0.000    0.000    0.000    4.000 
#    0.000    0.000    0.000    0.000    0.000    0.000 
#
# Total GULP energy -155939.290572 kJ/mol
# GULP energy per Si atom -5569.260378 kJ/mol
# Density = 1.911860 g / cm^3
# Si number density = 19.162216 Si / 1000 Ang^3
#
#
#
# Elastic Constant Matrix: (Units=GPa)
#
#
# Indices 1 2 3 4 5 6 
#
# 1 36.8198 11.4927 29.7471 0.0000 -0.5873 0.0000
# 2 11.4927 105.2211 39.8510 0.0000 -17.0481 0.0000
# 3 29.7471 39.8510 79.7339 0.0000 -22.6521 0.0000
# 4 0.0000 0.0000 0.0000 19.4339 0.0000 -6.1954
# 5 -0.5873 -17.0481 -22.6521 0.0000 36.6520 0.0000
# 6 0.0000 0.0000 0.0000 -6.1954 0.0000 18.8347
#
#
#
# Elastic Compliance Matrix: (Units=1/GPa)
#
#
# Indices 1 2 3 4 5 6 
#
# 1 0.042313 0.000947 -0.019337 0.000000 -0.010832 0.000000
# 2 0.000947 0.011895 -0.005728 0.000000 0.002008 0.000000
# 3 -0.019337 -0.005728 0.026411 0.000000 0.013349 0.000000
# 4 0.000000 0.000000 0.000000 0.057484 0.000000 0.018909
# 5 -0.010832 0.002008 0.013349 0.000000 0.036294 0.000000
# 6 0.000000 0.000000 0.000000 0.018909 0.000000 0.059313
#
#
# Mechanical properties :
#
#
# Convention : Reuss Voigt Hill
#
# Bulk Modulus (GPa) = 30.87994 42.66182 36.77088
# Shear Modulus (GPa) = 17.07988 24.36305 20.72147
#
# Velocity S-wave (km/s) = 2.98876 3.56955 3.29199
# Velocity P-wave (km/s) = 5.29719 6.26903 5.80349
#
# Compressibility (1/GPa) = 0.03238348
#
# Stress axis : x y z
#
# Youngs Moduli (GPa) = 23.63314 84.06825 37.86286
#
# Poissons Ratio (x) = -0.07960 0.73215
# Poissons Ratio (y) = -0.02238 0.21688
# Poissons Ratio (z) = 0.45699 0.48154
#
# Static dielectric constant tensor:
#      x y z
#    x 1.732130 0.000000 0.023960 
#    y 0.000000 1.677950 0.000000 
#    z 0.023960 0.000000 1.702140 
# 
# From -- ./inp_files/89556.got.cif
#   From: 2010.05.17/outbox.cif.g08.bks.cpg/sg13_45_cif.got.tgz:89556.got - 2010.06.03 16:44:36.
