data_PCOD9228563
_publ_section_title
;
Structure prediction by ZEFSAII (Michael W. Deem and Ramdas Pophale) SiO2 
 PCOD9228563
Probable space group: P 2/C
;
_chemical_formula_sum "Si O2"
_cell_formula_units_Z 32
_cell_length_a 13.113924
_cell_length_b 15.076587
_cell_length_c 17.358274
_cell_angle_alpha 90.000000
_cell_angle_beta 23.720256
_cell_angle_gamma 90.000000
_cell_volume 1380.579664
_symmetry_space_group_name_H-M "P 2/C"
_symmetry_group_IT_number 13
_symmetry_cell_setting 'monoclinic'
loop_
_space_group_symop_operation_xyz
x,y,z
-x,y,1/2-z
-x,-y,-z
x,-y,1/2+z
loop_
_atom_site_type_symbol
_atom_site_label
_atom_site_fract_x
_atom_site_fract_y
_atom_site_fract_z
Si Si1 0.633631 0.155657 0.557990
Si Si2 0.437141 0.253277 0.170671
Si Si3 0.914740 0.763663 0.436159
Si Si4 0.206014 0.597637 0.282442
Si Si5 0.164037 0.118655 0.248721
Si Si6 0.894552 0.399346 0.161558
Si Si7 0.629152 0.354798 0.584740
Si Si8 0.167377 0.944269 0.323680
O O1 0.746342 0.156085 0.394397
O O2 0.536227 0.253566 0.643028
O O3 0.411597 0.085501 0.702931
O O4 0.861178 0.133149 0.458474
O O5 0.275965 0.255866 0.360957
O O6 0.315925 0.172259 0.207610
O O7 0.357738 0.342529 0.180079
O O8 0.729534 0.237387 0.990250
O O9 0.114198 0.682765 0.298215
O O10 0.045202 0.856771 0.369230
O O11 0.142976 0.501869 0.292612
O O12 0.503151 0.599761 0.098752
O O13 0.052075 0.603798 0.471118
O O14 0.218343 0.015104 0.221302
O O15 0.074090 0.356093 0.102520
O O16 0.500000 0.397035 0.750000
O O17 0.000000 0.000000 0.500000
#
# Coordination Sequence:
#
# PCOD9228563 Si02
#       8
#     4   4   4   4   4   4   4   4
#     4  11  25  43  64  89 126 166 213 259 312 378
#     4  10  20  37  57  87 125 159 200 252 311 375
#     4  10  21  36  57  90 123 158 198 256 317 369
#     4   9  18  32  53  90 126 154 200 255 318 370
#     4  11  25  43  62  90 124 169 210 258 316 373
#     4   9  18  31  55  90 123 159 196 253 320 371
#     4  10  19  34  63  90 124 162 208 263 312 369
#     4  12  25  41  66  92 123 162 208 266 317 374
#
# _framework density 23.17867
#
# number of rings (size 3 to 8) (size 9 to 14) (size 15 to 20)
#    0.000    1.750    3.750    0.375    5.250    0.000 
#    0.000    0.000    0.000    0.750    3.250    0.000 
#    0.000    0.000    0.000    0.000    0.000    0.000 
#
# Total GULP energy -178820.621763 kJ/mol
# GULP energy per Si atom -5588.144430 kJ/mol
# Density = 2.312591 g / cm^3
# Si number density = 23.178670 Si / 1000 Ang^3
#
#
#
# Elastic Constant Matrix: (Units=GPa)
#
#
# Indices 1 2 3 4 5 6 
#
# 1 108.4997 39.7590 36.9491 0.0000 -45.4448 0.0000
# 2 39.7590 135.3991 11.1095 0.0000 -40.7578 0.0000
# 3 36.9491 11.1095 55.3873 0.0000 -33.9384 0.0000
# 4 0.0000 0.0000 0.0000 14.8553 0.0000 -17.4481
# 5 -45.4448 -40.7578 -33.9384 0.0000 47.2815 0.0000
# 6 0.0000 0.0000 0.0000 -17.4481 0.0000 19.0773
#
#
#
# Elastic Compliance Matrix: (Units=1/GPa)
#
#
# Indices 1 2 3 4 5 6 
#
# 1 0.015599 -0.000542 -0.002494 0.000000 0.012735 0.000000
# 2 -0.000542 0.011173 0.006610 0.000000 0.013855 0.000000
# 3 -0.002494 0.006610 0.036445 0.000000 0.029461 0.000000
# 4 0.000000 0.000000 0.000000 -0.906813 0.000000 -0.829373
# 5 0.012735 0.013855 0.029461 0.000000 0.066482 0.000000
# 6 0.000000 0.000000 0.000000 -0.829373 0.000000 -0.706128
#
#
# Mechanical properties :
#
#
# Convention : Reuss Voigt Hill
#
# Bulk Modulus (GPa) = 14.21146 52.76903 33.49025
# Shear Modulus (GPa) = -3.40846 30.34073 13.46613
#
# Velocity S-wave (km/s) = -1.21396 3.62193 2.41295
# Velocity P-wave (km/s) = 2.04441 6.34876 4.71627
#
# Compressibility (1/GPa) = 0.07036573
#
# Stress axis : x y z
#
# Youngs Moduli (GPa) = 64.10791 89.50059 27.43887
#
# Poissons Ratio (x) = 0.04853 0.06842
# Poissons Ratio (y) = 0.03476 -0.18138
# Poissons Ratio (z) = 0.15986 -0.59164
#
# Static dielectric constant tensor:
#      x y z
#    x 1.902430 0.000000 0.027690 
#    y 0.000000 1.801120 0.000000 
#    z 0.027690 0.000000 1.941800 
# 
# From -- ./inp_files/80346.got.cif
#   From: 2010.05.17/outbox.cif.g08.bks.cpg/sg13_41_cif.got.tgz:80346.got - 2010.06.03 16:44:36.
