data_PCOD9228663
_publ_section_title
;
Structure prediction by ZEFSAII (Michael W. Deem and Ramdas Pophale) SiO2 
 PCOD9228663
Probable space group: P 2/C
;
_chemical_formula_sum "Si O2"
_cell_formula_units_Z 28
_cell_length_a 11.049482
_cell_length_b 12.558894
_cell_length_c 18.357829
_cell_angle_alpha 90.000000
_cell_angle_beta 32.808878
_cell_angle_gamma 90.000000
_cell_volume 1380.334853
_symmetry_space_group_name_H-M "P 2/C"
_symmetry_group_IT_number 13
_symmetry_cell_setting 'monoclinic'
loop_
_space_group_symop_operation_xyz
x,y,z
-x,y,1/2-z
-x,-y,-z
x,-y,1/2+z
loop_
_atom_site_type_symbol
_atom_site_label
_atom_site_fract_x
_atom_site_fract_y
_atom_site_fract_z
Si Si1 0.283114 0.560606 0.494200
Si Si2 0.955004 0.232245 0.357913
Si Si3 0.421248 0.882167 0.643032
Si Si4 0.878902 0.606098 0.532960
Si Si5 0.000000 0.542249 0.250000
Si Si6 0.756799 0.674830 0.249373
Si Si7 0.500000 0.235944 0.250000
Si Si8 0.481427 0.127282 0.573662
O O1 0.105838 0.657499 0.569660
O O2 0.266260 0.452627 0.456752
O O3 0.206172 0.525840 0.613842
O O4 0.525649 0.610021 0.360045
O O5 0.730866 0.161051 0.471910
O O6 0.000000 0.258209 0.250000
O O7 0.170376 0.165517 0.272810
O O8 0.534203 0.835124 0.659324
O O9 0.524128 0.852772 0.511353
O O10 0.427594 0.009731 0.629929
O O11 0.708328 0.684618 0.658205
O O12 0.000000 0.500000 0.500000
O O13 0.087066 0.674230 0.399369
O O14 0.900332 0.614297 0.237273
O O15 0.693065 0.791965 0.304416
#
# Coordination Sequence:
#
# PCOD9228663 Si02
#       8
#     4   4   4   4   2   4   2   4
#     4  10  19  35  58  87 123 162 202 246 308 375
#     4   9  17  35  60  89 122 162 205 254 316 374
#     4  10  22  41  64  91 125 165 211 268 316 380
#     4  11  24  41  58  89 128 171 204 252 314 378
#     4  10  20  32  56  92 122 152 194 258 306 364
#     4  10  22  37  60  90 118 157 205 259 311 368
#     4  12  26  42  64  92 128 170 218 256 316 392
#     4   9  21  41  65  92 120 160 213 271 324 365
#
# _framework density 20.284932999999999
#
# number of rings (size 3 to 8) (size 9 to 14) (size 15 to 20)
#    0.000    2.000    0.714    2.143    4.000    2.286 
#    3.857    5.714    0.000    0.000    0.000    0.000 
#    0.000    0.000    0.000    0.000    0.000    0.000 
#
# Total GULP energy -155980.610580 kJ/mol
# GULP energy per Si atom -5570.736092 kJ/mol
# Density = 2.023876 g / cm^3
# Si number density = 20.284933 Si / 1000 Ang^3
#
#
#
# Elastic Constant Matrix: (Units=GPa)
#
#
# Indices 1 2 3 4 5 6 
#
# 1 48.0494 22.0970 15.3255 0.0000 4.2585 0.0000
# 2 22.0970 104.8213 53.2947 0.0000 10.8540 0.0000
# 3 15.3255 53.2947 110.8649 0.0000 -1.8201 0.0000
# 4 0.0000 0.0000 0.0000 31.9508 0.0000 9.9286
# 5 4.2585 10.8540 -1.8201 0.0000 20.4007 0.0000
# 6 0.0000 0.0000 0.0000 9.9286 0.0000 13.8002
#
#
#
# Elastic Compliance Matrix: (Units=1/GPa)
#
#
# Indices 1 2 3 4 5 6 
#
# 1 0.023310 -0.003904 -0.001394 0.000000 -0.002913 0.000000
# 2 -0.003904 0.014457 -0.006532 0.000000 -0.007459 0.000000
# 3 -0.001394 -0.006532 0.012433 0.000000 0.004876 0.000000
# 4 0.000000 0.000000 0.000000 0.040310 0.000000 -0.029001
# 5 -0.002913 -0.007459 0.004876 0.000000 0.054030 0.000000
# 6 0.000000 0.000000 0.000000 -0.029001 0.000000 0.093328
#
#
# Mechanical properties :
#
#
# Convention : Reuss Voigt Hill
#
# Bulk Modulus (GPa) = 37.67875 49.46335 43.57105
# Shear Modulus (GPa) = 18.49295 24.76490 21.62892
#
# Velocity S-wave (km/s) = 3.02265 3.49786 3.26890
# Velocity P-wave (km/s) = 5.54950 6.38362 5.98112
#
# Compressibility (1/GPa) = 0.02654016
#
# Stress axis : x y z
#
# Youngs Moduli (GPa) = 42.90040 69.17216 80.43166
#
# Poissons Ratio (x) = 0.27003 0.11208
# Poissons Ratio (y) = 0.16747 0.52541
# Poissons Ratio (z) = 0.05978 0.45186
#
# Static dielectric constant tensor:
#      x y z
#    x 1.782940 0.000000 0.032080 
#    y 0.000000 1.718780 0.000000 
#    z 0.032080 0.000000 1.714200 
# 
# From -- ./inp_files/78578.got.cif
#   From: 2010.05.17/outbox.cif.g08.bks.cpg/sg13_40_cif.got.tgz:78578.got - 2010.06.03 16:44:36.
