data_PCOD9228121
_publ_section_title
;
Structure prediction by ZEFSAII (Michael W. Deem and Ramdas Pophale) SiO2 
 PCOD9228121
Probable space group: P 2/C
;
_chemical_formula_sum "Si O2"
_cell_formula_units_Z 24
_cell_length_a 17.305317
_cell_length_b 9.980922
_cell_length_c 11.896454
_cell_angle_alpha 90.000000
_cell_angle_beta 31.022029
_cell_angle_gamma 90.000000
_cell_volume 1058.972938
_symmetry_space_group_name_H-M "P 2/C"
_symmetry_group_IT_number 13
_symmetry_cell_setting 'monoclinic'
loop_
_space_group_symop_operation_xyz
x,y,z
-x,y,1/2-z
-x,-y,-z
x,-y,1/2+z
loop_
_atom_site_type_symbol
_atom_site_label
_atom_site_fract_x
_atom_site_fract_y
_atom_site_fract_z
Si Si1 0.843672 0.063456 0.162802
Si Si2 0.666384 0.135333 0.581351
Si Si3 0.682248 0.157333 0.167645
Si Si4 0.323579 0.538664 0.856967
Si Si5 0.324418 0.517535 0.101989
Si Si6 0.351986 0.190896 0.653168
O O1 0.783280 0.156577 0.336966
O O2 0.827198 0.138533 0.065406
O O3 0.729192 0.939509 0.292142
O O4 0.000000 0.000000 0.000000
O O5 0.500000 0.168990 0.750000
O O6 0.701547 0.210240 0.652550
O O7 0.670231 0.975920 0.607860
O O8 0.679291 0.301628 0.115690
O O9 0.529733 0.162024 0.432065
O O10 0.496052 0.487811 0.628811
O O11 0.265005 0.531190 0.799298
O O12 0.264446 0.480203 0.051158
O O13 0.316775 0.677645 0.128122
#
# Coordination Sequence:
#
# PCOD9228121 Si02
#       6
#     4   4   4   4   4   4
#     4  11  22  34  51  82 116 144 184 235 285 336
#     4  11  18  32  55  77 105 148 185 224 276 341
#     4  10  19  32  54  79 107 147 188 226 278 346
#     4   9  18  31  51  77 113 145 190 235 292 332
#     4   9  18  32  50  80 110 146 186 243 283 338
#     4  10  19  33  53  80 108 145 189 225 280 342
#
# _framework density 22.663468000000002
#
# number of rings (size 3 to 8) (size 9 to 14) (size 15 to 20)
#    0.000    2.000    3.333    2.000    2.333    4.000 
#    3.000    0.000    0.000    1.000    0.000    2.333 
#    0.000    0.000    0.000    0.000    0.000    0.000 
#
# Total GULP energy -133822.151427 kJ/mol
# GULP energy per Si atom -5575.922976 kJ/mol
# Density = 2.261188 g / cm^3
# Si number density = 22.663468 Si / 1000 Ang^3
#
#
#
# Elastic Constant Matrix: (Units=GPa)
#
#
# Indices 1 2 3 4 5 6 
#
# 1 135.6460 12.4833 59.3508 0.0000 39.9298 0.0000
# 2 12.4833 69.1916 -1.0627 0.0000 11.1816 0.0000
# 3 59.3508 -1.0627 42.0074 0.0000 18.6733 0.0000
# 4 0.0000 0.0000 0.0000 11.5310 0.0000 8.5109
# 5 39.9298 11.1816 18.6733 0.0000 49.2599 0.0000
# 6 0.0000 0.0000 0.0000 8.5109 0.0000 11.4451
#
#
#
# Elastic Compliance Matrix: (Units=1/GPa)
#
#
# Indices 1 2 3 4 5 6 
#
# 1 0.021857 -0.003363 -0.028178 0.000000 -0.006272 0.000000
# 2 -0.003363 0.015704 0.006640 0.000000 -0.003356 0.000000
# 3 -0.028178 0.006640 0.065306 0.000000 -0.003423 0.000000
# 4 0.000000 0.000000 0.000000 0.192234 0.000000 -0.142951
# 5 -0.006272 -0.003356 -0.003423 0.000000 0.027444 0.000000
# 6 0.000000 0.000000 0.000000 -0.142951 0.000000 0.193676
#
#
# Mechanical properties :
#
#
# Convention : Reuss Voigt Hill
#
# Bulk Modulus (GPa) = 18.84452 43.15418 30.99935
# Shear Modulus (GPa) = 8.56590 26.18544 17.37567
#
# Velocity S-wave (km/s) = 1.94623 3.40281 2.77191
# Velocity P-wave (km/s) = 3.65833 5.87550 4.89412
#
# Compressibility (1/GPa) = 0.05306582
#
# Stress axis : x y z
#
# Youngs Moduli (GPa) = 45.75228 63.67964 15.31253
#
# Poissons Ratio (x) = 0.21412 0.43147
# Poissons Ratio (y) = 0.15384 -0.10167
# Poissons Ratio (z) = 1.28919 -0.42283
#
# Static dielectric constant tensor:
#      x y z
#    x 1.914370 0.000000 0.067910 
#    y 0.000000 4.878530 0.000000 
#    z 0.067910 0.000000 1.803110 
# 
# From -- ./inp_files/36988.got.cif
#   From: 2010.05.17/outbox.cif.g08.bks.cpg/sg13_19_cif.got.tgz:36988.got - 2010.06.03 16:44:36.
