data_PCOD9228891
_publ_section_title
;
Structure prediction by ZEFSAII (Michael W. Deem and Ramdas Pophale) SiO2 
 PCOD9228891
Probable space group: P 2/C
;
_chemical_formula_sum "Si O2"
_cell_formula_units_Z 16
_cell_length_a 9.918218
_cell_length_b 8.329786
_cell_length_c 23.774917
_cell_angle_alpha 90.000000
_cell_angle_beta 24.832292
_cell_angle_gamma 90.000000
_cell_volume 824.894096
_symmetry_space_group_name_H-M "P 2/C"
_symmetry_group_IT_number 13
_symmetry_cell_setting 'monoclinic'
loop_
_space_group_symop_operation_xyz
x,y,z
-x,y,1/2-z
-x,-y,-z
x,-y,1/2+z
loop_
_atom_site_type_symbol
_atom_site_label
_atom_site_fract_x
_atom_site_fract_y
_atom_site_fract_z
Si Si1 0.723707 0.335746 0.719235
Si Si2 0.686980 0.250178 0.421122
Si Si3 0.414936 0.501853 0.942449
Si Si4 0.032683 0.926830 0.172954
O O1 0.500000 0.320263 0.750000
O O2 0.557563 0.448815 0.829015
O O3 0.068866 0.411046 0.571590
O O4 0.785515 0.165216 0.726805
O O5 0.631591 0.348431 0.499300
O O6 0.663855 0.382407 0.380886
O O7 0.379707 0.138756 0.523070
O O8 0.966947 0.120089 0.325417
O O9 0.000000 0.872813 0.250000
#
# Coordination Sequence:
#
# PCOD9228891 Si02
#       4
#     4   4   4   4
#     4  11  23  40  59  88 127 163 196 242 302 364
#     4   9  20  34  61  91 113 152 204 254 296 340
#     4  10  21  38  63  90 119 156 203 251 296 352
#     4  10  19  36  59  85 119 155 198 250 298 351
#
# _framework density 19.396431
#
# number of rings (size 3 to 8) (size 9 to 14) (size 15 to 20)
#    0.000    2.000    2.500    0.750    3.500    0.000 
#    0.000    2.500    0.000    0.000    0.000    0.000 
#    0.000    0.000    0.000    0.000    0.000    0.000 
#
# Total GULP energy -89231.447244 kJ/mol
# GULP energy per Si atom -5576.965453 kJ/mol
# Density = 1.935228 g / cm^3
# Si number density = 19.396431 Si / 1000 Ang^3
#
#
#
# Elastic Constant Matrix: (Units=GPa)
#
#
# Indices 1 2 3 4 5 6 
#
# 1 120.5554 50.0436 71.1450 0.0000 3.9335 0.0000
# 2 50.0436 110.8268 48.3518 0.0000 0.9303 0.0000
# 3 71.1450 48.3518 95.6620 0.0000 -1.9188 0.0000
# 4 0.0000 0.0000 0.0000 29.1758 0.0000 -2.5055
# 5 3.9335 0.9303 -1.9188 0.0000 26.9703 0.0000
# 6 0.0000 0.0000 0.0000 -2.5055 0.0000 10.3372
#
#
#
# Elastic Compliance Matrix: (Units=1/GPa)
#
#
# Indices 1 2 3 4 5 6 
#
# 1 0.015528 -0.002467 -0.010360 0.000000 -0.002917 0.000000
# 2 -0.002467 0.011986 -0.004230 0.000000 -0.000355 0.000000
# 3 -0.010360 -0.004230 0.020359 0.000000 0.003105 0.000000
# 4 0.000000 0.000000 0.000000 0.035004 0.000000 0.008484
# 5 -0.002917 -0.000355 0.003105 0.000000 0.037736 0.000000
# 6 0.000000 0.000000 0.000000 0.008484 0.000000 0.098794
#
#
# Mechanical properties :
#
#
# Convention : Reuss Voigt Hill
#
# Bulk Modulus (GPa) = 72.68688 74.01390 73.35039
# Shear Modulus (GPa) = 19.37176 23.79692 21.58434
#
# Velocity S-wave (km/s) = 3.16369 3.50647 3.33948
# Velocity P-wave (km/s) = 7.13449 7.39156 7.26416
#
# Compressibility (1/GPa) = 0.01375764
#
# Stress axis : x y z
#
# Youngs Moduli (GPa) = 64.39918 83.43218 49.11921
#
# Poissons Ratio (x) = 0.20586 0.50887
# Poissons Ratio (y) = 0.15890 0.20778
# Poissons Ratio (z) = 0.66717 0.35294
#
# Static dielectric constant tensor:
#      x y z
#    x 1.626680 0.000000 -0.002160 
#    y 0.000000 1.720160 0.000000 
#    z -0.002160 0.000000 1.772330 
# 
# From -- ./inp_files/15097.got.cif
#   From: 2010.05.17/outbox.cif.g08.bks.cpg/sg13_8_cif.got.tgz:15097.got - 2010.06.03 16:44:36.
