data_PCOD9228013
_publ_section_title
;
Structure prediction by ZEFSAII (Michael W. Deem and Ramdas Pophale) SiO2 
 PCOD9228013
Probable space group: P 2/C
;
_chemical_formula_sum "Si O2"
_cell_formula_units_Z 26
_cell_length_a 11.031404
_cell_length_b 9.569540
_cell_length_c 13.164828
_cell_angle_alpha 90.000000
_cell_angle_beta 89.945065
_cell_angle_gamma 90.000000
_cell_volume 1389.750509
_symmetry_space_group_name_H-M "P 2/C"
_symmetry_group_IT_number 13
_symmetry_cell_setting 'monoclinic'
loop_
_space_group_symop_operation_xyz
x,y,z
-x,y,1/2-z
-x,-y,-z
x,-y,1/2+z
loop_
_atom_site_type_symbol
_atom_site_label
_atom_site_fract_x
_atom_site_fract_y
_atom_site_fract_z
Si Si1 0.695946 0.579286 0.355478
Si Si2 0.964870 0.459267 0.385076
Si Si3 0.500000 0.619323 0.750000
Si Si4 0.201006 0.627061 0.344118
Si Si5 0.324722 0.351612 0.422181
Si Si6 0.920655 0.815902 0.575506
Si Si7 0.039255 0.132537 0.866527
O O1 0.825716 0.503844 0.374854
O O2 0.597298 0.473102 0.311710
O O3 0.732496 0.673032 0.259166
O O4 0.648171 0.649644 0.457957
O O5 0.000000 0.500000 0.500000
O O6 0.076197 0.537690 0.327514
O O7 0.983098 0.293212 0.377248
O O8 0.574927 0.692518 0.659728
O O9 0.286959 0.514230 0.399170
O O10 0.153137 0.768271 0.394323
O O11 0.207573 0.256209 0.405723
O O12 0.941793 0.827560 0.453417
O O13 0.932796 0.969692 0.620392
O O14 0.000000 0.161078 0.750000
#
# Coordination Sequence:
#
# PCOD9228013 Si02
#       7
#     4   4   2   4   4   4   4
#     4  11  19  33  56  78 110 135 180 230 267 322
#     4  11  17  33  56  82 110 141 171 218 279 330
#     4  10  24  32  52  84 102 142 188 228 274 308
#     4  10  19  31  55  83 105 143 176 213 280 332
#     4  10  19  38  55  75 107 140 185 231 263 318
#     4  10  21  33  52  82 112 142 176 215 275 330
#     4  11  20  31  48  82 118 142 169 211 276 338
#
# _framework density 18.708393999999998
#
# number of rings (size 3 to 8) (size 9 to 14) (size 15 to 20)
#    0.000    1.538    4.615    2.769    0.000    3.692 
#    0.000    0.000    0.000    3.692    0.000   20.462 
#    0.000    0.000    0.000    0.000    0.000    0.000 
#
# Total GULP energy -144822.754749 kJ/mol
# GULP energy per Si atom -5570.105952 kJ/mol
# Density = 1.866581 g / cm^3
# Si number density = 18.708394 Si / 1000 Ang^3
#
#
#
# Elastic Constant Matrix: (Units=GPa)
#
#
# Indices 1 2 3 4 5 6 
#
# 1 58.5383 -1.4648 24.2147 0.0000 -15.8073 0.0000
# 2 -1.4648 94.2127 -1.4393 0.0000 -14.3614 0.0000
# 3 24.2147 -1.4393 104.4839 0.0000 -38.3585 0.0000
# 4 0.0000 0.0000 0.0000 14.0259 0.0000 -3.6524
# 5 -15.8073 -14.3614 -38.3585 0.0000 39.1217 0.0000
# 6 0.0000 0.0000 0.0000 -3.6524 0.0000 11.9207
#
#
#
# Elastic Compliance Matrix: (Units=1/GPa)
#
#
# Indices 1 2 3 4 5 6 
#
# 1 0.019727 0.001212 -0.002290 0.000000 0.006171 0.000000
# 2 0.001212 0.011793 0.002579 0.000000 0.007347 0.000000
# 3 -0.002290 0.002579 0.015850 0.000000 0.015563 0.000000
# 4 0.000000 0.000000 0.000000 0.077479 0.000000 0.023739
# 5 0.006171 0.007347 0.015563 0.000000 0.046011 0.000000
# 6 0.000000 0.000000 0.000000 0.023739 0.000000 0.091161
#
#
# Mechanical properties :
#
#
# Convention : Reuss Voigt Hill
#
# Bulk Modulus (GPa) = 19.85201 33.31736 26.58469
# Shear Modulus (GPa) = 18.12856 28.74195 23.43525
#
# Velocity S-wave (km/s) = 3.11626 3.92383 3.54313
# Velocity P-wave (km/s) = 4.85618 6.19484 5.56590
#
# Compressibility (1/GPa) = 0.05037273
#
# Stress axis : x y z
#
# Youngs Moduli (GPa) = 50.69304 84.79941 63.08957
#
# Poissons Ratio (x) = -0.10281 0.14445
# Poissons Ratio (y) = -0.06146 -0.16270
# Poissons Ratio (z) = 0.11607 -0.21869
#
# Static dielectric constant tensor:
#      x y z
#    x 1.647320 0.000000 -0.025520 
#    y 0.000000 1.642140 0.000000 
#    z -0.025520 0.000000 1.738910 
# 
# From -- ./inp_files/49633.got.cif
#   From: 2010.05.17/outbox.cif.g08.bks.cpg/sg13_25_cif.got.tgz:49633.got - 2010.06.03 16:44:36.
