data_PCOD9228936
_publ_section_title
;
Structure prediction by ZEFSAII (Michael W. Deem and Ramdas Pophale) SiO2 
 PCOD9228936
Probable space group: P 2/C
;
_chemical_formula_sum "Si O2"
_cell_formula_units_Z 28
_cell_length_a 30.215996
_cell_length_b 9.444117
_cell_length_c 30.297962
_cell_angle_alpha 90.000000
_cell_angle_beta 170.406841
_cell_angle_gamma 90.000000
_cell_volume 1440.852966
_symmetry_space_group_name_H-M "P 2/C"
_symmetry_group_IT_number 13
_symmetry_cell_setting 'monoclinic'
loop_
_space_group_symop_operation_xyz
x,y,z
-x,y,1/2-z
-x,-y,-z
x,-y,1/2+z
loop_
_atom_site_type_symbol
_atom_site_label
_atom_site_fract_x
_atom_site_fract_y
_atom_site_fract_z
Si Si1 0.500000 0.553500 0.250000
Si Si2 0.000000 0.760885 0.750000
Si Si3 0.220197 0.037128 0.998801
Si Si4 0.216742 0.178862 0.229163
Si Si5 0.730626 0.668808 0.904846
Si Si6 0.231846 0.523066 0.763306
Si Si7 0.762832 0.125352 0.715499
Si Si8 0.259625 0.334377 0.877319
O O1 0.744200 0.657870 0.505128
O O2 0.382722 0.444133 0.171330
O O3 0.087814 0.878767 0.874316
O O4 0.500000 0.009478 0.250000
O O5 0.279229 0.164539 0.090883
O O6 0.000000 0.106674 0.750000
O O7 0.228020 0.312514 0.271488
O O8 0.477580 0.163234 0.455485
O O9 0.189925 0.039840 0.231875
O O10 0.977259 0.193049 0.959245
O O11 0.547461 0.652684 0.681561
O O12 0.034406 0.635788 0.191622
O O13 0.224170 0.431389 0.799511
O O14 0.000000 0.500000 0.500000
O O15 0.500000 0.500000 0.000000
O O16 0.782511 0.179179 0.685285
#
# Coordination Sequence:
#
# PCOD9228936 Si02
#       8
#     2   2   4   4   4   4   4   4
#     4  12  24  44  68 102 132 180 208 280 340 396
#     4  10  22  40  74  98 124 162 232 260 328 412
#     4  10  20  42  68  98 117 169 218 260 315 413
#     4  10  19  36  61  86 115 166 206 262 304 391
#     4  12  26  41  68  95 137 167 225 269 330 397
#     4  12  21  38  63  88 124 169 211 258 327 388
#     4  10  20  36  60  87 118 155 221 254 313 361
#     4  12  24  39  59 102 127 172 217 280 317 385
#
# _framework density 19.432933999999999
#
# number of rings (size 3 to 8) (size 9 to 14) (size 15 to 20)
#    0.429    0.571    4.286    3.429    1.000    0.000 
#    0.000    4.286    0.000    0.000    0.000    0.000 
#    0.000    0.000    0.000    0.000    0.000    0.000 
#
# Total GULP energy -155977.573728 kJ/mol
# GULP energy per Si atom -5570.627633 kJ/mol
# Density = 1.938870 g / cm^3
# Si number density = 19.432934 Si / 1000 Ang^3
#
#
#
# Elastic Constant Matrix: (Units=GPa)
#
#
# Indices 1 2 3 4 5 6 
#
# 1 45.0159 29.0834 -9.6343 0.0000 0.8863 0.0000
# 2 29.0834 125.0264 -4.7047 0.0000 -4.4085 0.0000
# 3 -9.6343 -4.7047 102.4561 0.0000 -9.4433 0.0000
# 4 0.0000 0.0000 0.0000 27.8351 0.0000 -0.6419
# 5 0.8863 -4.4085 -9.4433 0.0000 27.5001 0.0000
# 6 0.0000 0.0000 0.0000 -0.6419 0.0000 23.9783
#
#
#
# Elastic Compliance Matrix: (Units=1/GPa)
#
#
# Indices 1 2 3 4 5 6 
#
# 1 0.026673 -0.006164 0.002122 0.000000 -0.001119 0.000000
# 2 -0.006164 0.009494 0.000015 0.000000 0.001726 0.000000
# 3 0.002122 0.000015 0.010280 0.000000 0.003464 0.000000
# 4 0.000000 0.000000 0.000000 0.035948 0.000000 0.000962
# 5 -0.001119 0.001726 0.003464 0.000000 0.037866 0.000000
# 6 0.000000 0.000000 0.000000 0.000962 0.000000 0.041730
#
#
# Mechanical properties :
#
#
# Convention : Reuss Voigt Hill
#
# Bulk Modulus (GPa) = 26.04667 33.55414 29.80040
# Shear Modulus (GPa) = 27.34603 33.04630 30.19617
#
# Velocity S-wave (km/s) = 3.75534 4.12822 3.94619
# Velocity P-wave (km/s) = 5.67766 6.32670 6.01095
#
# Compressibility (1/GPa) = 0.03839263
#
# Stress axis : x y z
#
# Youngs Moduli (GPa) = 37.49103 105.33351 97.27818
#
# Poissons Ratio (x) = 0.64930 -0.20642
# Poissons Ratio (y) = 0.23110 -0.00150
# Poissons Ratio (z) = -0.07955 -0.00162
#
# Static dielectric constant tensor:
#      x y z
#    x 1.657610 0.000000 0.009480 
#    y 0.000000 1.758200 0.000000 
#    z 0.009480 0.000000 1.681350 
# 
# From -- ./inp_files/98129.got.cif
#   From: 2010.05.17/outbox.cif.g08.bks.cpg/sg13_50_cif.got.tgz:98129.got - 2010.06.03 16:44:36.
