data_PCOD9228315
_publ_section_title
;
Structure prediction by ZEFSAII (Michael W. Deem and Ramdas Pophale) SiO2 
 PCOD9228315
Probable space group: P 2/C
;
_chemical_formula_sum "Si O2"
_cell_formula_units_Z 26
_cell_length_a 10.414923
_cell_length_b 19.448884
_cell_length_c 12.579316
_cell_angle_alpha 90.000000
_cell_angle_beta 35.950438
_cell_angle_gamma 90.000000
_cell_volume 1495.921903
_symmetry_space_group_name_H-M "P 2/C"
_symmetry_group_IT_number 13
_symmetry_cell_setting 'monoclinic'
loop_
_space_group_symop_operation_xyz
x,y,z
-x,y,1/2-z
-x,-y,-z
x,-y,1/2+z
loop_
_atom_site_type_symbol
_atom_site_label
_atom_site_fract_x
_atom_site_fract_y
_atom_site_fract_z
Si Si1 0.418945 0.942284 0.973463
Si Si2 0.847927 0.674348 0.247310
Si Si3 0.107622 0.074047 0.404109
Si Si4 0.563952 0.561240 0.536668
Si Si5 0.860563 0.439379 0.039107
Si Si6 0.000000 0.031211 0.250000
Si Si7 0.857270 0.170050 0.737496
O O1 0.629468 0.926558 0.760201
O O2 0.347637 0.875873 0.088672
O O3 0.500000 0.000000 0.000000
O O4 0.196371 0.979355 0.082302
O O5 0.643026 0.627966 0.419263
O O6 0.801157 0.751924 0.243576
O O7 0.000000 0.680012 0.250000
O O8 0.987234 0.627332 0.074179
O O9 0.065296 0.078442 0.305668
O O10 0.990224 0.130463 0.556059
O O11 0.000000 0.000000 0.500000
O O12 0.500000 0.500000 0.500000
O O13 0.349594 0.576153 0.748826
O O14 0.759393 0.542940 0.489724
O O15 0.000000 0.500000 0.000000
O O16 0.000000 0.172586 0.750000
#
# Coordination Sequence:
#
# PCOD9228315 Si02
#       7
#     4   4   4   4   4   2   4
#     4  10  19  36  54  81 107 142 190 231 278 333
#     4   9  20  35  54  82 117 141 175 231 286 329
#     4  11  21  35  56  82 108 145 190 234 281 335
#     4  10  19  33  57  86 112 145 186 228 276 334
#     4  10  19  33  57  86 111 146 186 227 278 333
#     4  10  20  36  54  82 108 140 196 234 280 332
#     4  11  21  37  55  83 115 145 183 235 290 334
#
# _framework density 17.380587999999999
#
# number of rings (size 3 to 8) (size 9 to 14) (size 15 to 20)
#    0.000    1.846    5.385    0.000    0.000    3.692 
#    0.000    3.077    0.000    9.231    0.000    0.000 
#    0.000    0.000    0.000    0.000    0.000    0.000 
#
# Total GULP energy -144815.129462 kJ/mol
# GULP energy per Si atom -5569.812672 kJ/mol
# Density = 1.734103 g / cm^3
# Si number density = 17.380588 Si / 1000 Ang^3
#
#
#
# Elastic Constant Matrix: (Units=GPa)
#
#
# Indices 1 2 3 4 5 6 
#
# 1 79.8838 45.6283 36.0392 0.0000 3.6226 0.0000
# 2 45.6283 167.1731 74.1283 0.0000 1.5247 0.0000
# 3 36.0392 74.1283 154.2004 0.0000 -3.1358 0.0000
# 4 0.0000 0.0000 0.0000 20.6590 0.0000 1.5690
# 5 3.6226 1.5247 -3.1358 0.0000 26.4244 0.0000
# 6 0.0000 0.0000 0.0000 1.5690 0.0000 23.1711
#
#
#
# Elastic Compliance Matrix: (Units=1/GPa)
#
#
# Indices 1 2 3 4 5 6 
#
# 1 0.015420 -0.003268 -0.002077 0.000000 -0.002172 0.000000
# 2 -0.003268 0.008315 -0.003242 0.000000 -0.000416 0.000000
# 3 -0.002077 -0.003242 0.008559 0.000000 0.001488 0.000000
# 4 0.000000 0.000000 0.000000 0.048655 0.000000 -0.003295
# 5 -0.002172 -0.000416 0.001488 0.000000 0.038342 0.000000
# 6 0.000000 0.000000 0.000000 -0.003295 0.000000 0.043380
#
#
# Mechanical properties :
#
#
# Convention : Reuss Voigt Hill
#
# Bulk Modulus (GPa) = 66.13514 79.20544 72.67029
# Shear Modulus (GPa) = 27.04353 30.41500 28.72927
#
# Velocity S-wave (km/s) = 3.94885 4.18777 4.07006
# Velocity P-wave (km/s) = 7.67626 8.30983 7.99932
#
# Compressibility (1/GPa) = 0.01512056
#
# Stress axis : x y z
#
# Youngs Moduli (GPa) = 64.84920 120.26214 116.83181
#
# Poissons Ratio (x) = 0.39301 0.24268
# Poissons Ratio (y) = 0.21193 0.37877
# Poissons Ratio (z) = 0.13470 0.38989
#
# Static dielectric constant tensor:
#      x y z
#    x 1.650870 0.000000 -0.008160 
#    y 0.000000 1.564350 0.000000 
#    z -0.008160 0.000000 1.619230 
# 
# From -- ./inp_files/51566.got.cif
#   From: 2010.05.17/outbox.cif.g08.bks.cpg/sg13_26_cif.got.tgz:51566.got - 2010.06.03 16:44:36.
