data_PCOD9228697
_publ_section_title
;
Structure prediction by ZEFSAII (Michael W. Deem and Ramdas Pophale) SiO2 
 PCOD9228697
Probable space group: P 2/C
;
_chemical_formula_sum "Si O2"
_cell_formula_units_Z 26
_cell_length_a 7.491959
_cell_length_b 32.032511
_cell_length_c 5.346072
_cell_angle_alpha 90.000000
_cell_angle_beta 114.111912
_cell_angle_gamma 90.000000
_cell_volume 1171.042538
_symmetry_space_group_name_H-M "P 2/C"
_symmetry_group_IT_number 13
_symmetry_cell_setting 'monoclinic'
loop_
_space_group_symop_operation_xyz
x,y,z
-x,y,1/2-z
-x,-y,-z
x,-y,1/2+z
loop_
_atom_site_type_symbol
_atom_site_label
_atom_site_fract_x
_atom_site_fract_y
_atom_site_fract_z
Si Si1 0.500000 0.665954 0.750000
Si Si2 0.000000 0.673214 0.750000
Si Si3 0.725102 0.483611 0.111011
Si Si4 0.130425 0.182886 0.075390
Si Si5 0.500000 0.027855 0.250000
Si Si6 0.292749 0.387086 0.500845
Si Si7 0.868204 0.911122 0.922748
Si Si8 0.211118 0.728542 0.509392
O O1 0.661750 0.633488 0.741910
O O2 0.383880 0.699140 0.505134
O O3 0.885885 0.640822 0.503379
O O4 0.839892 0.704941 0.763247
O O5 0.806610 0.488163 0.435354
O O6 0.743133 0.435993 0.035840
O O7 0.500000 0.500000 0.000000
O O8 0.213971 0.136354 0.153601
O O9 0.260890 0.223551 0.095653
O O10 0.000000 0.191161 0.250000
O O11 0.000000 0.179975 0.750000
O O12 0.307704 0.056661 0.152210
O O13 0.500000 0.000000 0.500000
O O14 0.500000 0.380968 0.750000
O O15 0.000000 0.919024 0.750000
O O16 0.000000 0.913310 0.250000
O O17 0.000000 0.727607 0.250000
#
# Coordination Sequence:
#
# PCOD9228697 Si02
#       8
#     2   2   4   4   2   4   4   4
#     4  10  22  33  54  84 106 152 190 229 286 364
#     4  10  22  36  54  86 112 152 182 234 290 354
#     4  10  19  35  60  81 104 146 186 232 289 338
#     4   9  18  35  63  86 119 164 201 254 307 354
#     4  12  26  41  64  96 132 174 216 271 332 384
#     4  11  21  36  58  78 113 141 189 230 292 342
#     4  10  22  41  64  94 127 168 221 267 322 383
#     4  10  19  36  56  80 118 149 196 234 296 344
#
# _framework density 22.202439999999999
#
# number of rings (size 3 to 8) (size 9 to 14) (size 15 to 20)
#    0.000    1.846    2.308    2.769    0.000    2.462 
#    0.000    0.769    0.000    3.692    0.000    0.000 
#    0.000    0.000    0.000    0.000    0.000    0.000 
#
# Total GULP energy -144799.105421 kJ/mol
# GULP energy per Si atom -5569.196362 kJ/mol
# Density = 2.215191 g / cm^3
# Si number density = 22.202440 Si / 1000 Ang^3
#
#
#
# Elastic Constant Matrix: (Units=GPa)
#
#
# Indices 1 2 3 4 5 6 
#
# 1 81.6196 42.7585 29.1059 0.0000 11.6135 0.0000
# 2 42.7585 173.3861 31.3671 0.0000 11.9559 0.0000
# 3 29.1059 31.3671 89.7624 0.0000 -11.5984 0.0000
# 4 0.0000 0.0000 0.0000 38.0329 0.0000 2.1744
# 5 11.6135 11.9559 -11.5984 0.0000 31.8807 0.0000
# 6 0.0000 0.0000 0.0000 2.1744 0.0000 8.3603
#
#
#
# Elastic Compliance Matrix: (Units=1/GPa)
#
#
# Indices 1 2 3 4 5 6 
#
# 1 0.016527 -0.002628 -0.005342 0.000000 -0.006978 0.000000
# 2 -0.002628 0.006912 -0.001862 0.000000 -0.002312 0.000000
# 3 -0.005342 -0.001862 0.014549 0.000000 0.007937 0.000000
# 4 0.000000 0.000000 0.000000 0.026690 0.000000 -0.006942
# 5 -0.006978 -0.002312 0.007937 0.000000 0.037664 0.000000
# 6 0.000000 0.000000 0.000000 -0.006942 0.000000 0.121418
#
#
# Mechanical properties :
#
#
# Convention : Reuss Voigt Hill
#
# Bulk Modulus (GPa) = 54.57538 61.24790 57.91164
# Shear Modulus (GPa) = 20.03755 31.75721 25.89738
#
# Velocity S-wave (km/s) = 3.00741 3.78610 3.41899
# Velocity P-wave (km/s) = 6.05752 6.83803 6.45958
#
# Compressibility (1/GPa) = 0.01832328
#
# Stress axis : x y z
#
# Youngs Moduli (GPa) = 60.50824 144.67937 68.73321
#
# Poissons Ratio (x) = 0.38021 0.36719
# Poissons Ratio (y) = 0.15901 0.12798
# Poissons Ratio (z) = 0.32325 0.26938
#
# Static dielectric constant tensor:
#      x y z
#    x 2.051440 0.000000 0.013460 
#    y 0.000000 1.794570 0.000000 
#    z 0.013460 0.000000 1.868140 
# 
# From -- ./inp_files/2663.got.cif
#   From: 2010.05.17/outbox.cif.g08.bks.cpg/sg13_2_cif.got.tgz:2663.got - 2010.06.03 16:44:36.
