data_PCOD9228785
_publ_section_title
;
Structure prediction by ZEFSAII (Michael W. Deem and Ramdas Pophale) SiO2 
 PCOD9228785
Probable space group: P 2/C
;
_chemical_formula_sum "Si O2"
_cell_formula_units_Z 26
_cell_length_a 23.891171
_cell_length_b 8.111914
_cell_length_c 12.744313
_cell_angle_alpha 90.000000
_cell_angle_beta 152.649065
_cell_angle_gamma 90.000000
_cell_volume 1134.763563
_symmetry_space_group_name_H-M "P 2/C"
_symmetry_group_IT_number 13
_symmetry_cell_setting 'monoclinic'
loop_
_space_group_symop_operation_xyz
x,y,z
-x,y,1/2-z
-x,-y,-z
x,-y,1/2+z
loop_
_atom_site_type_symbol
_atom_site_label
_atom_site_fract_x
_atom_site_fract_y
_atom_site_fract_z
Si Si1 0.768683 0.434034 0.848191
Si Si2 0.762446 0.727228 0.135293
Si Si3 0.609497 0.730728 0.510148
Si Si4 0.500000 0.168059 0.250000
Si Si5 0.432052 0.192386 0.905333
Si Si6 0.114914 0.428545 0.252640
Si Si7 0.244021 0.910402 0.922773
O O1 0.815987 0.310781 0.837857
O O2 0.717913 0.601680 0.713027
O O3 0.646734 0.354711 0.696984
O O4 0.878045 0.442394 0.111547
O O5 0.783266 0.565664 0.103315
O O6 0.806200 0.904527 0.168197
O O7 0.619560 0.735354 0.917641
O O8 0.500000 0.669941 0.250000
O O9 0.544115 0.768579 0.513153
O O10 0.672251 0.872664 0.541113
O O11 0.533936 0.107765 0.426490
O O12 0.332910 0.094108 0.671293
O O13 0.152174 0.243457 0.281444
O O14 0.000000 0.500000 0.000000
#
# Coordination Sequence:
#
# PCOD9228785 Si02
#       7
#     4   4   4   2   4   4   4
#     4  10  21  40  64 101 132 178 233 283 343 411
#     4  11  24  42  67 102 141 176 226 279 350 420
#     4  10  19  35  65  97 146 180 226 278 339 422
#     4  10  22  38  64 104 144 186 222 270 352 424
#     4   9  20  35  62  96 142 187 222 272 335 418
#     4  11  25  49  73  93 133 185 241 297 342 399
#     4  10  23  43  64 103 137 178 233 285 344 416
#
# _framework density 22.912262999999999
#
# number of rings (size 3 to 8) (size 9 to 14) (size 15 to 20)
#    0.000    1.846    1.538    1.385    7.538    1.846 
#   13.846    0.000    3.385    0.000    0.000    0.000 
#    0.000    0.000    0.000    0.000    0.000    0.000 
#
# Total GULP energy -144934.089365 kJ/mol
# GULP energy per Si atom -5574.388052 kJ/mol
# Density = 2.286011 g / cm^3
# Si number density = 22.912263 Si / 1000 Ang^3
#
#
#
# Elastic Constant Matrix: (Units=GPa)
#
#
# Indices 1 2 3 4 5 6 
#
# 1 89.7433 21.9850 27.5142 0.0000 -27.4345 0.0000
# 2 21.9850 97.1890 24.7077 0.0000 -8.6640 0.0000
# 3 27.5142 24.7077 109.5169 0.0000 -31.3718 0.0000
# 4 0.0000 0.0000 0.0000 -10.6960 0.0000 5.5502
# 5 -27.4345 -8.6640 -31.3718 0.0000 38.5729 0.0000
# 6 0.0000 0.0000 0.0000 5.5502 0.0000 34.1274
#
#
#
# Elastic Compliance Matrix: (Units=1/GPa)
#
#
# Indices 1 2 3 4 5 6 
#
# 1 0.014806 -0.002383 -0.000416 0.000000 0.009657 0.000000
# 2 -0.002383 0.011309 -0.002230 0.000000 -0.000968 0.000000
# 3 -0.000416 -0.002230 0.012399 0.000000 0.009288 0.000000
# 4 0.000000 0.000000 0.000000 -0.086217 0.000000 0.014022
# 5 0.009657 -0.000968 0.009288 0.000000 0.040130 0.000000
# 6 0.000000 0.000000 0.000000 0.014022 0.000000 0.027022
#
#
# Mechanical properties :
#
#
# Convention : Reuss Voigt Hill
#
# Bulk Modulus (GPa) = 35.14070 49.42924 42.28497
# Shear Modulus (GPa) = 128.23249 27.21702 77.72475
#
# Velocity S-wave (km/s) = 7.48921 3.45030 5.83064
# Velocity P-wave (km/s) = 9.49498 6.12314 7.98898
#
# Compressibility (1/GPa) = 0.02845703
#
# Stress axis : x y z
#
# Youngs Moduli (GPa) = 67.53846 88.42641 80.65084
#
# Poissons Ratio (x) = 0.21069 0.03354
# Poissons Ratio (y) = 0.16092 0.17986
# Poissons Ratio (z) = 0.02809 0.19720
#
# Static dielectric constant tensor:
#      x y z
#    x 1.950920 0.000000 -0.020500 
#    y 0.000000 1.920840 0.000000 
#    z -0.020500 0.000000 1.968670 
# 
# From -- ./inp_files/41665.got.cif
#   From: 2010.05.17/outbox.cif.g08.bks.cpg/sg13_21_cif.got.tgz:41665.got - 2010.06.03 16:44:36.
