data_PCOD9228909
_publ_section_title
;
Structure prediction by ZEFSAII (Michael W. Deem and Ramdas Pophale) SiO2 
 PCOD9228909
Probable space group: P 2/C
;
_chemical_formula_sum "Si O2"
_cell_formula_units_Z 26
_cell_length_a 9.588373
_cell_length_b 8.826112
_cell_length_c 26.455164
_cell_angle_alpha 90.000000
_cell_angle_beta 145.082214
_cell_angle_gamma 90.000000
_cell_volume 1281.518182
_symmetry_space_group_name_H-M "P 2/C"
_symmetry_group_IT_number 13
_symmetry_cell_setting 'monoclinic'
loop_
_space_group_symop_operation_xyz
x,y,z
-x,y,1/2-z
-x,-y,-z
x,-y,1/2+z
loop_
_atom_site_type_symbol
_atom_site_label
_atom_site_fract_x
_atom_site_fract_y
_atom_site_fract_z
Si Si1 0.912241 0.025865 0.618322
Si Si2 0.414902 0.957571 0.821574
Si Si3 0.500000 0.577272 0.250000
Si Si4 0.161736 0.362470 0.506217
Si Si5 0.652462 0.633571 0.874636
Si Si6 0.201417 0.833846 0.117548
Si Si7 0.489110 0.154061 0.945102
O O1 0.698018 0.905724 0.545234
O O2 0.138559 0.967722 0.718822
O O3 0.768938 0.162313 0.603424
O O4 0.005443 0.072796 0.590516
O O5 0.530398 0.789724 0.854348
O O6 0.574393 0.057688 0.829971
O O7 0.444960 0.036691 0.885251
O O8 0.530949 0.474401 0.210114
O O9 0.279753 0.692607 0.175131
O O10 0.235352 0.528842 0.547715
O O11 0.133998 0.242738 0.544511
O O12 0.385877 0.302478 0.540440
O O13 0.883735 0.353237 0.404382
#
# Coordination Sequence:
#
# PCOD9228909 Si02
#       7
#     4   4   2   4   4   4   4
#     4  11  21  36  63  88 114 154 201 252 283 348
#     4  11  21  37  62  88 115 154 199 253 293 342
#     4  10  20  32  52  90 112 140 192 246 286 360
#     4   9  20  39  57  85 120 156 187 243 300 363
#     4  10  21  33  59  87 119 149 192 247 303 344
#     4  10  19  36  60  86 109 146 203 241 291 341
#     4  10  23  38  60  86 121 155 201 236 300 351
#
# _framework density 20.288436000000001
#
# number of rings (size 3 to 8) (size 9 to 14) (size 15 to 20)
#    0.000    1.846    1.538    2.308    4.308    2.462 
#    0.000    0.000    6.769   10.154    0.000    0.000 
#    0.000    0.000    0.000    0.000    0.000    0.000 
#
# Total GULP energy -144925.554104 kJ/mol
# GULP energy per Si atom -5574.059773 kJ/mol
# Density = 2.024226 g / cm^3
# Si number density = 20.288436 Si / 1000 Ang^3
#
#
#
# Elastic Constant Matrix: (Units=GPa)
#
#
# Indices 1 2 3 4 5 6 
#
# 1 80.7107 8.8484 24.8612 0.0000 19.9632 0.0000
# 2 8.8484 72.8319 24.7004 0.0000 12.4252 0.0000
# 3 24.8612 24.7004 96.6397 0.0000 19.0616 0.0000
# 4 0.0000 0.0000 0.0000 15.1207 0.0000 8.0267
# 5 19.9632 12.4252 19.0616 0.0000 24.9974 0.0000
# 6 0.0000 0.0000 0.0000 8.0267 0.0000 22.6975
#
#
#
# Elastic Compliance Matrix: (Units=1/GPa)
#
#
# Indices 1 2 3 4 5 6 
#
# 1 0.015746 0.000706 -0.001979 0.000000 -0.011416 0.000000
# 2 0.000706 0.015698 -0.002994 0.000000 -0.006083 0.000000
# 3 -0.001979 -0.002994 0.012967 0.000000 -0.006819 0.000000
# 4 0.000000 0.000000 0.000000 0.081419 0.000000 -0.028793
# 5 -0.011416 -0.006083 -0.006819 0.000000 0.057345 0.000000
# 6 0.000000 0.000000 0.000000 -0.028793 0.000000 0.054240
#
#
# Mechanical properties :
#
#
# Convention : Reuss Voigt Hill
#
# Bulk Modulus (GPa) = 27.87357 40.77802 34.32579
# Shear Modulus (GPa) = 19.38677 25.34795 22.36736
#
# Velocity S-wave (km/s) = 3.09456 3.53849 3.32395
# Velocity P-wave (km/s) = 5.15140 6.06938 5.62913
#
# Compressibility (1/GPa) = 0.03587628
#
# Stress axis : x y z
#
# Youngs Moduli (GPa) = 63.50811 63.70360 77.11784
#
# Poissons Ratio (x) = -0.04497 0.15264
# Poissons Ratio (y) = -0.04483 0.23088
# Poissons Ratio (z) = 0.12571 0.19072
#
# Static dielectric constant tensor:
#      x y z
#    x 1.772290 0.000000 -0.006130 
#    y 0.000000 1.753390 0.000000 
#    z -0.006130 0.000000 1.817850 
# 
# From -- ./inp_files/91330.got.cif
#   From: 2010.05.17/outbox.cif.g08.bks.cpg/sg13_46_cif.got.tgz:91330.got - 2010.06.03 16:44:36.
