data_PCOD9228321
_publ_section_title
;
Structure prediction by ZEFSAII (Michael W. Deem and Ramdas Pophale) SiO2 
 PCOD9228321
Probable space group: P 2/C
;
_chemical_formula_sum "Si O2"
_cell_formula_units_Z 28
_cell_length_a 8.806094
_cell_length_b 8.112029
_cell_length_c 24.507554
_cell_angle_alpha 90.000000
_cell_angle_beta 51.117150
_cell_angle_gamma 90.000000
_cell_volume 1362.802577
_symmetry_space_group_name_H-M "P 2/C"
_symmetry_group_IT_number 13
_symmetry_cell_setting 'monoclinic'
loop_
_space_group_symop_operation_xyz
x,y,z
-x,y,1/2-z
-x,-y,-z
x,-y,1/2+z
loop_
_atom_site_type_symbol
_atom_site_label
_atom_site_fract_x
_atom_site_fract_y
_atom_site_fract_z
Si Si1 0.845438 0.871600 0.180903
Si Si2 0.500000 0.639428 0.250000
Si Si3 0.362082 0.534967 0.668867
Si Si4 0.024899 0.646790 0.569952
Si Si5 0.000000 0.682185 0.250000
Si Si6 0.742501 0.648112 0.527024
Si Si7 0.133636 0.005277 0.523895
Si Si8 0.713331 0.234375 0.227831
O O1 0.686122 0.748842 0.192370
O O2 0.932734 0.790352 0.214670
O O3 0.005521 0.920178 0.101192
O O4 0.743031 0.041234 0.218912
O O5 0.559482 0.549515 0.292665
O O6 0.536817 0.566028 0.588342
O O7 0.283181 0.705755 0.710984
O O8 0.181520 0.428561 0.689762
O O9 0.143904 0.474958 0.540316
O O10 0.877132 0.645971 0.551404
O O11 0.882636 0.675565 0.654044
O O12 0.162948 0.810743 0.531688
O O13 0.715482 0.843106 0.519235
O O14 0.000000 0.000000 0.500000
O O15 0.500000 0.264400 0.250000
#
# Coordination Sequence:
#
# PCOD9228321 Si02
#       8
#     4   2   4   4   2   4   4   4
#     4  10  22  39  61  89 129 167 208 267 324 383
#     4  10  20  32  60  92 116 158 208 278 310 366
#     4  11  22  38  62  92 125 163 222 264 318 389
#     4   9  19  32  54  94 131 153 195 266 334 378
#     4  10  26  44  58  90 130 178 212 254 324 402
#     4  10  19  33  57  88 128 165 196 263 327 377
#     4   9  20  33  57  92 127 157 210 263 326 376
#     4  11  19  36  63  96 123 154 217 276 324 363
#
# _framework density 20.545898000000001
#
# number of rings (size 3 to 8) (size 9 to 14) (size 15 to 20)
#    0.000    2.000    2.857    0.000   10.000    0.571 
#    2.571    0.714    0.000    1.714    0.000    0.000 
#    0.000    0.000    0.000    0.000    0.000    0.000 
#
# Total GULP energy -156128.893976 kJ/mol
# GULP energy per Si atom -5576.031928 kJ/mol
# Density = 2.049913 g / cm^3
# Si number density = 20.545898 Si / 1000 Ang^3
#
#
#
# Elastic Constant Matrix: (Units=GPa)
#
#
# Indices 1 2 3 4 5 6 
#
# 1 30.8882 14.2857 19.7107 0.0000 -9.9993 0.0000
# 2 14.2857 86.4713 37.4373 0.0000 -16.5000 0.0000
# 3 19.7107 37.4373 73.6649 0.0000 -14.6114 0.0000
# 4 0.0000 0.0000 0.0000 29.3045 0.0000 2.1726
# 5 -9.9993 -16.5000 -14.6114 0.0000 12.4062 0.0000
# 6 0.0000 0.0000 0.0000 2.1726 0.0000 12.1866
#
#
#
# Elastic Compliance Matrix: (Units=1/GPa)
#
#
# Indices 1 2 3 4 5 6 
#
# 1 0.046140 0.001211 -0.006870 0.000000 0.030707 0.000000
# 2 0.001211 0.017043 -0.005605 0.000000 0.017041 0.000000
# 3 -0.006870 -0.005605 0.020466 0.000000 0.011111 0.000000
# 4 0.000000 0.000000 0.000000 0.034582 0.000000 -0.006165
# 5 0.030707 0.017041 0.011111 0.000000 0.141106 0.000000
# 6 0.000000 0.000000 0.000000 -0.006165 0.000000 0.083157
#
#
# Mechanical properties :
#
#
# Convention : Reuss Voigt Hill
#
# Bulk Modulus (GPa) = 16.36139 37.09908 26.73023
# Shear Modulus (GPa) = 12.97372 18.75216 15.86294
#
# Velocity S-wave (km/s) = 2.51559 3.02436 2.78164
# Velocity P-wave (km/s) = 4.05194 5.50378 4.83269
#
# Compressibility (1/GPa) = 0.06111950
#
# Stress axis : x y z
#
# Youngs Moduli (GPa) = 21.67336 58.67520 48.86167
#
# Poissons Ratio (x) = -0.07108 0.33570
# Poissons Ratio (y) = -0.02625 0.27389
# Poissons Ratio (z) = 0.14891 0.32890
#
# Static dielectric constant tensor:
#      x y z
#    x 1.339170 0.000000 0.019980 
#    y 0.000000 1.868780 0.000000 
#    z 0.019980 0.000000 1.733480 
# 
# From -- ./inp_files/91439.got.cif
#   From: 2010.05.17/outbox.cif.g08.bks.cpg/sg13_46_cif.got.tgz:91439.got - 2010.06.03 16:44:36.
