data_PCOD9228071
_publ_section_title
;
Structure prediction by ZEFSAII (Michael W. Deem and Ramdas Pophale) SiO2 
 PCOD9228071
Probable space group: P 2/C
;
_chemical_formula_sum "Si O2"
_cell_formula_units_Z 28
_cell_length_a 12.524547
_cell_length_b 10.963552
_cell_length_c 10.101858
_cell_angle_alpha 90.000000
_cell_angle_beta 106.242662
_cell_angle_gamma 90.000000
_cell_volume 1331.755691
_symmetry_space_group_name_H-M "P 2/C"
_symmetry_group_IT_number 13
_symmetry_cell_setting 'monoclinic'
loop_
_space_group_symop_operation_xyz
x,y,z
-x,y,1/2-z
-x,-y,-z
x,-y,1/2+z
loop_
_atom_site_type_symbol
_atom_site_label
_atom_site_fract_x
_atom_site_fract_y
_atom_site_fract_z
Si Si1 0.660233 0.754034 0.328424
Si Si2 0.130387 0.600484 0.432281
Si Si3 0.605598 0.368918 0.065572
Si Si4 0.616269 0.981464 0.926259
Si Si5 0.640484 0.889265 0.670874
Si Si6 0.638993 0.360547 0.547397
Si Si7 0.889673 0.363945 0.889154
O O1 0.611198 0.649709 0.408209
O O2 0.612178 0.880916 0.365222
O O3 0.630332 0.731513 0.166226
O O4 0.794047 0.736012 0.381193
O O5 0.250469 0.660111 0.497395
O O6 0.128114 0.472561 0.510777
O O7 0.124040 0.590854 0.268846
O O8 0.019743 0.671023 0.440610
O O9 0.665075 0.248211 0.138092
O O10 0.649806 0.502237 0.110802
O O11 0.477817 0.361420 0.067317
O O12 0.676028 0.909002 0.831871
O O13 0.493956 0.918539 0.892108
O O14 0.681036 0.006053 0.084342
#
# Coordination Sequence:
#
# PCOD9228071 Si02
#       7
#     4   4   4   4   4   4   4
#     4  10  19  32  52  73 106 144 173 215 273 313
#     4   9  17  32  50  75 103 138 174 208 252 316
#     4  10  20  34  46  74 112 141 173 211 264 325
#     4   9  19  33  52  70 100 134 187 220 255 299
#     4   9  19  34  52  70  98 142 182 219 252 310
#     4  10  20  31  48  75 111 144 166 205 270 328
#     4   9  17  31  53  73 102 135 178 213 252 307
#
# _framework density 21.024875999999999
#
# number of rings (size 3 to 8) (size 9 to 14) (size 15 to 20)
#    0.000    2.571    1.429    0.429   10.000    0.000 
#   10.286    0.000    0.000    0.000    0.000    1.000 
#    4.286    0.143    0.000    0.000    0.000    0.000 
#
# Total GULP energy -155969.656492 kJ/mol
# GULP energy per Si atom -5570.344875 kJ/mol
# Density = 2.097702 g / cm^3
# Si number density = 21.024876 Si / 1000 Ang^3
#
#
#
# Elastic Constant Matrix: (Units=GPa)
#
#
# Indices 1 2 3 4 5 6 
#
# 1 123.8218 2.9850 1.7258 0.0000 -0.9989 0.0000
# 2 2.9850 93.5141 13.9416 0.0000 -4.5635 0.0000
# 3 1.7258 13.9416 42.9007 0.0000 -18.8104 0.0000
# 4 0.0000 0.0000 0.0000 21.8446 0.0000 -5.5236
# 5 -0.9989 -4.5635 -18.8104 0.0000 20.4011 0.0000
# 6 0.0000 0.0000 0.0000 -5.5236 0.0000 12.3391
#
#
#
# Elastic Compliance Matrix: (Units=1/GPa)
#
#
# Indices 1 2 3 4 5 6 
#
# 1 0.008085 -0.000224 -0.000169 0.000000 0.000190 0.000000
# 2 -0.000224 0.011269 -0.004285 0.000000 -0.001441 0.000000
# 3 -0.000169 -0.004285 0.040766 0.000000 0.036620 0.000000
# 4 0.000000 0.000000 0.000000 0.051621 0.000000 0.023108
# 5 0.000190 -0.001441 0.036620 0.000000 0.082469 0.000000
# 6 0.000000 0.000000 0.000000 0.023108 0.000000 0.091388
#
#
# Mechanical properties :
#
#
# Convention : Reuss Voigt Hill
#
# Bulk Modulus (GPa) = 19.69895 33.06013 26.37954
# Shear Modulus (GPa) = 16.03202 27.02256 21.52729
#
# Velocity S-wave (km/s) = 2.76438 3.58895 3.20331
# Velocity P-wave (km/s) = 4.42479 5.73869 5.12403
#
# Compressibility (1/GPa) = 0.05076413
#
# Stress axis : x y z
#
# Youngs Moduli (GPa) = 123.67963 88.73721 24.53042
#
# Poissons Ratio (x) = 0.01984 0.00416
# Poissons Ratio (y) = 0.02765 0.10512
# Poissons Ratio (z) = 0.02096 0.38025
#
# Static dielectric constant tensor:
#      x y z
#    x 1.801340 0.000000 -0.040490 
#    y 0.000000 1.758430 0.000000 
#    z -0.040490 0.000000 1.885210 
# 
# From -- ./inp_files/33246.got.cif
#   From: 2010.05.17/outbox.cif.g08.bks.cpg/sg13_17_cif.got.tgz:33246.got - 2010.06.03 16:44:36.
