data_PCOD9228656
_publ_section_title
;
Structure prediction by ZEFSAII (Michael W. Deem and Ramdas Pophale) SiO2 
 PCOD9228656
Probable space group: P 2/C
;
_chemical_formula_sum "Si O2"
_cell_formula_units_Z 24
_cell_length_a 15.170791
_cell_length_b 7.625186
_cell_length_c 15.765786
_cell_angle_alpha 90.000000
_cell_angle_beta 35.872752
_cell_angle_gamma 90.000000
_cell_volume 1068.716024
_symmetry_space_group_name_H-M "P 2/C"
_symmetry_group_IT_number 13
_symmetry_cell_setting 'monoclinic'
loop_
_space_group_symop_operation_xyz
x,y,z
-x,y,1/2-z
-x,-y,-z
x,-y,1/2+z
loop_
_atom_site_type_symbol
_atom_site_label
_atom_site_fract_x
_atom_site_fract_y
_atom_site_fract_z
Si Si1 0.586466 0.743024 0.942563
Si Si2 0.180839 0.025333 0.699176
Si Si3 0.837691 0.009379 0.490475
Si Si4 0.674103 0.657340 0.630707
Si Si5 0.619949 0.706800 0.233125
Si Si6 0.304660 0.614447 0.076998
O O1 0.473866 0.754392 0.110732
O O2 0.471413 0.700813 0.956941
O O3 0.687384 0.571442 0.883178
O O4 0.689246 0.913194 0.857429
O O5 0.195874 0.989537 0.585518
O O6 0.198238 0.234449 0.696070
O O7 0.016169 0.973241 0.858094
O O8 0.773350 0.824928 0.574589
O O9 0.750284 0.160615 0.607254
O O10 0.500000 0.710371 0.750000
O O11 0.679948 0.492052 0.688167
O O12 0.729018 0.588523 0.495499
O O13 0.500000 0.709154 0.250000
#
# Coordination Sequence:
#
# PCOD9228656 Si02
#       6
#     4   4   4   4   4   4
#     4  11  21  36  60  82 110 143 185 228 273 321
#     4  10  21  37  54  84 110 147 182 221 277 327
#     4  10  21  34  58  81 114 142 180 231 271 320
#     4  10  19  35  58  85 107 140 189 226 269 317
#     4  11  19  35  58  87 106 139 186 232 270 315
#     4  10  21  36  57  82 110 146 183 225 270 326
#
# _framework density 22.456855000000001
#
# number of rings (size 3 to 8) (size 9 to 14) (size 15 to 20)
#    0.000    1.667    5.000    1.000    2.333    1.333 
#    0.000    4.167    0.000    3.000    0.000    0.000 
#    0.000    0.000    0.000    0.000    0.000    0.000 
#
# Total GULP energy -134272.966577 kJ/mol
# GULP energy per Si atom -5594.706941 kJ/mol
# Density = 2.240574 g / cm^3
# Si number density = 22.456855 Si / 1000 Ang^3
#
#
#
# Elastic Constant Matrix: (Units=GPa)
#
#
# Indices 1 2 3 4 5 6 
#
# 1 31.5950 13.7979 18.2929 0.0000 13.7089 0.0000
# 2 13.7979 118.1297 81.2978 0.0000 -6.4319 0.0000
# 3 18.2929 81.2978 105.3731 0.0000 -1.7463 0.0000
# 4 0.0000 0.0000 0.0000 23.1476 0.0000 5.3606
# 5 13.7089 -6.4319 -1.7463 0.0000 19.9455 0.0000
# 6 0.0000 0.0000 0.0000 5.3606 0.0000 2.1958
#
#
#
# Elastic Compliance Matrix: (Units=1/GPa)
#
#
# Indices 1 2 3 4 5 6 
#
# 1 0.054452 -0.003282 -0.007569 0.000000 -0.039148 0.000000
# 2 -0.003282 0.018679 -0.013724 0.000000 0.007078 0.000000
# 3 -0.007569 -0.013724 0.021437 0.000000 0.002654 0.000000
# 4 0.000000 0.000000 0.000000 0.099397 0.000000 -0.242661
# 5 -0.039148 0.007078 0.002654 0.000000 0.079558 0.000000
# 6 0.000000 0.000000 0.000000 -0.242661 0.000000 1.047840
#
#
# Mechanical properties :
#
#
# Convention : Reuss Voigt Hill
#
# Bulk Modulus (GPa) = 22.01855 53.54168 37.78011
# Shear Modulus (GPa) = 3.60840 18.50505 11.05673
#
# Velocity S-wave (km/s) = 1.26898 2.87370 2.22131
# Velocity P-wave (km/s) = 3.46023 5.90802 4.84138
#
# Compressibility (1/GPa) = 0.04541626
#
# Stress axis : x y z
#
# Youngs Moduli (GPa) = 18.36464 53.53520 46.64873
#
# Poissons Ratio (x) = 0.17573 0.35310
# Poissons Ratio (y) = 0.06028 0.64023
# Poissons Ratio (z) = 0.13901 0.73474
#
# Static dielectric constant tensor:
#      x y z
#    x 1.850520 0.000000 0.038180 
#    y 0.000000 1.832050 0.000000 
#    z 0.038180 0.000000 1.806270 
# 
# From -- ./inp_files/69419.got.cif
#   From: 2010.05.17/outbox.cif.g08.bks.cpg/sg13_35_cif.got.tgz:69419.got - 2010.06.03 16:44:36.
