data_PCOD9228556
_publ_section_title
;
Structure prediction by ZEFSAII (Michael W. Deem and Ramdas Pophale) SiO2 
 PCOD9228556
Probable space group: P 2/C
;
_chemical_formula_sum "Si O2"
_cell_formula_units_Z 22
_cell_length_a 8.374283
_cell_length_b 11.090052
_cell_length_c 12.011005
_cell_angle_alpha 90.000000
_cell_angle_beta 132.947265
_cell_angle_gamma 90.000000
_cell_volume 816.507978
_symmetry_space_group_name_H-M "P 2/C"
_symmetry_group_IT_number 13
_symmetry_cell_setting 'monoclinic'
loop_
_space_group_symop_operation_xyz
x,y,z
-x,y,1/2-z
-x,-y,-z
x,-y,1/2+z
loop_
_atom_site_type_symbol
_atom_site_label
_atom_site_fract_x
_atom_site_fract_y
_atom_site_fract_z
Si Si1 0.290545 0.404041 0.317520
Si Si2 0.000000 0.618474 0.250000
Si Si3 0.500000 0.453224 0.750000
Si Si4 0.500000 0.037748 0.750000
Si Si5 0.301919 0.176948 0.481700
Si Si6 0.000000 0.007735 0.750000
Si Si7 0.000000 0.000000 0.500000
Si Si8 0.952520 0.698367 0.471434
O O1 0.495672 0.454844 0.350297
O O2 0.319605 0.299555 0.421765
O O3 0.193750 0.523912 0.324950
O O4 0.119877 0.361961 0.139108
O O5 0.025241 0.687953 0.378631
O O6 0.282562 0.371774 0.639866
O O7 0.504615 0.128991 0.645499
O O8 0.274505 0.967344 0.635499
O O9 0.211401 0.079350 0.355837
O O10 0.111032 0.178327 0.490501
O O11 0.007464 0.060363 0.631483
#
# Coordination Sequence:
#
# PCOD9228556 Si02
#       8
#     4   2   2   2   4   2   2   4
#     4  11  21  40  60  89 134 197 239 309 344 407
#     4  10  19  34  61  84 142 188 268 294 343 394
#     4  10  23  34  57  94 130 184 270 290 341 394
#     4  10  25  48  75 118 138 184 226 294 361 476
#     4  11  21  42  69  93 142 182 227 285 375 408
#     4  10  21  46  79 104 142 178 224 288 359 464
#     4  10  24  46  84 116 144 176 232 274 370 454
#     4  11  21  40  58  94 130 198 243 309 342 412
#
# _framework density 26.944009000000001
#
# number of rings (size 3 to 8) (size 9 to 14) (size 15 to 20)
#    0.000    1.455    3.636    2.727    0.000    3.636 
#    9.818    6.364    0.000    0.000    0.000    0.000 
#    0.000    0.000    0.000    0.000    0.000    0.364 
#
# Total GULP energy -122598.695039 kJ/mol
# GULP energy per Si atom -5572.667956 kJ/mol
# Density = 2.688268 g / cm^3
# Si number density = 26.944009 Si / 1000 Ang^3
#
#
#
# Elastic Constant Matrix: (Units=GPa)
#
#
# Indices 1 2 3 4 5 6 
#
# 1 133.3621 23.2997 67.8309 0.0000 -33.6108 0.0000
# 2 23.2997 81.7489 54.5464 0.0000 -16.9304 0.0000
# 3 67.8309 54.5464 256.9670 0.0000 -27.5615 0.0000
# 4 0.0000 0.0000 0.0000 45.7606 0.0000 -11.2449
# 5 -33.6108 -16.9304 -27.5615 0.0000 72.3566 0.0000
# 6 0.0000 0.0000 0.0000 -11.2449 0.0000 24.5295
#
#
#
# Elastic Compliance Matrix: (Units=1/GPa)
#
#
# Indices 1 2 3 4 5 6 
#
# 1 0.009511 -0.000653 -0.001996 0.000000 0.003505 0.000000
# 2 -0.000653 0.014664 -0.002716 0.000000 0.002093 0.000000
# 3 -0.001996 -0.002716 0.005033 0.000000 0.000354 0.000000
# 4 0.000000 0.000000 0.000000 0.024627 0.000000 0.011290
# 5 0.003505 0.002093 0.000354 0.000000 0.016073 0.000000
# 6 0.000000 0.000000 0.000000 0.011290 0.000000 0.045943
#
#
# Mechanical properties :
#
#
# Convention : Reuss Voigt Hill
#
# Bulk Modulus (GPa) = 54.11730 84.82579 69.47154
# Shear Modulus (GPa) = 37.66731 50.28940 43.97836
#
# Velocity S-wave (km/s) = 3.74302 4.32492 4.04445
# Velocity P-wave (km/s) = 6.22968 7.51602 6.90288
#
# Compressibility (1/GPa) = 0.01847838
#
# Stress axis : x y z
#
# Youngs Moduli (GPa) = 105.14090 68.19228 198.69010
#
# Poissons Ratio (x) = 0.04453 0.39660
# Poissons Ratio (y) = 0.06866 0.53962
# Poissons Ratio (z) = 0.20987 0.18520
#
# Static dielectric constant tensor:
#      x y z
#    x 2.242220 0.000000 -0.041810 
#    y 0.000000 1.669420 0.000000 
#    z -0.041810 0.000000 2.039000 
# 
# From -- ./inp_files/29998.got.cif
#   From: 2010.05.17/outbox.cif.g08.bks.cpg/sg13_15_cif.got.tgz:29998.got - 2010.06.03 16:44:36.
