data_PCOD9228996
_publ_section_title
;
Structure prediction by ZEFSAII (Michael W. Deem and Ramdas Pophale) SiO2 
 PCOD9228996
Probable space group: P 2/C
;
_chemical_formula_sum "Si O2"
_cell_formula_units_Z 20
_cell_length_a 11.076953
_cell_length_b 9.659119
_cell_length_c 15.742385
_cell_angle_alpha 90.000000
_cell_angle_beta 152.898185
_cell_angle_gamma 90.000000
_cell_volume 767.337527
_symmetry_space_group_name_H-M "P 2/C"
_symmetry_group_IT_number 13
_symmetry_cell_setting 'monoclinic'
loop_
_space_group_symop_operation_xyz
x,y,z
-x,y,1/2-z
-x,-y,-z
x,-y,1/2+z
loop_
_atom_site_type_symbol
_atom_site_label
_atom_site_fract_x
_atom_site_fract_y
_atom_site_fract_z
Si Si1 0.065748 0.870292 0.925830
Si Si2 0.068938 0.595298 0.623193
Si Si3 0.426600 0.854215 0.999799
Si Si4 0.008122 0.169019 0.657605
Si Si5 0.636620 0.569423 0.926059
O O1 0.332178 0.867519 0.037388
O O2 0.033580 0.747556 0.971796
O O3 0.826807 0.814882 0.714578
O O4 0.021974 0.031263 0.917804
O O5 0.386509 0.577495 0.832756
O O6 0.000000 0.500000 0.500000
O O7 0.875390 0.542069 0.577840
O O8 0.698213 0.769495 0.168338
O O9 0.500000 0.000000 0.000000
O O10 0.780349 0.281688 0.511139
O O11 0.000000 0.113046 0.750000
O O12 0.500000 0.544203 0.750000
#
# Coordination Sequence:
#
# PCOD9228996 Si02
#       5
#     4   4   4   4   4
#     4  10  19  36  65  94 134 170 215 280 343 397
#     4  10  23  44  64  85 126 188 230 272 325 400
#     4   9  17  33  59 100 137 163 209 270 356 402
#     4  11  20  37  66 102 132 164 215 283 336 405
#     4  10  24  45  63  88 133 178 230 275 335 399
#
# _framework density 26.064150999999999
#
# number of rings (size 3 to 8) (size 9 to 14) (size 15 to 20)
#    0.000    2.000    4.000    1.200    5.600    0.000 
#    3.600    9.000    0.000    0.000    0.000    0.000 
#    0.000    0.000    0.000    0.000    0.000    0.000 
#
# Total GULP energy -111621.852176 kJ/mol
# GULP energy per Si atom -5581.092609 kJ/mol
# Density = 2.600483 g / cm^3
# Si number density = 26.064151 Si / 1000 Ang^3
#
#
#
# Elastic Constant Matrix: (Units=GPa)
#
#
# Indices 1 2 3 4 5 6 
#
# 1 56.5769 23.6874 47.2950 0.0000 26.9131 0.0000
# 2 23.6874 163.3004 45.9024 0.0000 25.2421 0.0000
# 3 47.2950 45.9024 158.5952 0.0000 67.0637 0.0000
# 4 0.0000 0.0000 0.0000 48.2019 0.0000 10.6770
# 5 26.9131 25.2421 67.0637 0.0000 56.2951 0.0000
# 6 0.0000 0.0000 0.0000 10.6770 0.0000 17.7286
#
#
#
# Elastic Compliance Matrix: (Units=1/GPa)
#
#
# Indices 1 2 3 4 5 6 
#
# 1 0.024832 -0.001428 -0.004519 0.000000 -0.005848 0.000000
# 2 -0.001428 0.006803 -0.001092 0.000000 -0.001067 0.000000
# 3 -0.004519 -0.001092 0.013800 0.000000 -0.013790 0.000000
# 4 0.000000 0.000000 0.000000 0.023940 0.000000 -0.014418
# 5 -0.005848 -0.001067 -0.013790 0.000000 0.037465 0.000000
# 6 0.000000 0.000000 0.000000 -0.014418 0.000000 0.065089
#
#
# Mechanical properties :
#
#
# Convention : Reuss Voigt Hill
#
# Bulk Modulus (GPa) = 31.89066 68.02690 49.95878
# Shear Modulus (GPa) = 25.45044 41.88430 33.66737
#
# Velocity S-wave (km/s) = 3.12822 4.01305 3.59794
# Velocity P-wave (km/s) = 5.03087 6.90139 6.03899
#
# Compressibility (1/GPa) = 0.03135714
#
# Stress axis : x y z
#
# Youngs Moduli (GPa) = 40.26991 147.00173 72.46144
#
# Poissons Ratio (x) = 0.20989 0.32748
# Poissons Ratio (y) = 0.05750 0.07913
# Poissons Ratio (z) = 0.18199 0.16053
#
# Static dielectric constant tensor:
#      x y z
#    x 2.245490 0.000000 -0.017580 
#    y 0.000000 2.207170 0.000000 
#    z -0.017580 0.000000 2.125650 
# 
# From -- ./inp_files/87343.got.cif
#   From: 2010.05.17/outbox.cif.g08.bks.cpg/sg13_44_cif.got.tgz:87343.got - 2010.06.03 16:44:36.
