data_PCOD9228560
_publ_section_title
;
Structure prediction by ZEFSAII (Michael W. Deem and Ramdas Pophale) SiO2 
 PCOD9228560
Probable space group: P 2/C
;
_chemical_formula_sum "Si O2"
_cell_formula_units_Z 16
_cell_length_a 8.801002
_cell_length_b 16.995595
_cell_length_c 5.237231
_cell_angle_alpha 90.000000
_cell_angle_beta 87.680232
_cell_angle_gamma 90.000000
_cell_volume 782.733945
_symmetry_space_group_name_H-M "P 2/C"
_symmetry_group_IT_number 13
_symmetry_cell_setting 'monoclinic'
loop_
_space_group_symop_operation_xyz
x,y,z
-x,y,1/2-z
-x,-y,-z
x,-y,1/2+z
loop_
_atom_site_type_symbol
_atom_site_label
_atom_site_fract_x
_atom_site_fract_y
_atom_site_fract_z
Si Si1 0.182240 0.049487 0.237340
Si Si2 0.827236 0.468781 0.564850
Si Si3 0.320283 0.779386 0.735661
Si Si4 0.825367 0.710184 0.257065
O O1 0.265970 0.131229 0.279392
O O2 0.000000 0.063602 0.250000
O O3 0.219390 0.988842 0.461857
O O4 0.755266 0.477328 0.290421
O O5 0.826725 0.381077 0.672838
O O6 0.000000 0.500000 0.500000
O O7 0.500000 0.772962 0.750000
O O8 0.265804 0.754588 0.457961
O O9 0.243002 0.725946 0.959910
O O10 0.000000 0.738006 0.250000
#
# Coordination Sequence:
#
# PCOD9228560 Si02
#       4
#     4   4   4   4
#     4  10  21  40  67  95 126 164 218 276 317 367
#     4  10  19  34  61  99 122 150 210 291 319 366
#     4  12  27  43  62  97 143 177 212 261 331 404
#     4  12  23  40  70  97 126 170 224 278 322 376
#
# _framework density 20.441172999999999
#
# number of rings (size 3 to 8) (size 9 to 14) (size 15 to 20)
#    0.000    1.000    2.500    6.000    3.500    3.000 
#    0.000    0.000    0.000   15.000    0.000    0.000 
#    0.000    0.000    0.000    0.000    0.000    0.000 
#
# Total GULP energy -89422.096907 kJ/mol
# GULP energy per Si atom -5588.881057 kJ/mol
# Density = 2.039465 g / cm^3
# Si number density = 20.441173 Si / 1000 Ang^3
#
#
#
# Elastic Constant Matrix: (Units=GPa)
#
#
# Indices 1 2 3 4 5 6 
#
# 1 66.4282 10.6918 1.8784 0.0000 11.2769 0.0000
# 2 10.6918 63.8220 -15.2440 0.0000 -1.1821 0.0000
# 3 1.8784 -15.2440 97.7545 0.0000 14.8643 0.0000
# 4 0.0000 0.0000 0.0000 67.4405 0.0000 -54.0767
# 5 11.2769 -1.1821 14.8643 0.0000 24.6125 0.0000
# 6 0.0000 0.0000 0.0000 -54.0767 0.0000 99.8992
#
#
#
# Elastic Compliance Matrix: (Units=1/GPa)
#
#
# Indices 1 2 3 4 5 6 
#
# 1 0.016887 -0.002868 0.000469 0.000000 -0.008158 0.000000
# 2 -0.002868 0.016777 0.002587 0.000000 0.000558 0.000000
# 3 0.000469 0.002587 0.011713 0.000000 -0.007165 0.000000
# 4 0.000000 0.000000 0.000000 0.026200 0.000000 0.014182
# 5 -0.008158 0.000558 -0.007165 0.000000 0.048722 0.000000
# 6 0.000000 0.000000 0.000000 0.014182 0.000000 0.017687
#
#
# Mechanical properties :
#
#
# Convention : Reuss Voigt Hill
#
# Bulk Modulus (GPa) = 21.85688 24.73966 23.29827
# Shear Modulus (GPa) = 32.70905 53.76900 43.23902
#
# Velocity S-wave (km/s) = 4.00453 5.13433 4.60422
# Velocity P-wave (km/s) = 5.66547 6.87587 6.29981
#
# Compressibility (1/GPa) = 0.04575218
#
# Stress axis : x y z
#
# Youngs Moduli (GPa) = 59.21649 59.60465 85.37160
#
# Poissons Ratio (x) = 0.17096 -0.04002
# Poissons Ratio (y) = 0.16984 -0.22082
# Poissons Ratio (z) = -0.02776 -0.15417
#
# Static dielectric constant tensor:
#      x y z
#    x 1.774810 0.000000 0.073650 
#    y 0.000000 1.729450 0.000000 
#    z 0.073650 0.000000 1.791340 
# 
# From -- ./inp_files/1248.got.cif
#   From: 2010.05.17/outbox.cif.g08.bks.cpg/sg13_1_cif.got.tgz:1248.got - 2010.06.03 16:44:36.
