data_PCOD9228615
_publ_section_title
;
Structure prediction by ZEFSAII (Michael W. Deem and Ramdas Pophale) SiO2 
 PCOD9228615
Probable space group: P 2/C
;
_chemical_formula_sum "Si O2"
_cell_formula_units_Z 24
_cell_length_a 17.835207
_cell_length_b 8.893917
_cell_length_c 27.590635
_cell_angle_alpha 90.000000
_cell_angle_beta 162.693142
_cell_angle_gamma 90.000000
_cell_volume 1301.979229
_symmetry_space_group_name_H-M "P 2/C"
_symmetry_group_IT_number 13
_symmetry_cell_setting 'monoclinic'
loop_
_space_group_symop_operation_xyz
x,y,z
-x,y,1/2-z
-x,-y,-z
x,-y,1/2+z
loop_
_atom_site_type_symbol
_atom_site_label
_atom_site_fract_x
_atom_site_fract_y
_atom_site_fract_z
Si Si1 0.477452 0.172146 0.538023
Si Si2 0.000000 0.626199 0.750000
Si Si3 0.672245 0.413750 0.480705
Si Si4 0.685790 0.314311 0.763674
Si Si5 0.231830 0.367438 0.066251
Si Si6 0.500000 0.335757 0.750000
Si Si7 0.704622 0.832753 0.077988
O O1 0.582121 0.222633 0.654203
O O2 0.660059 0.210502 0.606236
O O3 0.223420 0.265585 0.370527
O O4 0.421208 0.995389 0.505467
O O5 0.121053 0.520942 0.866048
O O6 0.438012 0.519026 0.319654
O O7 0.784144 0.341119 0.501045
O O8 0.599039 0.290460 0.475452
O O9 0.582134 0.255694 0.751332
O O10 0.986531 0.319526 0.944159
O O11 0.500000 0.302667 0.250000
O O12 0.271798 0.547804 0.097529
O O13 0.000000 0.844640 0.250000
#
# Coordination Sequence:
#
# PCOD9228615 Si02
#       7
#     4   2   4   4   4   2   4
#     4  10  23  36  58  81 121 154 187 230 282 344
#     4  10  20  36  52  94 116 142 192 232 280 342
#     4  10  21  31  59  87 114 148 183 235 283 331
#     4  10  19  35  56  84 111 143 193 236 278 337
#     4   9  19  34  55  85 109 143 183 240 286 325
#     4   8  18  32  54  80 110 144 178 238 290 316
#     4  11  21  39  55  82 118 160 184 226 284 348
#
# _framework density 18.433474
#
# number of rings (size 3 to 8) (size 9 to 14) (size 15 to 20)
#    0.500    1.667    1.667    1.500    2.333    1.333 
#    0.000    0.000    1.833    1.000    0.000    0.000 
#    0.000    0.000    0.000    0.000    0.000    0.000 
#
# Total GULP energy -133743.179893 kJ/mol
# GULP energy per Si atom -5572.632496 kJ/mol
# Density = 1.839152 g / cm^3
# Si number density = 18.433474 Si / 1000 Ang^3
#
#
#
# Elastic Constant Matrix: (Units=GPa)
#
#
# Indices 1 2 3 4 5 6 
#
# 1 183.6270 32.2528 50.8456 0.0000 -1.7608 0.0000
# 2 32.2528 46.5695 9.7968 0.0000 -6.3998 0.0000
# 3 50.8456 9.7968 89.5536 0.0000 14.0117 0.0000
# 4 0.0000 0.0000 0.0000 5.6456 0.0000 -0.6130
# 5 -1.7608 -6.3998 14.0117 0.0000 28.4146 0.0000
# 6 0.0000 0.0000 0.0000 -0.6130 0.0000 7.0110
#
#
#
# Elastic Compliance Matrix: (Units=1/GPa)
#
#
# Indices 1 2 3 4 5 6 
#
# 1 0.007243 -0.003991 -0.003907 0.000000 0.001476 0.000000
# 2 -0.003991 0.025403 -0.001484 0.000000 0.006206 0.000000
# 3 -0.003907 -0.001484 0.014777 0.000000 -0.007863 0.000000
# 4 0.000000 0.000000 0.000000 0.178828 0.000000 0.015636
# 5 0.001476 0.006206 -0.007863 0.000000 0.040560 0.000000
# 6 0.000000 0.000000 0.000000 0.015636 0.000000 0.144000
#
#
# Mechanical properties :
#
#
# Convention : Reuss Voigt Hill
#
# Bulk Modulus (GPa) = 34.89294 56.17117 45.53206
# Shear Modulus (GPa) = 11.38625 23.33789 17.36207
#
# Velocity S-wave (km/s) = 2.48804 3.56203 3.07233
# Velocity P-wave (km/s) = 5.21766 6.88883 6.11065
#
# Compressibility (1/GPa) = 0.02865909
#
# Stress axis : x y z
#
# Youngs Moduli (GPa) = 138.06921 39.36610 67.67243
#
# Poissons Ratio (x) = 0.15713 0.26436
# Poissons Ratio (y) = 0.55110 0.10040
# Poissons Ratio (z) = 0.53937 0.05841
#
# Static dielectric constant tensor:
#      x y z
#    x 1.656460 0.000000 -0.009020 
#    y 0.000000 1.626280 0.000000 
#    z -0.009020 0.000000 1.637130 
# 
# From -- ./inp_files/93295.got.cif
#   From: 2010.05.17/outbox.cif.g08.bks.cpg/sg13_47_cif.got.tgz:93295.got - 2010.06.03 16:44:36.
