data_PCOD9228756
_publ_section_title
;
Structure prediction by ZEFSAII (Michael W. Deem and Ramdas Pophale) SiO2 
 PCOD9228756
Probable space group: P 2/C
;
_chemical_formula_sum "Si O2"
_cell_formula_units_Z 24
_cell_length_a 6.965359
_cell_length_b 9.837725
_cell_length_c 23.486290
_cell_angle_alpha 90.000000
_cell_angle_beta 47.949569
_cell_angle_gamma 90.000000
_cell_volume 1195.037593
_symmetry_space_group_name_H-M "P 2/C"
_symmetry_group_IT_number 13
_symmetry_cell_setting 'monoclinic'
loop_
_space_group_symop_operation_xyz
x,y,z
-x,y,1/2-z
-x,-y,-z
x,-y,1/2+z
loop_
_atom_site_type_symbol
_atom_site_label
_atom_site_fract_x
_atom_site_fract_y
_atom_site_fract_z
Si Si1 0.097374 0.646042 0.933042
Si Si2 0.454241 0.887020 0.826757
Si Si3 0.756740 0.976419 0.871507
Si Si4 0.126166 0.617072 0.057422
Si Si5 0.405180 0.788061 0.492527
Si Si6 0.781192 0.133319 0.667297
O O1 0.312346 0.748133 0.868374
O O2 0.019508 0.526313 0.904605
O O3 0.833350 0.728910 0.994171
O O4 0.185356 0.603140 0.978421
O O5 0.500000 0.886311 0.750000
O O6 0.686612 0.914524 0.824246
O O7 0.268209 0.018371 0.870570
O O8 0.027146 0.055745 0.826607
O O9 0.711398 0.856672 0.926879
O O10 0.551456 0.092734 0.930204
O O11 0.927817 0.737196 0.113288
O O12 0.390790 0.667341 0.034269
O O13 0.500000 0.168414 0.750000
#
# Coordination Sequence:
#
# PCOD9228756 Si02
#       6
#     4   4   4   4   4   4
#     4  11  21  37  58  90 121 157 199 243 306 357
#     4  11  23  37  58  88 121 160 198 248 303 359
#     4  10  20  36  60  90 118 149 199 249 300 351
#     4  10  22  37  60  87 122 156 197 253 293 359
#     4  10  19  35  62  88 118 151 195 251 298 358
#     4  10  22  39  59  86 114 161 199 246 296 359
#
# _framework density 20.083051000000001
#
# number of rings (size 3 to 8) (size 9 to 14) (size 15 to 20)
#    0.000    1.667    3.333    1.500    0.000    4.667 
#    0.000    0.000    0.000    0.000    8.667    0.000 
#    0.000    0.000    0.000    0.000    0.000    0.000 
#
# Total GULP energy -133763.304569 kJ/mol
# GULP energy per Si atom -5573.471024 kJ/mol
# Density = 2.003734 g / cm^3
# Si number density = 20.083051 Si / 1000 Ang^3
#
#
#
# Elastic Constant Matrix: (Units=GPa)
#
#
# Indices 1 2 3 4 5 6 
#
# 1 105.8606 8.5679 27.7788 0.0000 -4.5745 0.0000
# 2 8.5679 72.2237 16.6359 0.0000 -10.1099 0.0000
# 3 27.7788 16.6359 63.0725 0.0000 -4.6170 0.0000
# 4 0.0000 0.0000 0.0000 18.3432 0.0000 4.8585
# 5 -4.5745 -10.1099 -4.6170 0.0000 24.7057 0.0000
# 6 0.0000 0.0000 0.0000 4.8585 0.0000 12.5371
#
#
#
# Elastic Compliance Matrix: (Units=1/GPa)
#
#
# Indices 1 2 3 4 5 6 
#
# 1 0.010711 -0.000052 -0.004623 0.000000 0.001098 0.000000
# 2 -0.000052 0.015482 -0.003647 0.000000 0.005644 0.000000
# 3 -0.004623 -0.003647 0.018940 0.000000 0.001191 0.000000
# 4 0.000000 0.000000 0.000000 0.060752 0.000000 -0.023543
# 5 0.001098 0.005644 0.001191 0.000000 0.043212 0.000000
# 6 0.000000 0.000000 0.000000 -0.023543 0.000000 0.088887
#
#
# Mechanical properties :
#
#
# Convention : Reuss Voigt Hill
#
# Bulk Modulus (GPa) = 35.10259 38.56912 36.83585
# Shear Modulus (GPa) = 18.93027 23.66213 21.29620
#
# Velocity S-wave (km/s) = 3.07351 3.43624 3.25992
# Velocity P-wave (km/s) = 5.48743 5.91525 5.70535
#
# Compressibility (1/GPa) = 0.02848793
#
# Stress axis : x y z
#
# Youngs Moduli (GPa) = 93.35957 64.58997 52.79754
#
# Poissons Ratio (x) = 0.00336 0.24411
# Poissons Ratio (y) = 0.00486 0.19258
# Poissons Ratio (z) = 0.43164 0.23559
#
# Static dielectric constant tensor:
#      x y z
#    x 1.787960 0.000000 0.006970 
#    y 0.000000 1.767530 0.000000 
#    z 0.006970 0.000000 1.744650 
# 
# From -- ./inp_files/83475.got.cif
#   From: 2010.05.17/outbox.cif.g08.bks.cpg/sg13_42_cif.got.tgz:83475.got - 2010.06.03 16:44:36.
