data_PCOD9228722
_publ_section_title
;
Structure prediction by ZEFSAII (Michael W. Deem and Ramdas Pophale) SiO2 
 PCOD9228722
Probable space group: P 2/C
;
_chemical_formula_sum "Si O2"
_cell_formula_units_Z 28
_cell_length_a 11.253952
_cell_length_b 8.773479
_cell_length_c 15.739653
_cell_angle_alpha 90.000000
_cell_angle_beta 62.189715
_cell_angle_gamma 90.000000
_cell_volume 1374.575300
_symmetry_space_group_name_H-M "P 2/C"
_symmetry_group_IT_number 13
_symmetry_cell_setting 'monoclinic'
loop_
_space_group_symop_operation_xyz
x,y,z
-x,y,1/2-z
-x,-y,-z
x,-y,1/2+z
loop_
_atom_site_type_symbol
_atom_site_label
_atom_site_fract_x
_atom_site_fract_y
_atom_site_fract_z
Si Si1 0.467684 0.644201 0.122616
Si Si2 0.991922 0.685951 0.399201
Si Si3 0.498946 0.281520 0.423981
Si Si4 0.000000 0.435216 0.250000
Si Si5 0.000000 0.068870 0.750000
Si Si6 0.786415 0.821037 0.779857
Si Si7 0.746832 0.282994 0.110157
Si Si8 0.288591 0.366154 0.839608
O O1 0.471547 0.460940 0.106127
O O2 0.608969 0.684506 0.121016
O O3 0.350339 0.681259 0.228307
O O4 0.452793 0.722129 0.036899
O O5 0.984504 0.539447 0.338976
O O6 0.987068 0.827128 0.337029
O O7 0.871557 0.692613 0.505790
O O8 0.135420 0.683626 0.398268
O O9 0.635928 0.191808 0.363765
O O10 0.381429 0.228855 0.400491
O O11 0.870766 0.328027 0.280801
O O12 0.130171 0.963220 0.714933
O O13 0.781766 0.819547 0.679013
O O14 0.709467 0.449918 0.158882
#
# Coordination Sequence:
#
# PCOD9228722 Si02
#       8
#     4   4   4   2   2   4   4   4
#     4   9  19  32  58  99 127 153 194 257 326 368
#     4  11  23  40  62  91 127 163 207 269 324 368
#     4  10  20  34  60  90 129 159 197 260 315 370
#     4  10  22  34  64  90 120 160 212 264 320 374
#     4  10  28  44  62  82 130 176 220 260 320 370
#     4  11  22  42  60  91 125 169 216 260 307 379
#     4  11  22  34  65  98 122 161 213 258 320 379
#     4  10  19  35  60  96 130 152 201 263 318 376
#
# _framework density 20.369928999999999
#
# number of rings (size 3 to 8) (size 9 to 14) (size 15 to 20)
#    0.000    1.714    2.857    0.857   10.000    1.714 
#    0.000    0.714    6.286    0.000    0.000    0.000 
#    0.000    0.000    0.000    0.000    0.000    0.000 
#
# Total GULP energy -156577.415634 kJ/mol
# GULP energy per Si atom -5592.050558 kJ/mol
# Density = 2.032357 g / cm^3
# Si number density = 20.369929 Si / 1000 Ang^3
#
#
#
# Elastic Constant Matrix: (Units=GPa)
#
#
# Indices 1 2 3 4 5 6 
#
# 1 140.9405 29.9754 38.4825 0.0000 -11.2915 0.0000
# 2 29.9754 46.9720 17.7201 0.0000 4.9438 0.0000
# 3 38.4825 17.7201 73.7936 0.0000 -11.0018 0.0000
# 4 0.0000 0.0000 0.0000 5.9203 0.0000 0.3246
# 5 -11.2915 4.9438 -11.0018 0.0000 28.7418 0.0000
# 6 0.0000 0.0000 0.0000 0.3246 0.0000 13.5696
#
#
#
# Elastic Compliance Matrix: (Units=1/GPa)
#
#
# Indices 1 2 3 4 5 6 
#
# 1 0.009303 -0.005108 -0.003127 0.000000 0.003336 0.000000
# 2 -0.005108 0.027439 -0.005226 0.000000 -0.008727 0.000000
# 3 -0.003127 -0.005226 0.017380 0.000000 0.006323 0.000000
# 4 0.000000 0.000000 0.000000 0.169132 0.000000 -0.004046
# 5 0.003336 -0.008727 0.006323 0.000000 0.040025 0.000000
# 6 0.000000 0.000000 0.000000 -0.004046 0.000000 0.073791
#
#
# Mechanical properties :
#
#
# Convention : Reuss Voigt Hill
#
# Bulk Modulus (GPa) = 36.76667 48.22911 42.49789
# Shear Modulus (GPa) = 13.40274 21.34821 17.37547
#
# Velocity S-wave (km/s) = 2.56787 3.24083 2.92378
# Velocity P-wave (km/s) = 5.18465 6.14264 5.68386
#
# Compressibility (1/GPa) = 0.02719854
#
# Stress axis : x y z
#
# Youngs Moduli (GPa) = 107.49550 36.44436 57.53793
#
# Poissons Ratio (x) = 0.18616 0.17994
# Poissons Ratio (y) = 0.54908 0.30071
# Poissons Ratio (z) = 0.33617 0.19047
#
# Static dielectric constant tensor:
#      x y z
#    x 1.718890 0.000000 0.011140 
#    y 0.000000 1.710330 0.000000 
#    z 0.011140 0.000000 1.702360 
# 
# From -- ./inp_files/50272.got.cif
#   From: 2010.05.17/outbox.cif.g08.bks.cpg/sg13_26_cif.got.tgz:50272.got - 2010.06.03 16:44:36.
