data_PCOD9228380
_publ_section_title
;
Structure prediction by ZEFSAII (Michael W. Deem and Ramdas Pophale) SiO2 
 PCOD9228380
Probable space group: P 2/C
;
_chemical_formula_sum "Si O2"
_cell_formula_units_Z 22
_cell_length_a 30.812924
_cell_length_b 5.166017
_cell_length_c 5.024816
_cell_angle_alpha 90.000000
_cell_angle_beta 90.077132
_cell_angle_gamma 90.000000
_cell_volume 799.849934
_symmetry_space_group_name_H-M "P 2/C"
_symmetry_group_IT_number 13
_symmetry_cell_setting 'monoclinic'
loop_
_space_group_symop_operation_xyz
x,y,z
-x,y,1/2-z
-x,-y,-z
x,-y,1/2+z
loop_
_atom_site_type_symbol
_atom_site_label
_atom_site_fract_x
_atom_site_fract_y
_atom_site_fract_z
Si Si1 0.272065 0.123042 0.622713
Si Si2 0.820147 0.660901 0.198972
Si Si3 0.000000 0.691612 0.250000
Si Si4 0.633864 0.663874 0.332315
Si Si5 0.909561 0.684556 0.349099
Si Si6 0.455167 0.684147 0.317983
O O1 0.226968 0.233985 0.729485
O O2 0.318379 0.228674 0.718213
O O3 0.271736 0.138639 0.303462
O O4 0.822865 0.409259 0.390792
O O5 0.863325 0.815131 0.287545
O O6 0.953957 0.834745 0.279209
O O7 0.000000 0.500000 0.500000
O O8 0.631140 0.584665 0.638488
O O9 0.590745 0.818866 0.244976
O O10 0.910225 0.558632 0.640623
O O11 0.500000 0.827965 0.250000
O O12 0.455695 0.557634 0.608256
#
# Coordination Sequence:
#
# PCOD9228380 Si02
#       6
#     4   4   2   4   4   4
#     4  12  24  36  50  72 101 130 161 203 249 287
#     4  10  19  34  53  72  94 126 166 201 236 285
#     4   8  12  20  34  60  92 114 136 180 238 276
#     4  10  19  34  55  75  97 129 165 199 236 285
#     4   8  14  23  40  64  90 116 146 188 233 276
#     4   8  14  25  45  73  97 117 151 197 235 270
#
# _framework density 27.505161999999999
#
# number of rings (size 3 to 8) (size 9 to 14) (size 15 to 20)
#    0.000    2.545    0.000    3.273    0.000    0.000 
#    0.000    0.000    0.000    1.091    0.000    1.273 
#    0.000    0.000    0.000    0.000    0.000    0.000 
#
# Total GULP energy -122863.294713 kJ/mol
# GULP energy per Si atom -5584.695214 kJ/mol
# Density = 2.744256 g / cm^3
# Si number density = 27.505162 Si / 1000 Ang^3
#
#
#
# Elastic Constant Matrix: (Units=GPa)
#
#
# Indices 1 2 3 4 5 6 
#
# 1 300.8526 17.4083 4.2020 0.0000 -12.6564 0.0000
# 2 17.4083 37.2665 22.5414 0.0000 -0.3189 0.0000
# 3 4.2020 22.5414 149.4531 0.0000 -13.7085 0.0000
# 4 0.0000 0.0000 0.0000 51.3795 0.0000 11.5662
# 5 -12.6564 -0.3189 -13.7085 0.0000 42.8458 0.0000
# 6 0.0000 0.0000 0.0000 11.5662 0.0000 -84.1450
#
#
#
# Elastic Compliance Matrix: (Units=1/GPa)
#
#
# Indices 1 2 3 4 5 6 
#
# 1 0.003469 -0.001775 0.000271 0.000000 0.001098 0.000000
# 2 -0.001775 0.030500 -0.004716 0.000000 -0.001806 0.000000
# 3 0.000271 -0.004716 0.007623 0.000000 0.002484 0.000000
# 4 0.000000 0.000000 0.000000 0.018879 0.000000 0.002595
# 5 0.001098 -0.001806 0.002484 0.000000 0.024445 0.000000
# 6 0.000000 0.000000 0.000000 0.002595 0.000000 -0.011528
#
#
# Mechanical properties :
#
#
# Convention : Reuss Voigt Hill
#
# Bulk Modulus (GPa) = 34.30351 63.98616 49.14484
# Shear Modulus (GPa) = 52.33131 31.57743 41.95437
#
# Velocity S-wave (km/s) = 4.36661 3.39197 3.90978
# Velocity P-wave (km/s) = 6.15807 6.21727 6.18774
#
# Compressibility (1/GPa) = 0.02915153
#
# Stress axis : x y z
#
# Youngs Moduli (GPa) = 288.26704 32.78694 131.18957
#
# Poissons Ratio (x) = 0.05819 -0.03554
# Poissons Ratio (y) = 0.51166 0.61868
# Poissons Ratio (z) = -0.07809 0.15462
#
# Static dielectric constant tensor:
#      x y z
#    x 2.286400 0.000000 0.031880 
#    y 0.000000 2.134680 0.000000 
#    z 0.031880 0.000000 2.088280 
# 
# From -- ./inp_files/7943.got.cif
#   From: 2010.05.17/outbox.cif.g08.bks.cpg/sg13_4_cif.got.tgz:7943.got - 2010.06.03 16:44:36.
