data_PCOD9228152
_publ_section_title
;
Structure prediction by ZEFSAII (Michael W. Deem and Ramdas Pophale) SiO2 
 PCOD9228152
Probable space group: P 2/C
;
_chemical_formula_sum "Si O2"
_cell_formula_units_Z 32
_cell_length_a 16.137050
_cell_length_b 13.251885
_cell_length_c 9.608286
_cell_angle_alpha 90.000000
_cell_angle_beta 125.302043
_cell_angle_gamma 90.000000
_cell_volume 1676.872881
_symmetry_space_group_name_H-M "P 2/C"
_symmetry_group_IT_number 13
_symmetry_cell_setting 'monoclinic'
loop_
_space_group_symop_operation_xyz
x,y,z
-x,y,1/2-z
-x,-y,-z
x,-y,1/2+z
loop_
_atom_site_type_symbol
_atom_site_label
_atom_site_fract_x
_atom_site_fract_y
_atom_site_fract_z
Si Si1 0.826649 0.508942 0.357946
Si Si2 0.993560 0.354114 0.896131
Si Si3 0.879995 0.001190 0.352757
Si Si4 0.399758 0.194192 0.561520
Si Si5 0.923430 0.788491 0.793005
Si Si6 0.751516 0.369853 0.046979
Si Si7 0.443793 0.917231 0.843433
Si Si8 0.251067 0.018037 0.525644
O O1 0.916003 0.437269 0.506675
O O2 0.759909 0.441405 0.189999
O O3 0.767607 0.564378 0.424208
O O4 0.888534 0.589819 0.325781
O O5 0.000000 0.308095 0.750000
O O6 0.012562 0.272494 0.032137
O O7 0.865312 0.121772 0.314732
O O8 0.825804 0.947900 0.429019
O O9 0.821004 0.962827 0.157412
O O10 0.000000 0.000000 0.500000
O O11 0.500000 0.178963 0.750000
O O12 0.347378 0.300237 0.543632
O O13 0.430759 0.178639 0.430969
O O14 0.320064 0.105628 0.525420
O O15 0.846129 0.708288 0.651206
O O16 0.000000 0.828489 0.750000
O O17 0.500000 0.904232 0.750000
O O18 0.332237 0.951688 0.688204
O O19 0.500000 0.000000 0.000000
#
# Coordination Sequence:
#
# PCOD9228152 Si02
#       8
#     4   4   4   4   4   4   4   4
#     4  10  20  35  61  91 125 163 206 263 326 390
#     4  10  19  32  58  91 119 161 217 264 306 365
#     4  12  26  39  57  91 139 189 217 243 318 403
#     4  12  25  44  70 100 124 167 226 280 337 395
#     4  11  21  37  58  86 128 171 219 262 304 376
#     4  11  22  41  65  94 126 164 213 269 336 392
#     4  12  20  39  72 102 125 161 222 289 330 369
#     4  12  21  41  63  90 131 177 217 262 319 378
#
# _framework density 19.08314
#
# number of rings (size 3 to 8) (size 9 to 14) (size 15 to 20)
#    0.000    0.750    7.500    1.125    0.000    1.000 
#    0.000    1.875    0.000    0.000    0.000    0.000 
#    0.000    0.000    0.000    0.000    0.000    0.000 
#
# Total GULP energy -178507.500940 kJ/mol
# GULP energy per Si atom -5578.359404 kJ/mol
# Density = 1.903971 g / cm^3
# Si number density = 19.083140 Si / 1000 Ang^3
#
#
#
# Elastic Constant Matrix: (Units=GPa)
#
#
# Indices 1 2 3 4 5 6 
#
# 1 101.2106 31.8934 66.9892 0.0000 -9.7714 0.0000
# 2 31.8934 52.8260 19.9026 0.0000 -7.2142 0.0000
# 3 66.9892 19.9026 137.7300 0.0000 4.3056 0.0000
# 4 0.0000 0.0000 0.0000 15.3718 0.0000 4.1433
# 5 -9.7714 -7.2142 4.3056 0.0000 40.6311 0.0000
# 6 0.0000 0.0000 0.0000 4.1433 0.0000 28.4338
#
#
#
# Elastic Compliance Matrix: (Units=1/GPa)
#
#
# Indices 1 2 3 4 5 6 
#
# 1 0.017556 -0.007219 -0.007613 0.000000 0.003747 0.000000
# 2 -0.007219 0.023616 0.000022 0.000000 0.002454 0.000000
# 3 -0.007613 0.000022 0.011054 0.000000 -0.002998 0.000000
# 4 0.000000 0.000000 0.000000 0.067714 0.000000 -0.009867
# 5 0.003747 0.002454 -0.002998 0.000000 0.026266 0.000000
# 6 0.000000 0.000000 0.000000 -0.009867 0.000000 0.036607
#
#
# Mechanical properties :
#
#
# Convention : Reuss Voigt Hill
#
# Bulk Modulus (GPa) = 44.23761 58.81523 51.52642
# Shear Modulus (GPa) = 22.73061 28.41943 25.57502
#
# Velocity S-wave (km/s) = 3.45503 3.86326 3.66483
# Velocity P-wave (km/s) = 6.25685 7.12651 6.70579
#
# Compressibility (1/GPa) = 0.02260520
#
# Stress axis : x y z
#
# Youngs Moduli (GPa) = 56.96126 42.34484 90.46676
#
# Poissons Ratio (x) = 0.30570 0.68870
# Poissons Ratio (y) = 0.41123 -0.00200
# Poissons Ratio (z) = 0.43363 -0.00094
#
# Static dielectric constant tensor:
#      x y z
#    x 1.692880 0.000000 0.000730 
#    y 0.000000 1.669290 0.000000 
#    z 0.000730 0.000000 1.704720 
# 
# From -- ./inp_files/19663.got.cif
#   From: 2010.05.17/outbox.cif.g08.bks.cpg/sg13_10_cif.got.tgz:19663.got - 2010.06.03 16:44:36.
