data_PCOD9228209
_publ_section_title
;
Structure prediction by ZEFSAII (Michael W. Deem and Ramdas Pophale) SiO2 
 PCOD9228209
Probable space group: P 2/C
;
_chemical_formula_sum "Si O2"
_cell_formula_units_Z 20
_cell_length_a 5.137878
_cell_length_b 28.014234
_cell_length_c 8.178789
_cell_angle_alpha 90.000000
_cell_angle_beta 61.417918
_cell_angle_gamma 90.000000
_cell_volume 1033.740807
_symmetry_space_group_name_H-M "P 2/C"
_symmetry_group_IT_number 13
_symmetry_cell_setting 'monoclinic'
loop_
_space_group_symop_operation_xyz
x,y,z
-x,y,1/2-z
-x,-y,-z
x,-y,1/2+z
loop_
_atom_site_type_symbol
_atom_site_label
_atom_site_fract_x
_atom_site_fract_y
_atom_site_fract_z
Si Si1 0.000000 0.116099 0.250000
Si Si2 0.353258 0.755788 0.112557
Si Si3 0.285127 0.032897 0.959347
Si Si4 0.500000 0.819386 0.750000
Si Si5 0.648568 0.350697 0.883037
Si Si6 0.352224 0.453279 0.618720
O O1 0.215523 0.148098 0.295254
O O2 0.815153 0.079931 0.417467
O O3 0.500000 0.763759 0.250000
O O4 0.429931 0.701669 0.028130
O O5 0.000000 0.759056 0.250000
O O6 0.445404 0.789662 0.934235
O O7 0.500000 0.048032 0.750000
O O8 0.500000 0.000000 0.000000
O O9 0.000000 0.000000 0.000000
O O10 0.500000 0.351340 0.750000
O O11 0.584354 0.401860 0.986778
O O12 0.000000 0.350792 0.750000
O O13 0.500000 0.448839 0.750000
O O14 0.500000 0.500000 0.500000
O O15 0.000000 0.459312 0.750000
#
# Coordination Sequence:
#
# PCOD9228209 Si02
#       6
#     2   4   4   2   4   4
#     4  12  26  42  66 100 138 166 208 266 312 370
#     4  10  21  41  66  87 123 168 214 264 320 377
#     4  12  23  43  70  96 129 170 210 252 306 366
#     4  12  26  42  64  98 134 164 218 268 314 374
#     4   8  16  32  56  79 106 156 201 243 307 377
#     4  10  19  33  53  79 117 152 192 250 313 372
#
# _framework density 19.34721
#
# number of rings (size 3 to 8) (size 9 to 14) (size 15 to 20)
#    0.000    1.600    2.000    3.000    0.000    2.400 
#    1.800    0.000    2.200    0.000    0.000    0.000 
#    0.000    0.000    0.000    0.000    0.000    0.000 
#
# Total GULP energy -111415.940808 kJ/mol
# GULP energy per Si atom -5570.797040 kJ/mol
# Density = 1.930317 g / cm^3
# Si number density = 19.347210 Si / 1000 Ang^3
#
#
#
# Elastic Constant Matrix: (Units=GPa)
#
#
# Indices 1 2 3 4 5 6 
#
# 1 168.3559 59.7686 31.1444 0.0000 -6.6687 0.0000
# 2 59.7686 188.4630 76.8640 0.0000 6.3145 0.0000
# 3 31.1444 76.8640 111.9807 0.0000 1.4351 0.0000
# 4 0.0000 0.0000 0.0000 14.8922 0.0000 -4.7087
# 5 -6.6687 6.3145 1.4351 0.0000 21.5867 0.0000
# 6 0.0000 0.0000 0.0000 -4.7087 0.0000 32.3229
#
#
#
# Elastic Compliance Matrix: (Units=1/GPa)
#
#
# Indices 1 2 3 4 5 6 
#
# 1 0.006878 -0.002054 -0.000538 0.000000 0.002762 0.000000
# 2 -0.002054 0.008055 -0.004923 0.000000 -0.002664 0.000000
# 3 -0.000538 -0.004923 0.012454 0.000000 0.000446 0.000000
# 4 0.000000 0.000000 0.000000 0.070392 0.000000 0.010255
# 5 0.002762 -0.002664 0.000446 0.000000 0.047927 0.000000
# 6 0.000000 0.000000 0.000000 0.010255 0.000000 0.032432
#
#
# Mechanical properties :
#
#
# Convention : Reuss Voigt Hill
#
# Bulk Modulus (GPa) = 80.94196 89.37264 85.15730
# Shear Modulus (GPa) = 25.34379 33.82853 29.58616
#
# Velocity S-wave (km/s) = 3.62324 4.18604 3.91477
# Velocity P-wave (km/s) = 7.70916 8.34615 8.03397
#
# Compressibility (1/GPa) = 0.01235453
#
# Stress axis : x y z
#
# Youngs Moduli (GPa) = 145.38996 124.14979 80.29864
#
# Poissons Ratio (x) = 0.25504 0.04322
# Poissons Ratio (y) = 0.29867 0.39534
# Poissons Ratio (z) = 0.07826 0.61123
#
# Static dielectric constant tensor:
#      x y z
#    x 1.645940 0.000000 -0.028180 
#    y 0.000000 1.682480 0.000000 
#    z -0.028180 0.000000 1.465270 
# 
# From -- ./inp_files/10205.got.cif
#   From: 2010.05.17/outbox.cif.g08.bks.cpg/sg13_6_cif.got.tgz:10205.got - 2010.06.03 16:44:36.
