data_PCOD9228749
_publ_section_title
;
Structure prediction by ZEFSAII (Michael W. Deem and Ramdas Pophale) SiO2 
 PCOD9228749
Probable space group: P 2/C
;
_chemical_formula_sum "Si O2"
_cell_formula_units_Z 22
_cell_length_a 11.007027
_cell_length_b 7.041913
_cell_length_c 11.961002
_cell_angle_alpha 90.000000
_cell_angle_beta 112.125906
_cell_angle_gamma 90.000000
_cell_volume 858.830199
_symmetry_space_group_name_H-M "P 2/C"
_symmetry_group_IT_number 13
_symmetry_cell_setting 'monoclinic'
loop_
_space_group_symop_operation_xyz
x,y,z
-x,y,1/2-z
-x,-y,-z
x,-y,1/2+z
loop_
_atom_site_type_symbol
_atom_site_label
_atom_site_fract_x
_atom_site_fract_y
_atom_site_fract_z
Si Si1 0.757276 0.742003 0.571541
Si Si2 0.000000 0.730433 0.750000
Si Si3 0.345550 0.832732 0.206615
Si Si4 0.367002 0.714570 0.756647
Si Si5 0.150529 0.834694 0.339479
Si Si6 0.109444 0.342086 0.063358
O O1 0.873918 0.608829 0.659485
O O2 0.724266 0.767040 0.432111
O O3 0.634301 0.707783 0.609259
O O4 0.822674 0.939346 0.636265
O O5 0.949064 0.792186 0.858024
O O6 0.500000 0.780683 0.250000
O O7 0.261220 0.775591 0.287444
O O8 0.347237 0.064898 0.213360
O O9 0.500000 0.647199 0.750000
O O10 0.246905 0.597108 0.665091
O O11 0.153778 0.756743 0.465461
O O12 0.000000 0.810270 0.250000
O O13 0.000000 0.500000 0.000000
#
# Coordination Sequence:
#
# PCOD9228749 Si02
#       6
#     4   2   4   4   4   4
#     4  10  19  35  61  94 137 160 201 257 327 385
#     4  10  22  40  60  90 124 166 206 270 324 362
#     4  10  21  34  59 101 142 168 196 257 331 394
#     4   9  20  35  61  93 129 175 207 254 322 381
#     4  11  22  35  62  95 127 168 212 262 316 378
#     4  11  24  40  61  86 127 168 220 262 307 377
#
# _framework density 25.616240000000001
#
# number of rings (size 3 to 8) (size 9 to 14) (size 15 to 20)
#    0.000    1.818    2.727    1.091    3.818    3.636 
#    0.000    0.000    0.000    8.727    0.000    0.000 
#    0.000    0.000    0.000    0.000    0.000    0.000 
#
# Total GULP energy -122738.676961 kJ/mol
# GULP energy per Si atom -5579.030771 kJ/mol
# Density = 2.555794 g / cm^3
# Si number density = 25.616240 Si / 1000 Ang^3
#
#
#
# Elastic Constant Matrix: (Units=GPa)
#
#
# Indices 1 2 3 4 5 6 
#
# 1 248.9724 20.4014 101.6343 0.0000 -35.4720 0.0000
# 2 20.4014 91.4626 34.6224 0.0000 -18.8182 0.0000
# 3 101.6343 34.6224 204.7668 0.0000 -44.1244 0.0000
# 4 0.0000 0.0000 0.0000 5.5205 0.0000 -21.1082
# 5 -35.4720 -18.8182 -44.1244 0.0000 60.0839 0.0000
# 6 0.0000 0.0000 0.0000 -21.1082 0.0000 6.0716
#
#
#
# Elastic Compliance Matrix: (Units=1/GPa)
#
#
# Indices 1 2 3 4 5 6 
#
# 1 0.005131 -0.000010 -0.002249 0.000000 0.001375 0.000000
# 2 -0.000010 0.012040 -0.001449 0.000000 0.002701 0.000000
# 3 -0.002249 -0.001449 0.006963 0.000000 0.003332 0.000000
# 4 0.000000 0.000000 0.000000 -0.014736 0.000000 -0.051229
# 5 0.001375 0.002701 0.003332 0.000000 0.020748 0.000000
# 6 0.000000 0.000000 0.000000 -0.051229 0.000000 -0.013398
#
#
# Mechanical properties :
#
#
# Convention : Reuss Voigt Hill
#
# Bulk Modulus (GPa) = 59.81565 95.39089 77.60327
# Shear Modulus (GPa) = 168.14551 40.23812 104.19181
#
# Velocity S-wave (km/s) = 8.11065 3.96764 6.38455
# Velocity P-wave (km/s) = 10.54095 7.63602 9.20382
#
# Compressibility (1/GPa) = 0.01671803
#
# Stress axis : x y z
#
# Youngs Moduli (GPa) = 194.88512 83.05794 143.62214
#
# Poissons Ratio (x) = 0.00087 0.32299
# Poissons Ratio (y) = 0.00204 0.20804
# Poissons Ratio (z) = 0.43827 0.12031
#
# Static dielectric constant tensor:
#      x y z
#    x 2.359770 0.000000 0.161020 
#    y 0.000000 2.348960 0.000000 
#    z 0.161020 0.000000 2.050390 
# 
# From -- ./inp_files/32710.got.cif
#   From: 2010.05.17/outbox.cif.g08.bks.cpg/sg13_17_cif.got.tgz:32710.got - 2010.06.03 16:44:36.
