data_PCOD9228548
_publ_section_title
;
Structure prediction by ZEFSAII (Michael W. Deem and Ramdas Pophale) SiO2 
 PCOD9228548
Probable space group: P 2/C
;
_chemical_formula_sum "Si O2"
_cell_formula_units_Z 20
_cell_length_a 8.610764
_cell_length_b 13.605032
_cell_length_c 13.259471
_cell_angle_alpha 90.000000
_cell_angle_beta 148.091810
_cell_angle_gamma 90.000000
_cell_volume 821.034649
_symmetry_space_group_name_H-M "P 2/C"
_symmetry_group_IT_number 13
_symmetry_cell_setting 'monoclinic'
loop_
_space_group_symop_operation_xyz
x,y,z
-x,y,1/2-z
-x,-y,-z
x,-y,1/2+z
loop_
_atom_site_type_symbol
_atom_site_label
_atom_site_fract_x
_atom_site_fract_y
_atom_site_fract_z
Si Si1 0.204790 0.295263 0.514434
Si Si2 0.447222 0.384513 0.972323
Si Si3 0.902766 0.318596 0.534942
Si Si4 0.301091 0.920320 0.040464
Si Si5 0.916397 0.114043 0.809136
O O1 0.500000 0.291762 0.750000
O O2 0.297666 0.339366 0.458006
O O3 0.130691 0.181844 0.449015
O O4 0.969930 0.351606 0.456155
O O5 0.375125 0.343530 0.046097
O O6 0.163904 0.361476 0.747026
O O7 0.500000 0.500000 0.000000
O O8 0.963312 0.201039 0.554799
O O9 0.500000 0.933393 0.250000
O O10 0.569868 0.906045 0.111951
O O11 0.088456 0.012385 0.915691
O O12 0.000000 0.159854 0.750000
#
# Coordination Sequence:
#
# PCOD9228548 Si02
#       5
#     4   4   4   4   4
#     4   9  17  35  58  86 117 158 202 248 313 375
#     4  10  19  34  60  85 106 149 211 257 313 373
#     4  10  19  37  61  83 117 163 198 255 325 377
#     4  11  21  36  62  94 128 173 214 253 304 384
#     4  12  21  37  62  95 129 174 211 253 315 385
#
# _framework density 24.359508000000002
#
# number of rings (size 3 to 8) (size 9 to 14) (size 15 to 20)
#    0.000    1.600    8.000    1.200    0.000    0.800 
#    0.000    0.000   13.200    3.600    0.000    0.000 
#    0.000    0.000    0.000    0.000    0.000    0.000 
#
# Total GULP energy -111449.483901 kJ/mol
# GULP energy per Si atom -5572.474195 kJ/mol
# Density = 2.430406 g / cm^3
# Si number density = 24.359508 Si / 1000 Ang^3
#
#
#
# Elastic Constant Matrix: (Units=GPa)
#
#
# Indices 1 2 3 4 5 6 
#
# 1 226.9539 55.3044 18.7575 0.0000 45.7198 0.0000
# 2 55.3044 173.5816 19.1761 0.0000 18.2915 0.0000
# 3 18.7575 19.1761 79.2651 0.0000 17.0064 0.0000
# 4 0.0000 0.0000 0.0000 18.0917 0.0000 5.6686
# 5 45.7198 18.2915 17.0064 0.0000 -6.9555 0.0000
# 6 0.0000 0.0000 0.0000 5.6686 0.0000 3.6295
#
#
#
# Elastic Compliance Matrix: (Units=1/GPa)
#
#
# Indices 1 2 3 4 5 6 
#
# 1 0.003067 -0.001738 -0.002394 0.000000 0.009734 0.000000
# 2 -0.001738 0.006307 -0.001457 0.000000 0.001597 0.000000
# 3 -0.002394 -0.001457 0.011631 0.000000 0.008873 0.000000
# 4 0.000000 0.000000 0.000000 0.108243 0.000000 -0.169056
# 5 0.009734 0.001597 0.008873 0.000000 -0.053892 0.000000
# 6 0.000000 0.000000 0.000000 -0.169056 0.000000 0.539555
#
#
# Mechanical properties :
#
#
# Convention : Reuss Voigt Hill
#
# Bulk Modulus (GPa) = 101.76188 74.03073 87.89631
# Shear Modulus (GPa) = 7.94451 28.72398 18.33424
#
# Velocity S-wave (km/s) = 1.80788 3.43763 2.74643
# Velocity P-wave (km/s) = 6.79880 6.79803 6.79841
#
# Compressibility (1/GPa) = 0.00982686
#
# Stress axis : x y z
#
# Youngs Moduli (GPa) = 326.08276 158.54148 85.97547
#
# Poissons Ratio (x) = 0.27561 0.20579
# Poissons Ratio (y) = 0.56686 0.12529
# Poissons Ratio (z) = 0.78051 0.23104
#
# Static dielectric constant tensor:
#      x y z
#    x 2.034220 0.000000 -0.139130 
#    y 0.000000 1.903400 0.000000 
#    z -0.139130 0.000000 1.677400 
# 
# From -- ./inp_files/64365.got.cif
#   From: 2010.05.17/outbox.cif.g08.bks.cpg/sg13_33_cif.got.tgz:64365.got - 2010.06.03 16:44:36.
