data_PCOD9228231
_publ_section_title
;
Structure prediction by ZEFSAII (Michael W. Deem and Ramdas Pophale) SiO2 
 PCOD9228231
Probable space group: P 2/C
;
_chemical_formula_sum "Si O2"
_cell_formula_units_Z 32
_cell_length_a 29.307087
_cell_length_b 9.160965
_cell_length_c 20.311115
_cell_angle_alpha 90.000000
_cell_angle_beta 160.026152
_cell_angle_gamma 90.000000
_cell_volume 1862.748881
_symmetry_space_group_name_H-M "P 2/C"
_symmetry_group_IT_number 13
_symmetry_cell_setting 'monoclinic'
loop_
_space_group_symop_operation_xyz
x,y,z
-x,y,1/2-z
-x,-y,-z
x,-y,1/2+z
loop_
_atom_site_type_symbol
_atom_site_label
_atom_site_fract_x
_atom_site_fract_y
_atom_site_fract_z
Si Si1 0.388388 0.342841 0.052397
Si Si2 0.544789 0.589179 0.459497
Si Si3 0.036037 0.742040 0.573035
Si Si4 0.075747 0.345207 0.913470
Si Si5 0.240406 0.162870 0.243988
Si Si6 0.231742 0.169154 0.725750
Si Si7 0.124324 0.454144 0.750988
Si Si8 0.704778 0.585223 0.291140
O O1 0.500000 0.271972 0.250000
O O2 0.446618 0.482538 0.091613
O O3 0.320681 0.240719 0.905043
O O4 0.273677 0.399446 0.945819
O O5 0.631577 0.735574 0.567381
O O6 0.396294 0.614688 0.285948
O O7 0.622737 0.502565 0.623416
O O8 0.922845 0.825820 0.460160
O O9 0.954001 0.637500 0.411697
O O10 0.140186 0.832283 0.670724
O O11 0.114474 0.625670 0.723775
O O12 0.000000 0.271752 0.750000
O O13 0.957575 0.415718 0.795843
O O14 0.160242 0.237821 0.074779
O O15 0.174549 0.476935 0.026699
O O16 0.274430 0.997041 0.273549
O O17 0.247170 0.270108 0.682084
#
# Coordination Sequence:
#
# PCOD9228231 Si02
#       8
#     4   4   4   4   4   4   4   4
#     4  10  20  33  53  77 103 133 173 221 263 304
#     4   9  18  33  52  74  98 132 176 212 246 301
#     4   9  15  30  54  80 100 124 175 219 248 304
#     4  10  20  33  53  77 103 133 173 221 263 304
#     4  10  19  33  54  79 105 139 174 210 257 314
#     4  10  19  33  54  79 105 139 174 210 257 314
#     4   9  16  30  54  78  98 126 170 220 260 292
#     4   9  18  33  52  74  98 132 176 212 246 301
#
# _framework density 17.178912
#
# number of rings (size 3 to 8) (size 9 to 14) (size 15 to 20)
#    0.000    2.500    2.500    0.375    1.750    0.500 
#    0.000    1.250    0.000    0.000    0.000    0.000 
#    0.000    0.000    0.000    0.000    0.000    0.000 
#
# Total GULP energy -178220.024707 kJ/mol
# GULP energy per Si atom -5569.375772 kJ/mol
# Density = 1.713981 g / cm^3
# Si number density = 17.178912 Si / 1000 Ang^3
#
#
#
# Elastic Constant Matrix: (Units=GPa)
#
#
# Indices 1 2 3 4 5 6 
#
# 1 49.3124 23.3520 42.3102 0.0000 29.0149 0.0000
# 2 23.3520 94.8127 17.0663 0.0000 11.6425 0.0000
# 3 42.3102 17.0663 63.2426 0.0000 11.8451 0.0000
# 4 0.0000 0.0000 0.0000 10.9771 0.0000 0.9329
# 5 29.0149 11.6425 11.8451 0.0000 31.1639 0.0000
# 6 0.0000 0.0000 0.0000 0.9329 0.0000 9.8462
#
#
#
# Elastic Compliance Matrix: (Units=1/GPa)
#
#
# Indices 1 2 3 4 5 6 
#
# 1 0.190170 -0.012528 -0.098578 0.000000 -0.134907 0.000000
# 2 -0.012528 0.012222 0.004042 0.000000 0.005562 0.000000
# 3 -0.098578 0.004042 0.068652 0.000000 0.064177 0.000000
# 4 0.000000 0.000000 0.000000 0.091839 0.000000 -0.008701
# 5 -0.134907 0.005562 0.064177 0.000000 0.131222 0.000000
# 6 0.000000 0.000000 0.000000 -0.008701 0.000000 0.102387
#
#
# Mechanical properties :
#
#
# Convention : Reuss Voigt Hill
#
# Bulk Modulus (GPa) = 17.57023 41.42497 29.49760
# Shear Modulus (GPa) = 6.02705 18.70671 12.36688
#
# Velocity S-wave (km/s) = 1.87510 3.30348 2.68598
# Velocity P-wave (km/s) = 3.86497 6.22229 5.17952
#
# Compressibility (1/GPa) = 0.05691445
#
# Stress axis : x y z
#
# Youngs Moduli (GPa) = 5.25844 81.81766 14.56627
#
# Poissons Ratio (x) = 1.02504 1.43592
# Poissons Ratio (y) = 0.06588 -0.05887
# Poissons Ratio (z) = 0.51837 -0.33068
#
# Static dielectric constant tensor:
#      x y z
#    x 1.612790 0.000000 0.001090 
#    y 0.000000 1.558360 0.000000 
#    z 0.001090 0.000000 1.603360 
# 
# From -- ./inp_files/82803.got.cif
#   From: 2010.05.17/outbox.cif.g08.bks.cpg/sg13_42_cif.got.tgz:82803.got - 2010.06.03 16:44:36.
