data_PCOD9228952
_publ_section_title
;
Structure prediction by ZEFSAII (Michael W. Deem and Ramdas Pophale) SiO2 
 PCOD9228952
Probable space group: P 2/C
;
_chemical_formula_sum "Si O2"
_cell_formula_units_Z 24
_cell_length_a 8.816449
_cell_length_b 15.565854
_cell_length_c 12.023240
_cell_angle_alpha 90.000000
_cell_angle_beta 142.091374
_cell_angle_gamma 90.000000
_cell_volume 1013.776447
_symmetry_space_group_name_H-M "P 2/C"
_symmetry_group_IT_number 13
_symmetry_cell_setting 'monoclinic'
loop_
_space_group_symop_operation_xyz
x,y,z
-x,y,1/2-z
-x,-y,-z
x,-y,1/2+z
loop_
_atom_site_type_symbol
_atom_site_label
_atom_site_fract_x
_atom_site_fract_y
_atom_site_fract_z
Si Si1 0.360226 0.432676 0.779481
Si Si2 0.324117 0.166580 0.754529
Si Si3 0.950656 0.689917 0.090693
Si Si4 0.242415 0.801495 0.815063
Si Si5 0.775489 0.011014 0.210960
Si Si6 0.432824 0.629405 0.863050
O O1 0.500000 0.403406 0.750000
O O2 0.088866 0.394929 0.629295
O O3 0.355659 0.535383 0.779123
O O4 0.492559 0.392914 0.965088
O O5 0.500000 0.171893 0.750000
O O6 0.095601 0.231705 0.618474
O O7 0.215096 0.070781 0.703786
O O8 0.507175 0.190053 0.964514
O O9 0.000000 0.705243 0.250000
O O10 0.666154 0.666293 0.931292
O O11 0.225324 0.892363 0.740780
O O12 0.249629 0.709894 0.759166
O O13 0.000000 0.800656 0.750000
O O14 0.000000 0.005529 0.250000
O O15 0.500000 0.000000 0.000000
#
# Coordination Sequence:
#
# PCOD9228952 Si02
#       6
#     4   4   4   4   4   4
#     4  10  21  38  57  88 119 155 208 254 308 365
#     4  11  21  38  65  94 116 159 211 258 300 367
#     4  10  19  36  62  87 114 155 212 247 297 374
#     4  10  21  40  61  87 124 160 201 247 314 369
#     4   9  20  37  63  89 120 164 205 250 311 370
#     4  10  22  38  61  88 120 165 204 252 315 368
#
# _framework density 23.673859
#
# number of rings (size 3 to 8) (size 9 to 14) (size 15 to 20)
#    0.000    2.000    3.333    1.000    2.333    4.000 
#    3.000    8.333    0.000    0.000    0.000    0.000 
#    0.000    0.000    0.000    0.000    0.000    0.000 
#
# Total GULP energy -134124.206632 kJ/mol
# GULP energy per Si atom -5588.508610 kJ/mol
# Density = 2.361998 g / cm^3
# Si number density = 23.673859 Si / 1000 Ang^3
#
#
#
# Elastic Constant Matrix: (Units=GPa)
#
#
# Indices 1 2 3 4 5 6 
#
# 1 143.3426 79.0820 37.3819 0.0000 18.8701 0.0000
# 2 79.0820 243.7313 45.5571 0.0000 25.9670 0.0000
# 3 37.3819 45.5571 98.9578 0.0000 10.1277 0.0000
# 4 0.0000 0.0000 0.0000 10.0519 0.0000 5.8757
# 5 18.8701 25.9670 10.1277 0.0000 35.3382 0.0000
# 6 0.0000 0.0000 0.0000 5.8757 0.0000 42.2718
#
#
#
# Elastic Compliance Matrix: (Units=1/GPa)
#
#
# Indices 1 2 3 4 5 6 
#
# 1 0.009136 -0.002290 -0.002132 0.000000 -0.002584 0.000000
# 2 -0.002290 0.005347 -0.001359 0.000000 -0.002316 0.000000
# 3 -0.002132 -0.001359 0.011660 0.000000 -0.001204 0.000000
# 4 0.000000 0.000000 0.000000 0.108281 0.000000 -0.015051
# 5 -0.002584 -0.002316 -0.001204 0.000000 0.031725 0.000000
# 6 0.000000 0.000000 0.000000 -0.015051 0.000000 0.025748
#
#
# Mechanical properties :
#
#
# Convention : Reuss Voigt Hill
#
# Bulk Modulus (GPa) = 68.59224 90.00819 79.30022
# Shear Modulus (GPa) = 24.00139 39.13311 31.56725
#
# Velocity S-wave (km/s) = 3.18753 4.07013 3.65557
# Velocity P-wave (km/s) = 6.52563 7.75826 7.16849
#
# Compressibility (1/GPa) = 0.01457891
#
# Stress axis : x y z
#
# Youngs Moduli (GPa) = 109.45405 187.02418 85.76469
#
# Poissons Ratio (x) = 0.42837 0.18288
# Poissons Ratio (y) = 0.25070 0.11658
# Poissons Ratio (z) = 0.23339 0.25421
#
# Static dielectric constant tensor:
#      x y z
#    x 1.863310 0.000000 -0.034170 
#    y 0.000000 1.880050 0.000000 
#    z -0.034170 0.000000 1.838240 
# 
# From -- ./inp_files/47797.got.cif
#   From: 2010.05.17/outbox.cif.g08.bks.cpg/sg13_24_cif.got.tgz:47797.got - 2010.06.03 16:44:36.
