data_PCOD9228898
_publ_section_title
;
Structure prediction by ZEFSAII (Michael W. Deem and Ramdas Pophale) SiO2 
 PCOD9228898
Probable space group: P 2/C
;
_chemical_formula_sum "Si O2"
_cell_formula_units_Z 24
_cell_length_a 11.090721
_cell_length_b 10.008056
_cell_length_c 13.506535
_cell_angle_alpha 90.000000
_cell_angle_beta 58.240261
_cell_angle_gamma 90.000000
_cell_volume 1274.695984
_symmetry_space_group_name_H-M "P 2/C"
_symmetry_group_IT_number 13
_symmetry_cell_setting 'monoclinic'
loop_
_space_group_symop_operation_xyz
x,y,z
-x,y,1/2-z
-x,-y,-z
x,-y,1/2+z
loop_
_atom_site_type_symbol
_atom_site_label
_atom_site_fract_x
_atom_site_fract_y
_atom_site_fract_z
Si Si1 0.855885 0.416715 0.056849
Si Si2 0.500000 0.366260 0.750000
Si Si3 0.279720 0.341810 0.992661
Si Si4 0.949424 0.111990 0.383770
Si Si5 0.189881 0.880252 0.944434
Si Si6 0.640348 0.598909 0.817707
Si Si7 0.500000 0.181217 0.250000
O O1 0.755188 0.515268 0.040138
O O2 0.850091 0.272070 0.008545
O O3 0.790121 0.392604 0.194315
O O4 0.000000 0.500000 0.000000
O O5 0.389801 0.283338 0.864129
O O6 0.573620 0.462541 0.801576
O O7 0.142898 0.245963 0.057720
O O8 0.337951 0.376155 0.076210
O O9 0.000000 0.109982 0.250000
O O10 0.086375 0.098913 0.395183
O O11 0.850734 0.987010 0.455341
O O12 0.354685 0.890994 0.842859
O O13 0.543318 0.718869 0.819717
#
# Coordination Sequence:
#
# PCOD9228898 Si02
#       7
#     4   2   4   4   4   4   2
#     4  10  19  36  59  91 116 151 200 242 299 349
#     4   9  20  35  54  92 124 150 196 258 304 344
#     4  11  21  36  63  87 119 157 202 246 298 360
#     4  11  23  41  59  85 120 158 199 244 301 351
#     4  10  22  41  60  84 122 155 193 251 292 355
#     4   9  19  35  58  88 123 154 190 250 303 356
#     4   9  18  39  64  82 114 162 196 230 308 362
#
# _framework density 18.828019000000001
#
# number of rings (size 3 to 8) (size 9 to 14) (size 15 to 20)
#    0.000    2.000    1.667    3.500    0.000    0.667 
#    3.000    6.667    0.000    0.000    0.000    0.000 
#    0.000    0.000    0.000    0.000    0.000    0.000 
#
# Total GULP energy -133741.047657 kJ/mol
# GULP energy per Si atom -5572.543652 kJ/mol
# Density = 1.878517 g / cm^3
# Si number density = 18.828019 Si / 1000 Ang^3
#
#
#
# Elastic Constant Matrix: (Units=GPa)
#
#
# Indices 1 2 3 4 5 6 
#
# 1 88.2260 10.6714 58.4496 0.0000 -19.4300 0.0000
# 2 10.6714 79.6586 41.9356 0.0000 -15.4405 0.0000
# 3 58.4496 41.9356 147.1370 0.0000 -3.4012 0.0000
# 4 0.0000 0.0000 0.0000 24.0394 0.0000 -10.4672
# 5 -19.4300 -15.4405 -3.4012 0.0000 34.1458 0.0000
# 6 0.0000 0.0000 0.0000 -10.4672 0.0000 13.7095
#
#
#
# Elastic Compliance Matrix: (Units=1/GPa)
#
#
# Indices 1 2 3 4 5 6 
#
# 1 0.019092 0.004239 -0.008516 0.000000 0.011932 0.000000
# 2 0.004239 0.017185 -0.006361 0.000000 0.009549 0.000000
# 3 -0.008516 -0.006361 0.011841 0.000000 -0.006543 0.000000
# 4 0.000000 0.000000 0.000000 0.062314 0.000000 0.047577
# 5 0.011932 0.009549 -0.006543 0.000000 0.039742 0.000000
# 6 0.000000 0.000000 0.000000 0.047577 0.000000 0.109268
#
#
# Mechanical properties :
#
#
# Convention : Reuss Voigt Hill
#
# Bulk Modulus (GPa) = 37.25673 59.68166 48.46919
# Shear Modulus (GPa) = 17.26118 27.97660 22.61889
#
# Velocity S-wave (km/s) = 3.03112 3.85892 3.46980
# Velocity P-wave (km/s) = 5.66402 7.18486 6.46929
#
# Compressibility (1/GPa) = 0.02684079
#
# Stress axis : x y z
#
# Youngs Moduli (GPa) = 52.37867 58.18865 84.45088
#
# Poissons Ratio (x) = -0.24664 0.71921
# Poissons Ratio (y) = -0.22201 0.53720
# Poissons Ratio (z) = 0.44608 0.37014
#
# Static dielectric constant tensor:
#      x y z
#    x 1.716360 0.000000 -0.048680 
#    y 0.000000 1.663580 0.000000 
#    z -0.048680 0.000000 1.660290 
# 
# From -- ./inp_files/32537.got.cif
#   From: 2010.05.17/outbox.cif.g08.bks.cpg/sg13_17_cif.got.tgz:32537.got - 2010.06.03 16:44:36.
