data_PCOD9228269
_publ_section_title
;
Structure prediction by ZEFSAII (Michael W. Deem and Ramdas Pophale) SiO2 
 PCOD9228269
Probable space group: P 2/C
;
_chemical_formula_sum "Si O2"
_cell_formula_units_Z 28
_cell_length_a 19.967182
_cell_length_b 10.009449
_cell_length_c 23.210812
_cell_angle_alpha 90.000000
_cell_angle_beta 17.212479
_cell_angle_gamma 90.000000
_cell_volume 1372.732385
_symmetry_space_group_name_H-M "P 2/C"
_symmetry_group_IT_number 13
_symmetry_cell_setting 'monoclinic'
loop_
_space_group_symop_operation_xyz
x,y,z
-x,y,1/2-z
-x,-y,-z
x,-y,1/2+z
loop_
_atom_site_type_symbol
_atom_site_label
_atom_site_fract_x
_atom_site_fract_y
_atom_site_fract_z
Si Si1 0.999023 0.896388 0.430221
Si Si2 0.384999 0.039472 0.692946
Si Si3 0.007673 0.727323 0.812766
Si Si4 0.889692 0.960270 0.279748
Si Si5 0.051961 0.395500 0.906599
Si Si6 0.683050 0.462726 0.643608
Si Si7 0.502155 0.347898 0.585865
O O1 0.978505 0.756638 0.480855
O O2 0.228400 0.968232 0.264354
O O3 0.785590 0.987868 0.618531
O O4 0.025423 0.868759 0.341582
O O5 0.617837 0.959484 0.503416
O O6 0.450810 0.193924 0.644874
O O7 0.035593 0.886774 0.796779
O O8 0.236273 0.653787 0.646146
O O9 0.000000 0.703591 0.750000
O O10 0.792997 0.667708 0.022476
O O11 0.000000 0.927233 0.250000
O O12 0.896742 0.443806 0.982057
O O13 0.000000 0.500000 0.000000
O O14 0.324704 0.386899 0.681628
O O15 0.500000 0.520351 0.750000
O O16 0.559113 0.429282 0.805898
#
# Coordination Sequence:
#
# PCOD9228269 Si02
#       7
#     4   4   4   4   4   4   4
#     4  10  19  38  59  82 113 151 187 232 287 337
#     4   9  19  35  61  85 109 144 185 232 290 339
#     4  10  19  33  55  84 109 139 182 231 280 324
#     4  10  21  35  54  88 120 143 180 233 289 350
#     4   9  21  39  57  81 110 146 194 233 267 321
#     4  11  20  34  55  77 108 149 185 225 276 323
#     4   9  18  36  57  81 110 135 180 237 273 330
#
# _framework density 20.397275
#
# number of rings (size 3 to 8) (size 9 to 14) (size 15 to 20)
#    0.000    2.286    1.429    1.286    0.000    2.286 
#    2.571    3.571    0.000    0.000    0.000    0.000 
#    0.000    0.000    0.000    0.000    0.000    0.000 
#
# Total GULP energy -156101.927035 kJ/mol
# GULP energy per Si atom -5575.068823 kJ/mol
# Density = 2.035085 g / cm^3
# Si number density = 20.397275 Si / 1000 Ang^3
#
#
#
# Elastic Constant Matrix: (Units=GPa)
#
#
# Indices 1 2 3 4 5 6 
#
# 1 87.2479 12.3660 40.3170 0.0000 -14.6861 0.0000
# 2 12.3660 29.2856 22.6155 0.0000 -9.6641 0.0000
# 3 40.3170 22.6155 76.1831 0.0000 -17.0044 0.0000
# 4 0.0000 0.0000 0.0000 16.4018 0.0000 -3.3098
# 5 -14.6861 -9.6641 -17.0044 0.0000 26.2955 0.0000
# 6 0.0000 0.0000 0.0000 -3.3098 0.0000 22.1837
#
#
#
# Elastic Compliance Matrix: (Units=1/GPa)
#
#
# Indices 1 2 3 4 5 6 
#
# 1 0.015517 0.000552 -0.007475 0.000000 0.004035 0.000000
# 2 0.000552 0.046263 -0.011876 0.000000 0.009631 0.000000
# 3 -0.007475 -0.011876 0.021856 0.000000 0.005594 0.000000
# 4 0.000000 0.000000 0.000000 0.062861 0.000000 0.009379
# 5 0.004035 0.009631 0.005594 0.000000 0.047440 0.000000
# 6 0.000000 0.000000 0.000000 0.009379 0.000000 0.046477
#
#
# Mechanical properties :
#
#
# Convention : Reuss Voigt Hill
#
# Bulk Modulus (GPa) = 21.72114 38.14594 29.93354
# Shear Modulus (GPa) = 17.04404 20.80408 18.92406
#
# Velocity S-wave (km/s) = 2.89382 3.19712 3.04924
# Velocity P-wave (km/s) = 4.67309 5.68954 5.20618
#
# Compressibility (1/GPa) = 0.04603810
#
# Stress axis : x y z
#
# Youngs Moduli (GPa) = 64.44684 21.61574 45.75388
#
# Poissons Ratio (x) = -0.01193 0.34200
# Poissons Ratio (y) = -0.03557 0.54336
# Poissons Ratio (z) = 0.48172 0.25670
#
# Static dielectric constant tensor:
#      x y z
#    x 1.754890 0.000000 -0.017840 
#    y 0.000000 1.722850 0.000000 
#    z -0.017840 0.000000 1.729430 
# 
# From -- ./inp_files/81045.got.cif
#   From: 2010.05.17/outbox.cif.g08.bks.cpg/sg13_41_cif.got.tgz:81045.got - 2010.06.03 16:44:36.
