data_PCOD9228459
_publ_section_title
;
Structure prediction by ZEFSAII (Michael W. Deem and Ramdas Pophale) SiO2 
 PCOD9228459
Probable space group: P 2/C
;
_chemical_formula_sum "Si O2"
_cell_formula_units_Z 26
_cell_length_a 9.998197
_cell_length_b 7.783440
_cell_length_c 27.777902
_cell_angle_alpha 90.000000
_cell_angle_beta 136.951567
_cell_angle_gamma 90.000000
_cell_volume 1475.602538
_symmetry_space_group_name_H-M "P 2/C"
_symmetry_group_IT_number 13
_symmetry_cell_setting 'monoclinic'
loop_
_space_group_symop_operation_xyz
x,y,z
-x,y,1/2-z
-x,-y,-z
x,-y,1/2+z
loop_
_atom_site_type_symbol
_atom_site_label
_atom_site_fract_x
_atom_site_fract_y
_atom_site_fract_z
Si Si1 0.757722 0.559212 0.394017
Si Si2 0.231543 0.055683 0.199465
Si Si3 0.788211 0.136229 0.074941
Si Si4 0.500000 0.239589 0.750000
Si Si5 0.587079 0.180053 0.347787
Si Si6 0.587377 0.157915 0.458845
Si Si7 0.199546 0.476171 0.486633
O O1 0.619537 0.659401 0.321497
O O2 0.677727 0.366947 0.373690
O O3 0.756070 0.610937 0.449655
O O4 0.980031 0.551959 0.433702
O O5 0.372187 0.181415 0.266980
O O6 0.275523 0.081085 0.154071
O O7 0.006021 0.087279 0.149566
O O8 0.336306 0.873371 0.235132
O O9 0.628335 0.144989 0.075089
O O10 0.790650 0.322495 0.049328
O O11 0.719126 0.982993 0.021082
O O12 0.584211 0.114506 0.401354
O O13 0.665967 0.354602 0.486179
#
# Coordination Sequence:
#
# PCOD9228459 Si02
#       7
#     4   4   4   2   4   4   4
#     4  10  19  34  56  88 112 145 184 242 287 328
#     4  10  21  34  56  86 107 149 187 227 289 328
#     4  11  22  38  59  82 118 154 185 238 278 334
#     4  10  20  32  56  86 120 140 184 244 282 340
#     4   9  19  37  55  81 114 142 188 232 276 339
#     4  10  23  38  57  85 114 153 193 227 283 335
#     4  10  21  36  59  86 113 148 194 233 286 337
#
# _framework density 17.61992
#
# number of rings (size 3 to 8) (size 9 to 14) (size 15 to 20)
#    0.000    2.154    1.538    2.308    4.308    1.231 
#    0.000    0.000    0.000    0.000    0.000    0.000 
#    0.000    0.000    0.000    0.000    0.000    0.000 
#
# Total GULP energy -144869.733022 kJ/mol
# GULP energy per Si atom -5571.912809 kJ/mol
# Density = 1.757982 g / cm^3
# Si number density = 17.619920 Si / 1000 Ang^3
#
#
#
# Elastic Constant Matrix: (Units=GPa)
#
#
# Indices 1 2 3 4 5 6 
#
# 1 80.4517 19.2041 42.3057 0.0000 24.1947 0.0000
# 2 19.2041 32.5082 9.1365 0.0000 2.7800 0.0000
# 3 42.3057 9.1365 80.5916 0.0000 17.5381 0.0000
# 4 0.0000 0.0000 0.0000 22.0243 0.0000 -12.6032
# 5 24.1947 2.7800 17.5381 0.0000 31.2215 0.0000
# 6 0.0000 0.0000 0.0000 -12.6032 0.0000 -71.6369
#
#
#
# Elastic Compliance Matrix: (Units=1/GPa)
#
#
# Indices 1 2 3 4 5 6 
#
# 1 0.022812 -0.010137 -0.008174 0.000000 -0.012183 0.000000
# 2 -0.010137 0.036301 0.000228 0.000000 0.004495 0.000000
# 3 -0.008174 0.000228 0.017430 0.000000 -0.003477 0.000000
# 4 0.000000 0.000000 0.000000 0.041251 0.000000 -0.007257
# 5 -0.012183 0.004495 -0.003477 0.000000 0.043023 0.000000
# 6 0.000000 0.000000 0.000000 -0.007257 0.000000 -0.012682
#
#
# Mechanical properties :
#
#
# Convention : Reuss Voigt Hill
#
# Bulk Modulus (GPa) = 24.76706 37.20489 30.98597
# Shear Modulus (GPa) = 25.28295 4.51545 14.89920
#
# Velocity S-wave (km/s) = 3.79213 1.60258 2.91105
# Velocity P-wave (km/s) = 5.76719 4.95837 5.37800
#
# Compressibility (1/GPa) = 0.04037622
#
# Stress axis : x y z
#
# Youngs Moduli (GPa) = 43.83651 27.54720 57.37199
#
# Poissons Ratio (x) = 0.27924 0.46898
# Poissons Ratio (y) = 0.44436 -0.01306
# Poissons Ratio (z) = 0.35834 -0.00627
#
# Static dielectric constant tensor:
#      x y z
#    x 1.586860 0.000000 -0.017010 
#    y 0.000000 1.624360 0.000000 
#    z -0.017010 0.000000 1.609900 
# 
# From -- ./inp_files/74976.got.cif
#   From: 2010.05.17/outbox.cif.g08.bks.cpg/sg13_38_cif.got.tgz:74976.got - 2010.06.03 16:44:36.
