data_PCOD9228272
_publ_section_title
;
Structure prediction by ZEFSAII (Michael W. Deem and Ramdas Pophale) SiO2 
 PCOD9228272
Probable space group: P 2/C
;
_chemical_formula_sum "Si O2"
_cell_formula_units_Z 20
_cell_length_a 4.879235
_cell_length_b 11.668182
_cell_length_c 17.664368
_cell_angle_alpha 90.000000
_cell_angle_beta 104.993599
_cell_angle_gamma 90.000000
_cell_volume 971.426194
_symmetry_space_group_name_H-M "P 2/C"
_symmetry_group_IT_number 13
_symmetry_cell_setting 'monoclinic'
loop_
_space_group_symop_operation_xyz
x,y,z
-x,y,1/2-z
-x,-y,-z
x,-y,1/2+z
loop_
_atom_site_type_symbol
_atom_site_label
_atom_site_fract_x
_atom_site_fract_y
_atom_site_fract_z
Si Si1 0.187295 0.877704 0.195191
Si Si2 0.196817 0.754929 0.038712
Si Si3 0.567857 0.251530 0.168151
Si Si4 0.638773 0.618680 0.984798
Si Si5 0.973927 0.114789 0.383782
O O1 0.500000 0.906725 0.250000
O O2 0.211994 0.794505 0.125533
O O3 0.000000 0.828595 0.250000
O O4 0.022009 0.990047 0.152197
O O5 0.497194 0.713118 0.029373
O O6 0.971404 0.650312 0.011298
O O7 0.103400 0.858134 0.975475
O O8 0.500000 0.278247 0.250000
O O9 0.354961 0.147649 0.133414
O O10 0.870638 0.204867 0.161645
O O11 0.472952 0.354520 0.107395
O O12 0.500000 0.500000 0.000000
#
# Coordination Sequence:
#
# PCOD9228272 Si02
#       5
#     4   4   4   4   4
#     4  12  23  36  56  85 119 154 183 220 274 339
#     4  10  22  39  58  82 113 147 190 233 276 337
#     4  10  19  33  55  85 111 138 185 239 277 318
#     4  10  21  39  61  81 108 150 190 233 286 333
#     4  10  20  35  57  81 113 149 182 223 276 331
#
# _framework density 20.588284999999999
#
# number of rings (size 3 to 8) (size 9 to 14) (size 15 to 20)
#    0.000    1.600    0.000    6.000    0.000    0.000 
#    0.000   11.000    0.000    2.400    0.000    0.000 
#    0.000    0.000    0.000    0.000    0.000    0.000 
#
# Total GULP energy -111635.697887 kJ/mol
# GULP energy per Si atom -5581.784894 kJ/mol
# Density = 2.054142 g / cm^3
# Si number density = 20.588285 Si / 1000 Ang^3
#
#
#
# Elastic Constant Matrix: (Units=GPa)
#
#
# Indices 1 2 3 4 5 6 
#
# 1 82.4632 -12.0242 9.4923 0.0000 -9.5673 0.0000
# 2 -12.0242 34.7224 23.3505 0.0000 0.6635 0.0000
# 3 9.4923 23.3505 134.2669 0.0000 -27.4091 0.0000
# 4 0.0000 0.0000 0.0000 21.8234 0.0000 -12.4247
# 5 -9.5673 0.6635 -27.4091 0.0000 28.9878 0.0000
# 6 0.0000 0.0000 0.0000 -12.4247 0.0000 17.9016
#
#
#
# Elastic Compliance Matrix: (Units=1/GPa)
#
#
# Indices 1 2 3 4 5 6 
#
# 1 0.013426 0.005436 -0.001258 0.000000 0.003117 0.000000
# 2 0.005436 0.036213 -0.008036 0.000000 -0.006633 0.000000
# 3 -0.001258 -0.008036 0.011013 0.000000 0.010182 0.000000
# 4 0.000000 0.000000 0.000000 0.075758 0.000000 0.052580
# 5 0.003117 -0.006633 0.010182 0.000000 0.045305 0.000000
# 6 0.000000 0.000000 0.000000 0.052580 0.000000 0.092355
#
#
# Mechanical properties :
#
#
# Convention : Reuss Voigt Hill
#
# Bulk Modulus (GPa) = 18.89127 32.56550 25.72839
# Shear Modulus (GPa) = 16.69826 29.11815 22.90820
#
# Velocity S-wave (km/s) = 2.85099 3.76481 3.33931
# Velocity P-wave (km/s) = 4.47585 5.89493 5.23371
#
# Compressibility (1/GPa) = 0.05293450
#
# Stress axis : x y z
#
# Youngs Moduli (GPa) = 74.48403 27.61414 90.80250
#
# Poissons Ratio (x) = -0.15011 0.11425
# Poissons Ratio (y) = -0.40488 0.72972
# Poissons Ratio (z) = 0.09372 0.22192
#
# Static dielectric constant tensor:
#      x y z
#    x 1.719990 0.000000 0.010820 
#    y 0.000000 1.722830 0.000000 
#    z 0.010820 0.000000 1.748220 
# 
# From -- ./inp_files/43440.got.cif
#   From: 2010.05.17/outbox.cif.g08.bks.cpg/sg13_22_cif.got.tgz:43440.got - 2010.06.03 16:44:36.
