data_PCOD9228043
_publ_section_title
;
Structure prediction by ZEFSAII (Michael W. Deem and Ramdas Pophale) SiO2 
 PCOD9228043
Probable space group: P 2/C
;
_chemical_formula_sum "Si O2"
_cell_formula_units_Z 32
_cell_length_a 6.245271
_cell_length_b 16.792663
_cell_length_c 23.016463
_cell_angle_alpha 90.000000
_cell_angle_beta 44.147245
_cell_angle_gamma 90.000000
_cell_volume 1681.254678
_symmetry_space_group_name_H-M "P 2/C"
_symmetry_group_IT_number 13
_symmetry_cell_setting 'monoclinic'
loop_
_space_group_symop_operation_xyz
x,y,z
-x,y,1/2-z
-x,-y,-z
x,-y,1/2+z
loop_
_atom_site_type_symbol
_atom_site_label
_atom_site_fract_x
_atom_site_fract_y
_atom_site_fract_z
Si Si1 0.564291 0.108973 0.448780
Si Si2 0.752517 0.613095 0.660589
Si Si3 0.657736 0.035536 0.558616
Si Si4 0.107948 0.322166 0.588873
Si Si5 0.942218 0.470535 0.829677
Si Si6 0.892512 0.817351 0.062165
Si Si7 0.696548 0.448131 0.047719
Si Si8 0.773139 0.254935 0.461876
O O1 0.629901 0.070833 0.499081
O O2 0.767578 0.188628 0.411940
O O3 0.215070 0.140666 0.514502
O O4 0.575536 0.039597 0.397975
O O5 0.500000 0.654142 0.750000
O O6 0.616453 0.593256 0.624270
O O7 0.854033 0.532738 0.673704
O O8 0.046539 0.667872 0.593584
O O9 0.643026 0.111267 0.604826
O O10 0.000000 0.000000 0.500000
O O11 0.994687 0.381409 0.660656
O O12 0.213305 0.381337 0.516316
O O13 0.422234 0.277718 0.545484
O O14 0.870205 0.256519 0.610805
O O15 0.589392 0.495495 0.912232
O O16 0.000000 0.477573 0.750000
O O17 0.917959 0.779845 0.992670
O O18 0.000000 0.500000 0.000000
#
# Coordination Sequence:
#
# PCOD9228043 Si02
#       8
#     4   4   4   4   4   4   4   4
#     4   8  15  26  45  72 107 145 164 206 268 328
#     4  12  23  37  53  74 104 147 190 236 288 331
#     4   8  13  25  44  72 108 144 159 206 268 329
#     4  11  21  33  54  75 100 140 186 234 276 334
#     4  12  25  39  52  75 106 145 191 244 291 333
#     4   9  17  28  47  74 104 142 171 213 273 324
#     4  12  22  36  58  75  97 141 197 236 282 337
#     4  10  19  32  50  76 104 145 178 224 274 333
#
# _framework density 19.033403
#
# number of rings (size 3 to 8) (size 9 to 14) (size 15 to 20)
#    0.000    1.750    5.000    1.125    0.000    0.000 
#    0.000    0.000    0.000    0.000    0.000    0.000 
#    0.000    0.000  667.250    0.000    0.000    0.000 
#
# Total GULP energy -178232.139543 kJ/mol
# GULP energy per Si atom -5569.754361 kJ/mol
# Density = 1.899008 g / cm^3
# Si number density = 19.033403 Si / 1000 Ang^3
#
#
#
# Elastic Constant Matrix: (Units=GPa)
#
#
# Indices 1 2 3 4 5 6 
#
# 1 88.4603 34.7838 1.8830 0.0000 8.2937 0.0000
# 2 34.7838 113.5956 -0.3167 0.0000 6.4089 0.0000
# 3 1.8830 -0.3167 19.2228 0.0000 9.3751 0.0000
# 4 0.0000 0.0000 0.0000 5.4041 0.0000 10.2857
# 5 8.2937 6.4089 9.3751 0.0000 20.9368 0.0000
# 6 0.0000 0.0000 0.0000 10.2857 0.0000 59.7485
#
#
#
# Elastic Compliance Matrix: (Units=1/GPa)
#
#
# Indices 1 2 3 4 5 6 
#
# 1 0.013192 -0.003787 0.000804 0.000000 -0.004426 0.000000
# 2 -0.003787 0.010100 0.001680 0.000000 -0.002344 0.000000
# 3 0.000804 0.001680 0.067011 0.000000 -0.030839 0.000000
# 4 0.000000 0.000000 0.000000 0.275223 0.000000 -0.047380
# 5 -0.004426 -0.002344 -0.030839 0.000000 0.064043 0.000000
# 6 0.000000 0.000000 0.000000 -0.047380 0.000000 0.024893
#
#
# Mechanical properties :
#
#
# Convention : Reuss Voigt Hill
#
# Bulk Modulus (GPa) = 11.40292 32.66431 22.03361
# Shear Modulus (GPa) = 10.28173 29.54645 19.91409
#
# Velocity S-wave (km/s) = 2.32673 3.94426 3.23812
# Velocity P-wave (km/s) = 3.63624 6.15969 5.05786
#
# Compressibility (1/GPa) = 0.08769687
#
# Stress axis : x y z
#
# Youngs Moduli (GPa) = 75.80562 99.01179 14.92293
#
# Poissons Ratio (x) = 0.37500 -0.01200
# Poissons Ratio (y) = 0.28711 -0.02508
# Poissons Ratio (z) = -0.06096 -0.16638
#
# Static dielectric constant tensor:
#      x y z
#    x 1.689370 0.000000 0.004730 
#    y 0.000000 1.747140 0.000000 
#    z 0.004730 0.000000 1.643070 
# 
# From -- ./inp_files/74005.got.cif
#   From: 2010.05.17/outbox.cif.g08.bks.cpg/sg13_38_cif.got.tgz:74005.got - 2010.06.03 16:44:36.
