data_PCOD9228555
_publ_section_title
;
Structure prediction by ZEFSAII (Michael W. Deem and Ramdas Pophale) SiO2 
 PCOD9228555
Probable space group: P 2/C
;
_chemical_formula_sum "Si O2"
_cell_formula_units_Z 28
_cell_length_a 8.462129
_cell_length_b 11.194911
_cell_length_c 15.492601
_cell_angle_alpha 90.000000
_cell_angle_beta 110.632619
_cell_angle_gamma 90.000000
_cell_volume 1373.520293
_symmetry_space_group_name_H-M "P 2/C"
_symmetry_group_IT_number 13
_symmetry_cell_setting 'monoclinic'
loop_
_space_group_symop_operation_xyz
x,y,z
-x,y,1/2-z
-x,-y,-z
x,-y,1/2+z
loop_
_atom_site_type_symbol
_atom_site_label
_atom_site_fract_x
_atom_site_fract_y
_atom_site_fract_z
Si Si1 0.196139 0.838706 0.536782
Si Si2 0.322401 0.467866 0.196733
Si Si3 0.822408 0.446273 0.499399
Si Si4 0.557547 0.925504 0.667240
Si Si5 0.841689 0.899197 0.155486
Si Si6 0.148981 0.233148 0.211531
Si Si7 0.193304 0.377932 0.816266
O O1 0.186403 0.696985 0.514939
O O2 0.114266 0.902481 0.438227
O O3 0.119093 0.843159 0.618330
O O4 0.389350 0.884260 0.584839
O O5 0.500000 0.408247 0.250000
O O6 0.308783 0.500685 0.093894
O O7 0.179066 0.370822 0.191504
O O8 0.303183 0.576850 0.257949
O O9 0.785973 0.458272 0.593701
O O10 0.000000 0.500000 0.500000
O O11 0.500000 0.974890 0.750000
O O12 0.682485 0.016694 0.643967
O O13 0.678830 0.814379 0.713007
O O14 0.784507 0.762350 0.161878
O O15 0.000000 0.924775 0.250000
O O16 0.000000 0.221054 0.250000
O O17 0.000000 0.391161 0.750000
#
# Coordination Sequence:
#
# PCOD9228555 Si02
#       7
#     4   4   4   4   4   4   4
#     4   9  20  37  60  88 119 157 197 253 303 356
#     4  11  22  36  56  85 121 155 193 250 302 359
#     4  10  19  34  61  84 119 158 200 239 298 358
#     4  10  20  39  60  84 119 155 200 253 303 349
#     4  10  21  38  61  85 121 160 203 245 301 361
#     4  10  20  36  61  87 113 152 206 250 301 356
#     4  10  20  36  57  86 118 161 202 242 297 363
#
# _framework density 20.385574999999999
#
# number of rings (size 3 to 8) (size 9 to 14) (size 15 to 20)
#    0.000    2.000    1.429    3.429    2.000    1.143 
#    0.000    7.857    0.000    0.000    0.000    0.000 
#    0.000    0.000    0.000    0.000    0.000    0.000 
#
# Total GULP energy -156103.688655 kJ/mol
# GULP energy per Si atom -5575.131738 kJ/mol
# Density = 2.033918 g / cm^3
# Si number density = 20.385575 Si / 1000 Ang^3
#
#
#
# Elastic Constant Matrix: (Units=GPa)
#
#
# Indices 1 2 3 4 5 6 
#
# 1 69.6782 26.1826 28.0873 0.0000 -2.8159 0.0000
# 2 26.1826 66.3395 28.8807 0.0000 -4.1368 0.0000
# 3 28.0873 28.8807 129.6517 0.0000 4.1031 0.0000
# 4 0.0000 0.0000 0.0000 11.5837 0.0000 -9.1439
# 5 -2.8159 -4.1368 4.1031 0.0000 20.7811 0.0000
# 6 0.0000 0.0000 0.0000 -9.1439 0.0000 15.3629
#
#
#
# Elastic Compliance Matrix: (Units=1/GPa)
#
#
# Indices 1 2 3 4 5 6 
#
# 1 0.017617 -0.005711 -0.002600 0.000000 0.001764 0.000000
# 2 -0.005711 0.018896 -0.003086 0.000000 0.003597 0.000000
# 3 -0.002600 -0.003086 0.009051 0.000000 -0.002754 0.000000
# 4 0.000000 0.000000 0.000000 0.162830 0.000000 0.096915
# 5 0.001764 0.003597 -0.002754 0.000000 0.049619 0.000000
# 6 0.000000 0.000000 0.000000 0.096915 0.000000 0.122775
#
#
# Mechanical properties :
#
#
# Convention : Reuss Voigt Hill
#
# Bulk Modulus (GPa) = 43.91822 47.99674 45.95748
# Shear Modulus (GPa) = 12.16037 21.71347 16.93692
#
# Velocity S-wave (km/s) = 2.44502 3.26719 2.88554
# Velocity P-wave (km/s) = 5.43704 6.15047 5.80472
#
# Compressibility (1/GPa) = 0.02276959
#
# Stress axis : x y z
#
# Youngs Moduli (GPa) = 56.76299 52.92216 110.48788
#
# Poissons Ratio (x) = 0.30225 0.28728
# Poissons Ratio (y) = 0.32418 0.34094
# Poissons Ratio (z) = 0.14759 0.16330
#
# Static dielectric constant tensor:
#      x y z
#    x 1.694620 0.000000 -0.009120 
#    y 0.000000 1.731510 0.000000 
#    z -0.009120 0.000000 1.789530 
# 
# From -- ./inp_files/47317.got.cif
#   From: 2010.05.17/outbox.cif.g08.bks.cpg/sg13_24_cif.got.tgz:47317.got - 2010.06.03 16:44:36.
