data_PCOD9228956
_publ_section_title
;
Structure prediction by ZEFSAII (Michael W. Deem and Ramdas Pophale) SiO2 
 PCOD9228956
Probable space group: P 2/C
;
_chemical_formula_sum "Si O2"
_cell_formula_units_Z 30
_cell_length_a 10.776902
_cell_length_b 9.013550
_cell_length_c 30.749869
_cell_angle_alpha 90.000000
_cell_angle_beta 31.061221
_cell_angle_gamma 90.000000
_cell_volume 1541.145996
_symmetry_space_group_name_H-M "P 2/C"
_symmetry_group_IT_number 13
_symmetry_cell_setting 'monoclinic'
loop_
_space_group_symop_operation_xyz
x,y,z
-x,y,1/2-z
-x,-y,-z
x,-y,1/2+z
loop_
_atom_site_type_symbol
_atom_site_label
_atom_site_fract_x
_atom_site_fract_y
_atom_site_fract_z
Si Si1 0.880033 0.791077 0.880314
Si Si2 0.818795 0.012282 0.970600
Si Si3 0.500000 0.544614 0.250000
Si Si4 0.211019 0.482430 0.031217
Si Si5 0.568339 0.274890 0.395336
Si Si6 0.102786 0.731356 0.399935
Si Si7 0.406417 0.715211 0.714762
Si Si8 0.970005 0.748237 0.539765
O O1 0.791379 0.640058 0.930792
O O2 0.792172 0.774245 0.857587
O O3 0.168269 0.807685 0.798424
O O4 0.766112 0.925221 0.942083
O O5 0.066150 0.105034 0.893385
O O6 0.619873 0.136369 0.042124
O O7 0.873858 0.888154 0.990544
O O8 0.358193 0.656260 0.323739
O O9 0.622767 0.431498 0.247075
O O10 0.037662 0.622087 0.090609
O O11 0.087721 0.394363 0.027883
O O12 0.455335 0.569414 0.946619
O O13 0.613934 0.301518 0.330990
O O14 0.993327 0.729613 0.481208
O O15 0.686812 0.763276 0.637367
#
# Coordination Sequence:
#
# PCOD9228956 Si02
#       8
#     4   4   2   4   4   4   4   4
#     4  11  23  40  60  89 122 162 206 244 288 357
#     4  10  23  39  61  88 120 159 201 246 301 357
#     4  12  22  36  60  96 126 148 192 270 306 350
#     4  10  19  36  62  88 115 153 198 249 297 345
#     4  11  23  40  63  87 119 167 204 244 289 363
#     4  11  20  35  57  91 121 151 192 246 309 357
#     4  12  22  37  64  88 122 152 201 247 306 353
#     4  11  20  38  63  91 121 154 197 248 309 365
#
# _framework density 19.466032999999999
#
# number of rings (size 3 to 8) (size 9 to 14) (size 15 to 20)
#    0.000    1.067    5.333    3.600    0.000    1.067 
#    0.000    0.000    0.000    0.000    0.000    0.000 
#    0.000    0.000    0.000    0.000    0.000    0.000 
#
# Total GULP energy -167018.707225 kJ/mol
# GULP energy per Si atom -5567.290241 kJ/mol
# Density = 1.942173 g / cm^3
# Si number density = 19.466033 Si / 1000 Ang^3
#
#
#
# Elastic Constant Matrix: (Units=GPa)
#
#
# Indices 1 2 3 4 5 6 
#
# 1 101.0332 31.7314 21.9628 0.0000 9.8443 0.0000
# 2 31.7314 95.9631 30.3667 0.0000 4.7700 0.0000
# 3 21.9628 30.3667 74.3620 0.0000 2.6695 0.0000
# 4 0.0000 0.0000 0.0000 17.1866 0.0000 -5.1374
# 5 9.8443 4.7700 2.6695 0.0000 30.4945 0.0000
# 6 0.0000 0.0000 0.0000 -5.1374 0.0000 14.6621
#
#
#
# Elastic Compliance Matrix: (Units=1/GPa)
#
#
# Indices 1 2 3 4 5 6 
#
# 1 0.011601 -0.003024 -0.002080 0.000000 -0.003090 0.000000
# 2 -0.003024 0.012820 -0.004319 0.000000 -0.000651 0.000000
# 3 -0.002080 -0.004319 0.015827 0.000000 -0.000038 0.000000
# 4 0.000000 0.000000 0.000000 0.064992 0.000000 0.022773
# 5 -0.003090 -0.000651 -0.000038 0.000000 0.033895 0.000000
# 6 0.000000 0.000000 0.000000 0.022773 0.000000 0.076182
#
#
# Mechanical properties :
#
#
# Convention : Reuss Voigt Hill
#
# Bulk Modulus (GPa) = 46.72588 48.83112 47.77850
# Shear Modulus (GPa) = 20.72133 24.95513 22.83823
#
# Velocity S-wave (km/s) = 3.26619 3.58436 3.42897
# Velocity P-wave (km/s) = 6.18707 6.50154 6.34625
#
# Compressibility (1/GPa) = 0.02140142
#
# Stress axis : x y z
#
# Youngs Moduli (GPa) = 86.20090 78.00611 63.18278
#
# Poissons Ratio (x) = 0.23589 0.13145
# Poissons Ratio (y) = 0.26067 0.27286
# Poissons Ratio (z) = 0.17934 0.33687
#
# Static dielectric constant tensor:
#      x y z
#    x 1.713670 0.000000 -0.054380 
#    y 0.000000 1.686380 0.000000 
#    z -0.054380 0.000000 1.752200 
# 
# From -- ./inp_files/96588.got.cif
#   From: 2010.05.17/outbox.cif.g08.bks.cpg/sg13_49_cif.got.tgz:96588.got - 2010.06.03 16:44:36.
