data_PCOD9228039
_publ_section_title
;
Structure prediction by ZEFSAII (Michael W. Deem and Ramdas Pophale) SiO2 
 PCOD9228039
Probable space group: P 2/C
;
_chemical_formula_sum "Si O2"
_cell_formula_units_Z 20
_cell_length_a 8.775939
_cell_length_b 12.657111
_cell_length_c 9.028185
_cell_angle_alpha 90.000000
_cell_angle_beta 93.412173
_cell_angle_gamma 90.000000
_cell_volume 1001.055224
_symmetry_space_group_name_H-M "P 2/C"
_symmetry_group_IT_number 13
_symmetry_cell_setting 'monoclinic'
loop_
_space_group_symop_operation_xyz
x,y,z
-x,y,1/2-z
-x,-y,-z
x,-y,1/2+z
loop_
_atom_site_type_symbol
_atom_site_label
_atom_site_fract_x
_atom_site_fract_y
_atom_site_fract_z
Si Si1 0.564823 0.398818 0.421840
Si Si2 0.601973 0.205576 0.108311
Si Si3 0.343592 0.986040 0.321558
Si Si4 0.857591 0.306658 0.317653
Si Si5 0.865416 0.917536 0.951037
O O1 0.500000 0.405634 0.250000
O O2 0.500000 0.500000 0.500000
O O3 0.491622 0.291956 0.487566
O O4 0.744923 0.377449 0.411186
O O5 0.500000 0.187637 0.250000
O O6 0.627874 0.085851 0.064248
O O7 0.753255 0.261329 0.177415
O O8 0.500000 0.953533 0.250000
O O9 0.251083 0.905573 0.417952
O O10 0.227747 0.033250 0.192362
O O11 0.000000 0.363075 0.250000
O O12 0.912928 0.200597 0.406015
O O13 0.000000 0.000000 0.000000
#
# Coordination Sequence:
#
# PCOD9228039 Si02
#       5
#     4   4   4   4   4
#     4   9  18  35  57  78 101 137 182 231 277 323
#     4   7  14  29  48  69  97 137 178 212 257 321
#     4  10  19  32  50  75 109 151 193 225 263 327
#     4   9  17  32  53  76 104 143 179 210 266 340
#     4  11  20  32  52  80 112 150 185 226 275 327
#
# _framework density 19.978918
#
# number of rings (size 3 to 8) (size 9 to 14) (size 15 to 20)
#    0.000    3.200    0.000    4.800    0.000    0.000 
#    0.000    7.000    0.000    2.400    0.000    0.000 
#    0.000    0.000    0.000    0.000    0.000    0.000 
#
# Total GULP energy -111334.935939 kJ/mol
# GULP energy per Si atom -5566.746797 kJ/mol
# Density = 1.993344 g / cm^3
# Si number density = 19.978918 Si / 1000 Ang^3
#
#
#
# Elastic Constant Matrix: (Units=GPa)
#
#
# Indices 1 2 3 4 5 6 
#
# 1 136.7612 43.4225 20.4208 0.0000 -14.0141 0.0000
# 2 43.4225 80.2797 19.8164 0.0000 -11.8919 0.0000
# 3 20.4208 19.8164 53.2004 0.0000 -2.9102 0.0000
# 4 0.0000 0.0000 0.0000 23.1341 0.0000 -13.2717
# 5 -14.0141 -11.8919 -2.9102 0.0000 23.5528 0.0000
# 6 0.0000 0.0000 0.0000 -13.2717 0.0000 29.0734
#
#
#
# Elastic Compliance Matrix: (Units=1/GPa)
#
#
# Indices 1 2 3 4 5 6 
#
# 1 0.009201 -0.004046 -0.001850 0.000000 0.003203 0.000000
# 2 -0.004046 0.016505 -0.004300 0.000000 0.005395 0.000000
# 3 -0.001850 -0.004300 0.021072 0.000000 -0.000668 0.000000
# 4 0.000000 0.000000 0.000000 0.058563 0.000000 0.026733
# 5 0.003203 0.005395 -0.000668 0.000000 0.047005 0.000000
# 6 0.000000 0.000000 0.000000 0.026733 0.000000 0.046599
#
#
# Mechanical properties :
#
#
# Convention : Reuss Voigt Hill
#
# Bulk Modulus (GPa) = 37.89623 48.61787 43.25705
# Shear Modulus (GPa) = 21.91714 27.59083 24.75398
#
# Velocity S-wave (km/s) = 3.31571 3.72021 3.52377
# Velocity P-wave (km/s) = 5.80240 6.54528 6.18500
#
# Compressibility (1/GPa) = 0.02638785
#
# Stress axis : x y z
#
# Youngs Moduli (GPa) = 108.68425 60.58659 47.45650
#
# Poissons Ratio (x) = 0.24511 0.08777
# Poissons Ratio (y) = 0.43970 0.20406
# Poissons Ratio (z) = 0.20102 0.26052
#
# Static dielectric constant tensor:
#      x y z
#    x 1.798460 0.000000 0.011260 
#    y 0.000000 1.810630 0.000000 
#    z 0.011260 0.000000 1.739950 
# 
# From -- ./inp_files/12358.got.cif
#   From: 2010.05.17/outbox.cif.g08.bks.cpg/sg13_7_cif.got.tgz:12358.got - 2010.06.03 16:44:36.
