data_PCOD9228762
_publ_section_title
;
Structure prediction by ZEFSAII (Michael W. Deem and Ramdas Pophale) SiO2 
 PCOD9228762
Probable space group: P 2/C
;
_chemical_formula_sum "Si O2"
_cell_formula_units_Z 24
_cell_length_a 20.707895
_cell_length_b 8.772776
_cell_length_c 5.218973
_cell_angle_alpha 90.000000
_cell_angle_beta 94.526268
_cell_angle_gamma 90.000000
_cell_volume 945.151604
_symmetry_space_group_name_H-M "P 2/C"
_symmetry_group_IT_number 13
_symmetry_cell_setting 'monoclinic'
loop_
_space_group_symop_operation_xyz
x,y,z
-x,y,1/2-z
-x,-y,-z
x,-y,1/2+z
loop_
_atom_site_type_symbol
_atom_site_label
_atom_site_fract_x
_atom_site_fract_y
_atom_site_fract_z
Si Si1 0.500000 0.500000 0.500000
Si Si2 0.807780 0.591460 0.102371
Si Si3 0.000000 0.895639 0.750000
Si Si4 0.666535 0.922323 0.550071
Si Si5 0.809412 0.945916 0.085663
Si Si6 0.045098 0.646550 0.469470
Si Si7 0.637051 0.587643 0.351237
O O1 0.500000 0.625854 0.750000
O O2 0.558016 0.582138 0.325662
O O3 0.786974 0.515767 0.361466
O O4 0.790622 0.768920 0.065479
O O5 0.886124 0.597060 0.117638
O O6 0.944798 0.764347 0.794112
O O7 0.000000 0.000000 0.500000
O O8 0.658226 0.751373 0.451852
O O9 0.640556 0.035303 0.321248
O O10 0.743606 0.955666 0.591625
O O11 0.846139 0.983369 0.357609
O O12 0.000000 0.730478 0.250000
O O13 0.000000 0.500000 0.500000
O O14 0.655576 0.462533 0.571718
#
# Coordination Sequence:
#
# PCOD9228762 Si02
#       7
#     2   4   2   4   4   4   4
#     4   8  16  30  54  84 128 160 204 262 304 350
#     4  12  25  42  70  95 121 164 212 256 319 382
#     4  12  26  40  60  96 130 158 204 250 300 368
#     4  10  21  40  63  89 129 167 213 264 324 378
#     4  10  23  46  64  89 130 166 200 264 327 377
#     4  12  23  44  69  94 129 165 207 258 311 385
#     4  10  19  35  62  95 124 169 220 265 309 368
#
# _framework density 25.392749999999999
#
# number of rings (size 3 to 8) (size 9 to 14) (size 15 to 20)
#    0.000    1.333    3.333    2.000    0.000    1.333 
#    0.000   20.000    0.000   27.000    0.000    0.000 
#    0.000    0.000    0.000    0.000    0.000    0.000 
#
# Total GULP energy -133722.314200 kJ/mol
# GULP energy per Si atom -5571.763092 kJ/mol
# Density = 2.533496 g / cm^3
# Si number density = 25.392750 Si / 1000 Ang^3
#
#
#
# Elastic Constant Matrix: (Units=GPa)
#
#
# Indices 1 2 3 4 5 6 
#
# 1 84.3256 17.5411 -14.0119 0.0000 3.5619 0.0000
# 2 17.5411 170.3416 36.6323 0.0000 4.3854 0.0000
# 3 -14.0119 36.6323 153.2888 0.0000 -16.0652 0.0000
# 4 0.0000 0.0000 0.0000 55.7703 0.0000 9.1184
# 5 3.5619 4.3854 -16.0652 0.0000 27.3141 0.0000
# 6 0.0000 0.0000 0.0000 9.1184 0.0000 8.8077
#
#
#
# Elastic Compliance Matrix: (Units=1/GPa)
#
#
# Indices 1 2 3 4 5 6 
#
# 1 0.012453 -0.001584 0.001464 0.000000 -0.000509 0.000000
# 2 -0.001584 0.006493 -0.001901 0.000000 -0.001954 0.000000
# 3 0.001464 -0.001901 0.007592 0.000000 0.004580 0.000000
# 4 0.000000 0.000000 0.000000 0.021584 0.000000 -0.022346
# 5 -0.000509 -0.001954 0.004580 0.000000 0.039685 0.000000
# 6 0.000000 0.000000 0.000000 -0.022346 0.000000 0.136671
#
#
# Mechanical properties :
#
#
# Convention : Reuss Voigt Hill
#
# Bulk Modulus (GPa) = 44.45607 54.25324 49.35465
# Shear Modulus (GPa) = 21.18479 42.89807 32.04143
#
# Velocity S-wave (km/s) = 2.89153 4.11467 3.55608
# Velocity P-wave (km/s) = 5.35662 6.63220 6.02824
#
# Compressibility (1/GPa) = 0.02249412
#
# Stress axis : x y z
#
# Youngs Moduli (GPa) = 80.30218 154.01591 131.72271
#
# Poissons Ratio (x) = 0.24396 -0.19278
# Poissons Ratio (y) = 0.12720 0.25043
# Poissons Ratio (z) = -0.11752 0.29282
#
# Static dielectric constant tensor:
#      x y z
#    x 1.986270 0.000000 -0.075480 
#    y 0.000000 1.875400 0.000000 
#    z -0.075480 0.000000 2.842380 
# 
# From -- ./inp_files/7350.got.cif
#   From: 2010.05.17/outbox.cif.g08.bks.cpg/sg13_4_cif.got.tgz:7350.got - 2010.06.03 16:44:36.
