data_PCOD9228708
_publ_section_title
;
Structure prediction by ZEFSAII (Michael W. Deem and Ramdas Pophale) SiO2 
 PCOD9228708
Probable space group: P 2/C
;
_chemical_formula_sum "Si O2"
_cell_formula_units_Z 28
_cell_length_a 24.222659
_cell_length_b 10.790158
_cell_length_c 30.547728
_cell_angle_alpha 90.000000
_cell_angle_beta 169.733546
_cell_angle_gamma 90.000000
_cell_volume 1422.983666
_symmetry_space_group_name_H-M "P 2/C"
_symmetry_group_IT_number 13
_symmetry_cell_setting 'monoclinic'
loop_
_space_group_symop_operation_xyz
x,y,z
-x,y,1/2-z
-x,-y,-z
x,-y,1/2+z
loop_
_atom_site_type_symbol
_atom_site_label
_atom_site_fract_x
_atom_site_fract_y
_atom_site_fract_z
Si Si1 0.137341 0.527987 0.976534
Si Si2 0.359921 0.714277 0.929664
Si Si3 0.458978 0.188368 0.335680
Si Si4 0.970641 0.403040 0.938118
Si Si5 0.247165 0.057261 0.404487
Si Si6 0.230604 0.120584 0.011741
Si Si7 0.760784 0.696940 0.157137
O O1 0.983076 0.660525 0.845791
O O2 0.096088 0.474949 0.993293
O O3 0.907869 0.438252 0.770060
O O4 0.500000 0.523634 0.250000
O O5 0.360807 0.832212 0.962470
O O6 0.611948 0.624505 0.148717
O O7 0.499273 0.723030 0.989145
O O8 0.638797 0.185594 0.429898
O O9 0.643198 0.257272 0.518408
O O10 0.487828 0.040207 0.371344
O O11 0.152588 0.273090 0.089746
O O12 0.000000 0.500000 0.000000
O O13 0.000000 0.095481 0.250000
O O14 0.028566 0.975257 0.203301
O O15 0.057136 0.223918 0.904274
O O16 0.500000 0.061834 0.250000
#
# Coordination Sequence:
#
# PCOD9228708 Si02
#       7
#     4   4   4   4   4   4   4
#     4  11  23  38  59  85 117 158 199 241 301 366
#     4  11  23  39  58  84 122 156 190 246 304 357
#     4  10  20  37  62  88 117 155 198 245 296 354
#     4  11  22  39  62  89 118 150 197 253 305 355
#     4   9  22  40  57  83 118 159 203 242 291 357
#     4  10  19  35  60  86 114 153 198 244 286 343
#     4  10  19  37  60  86 116 148 198 250 299 351
#
# _framework density 19.676964999999999
#
# number of rings (size 3 to 8) (size 9 to 14) (size 15 to 20)
#    0.000    1.714    0.000    7.714    0.000    4.571 
#    0.000    7.143    0.000    0.000    0.000    0.000 
#    0.000    0.000    0.000    0.000    0.000    0.000 
#
# Total GULP energy -155883.352760 kJ/mol
# GULP energy per Si atom -5567.262599 kJ/mol
# Density = 1.963218 g / cm^3
# Si number density = 19.676965 Si / 1000 Ang^3
#
#
#
# Elastic Constant Matrix: (Units=GPa)
#
#
# Indices 1 2 3 4 5 6 
#
# 1 85.4916 48.3141 50.4483 0.0000 -5.5350 0.0000
# 2 48.3141 74.8758 50.5004 0.0000 16.4179 0.0000
# 3 50.4483 50.5004 104.6433 0.0000 4.0883 0.0000
# 4 0.0000 0.0000 0.0000 11.6504 0.0000 16.0965
# 5 -5.5350 16.4179 4.0883 0.0000 27.2502 0.0000
# 6 0.0000 0.0000 0.0000 16.0965 0.0000 5.9274
#
#
#
# Elastic Compliance Matrix: (Units=1/GPa)
#
#
# Indices 1 2 3 4 5 6 
#
# 1 0.024502 -0.016011 -0.004684 0.000000 0.015326 0.000000
# 2 -0.016011 0.033826 -0.007727 0.000000 -0.022473 0.000000
# 3 -0.004684 -0.007727 0.015490 0.000000 0.001380 0.000000
# 4 0.000000 0.000000 0.000000 -0.031190 0.000000 0.084700
# 5 0.015326 -0.022473 0.001380 0.000000 0.053142 0.000000
# 6 0.000000 0.000000 0.000000 0.084700 0.000000 -0.061304
#
#
# Mechanical properties :
#
#
# Convention : Reuss Voigt Hill
#
# Bulk Modulus (GPa) = 58.91972 62.61515 60.76744
# Shear Modulus (GPa) = 51.56317 16.68214 34.12265
#
# Velocity S-wave (km/s) = 5.12462 2.91486 4.16882
# Velocity P-wave (km/s) = 8.06375 6.57413 7.35674
#
# Compressibility (1/GPa) = 0.01697225
#
# Stress axis : x y z
#
# Youngs Moduli (GPa) = 40.81314 29.56291 64.55896
#
# Poissons Ratio (x) = 0.47334 0.30240
# Poissons Ratio (y) = 0.65347 0.49887
# Poissons Ratio (z) = 0.19117 0.22844
#
# Static dielectric constant tensor:
#      x y z
#    x 1.683530 0.000000 -0.006520 
#    y 0.000000 2.146630 0.000000 
#    z -0.006520 0.000000 1.684530 
# 
# From -- ./inp_files/97730.got.cif
#   From: 2010.05.17/outbox.cif.g08.bks.cpg/sg13_49_cif.got.tgz:97730.got - 2010.06.03 16:44:36.
