data_PCOD9228967
_publ_section_title
;
Structure prediction by ZEFSAII (Michael W. Deem and Ramdas Pophale) SiO2 
 PCOD9228967
Probable space group: P 2/C
;
_chemical_formula_sum "Si O2"
_cell_formula_units_Z 28
_cell_length_a 8.288565
_cell_length_b 15.907273
_cell_length_c 18.970256
_cell_angle_alpha 90.000000
_cell_angle_beta 145.016935
_cell_angle_gamma 90.000000
_cell_volume 1434.023251
_symmetry_space_group_name_H-M "P 2/C"
_symmetry_group_IT_number 13
_symmetry_cell_setting 'monoclinic'
loop_
_space_group_symop_operation_xyz
x,y,z
-x,y,1/2-z
-x,-y,-z
x,-y,1/2+z
loop_
_atom_site_type_symbol
_atom_site_label
_atom_site_fract_x
_atom_site_fract_y
_atom_site_fract_z
Si Si1 0.000000 0.530274 0.250000
Si Si2 0.518862 0.642360 0.111342
Si Si3 0.329670 0.110340 0.366245
Si Si4 0.338476 0.014620 0.617637
Si Si5 0.902581 0.577840 0.853290
Si Si6 0.359946 0.172094 0.530545
Si Si7 0.500000 0.555504 0.250000
Si Si8 0.271930 0.764720 0.725075
O O1 0.737097 0.591285 0.141707
O O2 0.929319 0.471539 0.289936
O O3 0.527702 0.741568 0.101732
O O4 0.575821 0.614787 0.211985
O O5 0.207249 0.608238 0.985810
O O6 0.430028 0.126264 0.481723
O O7 0.332147 0.198018 0.323666
O O8 0.000000 0.082351 0.250000
O O9 0.520095 0.047793 0.388872
O O10 0.500000 0.003927 0.750000
O O11 0.388379 0.107845 0.604751
O O12 0.000000 0.000000 0.500000
O O13 0.753295 0.511375 0.851720
O O14 0.734586 0.664037 0.779540
O O15 0.032854 0.199688 0.405801
O O16 0.500000 0.794759 0.750000
#
# Coordination Sequence:
#
# PCOD9228967 Si02
#       8
#     2   4   4   4   4   4   2   4
#     4  10  22  38  56  82 122 158 206 252 312 366
#     4  10  22  39  56  84 123 159 208 251 309 369
#     4  10  21  41  66  95 128 162 210 268 316 379
#     4  12  25  45  70  99 131 169 214 262 325 388
#     4  10  20  35  60  86 114 161 208 259 312 360
#     4  10  23  39  62  91 127 165 203 255 319 383
#     4  10  20  38  58  84 118 160 204 256 316 364
#     4  10  19  36  62  94 123 155 213 264 318 366
#
# _framework density 19.525486000000001
#
# number of rings (size 3 to 8) (size 9 to 14) (size 15 to 20)
#    0.000    1.714    0.714    4.286    6.000    0.000 
#    3.857    2.857    0.000    0.000    0.000    0.000 
#    0.000    0.000    0.000    0.000    0.000    0.000 
#
# Total GULP energy -156268.679807 kJ/mol
# GULP energy per Si atom -5581.024279 kJ/mol
# Density = 1.948105 g / cm^3
# Si number density = 19.525486 Si / 1000 Ang^3
#
#
#
# Elastic Constant Matrix: (Units=GPa)
#
#
# Indices 1 2 3 4 5 6 
#
# 1 103.7329 45.5473 29.3274 0.0000 6.8328 0.0000
# 2 45.5473 124.3289 37.2090 0.0000 -3.2955 0.0000
# 3 29.3274 37.2090 57.9864 0.0000 0.3657 0.0000
# 4 0.0000 0.0000 0.0000 24.2604 0.0000 -2.1915
# 5 6.8328 -3.2955 0.3657 0.0000 25.0929 0.0000
# 6 0.0000 0.0000 0.0000 -2.1915 0.0000 29.3926
#
#
#
# Elastic Compliance Matrix: (Units=1/GPa)
#
#
# Indices 1 2 3 4 5 6 
#
# 1 0.012581 -0.003482 -0.004105 0.000000 -0.003823 0.000000
# 2 -0.003482 0.010968 -0.005293 0.000000 0.002466 0.000000
# 3 -0.004105 -0.005293 0.022717 0.000000 0.000092 0.000000
# 4 0.000000 0.000000 0.000000 0.041499 0.000000 0.003094
# 5 -0.003823 0.002466 0.000092 0.000000 0.041216 0.000000
# 6 0.000000 0.000000 0.000000 0.003094 0.000000 0.034253
#
#
# Mechanical properties :
#
#
# Convention : Reuss Voigt Hill
#
# Bulk Modulus (GPa) = 48.76169 56.69064 52.72617
# Shear Modulus (GPa) = 25.53255 27.34680 26.43968
#
# Velocity S-wave (km/s) = 3.62007 3.74648 3.68382
# Velocity P-wave (km/s) = 6.51926 6.91462 6.71985
#
# Compressibility (1/GPa) = 0.02050790
#
# Stress axis : x y z
#
# Youngs Moduli (GPa) = 79.48256 91.17343 44.01986
#
# Poissons Ratio (x) = 0.31747 0.18069
# Poissons Ratio (y) = 0.27676 0.23298
# Poissons Ratio (z) = 0.32626 0.48254
#
# Static dielectric constant tensor:
#      x y z
#    x 1.681730 0.000000 0.020890 
#    y 0.000000 1.674030 0.000000 
#    z 0.020890 0.000000 1.690310 
# 
# From -- ./inp_files/76781.got.cif
#   From: 2010.05.17/outbox.cif.g08.bks.cpg/sg13_39_cif.got.tgz:76781.got - 2010.06.03 16:44:36.
