data_PCOD9228963
_publ_section_title
;
Structure prediction by ZEFSAII (Michael W. Deem and Ramdas Pophale) SiO2 
 PCOD9228963
Probable space group: P 2/C
;
_chemical_formula_sum "Si O2"
_cell_formula_units_Z 20
_cell_length_a 10.792588
_cell_length_b 12.036153
_cell_length_c 8.290031
_cell_angle_alpha 90.000000
_cell_angle_beta 131.449422
_cell_angle_gamma 90.000000
_cell_volume 807.169001
_symmetry_space_group_name_H-M "P 2/C"
_symmetry_group_IT_number 13
_symmetry_cell_setting 'monoclinic'
loop_
_space_group_symop_operation_xyz
x,y,z
-x,y,1/2-z
-x,-y,-z
x,-y,1/2+z
loop_
_atom_site_type_symbol
_atom_site_label
_atom_site_fract_x
_atom_site_fract_y
_atom_site_fract_z
Si Si1 0.533245 0.782269 0.095466
Si Si2 0.906075 0.139394 0.432893
Si Si3 0.672018 0.431698 0.610601
Si Si4 0.760842 0.358173 0.326684
Si Si5 0.232654 0.051739 0.849869
O O1 0.500000 0.812707 0.250000
O O2 0.666289 0.680593 0.208716
O O3 0.598910 0.889184 0.056409
O O4 0.382723 0.719664 0.875937
O O5 0.908688 0.271452 0.448289
O O6 0.814574 0.095699 0.515448
O O7 0.093570 0.098954 0.607222
O O8 0.804411 0.079305 0.201683
O O9 0.500000 0.500000 0.500000
O O10 0.700147 0.393124 0.452151
O O11 0.797421 0.528750 0.764478
#
# Coordination Sequence:
#
# PCOD9228963 Si02
#       5
#     4   4   4   4   4
#     4  11  22  38  62  97 126 166 212 262 311 379
#     4  10  23  44  68  92 125 173 209 265 319 383
#     4  10  19  36  62  91 128 168 204 256 317 374
#     4  11  22  40  65  94 128 169 215 259 315 373
#     4  10  23  44  67  90 130 167 213 258 328 377
#
# _framework density 24.777958999999999
#
# number of rings (size 3 to 8) (size 9 to 14) (size 15 to 20)
#    0.000    1.600    2.000    4.800    2.800    0.800 
#    0.000    1.000    0.000    0.000    0.000    0.000 
#    0.000    0.000    0.000    0.000    0.000    0.000 
#
# Total GULP energy -111781.163240 kJ/mol
# GULP energy per Si atom -5589.058162 kJ/mol
# Density = 2.472156 g / cm^3
# Si number density = 24.777959 Si / 1000 Ang^3
#
#
#
# Elastic Constant Matrix: (Units=GPa)
#
#
# Indices 1 2 3 4 5 6 
#
# 1 37.6089 4.6998 17.7498 0.0000 -5.5834 0.0000
# 2 4.6998 120.6275 -8.6426 0.0000 6.3544 0.0000
# 3 17.7498 -8.6426 39.7477 0.0000 -7.8931 0.0000
# 4 0.0000 0.0000 0.0000 36.5267 0.0000 -1.1123
# 5 -5.5834 6.3544 -7.8931 0.0000 26.2863 0.0000
# 6 0.0000 0.0000 0.0000 -1.1123 0.0000 41.8072
#
#
#
# Elastic Compliance Matrix: (Units=1/GPa)
#
#
# Indices 1 2 3 4 5 6 
#
# 1 0.034684 -0.002632 -0.015389 0.000000 0.003382 0.000000
# 2 -0.002632 0.008683 0.002696 0.000000 -0.001848 0.000000
# 3 -0.015389 0.002696 0.033857 0.000000 0.006246 0.000000
# 4 0.000000 0.000000 0.000000 0.027399 0.000000 0.000729
# 5 0.003382 -0.001848 0.006246 0.000000 0.041083 0.000000
# 6 0.000000 0.000000 0.000000 0.000729 0.000000 0.023939
#
#
# Mechanical properties :
#
#
# Convention : Reuss Voigt Hill
#
# Bulk Modulus (GPa) = 21.47092 25.06646 23.26869
# Shear Modulus (GPa) = 23.16746 33.20250 28.18498
#
# Velocity S-wave (km/s) = 3.06110 3.66457 3.37635
# Velocity P-wave (km/s) = 4.60195 5.29565 4.96094
#
# Compressibility (1/GPa) = 0.04657462
#
# Stress axis : x y z
#
# Youngs Moduli (GPa) = 28.83215 115.16636 29.53562
#
# Poissons Ratio (x) = 0.30313 0.45452
# Poissons Ratio (y) = 0.07589 -0.07964
# Poissons Ratio (z) = 0.44370 -0.31053
#
# Static dielectric constant tensor:
#      x y z
#    x 1.971100 0.000000 0.108660 
#    y 0.000000 2.061600 0.000000 
#    z 0.108660 0.000000 2.070870 
# 
# From -- ./inp_files/15641.got.cif
#   From: 2010.05.17/outbox.cif.g08.bks.cpg/sg13_8_cif.got.tgz:15641.got - 2010.06.03 16:44:36.
