data_PCOD9228201
_publ_section_title
;
Structure prediction by ZEFSAII (Michael W. Deem and Ramdas Pophale) SiO2 
 PCOD9228201
Probable space group: P 2/C
;
_chemical_formula_sum "Si O2"
_cell_formula_units_Z 22
_cell_length_a 23.222756
_cell_length_b 8.399939
_cell_length_c 5.276827
_cell_angle_alpha 90.000000
_cell_angle_beta 109.640582
_cell_angle_gamma 90.000000
_cell_volume 969.461308
_symmetry_space_group_name_H-M "P 2/C"
_symmetry_group_IT_number 13
_symmetry_cell_setting 'monoclinic'
loop_
_space_group_symop_operation_xyz
x,y,z
-x,y,1/2-z
-x,-y,-z
x,-y,1/2+z
loop_
_atom_site_type_symbol
_atom_site_label
_atom_site_fract_x
_atom_site_fract_y
_atom_site_fract_z
Si Si1 0.914791 0.582927 0.326002
Si Si2 0.767151 0.894985 0.618798
Si Si3 0.220085 0.547448 0.890795
Si Si4 0.070372 0.929981 0.916429
Si Si5 0.500000 0.888334 0.250000
Si Si6 0.628467 0.102241 0.851236
O O1 0.936317 0.456482 0.572782
O O2 0.841277 0.561412 0.202167
O O3 0.928578 0.754816 0.462024
O O4 0.801572 0.728695 0.642727
O O5 0.696286 0.833312 0.498490
O O6 0.775717 0.012627 0.394304
O O7 0.255154 0.499752 0.692613
O O8 0.000000 0.972871 0.750000
O O9 0.098087 0.958347 0.677978
O O10 0.500000 0.000000 0.500000
O O11 0.433938 0.803721 0.174940
O O12 0.626630 0.042045 0.557167
#
# Coordination Sequence:
#
# PCOD9228201 Si02
#       6
#     4   4   4   4   2   4
#     4  10  21  38  56  80 110 140 173 209 253 308
#     4  10  19  33  53  76 100 131 173 218 257 298
#     4  10  21  38  53  74 106 138 175 212 256 309
#     4  10  21  38  60  85 110 137 172 214 256 299
#     4   8  12  20  34  58  92 122 148 192 252 302
#     4   8  14  23  39  64  93 122 156 201 252 298
#
# _framework density 22.693014999999999
#
# number of rings (size 3 to 8) (size 9 to 14) (size 15 to 20)
#    0.000    2.545    0.000    2.182    0.000    0.727 
#    0.000   21.818    0.000    0.000    0.000    1.273 
#    0.000    0.000    0.000    0.000    0.000    0.000 
#
# Total GULP energy -122678.497677 kJ/mol
# GULP energy per Si atom -5576.295349 kJ/mol
# Density = 2.264136 g / cm^3
# Si number density = 22.693015 Si / 1000 Ang^3
#
#
#
# Elastic Constant Matrix: (Units=GPa)
#
#
# Indices 1 2 3 4 5 6 
#
# 1 57.4047 -16.5166 4.6613 0.0000 7.4945 0.0000
# 2 -16.5166 74.2031 14.4700 0.0000 5.0515 0.0000
# 3 4.6613 14.4700 128.5831 0.0000 -19.0815 0.0000
# 4 0.0000 0.0000 0.0000 29.7846 0.0000 -7.5007
# 5 7.4945 5.0515 -19.0815 0.0000 25.4315 0.0000
# 6 0.0000 0.0000 0.0000 -7.5007 0.0000 5.4111
#
#
#
# Elastic Compliance Matrix: (Units=1/GPa)
#
#
# Indices 1 2 3 4 5 6 
#
# 1 0.020501 0.005732 -0.002761 0.000000 -0.009252 0.000000
# 2 0.005732 0.015831 -0.003046 0.000000 -0.007119 0.000000
# 3 -0.002761 -0.003046 0.009487 0.000000 0.008537 0.000000
# 4 0.000000 0.000000 0.000000 0.051580 0.000000 0.071498
# 5 -0.009252 -0.007119 0.008537 0.000000 0.049867 0.000000
# 6 0.000000 0.000000 0.000000 0.071498 0.000000 0.283914
#
#
# Mechanical properties :
#
#
# Convention : Reuss Voigt Hill
#
# Bulk Modulus (GPa) = 21.89694 29.49114 25.69404
# Shear Modulus (GPa) = 11.19689 29.29720 20.24705
#
# Velocity S-wave (km/s) = 2.22369 3.59698 2.99024
# Velocity P-wave (km/s) = 4.03276 5.50226 4.82380
#
# Compressibility (1/GPa) = 0.04566849
#
# Stress axis : x y z
#
# Youngs Moduli (GPa) = 48.77719 63.16774 105.41035
#
# Poissons Ratio (x) = -0.36205 0.29105
# Poissons Ratio (y) = -0.27957 0.32105
# Poissons Ratio (z) = 0.13468 0.19239
#
# Static dielectric constant tensor:
#      x y z
#    x 2.019250 0.000000 -0.016950 
#    y 0.000000 1.816280 0.000000 
#    z -0.016950 0.000000 1.944040 
# 
# From -- ./inp_files/7308.got.cif
#   From: 2010.05.17/outbox.cif.g08.bks.cpg/sg13_4_cif.got.tgz:7308.got - 2010.06.03 16:44:36.
