data_PCOD9228532
_publ_section_title
;
Structure prediction by ZEFSAII (Michael W. Deem and Ramdas Pophale) SiO2 
 PCOD9228532
Probable space group: P 2/C
;
_chemical_formula_sum "Si O2"
_cell_formula_units_Z 30
_cell_length_a 18.317758
_cell_length_b 4.861372
_cell_length_c 14.243852
_cell_angle_alpha 90.000000
_cell_angle_beta 95.215535
_cell_angle_gamma 90.000000
_cell_volume 1263.155511
_symmetry_space_group_name_H-M "P 2/C"
_symmetry_group_IT_number 13
_symmetry_cell_setting 'monoclinic'
loop_
_space_group_symop_operation_xyz
x,y,z
-x,y,1/2-z
-x,-y,-z
x,-y,1/2+z
loop_
_atom_site_type_symbol
_atom_site_label
_atom_site_fract_x
_atom_site_fract_y
_atom_site_fract_z
Si Si1 0.986193 0.251548 0.428240
Si Si2 0.286999 0.835259 0.818865
Si Si3 0.696085 0.048543 0.882715
Si Si4 0.861386 0.784935 0.602125
Si Si5 0.836678 0.723520 0.972632
Si Si6 0.603088 0.560294 0.917362
Si Si7 0.378966 0.300780 0.874805
Si Si8 0.500000 0.300471 0.750000
O O1 0.053327 0.268442 0.362923
O O2 0.000000 0.500000 0.500000
O O3 0.899368 0.251615 0.399248
O O4 0.000000 0.000000 0.500000
O O5 0.288150 0.015971 0.725337
O O6 0.336126 0.560175 0.824141
O O7 0.323138 0.054348 0.895308
O O8 0.204298 0.752106 0.833114
O O9 0.763151 0.876758 0.934241
O O10 0.624223 0.868710 0.893278
O O11 0.673180 0.354097 0.911461
O O12 0.837898 0.587283 0.511566
O O13 0.860348 0.097947 0.566015
O O14 0.543256 0.468041 0.835232
O O15 0.586097 0.577261 0.025928
O O16 0.436786 0.170021 0.808029
#
# Coordination Sequence:
#
# PCOD9228532 Si02
#       8
#     4   4   4   4   4   4   4   2
#     4   8  16  30  51  84 119 158 205 258 303 361
#     4  12  23  42  62  95 129 166 211 270 313 377
#     4  12  23  42  62  95 129 166 211 270 313 377
#     4  10  19  34  59  87 121 163 212 256 309 370
#     4  10  19  34  59  87 121 163 212 256 309 370
#     4  12  26  45  70  93 127 168 210 259 328 392
#     4  12  26  45  70  93 127 168 210 259 328 392
#     4  12  26  50  68 100 128 156 214 266 332 388
#
# _framework density 23.750043000000002
#
# number of rings (size 3 to 8) (size 9 to 14) (size 15 to 20)
#    0.000    1.067    2.667    5.200    0.000    2.133 
#    0.000    3.333    0.000    0.000    0.000   14.933 
#    0.000    0.000    0.000    0.000    0.000    0.000 
#
# Total GULP energy -167336.112915 kJ/mol
# GULP energy per Si atom -5577.870431 kJ/mol
# Density = 2.369599 g / cm^3
# Si number density = 23.750043 Si / 1000 Ang^3
#
#
#
# Elastic Constant Matrix: (Units=GPa)
#
#
# Indices 1 2 3 4 5 6 
#
# 1 121.9128 6.3284 44.2697 0.0000 -24.7736 0.0000
# 2 6.3284 118.8315 -1.2307 0.0000 0.3672 0.0000
# 3 44.2697 -1.2307 83.7098 0.0000 -19.0871 0.0000
# 4 0.0000 0.0000 0.0000 19.3408 0.0000 -7.7930
# 5 -24.7736 0.3672 -19.0871 0.0000 30.2958 0.0000
# 6 0.0000 0.0000 0.0000 -7.7930 0.0000 -3.3629
#
#
#
# Elastic Compliance Matrix: (Units=1/GPa)
#
#
# Indices 1 2 3 4 5 6 
#
# 1 0.011138 -0.000659 -0.004463 0.000000 0.006305 0.000000
# 2 -0.000659 0.008456 0.000381 0.000000 -0.000401 0.000000
# 3 -0.004463 0.000381 0.015740 0.000000 0.006263 0.000000
# 4 0.000000 0.000000 0.000000 0.026738 0.000000 -0.061962
# 5 0.006305 -0.000401 0.006263 0.000000 0.042114 0.000000
# 6 0.000000 0.000000 0.000000 -0.061962 0.000000 -0.153777
#
#
# Mechanical properties :
#
#
# Convention : Reuss Voigt Hill
#
# Bulk Modulus (GPa) = 38.67996 47.02098 42.85047
# Shear Modulus (GPa) = -158.76387 27.59384 -65.58502
#
# Velocity S-wave (km/s) = -8.18492 3.41228 -5.26067
# Velocity P-wave (km/s) = 8.54414 5.94694 4.33798
#
# Compressibility (1/GPa) = 0.02585318
#
# Stress axis : x y z
#
# Youngs Moduli (GPa) = 89.77928 118.26543 63.53371
#
# Poissons Ratio (x) = 0.07792 0.28353
# Poissons Ratio (y) = 0.05915 -0.02423
# Poissons Ratio (z) = 0.40066 -0.04510
#
# Static dielectric constant tensor:
#      x y z
#    x 2.040610 0.000000 0.008620 
#    y 0.000000 1.821790 0.000000 
#    z 0.008620 0.000000 1.944460 
# 
# From -- ./inp_files/54474.got.cif
#   From: 2010.05.17/outbox.cif.g08.bks.cpg/sg13_28_cif.got.tgz:54474.got - 2010.06.03 16:44:36.
