data_PCOD9228659
_publ_section_title
;
Structure prediction by ZEFSAII (Michael W. Deem and Ramdas Pophale) SiO2 
 PCOD9228659
Probable space group: P 2/C
;
_chemical_formula_sum "Si O2"
_cell_formula_units_Z 28
_cell_length_a 10.065678
_cell_length_b 11.633328
_cell_length_c 13.972114
_cell_angle_alpha 90.000000
_cell_angle_beta 139.010667
_cell_angle_gamma 90.000000
_cell_volume 1073.146501
_symmetry_space_group_name_H-M "P 2/C"
_symmetry_group_IT_number 13
_symmetry_cell_setting 'monoclinic'
loop_
_space_group_symop_operation_xyz
x,y,z
-x,y,1/2-z
-x,-y,-z
x,-y,1/2+z
loop_
_atom_site_type_symbol
_atom_site_label
_atom_site_fract_x
_atom_site_fract_y
_atom_site_fract_z
Si Si1 0.467174 0.970113 0.095617
Si Si2 0.743997 0.565126 0.944038
Si Si3 0.255922 0.195602 0.991891
Si Si4 0.522166 0.607101 0.093302
Si Si5 0.197860 0.191228 0.729434
Si Si6 0.867610 0.555380 0.793083
Si Si7 0.167392 0.769783 0.900087
O O1 0.300229 0.869443 0.021265
O O2 0.389737 0.088932 0.094438
O O3 0.680368 0.917826 0.243288
O O4 0.500000 0.000000 0.000000
O O5 0.607922 0.459025 0.899184
O O6 0.785883 0.572095 0.855110
O O7 0.650333 0.681928 0.932458
O O8 0.958665 0.541918 0.111655
O O9 0.218841 0.190951 0.857226
O O10 0.036461 0.192147 0.922481
O O11 0.677944 0.695147 0.229824
O O12 0.679566 0.510403 0.136061
O O13 0.353092 0.694719 0.954469
O O14 0.007055 0.670774 0.850455
O O15 0.000000 0.841211 0.750000
#
# Coordination Sequence:
#
# PCOD9228659 Si02
#       7
#     4   4   4   4   4   4   4
#     4   9  20  36  58  85 118 155 196 245 298 358
#     4  10  21  36  58  86 113 161 199 241 294 361
#     4  10  19  35  58  86 117 152 201 243 306 353
#     4  10  20  38  56  83 121 156 192 240 300 357
#     4   9  19  34  57  86 118 156 191 248 305 359
#     4  10  21  38  57  84 122 153 198 244 296 360
#     4  10  23  37  59  93 118 155 200 249 302 353
#
# _framework density 26.091498000000001
#
# number of rings (size 3 to 8) (size 9 to 14) (size 15 to 20)
#    0.000    2.286    1.429    0.429    4.000    6.857 
#    0.000    0.714    0.000    0.000    3.714    0.000 
#    0.000    0.000    0.000    0.000    0.000    0.000 
#
# Total GULP energy -156226.511973 kJ/mol
# GULP energy per Si atom -5579.518285 kJ/mol
# Density = 2.603211 g / cm^3
# Si number density = 26.091498 Si / 1000 Ang^3
#
#
#
# Elastic Constant Matrix: (Units=GPa)
#
#
# Indices 1 2 3 4 5 6 
#
# 1 98.6036 34.5077 49.5242 0.0000 17.6045 0.0000
# 2 34.5077 149.1904 16.1424 0.0000 25.3841 0.0000
# 3 49.5242 16.1424 126.5035 0.0000 37.6089 0.0000
# 4 0.0000 0.0000 0.0000 29.5074 0.0000 24.8908
# 5 17.6045 25.3841 37.6089 0.0000 39.4888 0.0000
# 6 0.0000 0.0000 0.0000 24.8908 0.0000 19.9922
#
#
#
# Elastic Compliance Matrix: (Units=1/GPa)
#
#
# Indices 1 2 3 4 5 6 
#
# 1 0.013556 -0.002676 -0.005134 0.000000 0.000567 0.000000
# 2 -0.002676 0.008095 0.001684 0.000000 -0.005614 0.000000
# 3 -0.005134 0.001684 0.013031 0.000000 -0.011204 0.000000
# 4 0.000000 0.000000 0.000000 -0.674648 0.000000 0.839954
# 5 0.000567 -0.005614 -0.011204 0.000000 0.039351 0.000000
# 6 0.000000 0.000000 0.000000 0.839954 0.000000 -0.995744
#
#
# Mechanical properties :
#
#
# Convention : Reuss Voigt Hill
#
# Bulk Modulus (GPa) = 44.58538 63.84956 54.21747
# Shear Modulus (GPa) = -3.17132 36.07256 16.45062
#
# Velocity S-wave (km/s) = -1.10368 3.72229 2.51369
# Velocity P-wave (km/s) = 3.93714 6.55732 5.40830
#
# Compressibility (1/GPa) = 0.02242888
#
# Stress axis : x y z
#
# Youngs Moduli (GPa) = 73.77072 123.53455 76.74134
#
# Poissons Ratio (x) = 0.33062 0.39397
# Poissons Ratio (y) = 0.19743 -0.12922
# Poissons Ratio (z) = 0.37872 -0.20801
#
# Static dielectric constant tensor:
#      x y z
#    x 2.121310 0.000000 -0.095610 
#    y 0.000000 2.064550 0.000000 
#    z -0.095610 0.000000 2.137710 
# 
# From -- ./inp_files/78582.got.cif
#   From: 2010.05.17/outbox.cif.g08.bks.cpg/sg13_40_cif.got.tgz:78582.got - 2010.06.03 16:44:36.
