data_PCOD9228580
_publ_section_title
;
Structure prediction by ZEFSAII (Michael W. Deem and Ramdas Pophale) SiO2 
 PCOD9228580
Probable space group: P 2/C
;
_chemical_formula_sum "Si O2"
_cell_formula_units_Z 24
_cell_length_a 14.133216
_cell_length_b 7.244188
_cell_length_c 9.534367
_cell_angle_alpha 90.000000
_cell_angle_beta 63.160900
_cell_angle_gamma 90.000000
_cell_volume 871.009157
_symmetry_space_group_name_H-M "P 2/C"
_symmetry_group_IT_number 13
_symmetry_cell_setting 'monoclinic'
loop_
_space_group_symop_operation_xyz
x,y,z
-x,y,1/2-z
-x,-y,-z
x,-y,1/2+z
loop_
_atom_site_type_symbol
_atom_site_label
_atom_site_fract_x
_atom_site_fract_y
_atom_site_fract_z
Si Si1 0.069810 0.911385 0.824544
Si Si2 0.114432 0.694257 0.210771
Si Si3 0.270866 0.663748 0.317024
Si Si4 0.579878 0.321607 0.566575
Si Si5 0.583033 0.234838 0.019591
Si Si6 0.735910 0.730984 0.636831
O O1 0.172989 0.819749 0.828085
O O2 0.000000 0.807986 0.750000
O O3 0.110704 0.084747 0.707252
O O4 0.000000 0.000000 0.000000
O O5 0.151154 0.655770 0.344080
O O6 0.000000 0.621794 0.250000
O O7 0.198539 0.640233 0.037850
O O8 0.304803 0.724819 0.448132
O O9 0.332549 0.788948 0.162734
O O10 0.310030 0.453638 0.262259
O O11 0.500000 0.284716 0.750000
O O12 0.532456 0.201536 0.471427
O O13 0.574881 0.543331 0.553139
O O14 0.640216 0.161124 0.121718
#
# Coordination Sequence:
#
# PCOD9228580 Si02
#       6
#     4   4   4   4   4   4
#     4  11  21  40  57  72 101 150 191 223 269 325
#     4  10  20  36  52  72 108 141 179 228 269 320
#     4   9  18  30  50  80 108 135 171 222 276 318
#     4   8  13  26  47  74 106 137 163 204 269 323
#     4   8  15  28  49  76 108 134 168 216 262 321
#     4  10  19  35  53  79 105 136 186 224 267 324
#
# _framework density 27.554247
#
# number of rings (size 3 to 8) (size 9 to 14) (size 15 to 20)
#    0.000    2.667    3.333    0.000    0.000    1.333 
#    9.000    0.000    0.000    1.000    0.000   46.667 
#    0.000    0.000    0.000    0.000    0.000    0.000 
#
# Total GULP energy -133838.711328 kJ/mol
# GULP energy per Si atom -5576.612972 kJ/mol
# Density = 2.749153 g / cm^3
# Si number density = 27.554247 Si / 1000 Ang^3
#
#
#
# Elastic Constant Matrix: (Units=GPa)
#
#
# Indices 1 2 3 4 5 6 
#
# 1 313.4018 18.4256 42.8294 0.0000 75.4564 0.0000
# 2 18.4256 71.1387 3.4541 0.0000 8.5211 0.0000
# 3 42.8294 3.4541 105.6989 0.0000 11.7825 0.0000
# 4 0.0000 0.0000 0.0000 14.9017 0.0000 -2.5545
# 5 75.4564 8.5211 11.7825 0.0000 48.1380 0.0000
# 6 0.0000 0.0000 0.0000 -2.5545 0.0000 33.6781
#
#
#
# Elastic Compliance Matrix: (Units=1/GPa)
#
#
# Indices 1 2 3 4 5 6 
#
# 1 0.005290 -0.000361 -0.001249 0.000000 -0.007923 0.000000
# 2 -0.000361 0.014390 -0.000106 0.000000 -0.001956 0.000000
# 3 -0.001249 -0.000106 0.010023 0.000000 -0.000477 0.000000
# 4 0.000000 0.000000 0.000000 0.067990 0.000000 0.005157
# 5 -0.007923 -0.001956 -0.000477 0.000000 0.033656 0.000000
# 6 0.000000 0.000000 0.000000 0.005157 0.000000 0.030084
#
#
# Mechanical properties :
#
#
# Convention : Reuss Voigt Hill
#
# Bulk Modulus (GPa) = 38.06188 68.85084 53.45636
# Shear Modulus (GPa) = 28.79817 47.71227 38.25522
#
# Velocity S-wave (km/s) = 3.23638 4.16574 3.73011
# Velocity P-wave (km/s) = 5.27342 6.94114 6.16394
#
# Compressibility (1/GPa) = 0.02627300
#
# Stress axis : x y z
#
# Youngs Moduli (GPa) = 189.02868 69.49321 99.76589
#
# Poissons Ratio (x) = 0.02506 0.12457
# Poissons Ratio (y) = 0.06816 0.01058
# Poissons Ratio (z) = 0.23603 0.00737
#
# Static dielectric constant tensor:
#      x y z
#    x 2.366850 0.000000 0.017560 
#    y 0.000000 2.200650 0.000000 
#    z 0.017560 0.000000 2.318220 
# 
# From -- ./inp_files/35875.got.cif
#   From: 2010.05.17/outbox.cif.g08.bks.cpg/sg13_18_cif.got.tgz:35875.got - 2010.06.03 16:44:36.
