data_PCOD9228959
_publ_section_title
;
Structure prediction by ZEFSAII (Michael W. Deem and Ramdas Pophale) SiO2 
 PCOD9228959
Probable space group: P 2/C
;
_chemical_formula_sum "Si O2"
_cell_formula_units_Z 26
_cell_length_a 15.113906
_cell_length_b 6.392782
_cell_length_c 13.135638
_cell_angle_alpha 90.000000
_cell_angle_beta 113.531093
_cell_angle_gamma 90.000000
_cell_volume 1163.624927
_symmetry_space_group_name_H-M "P 2/C"
_symmetry_group_IT_number 13
_symmetry_cell_setting 'monoclinic'
loop_
_space_group_symop_operation_xyz
x,y,z
-x,y,1/2-z
-x,-y,-z
x,-y,1/2+z
loop_
_atom_site_type_symbol
_atom_site_label
_atom_site_fract_x
_atom_site_fract_y
_atom_site_fract_z
Si Si1 0.353516 0.457993 0.928959
Si Si2 0.088574 0.618645 0.594497
Si Si3 0.000000 0.478003 0.250000
Si Si4 0.709437 0.574465 0.314540
Si Si5 0.417283 0.762268 0.632905
Si Si6 0.296781 0.865716 0.991170
Si Si7 0.162169 0.773944 0.423755
O O1 0.349930 0.366213 0.814012
O O2 0.256918 0.362751 0.939083
O O3 0.437403 0.393729 0.046808
O O4 0.333750 0.705533 0.923033
O O5 0.179923 0.471882 0.661305
O O6 0.130407 0.774885 0.528392
O O7 0.000000 0.500000 0.500000
O O8 0.044630 0.670614 0.683609
O O9 0.078979 0.641113 0.330654
O O10 0.658945 0.364628 0.332822
O O11 0.713383 0.736750 0.408655
O O12 0.500000 0.814220 0.750000
O O13 0.376229 0.964062 0.557928
O O14 0.199645 0.991938 0.916633
#
# Coordination Sequence:
#
# PCOD9228959 Si02
#       7
#     4   4   2   4   4   4   4
#     4  10  21  39  64  89 118 161 204 243 308 370
#     4  10  19  36  62  88 126 172 203 249 301 348
#     4  10  20  34  64  88 130 166 212 256 294 356
#     4  11  21  41  65  88 125 168 200 252 309 365
#     4  10  23  42  63  92 123 155 202 257 311 372
#     4  10  21  39  63  87 122 158 199 256 307 366
#     4  10  19  39  57  90 123 163 208 252 296 357
#
# _framework density 22.343968
#
# number of rings (size 3 to 8) (size 9 to 14) (size 15 to 20)
#    0.000    1.846    6.154    0.000    0.000    5.538 
#    0.000    6.923    0.000    0.000    0.000    0.000 
#    0.000    0.000    0.000    0.000    0.000    0.000 
#
# Total GULP energy -144823.219952 kJ/mol
# GULP energy per Si atom -5570.123844 kJ/mol
# Density = 2.229311 g / cm^3
# Si number density = 22.343968 Si / 1000 Ang^3
#
#
#
# Elastic Constant Matrix: (Units=GPa)
#
#
# Indices 1 2 3 4 5 6 
#
# 1 25.0622 0.7125 -4.2603 0.0000 -10.6637 0.0000
# 2 0.7125 57.1545 -16.4834 0.0000 -3.2628 0.0000
# 3 -4.2603 -16.4834 82.7883 0.0000 -4.8104 0.0000
# 4 0.0000 0.0000 0.0000 20.6476 0.0000 -2.4715
# 5 -10.6637 -3.2628 -4.8104 0.0000 42.8448 0.0000
# 6 0.0000 0.0000 0.0000 -2.4715 0.0000 10.1203
#
#
#
# Elastic Compliance Matrix: (Units=1/GPa)
#
#
# Indices 1 2 3 4 5 6 
#
# 1 0.045417 0.001035 0.003226 0.000000 0.011745 0.000000
# 2 0.001035 0.018731 0.003906 0.000000 0.002122 0.000000
# 3 0.003226 0.003906 0.013173 0.000000 0.002579 0.000000
# 4 0.000000 0.000000 0.000000 0.049890 0.000000 0.012184
# 5 0.011745 0.002122 0.002579 0.000000 0.026714 0.000000
# 6 0.000000 0.000000 0.000000 0.012184 0.000000 0.101786
#
#
# Mechanical properties :
#
#
# Convention : Reuss Voigt Hill
#
# Bulk Modulus (GPa) = 10.67772 13.88251 12.28011
# Shear Modulus (GPa) = 18.47767 27.05829 22.76798
#
# Velocity S-wave (km/s) = 2.87882 3.48370 3.19560
# Velocity P-wave (km/s) = 3.97986 4.73372 4.37307
#
# Compressibility (1/GPa) = 0.09365298
#
# Stress axis : x y z
#
# Youngs Moduli (GPa) = 22.01823 53.38690 75.91537
#
# Poissons Ratio (x) = -0.05523 -0.24487
# Poissons Ratio (y) = -0.02278 -0.29653
# Poissons Ratio (z) = -0.07102 -0.20853
#
# Static dielectric constant tensor:
#      x y z
#    x 1.892890 0.000000 0.006730 
#    y 0.000000 1.844800 0.000000 
#    z 0.006730 0.000000 1.917040 
# 
# From -- ./inp_files/54265.got.cif
#   From: 2010.05.17/outbox.cif.g08.bks.cpg/sg13_28_cif.got.tgz:54265.got - 2010.06.03 16:44:36.
