data_PCOD9228227
_publ_section_title
;
Structure prediction by ZEFSAII (Michael W. Deem and Ramdas Pophale) SiO2 
 PCOD9228227
Probable space group: P 2/C
;
_chemical_formula_sum "Si O2"
_cell_formula_units_Z 28
_cell_length_a 25.330413
_cell_length_b 9.233085
_cell_length_c 10.731133
_cell_angle_alpha 90.000000
_cell_angle_beta 147.723688
_cell_angle_gamma 90.000000
_cell_volume 1340.226658
_symmetry_space_group_name_H-M "P 2/C"
_symmetry_group_IT_number 13
_symmetry_cell_setting 'monoclinic'
loop_
_space_group_symop_operation_xyz
x,y,z
-x,y,1/2-z
-x,-y,-z
x,-y,1/2+z
loop_
_atom_site_type_symbol
_atom_site_label
_atom_site_fract_x
_atom_site_fract_y
_atom_site_fract_z
Si Si1 0.707125 0.987163 0.415570
Si Si2 0.243803 0.276861 0.654814
Si Si3 0.651064 0.746186 0.466084
Si Si4 0.693945 0.511231 0.885632
Si Si5 0.566815 0.238729 0.074323
Si Si6 0.025890 0.385364 0.160530
Si Si7 0.831987 0.755839 0.220287
O O1 0.611286 0.091625 0.220305
O O2 0.798083 0.097386 0.589216
O O3 0.713803 0.869259 0.320052
O O4 0.710501 0.889553 0.546544
O O5 0.313339 0.408747 0.749837
O O6 0.136648 0.322569 0.383704
O O7 0.226063 0.256479 0.764442
O O8 0.702725 0.601812 0.517077
O O9 0.622059 0.744321 0.551359
O O10 0.548586 0.760754 0.183699
O O11 0.602191 0.619698 0.719493
O O12 0.788192 0.617020 0.060518
O O13 0.000000 0.440641 0.250000
O O14 0.000000 0.500000 0.000000
O O15 0.946687 0.258592 0.976598
#
# Coordination Sequence:
#
# PCOD9228227 Si02
#       7
#     4   4   4   4   4   4   4
#     4  10  21  35  52  76 106 142 178 213 265 320
#     4  10  20  35  55  78 108 140 176 221 269 322
#     4  10  20  34  52  75 104 138 177 221 266 314
#     4  10  19  33  54  78 104 134 180 219 271 316
#     4  10  20  34  52  75 104 138 177 221 266 314
#     4  10  20  37  58  84 112 142 178 225 274 324
#     4  10  20  35  55  78 108 140 176 221 269 322
#
# _framework density 20.891988000000001
#
# number of rings (size 3 to 8) (size 9 to 14) (size 15 to 20)
#    0.000    2.000    1.429    2.571    0.000    0.571 
#    0.000    1.429    0.000   13.714    0.000    0.000 
#    0.000    0.000    0.000    0.000    0.000    0.000 
#
# Total GULP energy -156240.635836 kJ/mol
# GULP energy per Si atom -5580.022708 kJ/mol
# Density = 2.084444 g / cm^3
# Si number density = 20.891988 Si / 1000 Ang^3
#
#
#
# Elastic Constant Matrix: (Units=GPa)
#
#
# Indices 1 2 3 4 5 6 
#
# 1 37.7533 13.1179 -13.4107 0.0000 -0.9685 0.0000
# 2 13.1179 137.1971 16.1470 0.0000 -1.8442 0.0000
# 3 -13.4107 16.1470 58.7472 0.0000 3.1160 0.0000
# 4 0.0000 0.0000 0.0000 17.5432 0.0000 -0.3599
# 5 -0.9685 -1.8442 3.1160 0.0000 21.9943 0.0000
# 6 0.0000 0.0000 0.0000 -0.3599 0.0000 19.3615
#
#
#
# Elastic Compliance Matrix: (Units=1/GPa)
#
#
# Indices 1 2 3 4 5 6 
#
# 1 0.030708 -0.003889 0.008085 0.000000 -0.000119 0.000000
# 2 -0.003889 0.008044 -0.003149 0.000000 0.000949 0.000000
# 3 0.008085 -0.003149 0.019878 0.000000 -0.002724 0.000000
# 4 0.000000 0.000000 0.000000 0.057024 0.000000 0.001060
# 5 -0.000119 0.000949 -0.002724 0.000000 0.045927 0.000000
# 6 0.000000 0.000000 0.000000 0.001060 0.000000 0.051669
#
#
# Mechanical properties :
#
#
# Convention : Reuss Voigt Hill
#
# Bulk Modulus (GPa) = 16.46800 29.48954 22.97877
# Shear Modulus (GPa) = 21.60791 26.30268 23.95530
#
# Velocity S-wave (km/s) = 3.21949 3.55207 3.38986
# Velocity P-wave (km/s) = 4.66044 5.56496 5.13267
#
# Compressibility (1/GPa) = 0.06072383
#
# Stress axis : x y z
#
# Youngs Moduli (GPa) = 32.56464 124.31559 50.30726
#
# Poissons Ratio (x) = 0.48350 -0.40675
# Poissons Ratio (y) = 0.12665 0.15842
# Poissons Ratio (z) = -0.26330 0.39149
#
# Static dielectric constant tensor:
#      x y z
#    x 1.746890 0.000000 -0.004440 
#    y 0.000000 1.745950 0.000000 
#    z -0.004440 0.000000 1.752640 
# 
# From -- ./inp_files/35941.got.cif
#   From: 2010.05.17/outbox.cif.g08.bks.cpg/sg13_18_cif.got.tgz:35941.got - 2010.06.03 16:44:36.
