data_PCOD9228949
_publ_section_title
;
Structure prediction by ZEFSAII (Michael W. Deem and Ramdas Pophale) SiO2 
 PCOD9228949
Probable space group: P 2/C
;
_chemical_formula_sum "Si O2"
_cell_formula_units_Z 24
_cell_length_a 13.182132
_cell_length_b 12.139709
_cell_length_c 18.134653
_cell_angle_alpha 90.000000
_cell_angle_beta 155.199689
_cell_angle_gamma 90.000000
_cell_volume 1217.280427
_symmetry_space_group_name_H-M "P 2/C"
_symmetry_group_IT_number 13
_symmetry_cell_setting 'monoclinic'
loop_
_space_group_symop_operation_xyz
x,y,z
-x,y,1/2-z
-x,-y,-z
x,-y,1/2+z
loop_
_atom_site_type_symbol
_atom_site_label
_atom_site_fract_x
_atom_site_fract_y
_atom_site_fract_z
Si Si1 0.001825 0.630819 0.593122
Si Si2 0.893723 0.977105 0.262927
Si Si3 0.249997 0.860089 0.043308
Si Si4 0.658029 0.415099 0.058491
Si Si5 0.611103 0.478824 0.251956
Si Si6 0.540546 0.835571 0.481766
O O1 0.081573 0.588345 0.727743
O O2 0.237458 0.604597 0.698772
O O3 0.915010 0.756387 0.542931
O O4 0.793004 0.565777 0.411016
O O5 0.000000 0.955630 0.250000
O O6 0.110522 0.023969 0.455380
O O7 0.733106 0.878390 0.189117
O O8 0.708208 0.081235 0.138857
O O9 0.500000 0.859342 0.250000
O O10 0.332634 0.845386 0.013698
O O11 0.500000 0.500000 0.000000
O O12 0.581738 0.453225 0.925287
O O13 0.560458 0.292747 0.010491
O O14 0.500000 0.419646 0.250000
#
# Coordination Sequence:
#
# PCOD9228949 Si02
#       6
#     4   4   4   4   4   4
#     4  10  20  36  57  84 125 156 207 254 300 367
#     4   9  20  37  61  86 114 155 193 253 308 358
#     4  11  21  35  62  89 113 157 201 256 301 371
#     4  10  20  35  61  88 118 162 206 247 299 371
#     4  10  21  35  56  86 122 166 202 252 311 363
#     4  10  19  36  62  86 117 151 202 246 306 363
#
# _framework density 19.716080000000002
#
# number of rings (size 3 to 8) (size 9 to 14) (size 15 to 20)
#    0.000    2.000    1.667    2.500    0.000    2.667 
#    0.000    0.000   36.667    1.000    0.000    0.000 
#    0.000    0.000    0.000    0.000    0.000    0.000 
#
# Total GULP energy -133616.655690 kJ/mol
# GULP energy per Si atom -5567.360654 kJ/mol
# Density = 1.967121 g / cm^3
# Si number density = 19.716080 Si / 1000 Ang^3
#
#
#
# Elastic Constant Matrix: (Units=GPa)
#
#
# Indices 1 2 3 4 5 6 
#
# 1 99.4016 37.4400 41.3477 0.0000 4.1352 0.0000
# 2 37.4400 73.5827 44.9799 0.0000 9.6538 0.0000
# 3 41.3477 44.9799 139.8274 0.0000 -5.5274 0.0000
# 4 0.0000 0.0000 0.0000 19.6465 0.0000 -2.2331
# 5 4.1352 9.6538 -5.5274 0.0000 36.2926 0.0000
# 6 0.0000 0.0000 0.0000 -2.2331 0.0000 13.4706
#
#
#
# Elastic Compliance Matrix: (Units=1/GPa)
#
#
# Indices 1 2 3 4 5 6 
#
# 1 0.012940 -0.005203 -0.002169 0.000000 -0.000421 0.000000
# 2 -0.005203 0.020113 -0.005151 0.000000 -0.005542 0.000000
# 3 -0.002169 -0.005151 0.009572 0.000000 0.003075 0.000000
# 4 0.000000 0.000000 0.000000 0.051877 0.000000 0.008600
# 5 -0.000421 -0.005542 0.003075 0.000000 0.029544 0.000000
# 6 0.000000 0.000000 0.000000 0.008600 0.000000 0.075661
#
#
# Mechanical properties :
#
#
# Convention : Reuss Voigt Hill
#
# Bulk Modulus (GPa) = 56.88606 62.26076 59.57341
# Shear Modulus (GPa) = 21.68150 26.48488 24.08319
#
# Velocity S-wave (km/s) = 3.31975 3.66910 3.49879
# Velocity P-wave (km/s) = 6.60375 7.04251 6.82666
#
# Compressibility (1/GPa) = 0.01757900
#
# Stress axis : x y z
#
# Youngs Moduli (GPa) = 77.28167 49.71958 104.47614
#
# Poissons Ratio (x) = 0.25867 0.22665
# Poissons Ratio (y) = 0.40206 0.53811
# Poissons Ratio (z) = 0.16765 0.25608
#
# Static dielectric constant tensor:
#      x y z
#    x -0.131220 0.000000 1.669700 
#    y 0.000000 1.664520 0.000000 
#    z 1.669700 0.000000 0.250190 
# 
# From -- ./inp_files/80184.got.cif
#   From: 2010.05.17/outbox.cif.g08.bks.cpg/sg13_41_cif.got.tgz:80184.got - 2010.06.03 16:44:36.
