data_PCOD9228038
_publ_section_title
;
Structure prediction by ZEFSAII (Michael W. Deem and Ramdas Pophale) SiO2 
 PCOD9228038
Probable space group: P 2/C
;
_chemical_formula_sum "Si O2"
_cell_formula_units_Z 24
_cell_length_a 19.485905
_cell_length_b 7.817894
_cell_length_c 22.603698
_cell_angle_alpha 90.000000
_cell_angle_beta 163.920425
_cell_angle_gamma 90.000000
_cell_volume 953.731071
_symmetry_space_group_name_H-M "P 2/C"
_symmetry_group_IT_number 13
_symmetry_cell_setting 'monoclinic'
loop_
_space_group_symop_operation_xyz
x,y,z
-x,y,1/2-z
-x,-y,-z
x,-y,1/2+z
loop_
_atom_site_type_symbol
_atom_site_label
_atom_site_fract_x
_atom_site_fract_y
_atom_site_fract_z
Si Si1 0.120794 0.636948 0.522664
Si Si2 0.376762 0.997849 0.210559
Si Si3 0.393148 0.423841 0.849797
Si Si4 0.620794 0.136948 0.522664
Si Si5 0.876762 0.502151 0.710559
Si Si6 0.106852 0.923841 0.650203
O O1 0.852117 0.673367 0.330758
O O2 0.066763 0.515700 0.422049
O O3 0.252326 0.810519 0.610100
O O4 0.278345 0.537239 0.701898
O O5 0.500000 0.969236 0.250000
O O6 0.566763 0.015700 0.422049
O O7 0.155224 0.864008 0.039720
O O8 0.500000 0.500000 0.000000
O O9 0.655224 0.364008 0.039720
O O10 0.752326 0.310519 0.610100
O O11 0.352117 0.826633 0.830758
O O12 0.778345 0.037239 0.701898
O O13 0.000000 0.530764 0.750000
O O14 0.000000 0.000000 0.500000
#
# Coordination Sequence:
#
# PCOD9228038 Si02
#       6
#     4   4   4   4   4   4
#     4  10  19  32  50  74 111 142 169 209 260 314
#     4  11  20  31  54  85 109 132 170 220 264 303
#     4   9  20  34  46  72 110 144 173 205 259 315
#     4  10  19  32  50  74 111 142 169 209 260 314
#     4  11  20  31  54  85 109 132 170 220 264 303
#     4   9  20  34  46  72 110 144 173 205 259 315
#
# _framework density 25.164325000000002
#
# number of rings (size 3 to 8) (size 9 to 14) (size 15 to 20)
#    0.000    2.000    3.333    1.000    0.000    0.000 
#    0.000    0.000    0.000    0.000    0.000   23.333 
#    0.000    1.667    0.000    0.000    0.000    0.000 
#
# Total GULP energy -133954.964485 kJ/mol
# GULP energy per Si atom -5581.456854 kJ/mol
# Density = 2.510705 g / cm^3
# Si number density = 25.164325 Si / 1000 Ang^3
#
#
#
# Elastic Constant Matrix: (Units=GPa)
#
#
# Indices 1 2 3 4 5 6 
#
# 1 222.3702 29.7015 72.0806 0.0000 4.9203 0.0000
# 2 29.7015 54.9649 27.1911 0.0000 -18.9756 0.0000
# 3 72.0806 27.1911 140.0337 0.0000 -40.6208 0.0000
# 4 0.0000 0.0000 0.0000 20.8578 0.0000 5.4813
# 5 4.9203 -18.9756 -40.6208 0.0000 52.9069 0.0000
# 6 0.0000 0.0000 0.0000 5.4813 0.0000 36.2631
#
#
#
# Elastic Compliance Matrix: (Units=1/GPa)
#
#
# Indices 1 2 3 4 5 6 
#
# 1 0.006328 -0.003072 -0.004054 0.000000 -0.004803 0.000000
# 2 -0.003072 0.022907 -0.000515 0.000000 0.008106 0.000000
# 3 -0.004054 -0.000515 0.012072 0.000000 0.009461 0.000000
# 4 0.000000 0.000000 0.000000 0.049927 0.000000 -0.007547
# 5 -0.004803 0.008106 0.009461 0.000000 0.029519 0.000000
# 6 0.000000 0.000000 0.000000 -0.007547 0.000000 0.028717
#
#
# Mechanical properties :
#
#
# Convention : Reuss Voigt Hill
#
# Bulk Modulus (GPa) = 38.42529 75.03501 56.73015
# Shear Modulus (GPa) = 28.83075 41.23193 35.03134
#
# Velocity S-wave (km/s) = 3.38849 4.05224 3.73514
# Velocity P-wave (km/s) = 5.53282 7.19562 6.41829
#
# Compressibility (1/GPa) = 0.02602453
#
# Stress axis : x y z
#
# Youngs Moduli (GPa) = 158.03898 43.65534 82.83497
#
# Poissons Ratio (x) = 0.13410 0.33578
# Poissons Ratio (y) = 0.48548 0.04270
# Poissons Ratio (z) = 0.64064 0.02250
#
# Static dielectric constant tensor:
#      x y z
#    x 1.942970 0.000000 0.027430 
#    y 0.000000 2.121440 0.000000 
#    z 0.027430 0.000000 2.025240 
# 
# From -- ./inp_files/51505.got.cif
#   From: 2010.05.17/outbox.cif.g08.bks.cpg/sg13_26_cif.got.tgz:51505.got - 2010.06.03 16:44:36.
