data_PCOD9228466
_publ_section_title
;
Structure prediction by ZEFSAII (Michael W. Deem and Ramdas Pophale) SiO2 
 PCOD9228466
Probable space group: P 2/C
;
_chemical_formula_sum "Si O2"
_cell_formula_units_Z 24
_cell_length_a 7.300502
_cell_length_b 14.272340
_cell_length_c 16.987953
_cell_angle_alpha 90.000000
_cell_angle_beta 144.068323
_cell_angle_gamma 90.000000
_cell_volume 1038.709130
_symmetry_space_group_name_H-M "P 2/C"
_symmetry_group_IT_number 13
_symmetry_cell_setting 'monoclinic'
loop_
_space_group_symop_operation_xyz
x,y,z
-x,y,1/2-z
-x,-y,-z
x,-y,1/2+z
loop_
_atom_site_type_symbol
_atom_site_label
_atom_site_fract_x
_atom_site_fract_y
_atom_site_fract_z
Si Si1 0.092634 0.913190 0.372990
Si Si2 0.668290 0.595087 0.454718
Si Si3 0.187244 0.712242 0.680902
Si Si4 0.136708 0.720925 0.207426
Si Si5 0.444743 0.614913 0.558113
Si Si6 0.817330 0.882079 0.604340
O O1 0.451011 0.878994 0.496193
O O2 0.000000 0.927746 0.250000
O O3 0.873939 0.828593 0.326043
O O4 0.100517 0.018754 0.409093
O O5 0.455894 0.663898 0.328462
O O6 0.575713 0.606328 0.514973
O O7 0.593431 0.486636 0.415290
O O8 0.026766 0.626955 0.578535
O O9 0.500000 0.749398 0.750000
O O10 0.312037 0.675211 0.807500
O O11 0.931158 0.793136 0.595829
O O12 0.000000 0.724824 0.250000
O O13 0.889314 0.663510 0.070004
O O14 0.000000 0.877021 0.750000
#
# Coordination Sequence:
#
# PCOD9228466 Si02
#       6
#     4   4   4   4   4   4
#     4   9  17  30  56  84 103 130 178 239 288 318
#     4  10  20  36  59  83 108 141 188 236 274 322
#     4  12  24  36  53  81 120 156 181 217 277 345
#     4   9  16  30  55  83 106 130 175 237 285 318
#     4  10  20  36  59  84 107 141 190 237 274 315
#     4  10  19  34  57  80 103 138 187 233 275 325
#
# _framework density 23.105602000000001
#
# number of rings (size 3 to 8) (size 9 to 14) (size 15 to 20)
#    0.000    2.000    0.000    6.500    0.000    3.333 
#    0.000    0.833    0.000   25.000    0.000    0.000 
#    0.000    0.000    0.000    0.000    0.000    0.000 
#
# Total GULP energy -134140.876338 kJ/mol
# GULP energy per Si atom -5589.203181 kJ/mol
# Density = 2.305301 g / cm^3
# Si number density = 23.105602 Si / 1000 Ang^3
#
#
#
# Elastic Constant Matrix: (Units=GPa)
#
#
# Indices 1 2 3 4 5 6 
#
# 1 35.7130 23.9532 14.4983 0.0000 -2.0134 0.0000
# 2 23.9532 175.5740 39.2444 0.0000 9.2638 0.0000
# 3 14.4983 39.2444 126.6965 0.0000 17.1287 0.0000
# 4 0.0000 0.0000 0.0000 34.7963 0.0000 12.0221
# 5 -2.0134 9.2638 17.1287 0.0000 20.9684 0.0000
# 6 0.0000 0.0000 0.0000 12.0221 0.0000 9.6451
#
#
#
# Elastic Compliance Matrix: (Units=1/GPa)
#
#
# Indices 1 2 3 4 5 6 
#
# 1 0.032604 -0.004072 -0.003525 0.000000 0.007810 0.000000
# 2 -0.004072 0.006659 -0.001288 0.000000 -0.002281 0.000000
# 3 -0.003525 -0.001288 0.009740 0.000000 -0.007726 0.000000
# 4 0.000000 0.000000 0.000000 0.050476 0.000000 -0.062916
# 5 0.007810 -0.002281 -0.007726 0.000000 0.055759 0.000000
# 6 0.000000 0.000000 0.000000 -0.062916 0.000000 0.182102
#
#
# Mechanical properties :
#
#
# Convention : Reuss Voigt Hill
#
# Bulk Modulus (GPa) = 32.01938 54.81949 43.41944
# Shear Modulus (GPa) = 13.67903 30.43447 22.05675
#
# Velocity S-wave (km/s) = 2.43579 3.63325 3.09302
# Velocity P-wave (km/s) = 4.66891 6.43256 5.62034
#
# Compressibility (1/GPa) = 0.03123108
#
# Stress axis : x y z
#
# Youngs Moduli (GPa) = 30.67134 150.16180 102.67078
#
# Poissons Ratio (x) = 0.61147 0.36196
# Poissons Ratio (y) = 0.12490 0.13229
# Poissons Ratio (z) = 0.10813 0.19348
#
# Static dielectric constant tensor:
#      x y z
#    x 2.062010 0.000000 0.128530 
#    y 0.000000 1.919900 0.000000 
#    z 0.128530 0.000000 1.916590 
# 
# From -- ./inp_files/64703.got.cif
#   From: 2010.05.17/outbox.cif.g08.bks.cpg/sg13_33_cif.got.tgz:64703.got - 2010.06.03 16:44:36.
