data_PCOD9228081
_publ_section_title
;
Structure prediction by ZEFSAII (Michael W. Deem and Ramdas Pophale) SiO2 
 PCOD9228081
Probable space group: P 2/C
;
_chemical_formula_sum "Si O2"
_cell_formula_units_Z 32
_cell_length_a 25.119131
_cell_length_b 8.528910
_cell_length_c 21.792517
_cell_angle_alpha 90.000000
_cell_angle_beta 158.137782
_cell_angle_gamma 90.000000
_cell_volume 1738.549514
_symmetry_space_group_name_H-M "P 2/C"
_symmetry_group_IT_number 13
_symmetry_cell_setting 'monoclinic'
loop_
_space_group_symop_operation_xyz
x,y,z
-x,y,1/2-z
-x,-y,-z
x,-y,1/2+z
loop_
_atom_site_type_symbol
_atom_site_label
_atom_site_fract_x
_atom_site_fract_y
_atom_site_fract_z
Si Si1 0.752415 0.945804 0.220753
Si Si2 0.486536 0.284581 0.048077
Si Si3 0.572512 0.886452 0.765157
Si Si4 0.919532 0.271067 0.807803
Si Si5 0.854266 0.037807 0.626096
Si Si6 0.279259 0.452276 0.369807
Si Si7 0.645510 0.143555 0.989718
Si Si8 0.202249 0.260852 0.173011
O O1 0.865156 0.830752 0.308714
O O2 0.694121 0.055331 0.103726
O O3 0.808874 0.072121 0.329337
O O4 0.620882 0.836540 0.100894
O O5 0.520077 0.211422 0.151004
O O6 0.636873 0.295241 0.175812
O O7 0.400981 0.444637 0.966818
O O8 0.500000 0.822595 0.750000
O O9 0.504979 0.061091 0.686168
O O10 0.741458 0.893203 0.956242
O O11 0.893094 0.167863 0.719075
O O12 0.821839 0.424986 0.703552
O O13 0.083534 0.309186 0.997058
O O14 0.000000 0.984552 0.750000
O O15 0.761753 0.906798 0.563085
O O16 0.350310 0.325666 0.490795
O O17 0.187281 0.357277 0.220454
#
# Coordination Sequence:
#
# PCOD9228081 Si02
#       8
#     4   4   4   4   4   4   4   4
#     4   8  17  32  51  72  98 132 169 204 244 294
#     4  10  19  32  52  79 102 130 172 216 250 289
#     4   9  17  34  55  73  94 128 170 211 252 297
#     4  10  20  34  52  75 104 141 172 199 248 312
#     4  10  19  35  55  76  97 123 167 223 256 283
#     4  10  20  35  49  71 108 139 163 197 251 317
#     4   8  17  33  52  70  95 130 164 197 247 306
#     4  11  19  31  51  78 106 135 168 209 251 294
#
# _framework density 18.40615
#
# number of rings (size 3 to 8) (size 9 to 14) (size 15 to 20)
#    0.000    2.500    0.000    4.500    0.000    0.000 
#    0.000    7.500    0.000    0.000    0.000    0.000 
#    0.000    0.000    0.000    0.000    0.000    0.000 
#
# Total GULP energy -178362.019076 kJ/mol
# GULP energy per Si atom -5573.813096 kJ/mol
# Density = 1.836426 g / cm^3
# Si number density = 18.406150 Si / 1000 Ang^3
#
#
#
# Elastic Constant Matrix: (Units=GPa)
#
#
# Indices 1 2 3 4 5 6 
#
# 1 30.7398 20.5194 9.0778 0.0000 3.8713 0.0000
# 2 20.5194 93.5341 20.4658 0.0000 1.3541 0.0000
# 3 9.0778 20.4658 92.1334 0.0000 10.3306 0.0000
# 4 0.0000 0.0000 0.0000 16.8423 0.0000 -10.8158
# 5 3.8713 1.3541 10.3306 0.0000 29.9118 0.0000
# 6 0.0000 0.0000 0.0000 -10.8158 0.0000 15.5462
#
#
#
# Elastic Compliance Matrix: (Units=1/GPa)
#
#
# Indices 1 2 3 4 5 6 
#
# 1 0.038949 -0.008142 -0.001566 0.000000 -0.004132 0.000000
# 2 -0.008142 0.012943 -0.002211 0.000000 0.001231 0.000000
# 3 -0.001566 -0.002211 0.011927 0.000000 -0.003817 0.000000
# 4 0.000000 0.000000 0.000000 0.107325 0.000000 0.074668
# 5 -0.004132 0.001231 -0.003817 0.000000 0.035229 0.000000
# 6 0.000000 0.000000 0.000000 0.074668 0.000000 0.116273
#
#
# Mechanical properties :
#
#
# Convention : Reuss Voigt Hill
#
# Bulk Modulus (GPa) = 25.01139 35.17037 30.09088
# Shear Modulus (GPa) = 13.89617 23.54966 18.72292
#
# Velocity S-wave (km/s) = 2.75066 3.58081 3.19283
# Velocity P-wave (km/s) = 4.86891 6.02044 5.47503
#
# Compressibility (1/GPa) = 0.03998179
#
# Stress axis : x y z
#
# Youngs Moduli (GPa) = 25.67466 77.25907 83.84226
#
# Poissons Ratio (x) = 0.62906 0.13127
# Poissons Ratio (y) = 0.20905 0.18537
# Poissons Ratio (z) = 0.04020 0.17082
#
# Static dielectric constant tensor:
#      x y z
#    x 1.645560 0.000000 0.002660 
#    y 0.000000 1.639750 0.000000 
#    z 0.002660 0.000000 1.643530 
# 
# From -- ./inp_files/89509.got.cif
#   From: 2010.05.17/outbox.cif.g08.bks.cpg/sg13_45_cif.got.tgz:89509.got - 2010.06.03 16:44:36.
