data_PCOD9228264
_publ_section_title
;
Structure prediction by ZEFSAII (Michael W. Deem and Ramdas Pophale) SiO2 
 PCOD9228264
Probable space group: P 2/C
;
_chemical_formula_sum "Si O2"
_cell_formula_units_Z 30
_cell_length_a 18.689270
_cell_length_b 14.138641
_cell_length_c 18.602844
_cell_angle_alpha 90.000000
_cell_angle_beta 159.973581
_cell_angle_gamma 90.000000
_cell_volume 1683.374830
_symmetry_space_group_name_H-M "P 2/C"
_symmetry_group_IT_number 13
_symmetry_cell_setting 'monoclinic'
loop_
_space_group_symop_operation_xyz
x,y,z
-x,y,1/2-z
-x,-y,-z
x,-y,1/2+z
loop_
_atom_site_type_symbol
_atom_site_label
_atom_site_fract_x
_atom_site_fract_y
_atom_site_fract_z
Si Si1 0.061185 0.718349 0.570168
Si Si2 0.212461 0.759299 0.322582
Si Si3 0.980510 0.928802 0.912705
Si Si4 0.000000 0.128226 0.750000
Si Si5 0.605519 0.951347 0.031397
Si Si6 0.327558 0.995951 0.141758
Si Si7 0.205097 0.446638 0.664180
Si Si8 0.532595 0.613121 0.596137
O O1 0.073629 0.824468 0.611512
O O2 0.288680 0.671813 0.777346
O O3 0.963664 0.720423 0.397598
O O4 0.897867 0.651440 0.460090
O O5 0.316110 0.846820 0.377058
O O6 0.392937 0.684139 0.511407
O O7 0.109764 0.806486 0.294516
O O8 0.798108 0.979510 0.695004
O O9 0.000000 0.000000 0.000000
O O10 0.185957 0.927630 0.057173
O O11 0.827287 0.063218 0.548519
O O12 0.452306 0.944502 0.819571
O O13 0.500000 0.000000 0.000000
O O14 0.500000 0.954587 0.250000
O O15 0.343497 0.524292 0.751900
O O16 0.000000 0.500000 0.500000
O O17 0.361793 0.421970 0.877096
#
# Coordination Sequence:
#
# PCOD9228264 Si02
#       8
#     4   4   4   2   4   4   4   4
#     4  10  19  33  55  81 114 144 189 243 294 339
#     4  11  21  32  49  78 110 153 192 235 285 348
#     4  12  21  35  52  82 117 151 199 245 279 341
#     4  12  24  38  50  74 114 168 198 232 284 356
#     4  12  22  34  56  79 111 156 200 244 290 337
#     4  12  23  39  55  74 115 162 202 238 289 345
#     4   8  16  33  53  80 110 138 174 233 294 352
#     4   9  18  31  53  80 109 142 181 229 298 348
#
# _framework density 17.821342999999999
#
# number of rings (size 3 to 8) (size 9 to 14) (size 15 to 20)
#    0.000    1.333    5.333    0.800    1.867    1.067 
#    0.000    0.000    0.000    0.000    0.000   11.200 
#    0.000    0.000    0.000    0.000    0.000    0.000 
#
# Total GULP energy -167100.211496 kJ/mol
# GULP energy per Si atom -5570.007050 kJ/mol
# Density = 1.778078 g / cm^3
# Si number density = 17.821343 Si / 1000 Ang^3
#
#
#
# Elastic Constant Matrix: (Units=GPa)
#
#
# Indices 1 2 3 4 5 6 
#
# 1 77.3752 16.5548 23.3052 0.0000 15.2978 0.0000
# 2 16.5548 97.0796 34.4880 0.0000 4.5679 0.0000
# 3 23.3052 34.4880 117.5304 0.0000 2.8746 0.0000
# 4 0.0000 0.0000 0.0000 31.8193 0.0000 11.9990
# 5 15.2978 4.5679 2.8746 0.0000 25.9333 0.0000
# 6 0.0000 0.0000 0.0000 11.9990 0.0000 16.9341
#
#
#
# Elastic Compliance Matrix: (Units=1/GPa)
#
#
# Indices 1 2 3 4 5 6 
#
# 1 0.015699 -0.001380 -0.002494 0.000000 -0.008741 0.000000
# 2 -0.001380 0.011692 -0.003135 0.000000 -0.000898 0.000000
# 3 -0.002494 -0.003135 0.009900 0.000000 0.000926 0.000000
# 4 0.000000 0.000000 0.000000 0.042887 0.000000 -0.030388
# 5 -0.008741 -0.000898 0.000926 0.000000 0.043772 0.000000
# 6 0.000000 0.000000 0.000000 -0.030388 0.000000 0.080585
#
#
# Mechanical properties :
#
#
# Convention : Reuss Voigt Hill
#
# Bulk Modulus (GPa) = 42.96895 48.96458 45.96677
# Shear Modulus (GPa) = 22.09341 29.44646 25.76994
#
# Velocity S-wave (km/s) = 3.52478 4.06928 3.80678
# Velocity P-wave (km/s) = 6.38191 7.04369 6.72095
#
# Compressibility (1/GPa) = 0.02327262
#
# Stress axis : x y z
#
# Youngs Moduli (GPa) = 63.69962 85.52695 101.00575
#
# Poissons Ratio (x) = 0.11800 0.25194
# Poissons Ratio (y) = 0.08789 0.31669
# Poissons Ratio (z) = 0.15888 0.26816
#
# Static dielectric constant tensor:
#      x y z
#    x 1.609540 0.000000 0.033350 
#    y 0.000000 1.671000 0.000000 
#    z 0.033350 0.000000 1.671070 
# 
# From -- ./inp_files/70059.got.cif
#   From: 2010.05.17/outbox.cif.g08.bks.cpg/sg13_36_cif.got.tgz:70059.got - 2010.06.03 16:44:36.
