data_PCOD9228617
_publ_section_title
;
Structure prediction by ZEFSAII (Michael W. Deem and Ramdas Pophale) SiO2 
 PCOD9228617
Probable space group: P 2/C
;
_chemical_formula_sum "Si O2"
_cell_formula_units_Z 26
_cell_length_a 6.880478
_cell_length_b 8.671444
_cell_length_c 29.134066
_cell_angle_alpha 90.000000
_cell_angle_beta 53.971787
_cell_angle_gamma 90.000000
_cell_volume 1405.766943
_symmetry_space_group_name_H-M "P 2/C"
_symmetry_group_IT_number 13
_symmetry_cell_setting 'monoclinic'
loop_
_space_group_symop_operation_xyz
x,y,z
-x,y,1/2-z
-x,-y,-z
x,-y,1/2+z
loop_
_atom_site_type_symbol
_atom_site_label
_atom_site_fract_x
_atom_site_fract_y
_atom_site_fract_z
Si Si1 0.486549 0.024243 0.303960
Si Si2 0.000000 0.838765 0.750000
Si Si3 0.846025 0.806604 0.092641
Si Si4 0.041950 0.238247 0.347774
Si Si5 0.229891 0.060362 0.040948
Si Si6 0.309413 0.371524 0.973654
Si Si7 0.854875 0.452877 0.920178
O O1 0.500000 0.962695 0.250000
O O2 0.751601 0.066440 0.283901
O O3 0.306181 0.172530 0.324491
O O4 0.362373 0.904309 0.355064
O O5 0.011534 0.752058 0.797274
O O6 0.747282 0.685824 0.069281
O O7 0.990294 0.699717 0.107930
O O8 0.043685 0.932219 0.048316
O O9 0.861738 0.111304 0.395687
O O10 0.976792 0.401252 0.379178
O O11 0.237402 0.218831 0.012045
O O12 0.500000 0.000000 0.000000
O O13 0.587843 0.418579 0.939176
O O14 0.177063 0.506647 0.020825
#
# Coordination Sequence:
#
# PCOD9228617 Si02
#       7
#     4   2   4   4   4   4   4
#     4   9  21  39  60  83 106 142 190 246 288 323
#     4  10  20  40  64  80 104 146 204 238 278 344
#     4  11  21  35  60  85 115 152 191 231 282 348
#     4   9  21  38  59  82 113 152 188 234 285 336
#     4  10  19  35  56  87 122 147 184 240 283 331
#     4  10  21  35  54  83 118 160 186 218 284 344
#     4  10  21  38  52  82 124 150 183 232 279 342
#
# _framework density 18.495242000000001
#
# number of rings (size 3 to 8) (size 9 to 14) (size 15 to 20)
#    0.000    2.154    1.538    0.923    2.154    2.462 
#    0.000    3.846    0.000    1.846    0.000    0.000 
#    0.000    0.000    0.000    0.000    0.000    0.000 
#
# Total GULP energy -144807.318568 kJ/mol
# GULP energy per Si atom -5569.512253 kJ/mol
# Density = 1.845315 g / cm^3
# Si number density = 18.495242 Si / 1000 Ang^3
#
#
#
# Elastic Constant Matrix: (Units=GPa)
#
#
# Indices 1 2 3 4 5 6 
#
# 1 84.0763 32.8815 53.6449 0.0000 -19.5651 0.0000
# 2 32.8815 67.7228 21.5299 0.0000 -17.6820 0.0000
# 3 53.6449 21.5299 85.3153 0.0000 -21.2555 0.0000
# 4 0.0000 0.0000 0.0000 20.5412 0.0000 -4.5236
# 5 -19.5651 -17.6820 -21.2555 0.0000 27.5918 0.0000
# 6 0.0000 0.0000 0.0000 -4.5236 0.0000 14.3303
#
#
#
# Elastic Compliance Matrix: (Units=1/GPa)
#
#
# Indices 1 2 3 4 5 6 
#
# 1 0.022699 -0.006512 -0.011953 0.000000 0.002714 0.000000
# 2 -0.006512 0.019892 0.001362 0.000000 0.009179 0.000000
# 3 -0.011953 0.001362 0.021037 0.000000 0.008603 0.000000
# 4 0.000000 0.000000 0.000000 0.052320 0.000000 0.016515
# 5 0.002714 0.009179 0.008603 0.000000 0.050676 0.000000
# 6 0.000000 0.000000 0.000000 0.016515 0.000000 0.074995
#
#
# Mechanical properties :
#
#
# Convention : Reuss Voigt Hill
#
# Bulk Modulus (GPa) = 33.99047 50.35855 42.17451
# Shear Modulus (GPa) = 17.50496 21.09655 19.30075
#
# Velocity S-wave (km/s) = 3.07979 3.38101 3.23391
# Velocity P-wave (km/s) = 5.57357 6.52140 6.06602
#
# Compressibility (1/GPa) = 0.02942001
#
# Stress axis : x y z
#
# Youngs Moduli (GPa) = 44.05416 50.27253 47.53561
#
# Poissons Ratio (x) = 0.32740 0.56821
# Poissons Ratio (y) = 0.28690 -0.06474
# Poissons Ratio (z) = 0.52659 -0.06847
#
# Static dielectric constant tensor:
#      x y z
#    x 1.652850 0.000000 0.020620 
#    y 0.000000 1.619250 0.000000 
#    z 0.020620 0.000000 1.660310 
# 
# From -- ./inp_files/94810.got.cif
#   From: 2010.05.17/outbox.cif.g08.bks.cpg/sg13_48_cif.got.tgz:94810.got - 2010.06.03 16:44:36.
