data_PCOD9228675
_publ_section_title
;
Structure prediction by ZEFSAII (Michael W. Deem and Ramdas Pophale) SiO2 
 PCOD9228675
Probable space group: P 2/C
;
_chemical_formula_sum "Si O2"
_cell_formula_units_Z 32
_cell_length_a 8.287231
_cell_length_b 19.098629
_cell_length_c 9.634659
_cell_angle_alpha 90.000000
_cell_angle_beta 126.178935
_cell_angle_gamma 90.000000
_cell_volume 1230.883576
_symmetry_space_group_name_H-M "P 2/C"
_symmetry_group_IT_number 13
_symmetry_cell_setting 'monoclinic'
loop_
_space_group_symop_operation_xyz
x,y,z
-x,y,1/2-z
-x,-y,-z
x,-y,1/2+z
loop_
_atom_site_type_symbol
_atom_site_label
_atom_site_fract_x
_atom_site_fract_y
_atom_site_fract_z
Si Si1 0.451914 0.592282 0.879597
Si Si2 0.193959 0.475580 0.763088
Si Si3 0.031974 0.758426 0.568791
Si Si4 0.741234 0.649853 0.358008
Si Si5 0.298260 0.973828 0.725820
Si Si6 0.403478 0.164522 0.359921
Si Si7 0.955906 0.892092 0.379661
Si Si8 0.316340 0.724914 0.451259
O O1 0.500000 0.567490 0.750000
O O2 0.237036 0.558082 0.790811
O O3 0.499127 0.673727 0.912204
O O4 0.613056 0.558472 0.064303
O O5 0.192256 0.431447 0.619174
O O6 0.000000 0.457647 0.750000
O O7 0.198491 0.791411 0.755157
O O8 0.170917 0.732830 0.508514
O O9 0.880179 0.696032 0.528433
O O10 0.908944 0.826620 0.453967
O O11 0.500000 0.653703 0.250000
O O12 0.780434 0.687921 0.229739
O O13 0.500000 0.990900 0.750000
O O14 0.352461 0.915509 0.868596
O O15 0.146365 0.931018 0.547604
O O16 0.197501 0.045046 0.720100
O O17 0.500000 0.164494 0.250000
O O18 0.575849 0.202616 0.532479
O O19 0.000000 0.862572 0.250000
#
# Coordination Sequence:
#
# PCOD9228675 Si02
#       8
#     4   4   4   4   4   4   4   4
#     4  10  20  36  57  85 112 136 179 228 262 308
#     4  10  22  39  58  79 109 148 180 213 266 321
#     4  10  19  35  59  80 103 140 180 221 269 319
#     4  11  22  36  54  80 112 142 177 222 266 313
#     4   9  19  35  53  76 109 144 178 220 268 314
#     4   8  16  33  57  80 103 138 183 223 263 318
#     4  10  20  34  53  80 108 138 182 224 261 319
#     4  10  19  36  59  81 106 139 181 221 265 321
#
# _framework density 25.997585000000001
#
# number of rings (size 3 to 8) (size 9 to 14) (size 15 to 20)
#    0.000    2.250    0.000    4.875    0.000    1.500 
#    0.000   11.875    0.000    0.000    0.000    0.000 
#    0.000    0.000    0.000    0.000    0.000    0.000 
#
# Total GULP energy -178910.588530 kJ/mol
# GULP energy per Si atom -5590.955892 kJ/mol
# Density = 2.593841 g / cm^3
# Si number density = 25.997585 Si / 1000 Ang^3
#
#
#
# Elastic Constant Matrix: (Units=GPa)
#
#
# Indices 1 2 3 4 5 6 
#
# 1 77.0928 39.2315 14.5884 0.0000 29.3407 0.0000
# 2 39.2315 139.0650 31.6394 0.0000 36.8478 0.0000
# 3 14.5884 31.6394 54.5802 0.0000 10.8429 0.0000
# 4 0.0000 0.0000 0.0000 79.7906 0.0000 4.2286
# 5 29.3407 36.8478 10.8429 0.0000 46.4364 0.0000
# 6 0.0000 0.0000 0.0000 4.2286 0.0000 36.6124
#
#
#
# Elastic Compliance Matrix: (Units=1/GPa)
#
#
# Indices 1 2 3 4 5 6 
#
# 1 0.017912 -0.002252 -0.001666 0.000000 -0.009142 0.000000
# 2 -0.002252 0.010320 -0.004233 0.000000 -0.005778 0.000000
# 3 -0.001666 -0.004233 0.021334 0.000000 -0.000570 0.000000
# 4 0.000000 0.000000 0.000000 0.012610 0.000000 -0.001456
# 5 -0.009142 -0.005778 -0.000570 0.000000 0.032029 0.000000
# 6 0.000000 0.000000 0.000000 -0.001456 0.000000 0.027481
#
#
# Mechanical properties :
#
#
# Convention : Reuss Voigt Hill
#
# Bulk Modulus (GPa) = 30.06200 49.07297 39.56748
# Shear Modulus (GPa) = 33.54001 44.91977 39.22989
#
# Velocity S-wave (km/s) = 3.59572 4.16124 3.88878
# Velocity P-wave (km/s) = 5.36912 6.48112 5.95115
#
# Compressibility (1/GPa) = 0.03326459
#
# Stress axis : x y z
#
# Youngs Moduli (GPa) = 55.82916 96.89810 46.87377
#
# Poissons Ratio (x) = 0.21819 0.07810
# Poissons Ratio (y) = 0.12571 0.19840
# Poissons Ratio (z) = 0.09302 0.41014
#
# Static dielectric constant tensor:
#      x y z
#    x 2.036060 0.000000 -0.046100 
#    y 0.000000 2.078780 0.000000 
#    z -0.046100 0.000000 2.092530 
# 
# From -- ./inp_files/30807.got.cif
#   From: 2010.05.17/outbox.cif.g08.bks.cpg/sg13_16_cif.got.tgz:30807.got - 2010.06.03 16:44:36.
