data_PCOD9228590
_publ_section_title
;
Structure prediction by ZEFSAII (Michael W. Deem and Ramdas Pophale) SiO2 
 PCOD9228590
Probable space group: P 2/C
;
_chemical_formula_sum "Si O2"
_cell_formula_units_Z 26
_cell_length_a 6.455028
_cell_length_b 13.438340
_cell_length_c 20.945108
_cell_angle_alpha 90.000000
_cell_angle_beta 124.900819
_cell_angle_gamma 90.000000
_cell_volume 1490.103076
_symmetry_space_group_name_H-M "P 2/C"
_symmetry_group_IT_number 13
_symmetry_cell_setting 'monoclinic'
loop_
_space_group_symop_operation_xyz
x,y,z
-x,y,1/2-z
-x,-y,-z
x,-y,1/2+z
loop_
_atom_site_type_symbol
_atom_site_label
_atom_site_fract_x
_atom_site_fract_y
_atom_site_fract_z
Si Si1 0.404842 0.474537 0.555942
Si Si2 0.896626 0.936652 0.400597
Si Si3 0.653339 0.199188 0.533420
Si Si4 0.500000 0.185171 0.750000
Si Si5 0.897289 0.338815 0.469843
Si Si6 0.282461 0.313589 0.824443
Si Si7 0.098856 0.143870 0.455700
O O1 0.500000 0.500000 0.500000
O O2 0.306545 0.574013 0.573154
O O3 0.618031 0.419612 0.634016
O O4 0.166886 0.396994 0.516493
O O5 0.722374 0.884671 0.316927
O O6 0.825189 0.895835 0.459038
O O7 0.182920 0.899522 0.443203
O O8 0.920577 0.055159 0.399793
O O9 0.797045 0.281422 0.515408
O O10 0.680847 0.242520 0.608593
O O11 0.362348 0.172700 0.468121
O O12 0.431937 0.259441 0.794887
O O13 0.940252 0.245740 0.431191
O O14 0.000000 0.320824 0.750000
#
# Coordination Sequence:
#
# PCOD9228590 Si02
#       7
#     4   4   4   2   4   4   4
#     4  11  21  37  58  84 113 153 197 240 292 350
#     4  10  21  32  55  82 115 155 188 234 295 355
#     4  11  18  36  54  87 112 149 188 244 292 345
#     4  12  22  38  54  84 126 150 188 236 312 358
#     4  10  20  33  60  81 110 145 200 242 283 334
#     4  12  23  34  57  85 124 148 184 243 308 356
#     4  10  19  35  54  83 114 148 198 240 279 344
#
# _framework density 17.448456
#
# number of rings (size 3 to 8) (size 9 to 14) (size 15 to 20)
#    0.000    1.231    6.154    1.385    0.000    0.000 
#    0.000    0.000    0.000    4.615    0.000    0.000 
#    0.000    0.000    0.000    0.000    0.000    0.000 
#
# Total GULP energy -144743.468647 kJ/mol
# GULP energy per Si atom -5567.056486 kJ/mol
# Density = 1.740874 g / cm^3
# Si number density = 17.448456 Si / 1000 Ang^3
#
#
#
# Elastic Constant Matrix: (Units=GPa)
#
#
# Indices 1 2 3 4 5 6 
#
# 1 97.3892 34.8222 17.1678 0.0000 -2.2943 0.0000
# 2 34.8222 133.9639 16.1301 0.0000 3.9211 0.0000
# 3 17.1678 16.1301 37.5430 0.0000 0.7782 0.0000
# 4 0.0000 0.0000 0.0000 53.8699 0.0000 5.7220
# 5 -2.2943 3.9211 0.7782 0.0000 18.6293 0.0000
# 6 0.0000 0.0000 0.0000 5.7220 0.0000 30.8423
#
#
#
# Elastic Compliance Matrix: (Units=1/GPa)
#
#
# Indices 1 2 3 4 5 6 
#
# 1 0.012052 -0.002667 -0.004412 0.000000 0.002230 0.000000
# 2 -0.002667 0.008505 -0.002393 0.000000 -0.002019 0.000000
# 3 -0.004412 -0.002393 0.029708 0.000000 -0.001281 0.000000
# 4 0.000000 0.000000 0.000000 0.018936 0.000000 -0.003513
# 5 0.002230 -0.002019 -0.001281 0.000000 0.054432 0.000000
# 6 0.000000 0.000000 0.000000 -0.003513 0.000000 0.033075
#
#
# Mechanical properties :
#
#
# Convention : Reuss Voigt Hill
#
# Bulk Modulus (GPa) = 31.92580 45.01514 38.47047
# Shear Modulus (GPa) = 26.86853 34.05337 30.46095
#
# Velocity S-wave (km/s) = 3.92839 4.42255 4.18277
# Velocity P-wave (km/s) = 6.23805 7.20649 6.73969
#
# Compressibility (1/GPa) = 0.03132263
#
# Stress axis : x y z
#
# Youngs Moduli (GPa) = 82.97509 117.57657 33.66089
#
# Poissons Ratio (x) = 0.31355 0.14850
# Poissons Ratio (y) = 0.22128 0.08054
# Poissons Ratio (z) = 0.36605 0.28134
#
# Static dielectric constant tensor:
#      x y z
#    x 1.645180 0.000000 -0.014990 
#    y 0.000000 1.644100 0.000000 
#    z -0.014990 0.000000 1.570750 
# 
# From -- ./inp_files/73733.got.cif
#   From: 2010.05.17/outbox.cif.g08.bks.cpg/sg13_37_cif.got.tgz:73733.got - 2010.06.03 16:44:36.
