data_PCOD9228653
_publ_section_title
;
Structure prediction by ZEFSAII (Michael W. Deem and Ramdas Pophale) SiO2 
 PCOD9228653
Probable space group: P 2/C
;
_chemical_formula_sum "Si O2"
_cell_formula_units_Z 20
_cell_length_a 19.953762
_cell_length_b 7.961357
_cell_length_c 5.359070
_cell_angle_alpha 90.000000
_cell_angle_beta 90.000053
_cell_angle_gamma 90.000000
_cell_volume 851.336623
_symmetry_space_group_name_H-M "P 2/C"
_symmetry_group_IT_number 13
_symmetry_cell_setting 'monoclinic'
loop_
_space_group_symop_operation_xyz
x,y,z
-x,y,1/2-z
-x,-y,-z
x,-y,1/2+z
loop_
_atom_site_type_symbol
_atom_site_label
_atom_site_fract_x
_atom_site_fract_y
_atom_site_fract_z
Si Si1 0.144142 0.457264 0.250000
Si Si2 0.500000 0.385968 0.750000
Si Si3 0.714056 0.598308 0.250000
Si Si4 0.849499 0.893183 0.749999
Si Si5 0.000000 0.110170 0.250000
Si Si6 0.382066 0.888619 0.250000
O O1 0.105262 0.500000 0.500000
O O2 0.205268 0.591977 0.250000
O O3 0.186602 0.283802 0.250000
O O4 0.500000 0.500000 0.500000
O O5 0.563304 0.260251 0.750000
O O6 0.690880 0.500000 0.500000
O O7 0.687759 0.787703 0.250000
O O8 0.840703 1.000000 0.499999
O O9 0.925847 0.813756 0.750000
O O10 0.000000 0.000000 0.500000
O O11 0.388745 0.000000 0.500000
#
# Coordination Sequence:
#
# PCOD9228653 Si02
#       6
#     4   2   4   4   2   4
#     4  10  21  38  56  79 116 153 189 239 291 347
#     4  12  24  42  68  94 126 164 190 230 300 356
#     4  10  21  41  60  81 117 159 194 236 294 345
#     4  10  19  35  58  84 110 148 193 239 287 346
#     4   8  16  30  52  80 112 142 182 234 292 346
#     4  12  24  41  64  94 123 154 200 247 281 338
#
# _framework density 23.492471999999999
#
# number of rings (size 3 to 8) (size 9 to 14) (size 15 to 20)
#    0.000    1.600    0.000    5.400    0.000    0.000 
#    0.000   25.000    0.000    0.000    0.000    0.000 
#    0.000    0.000    0.000    0.000    0.000    0.000 
#
# Total GULP energy -111658.787864 kJ/mol
# GULP energy per Si atom -5582.939393 kJ/mol
# Density = 2.343900 g / cm^3
# Si number density = 23.492472 Si / 1000 Ang^3
#
#
#
# Elastic Constant Matrix: (Units=GPa)
#
#
# Indices 1 2 3 4 5 6 
#
# 1 19.4063 -24.6591 -21.4426 0.0000 -1.0909 0.0000
# 2 -24.6591 106.8532 91.8056 0.0000 9.2785 0.0000
# 3 -21.4426 91.8056 276.7846 0.0000 21.5956 0.0000
# 4 0.0000 0.0000 0.0000 64.7757 0.0000 6.3255
# 5 -1.0909 9.2785 21.5956 0.0000 15.3847 0.0000
# 6 0.0000 0.0000 0.0000 6.3255 0.0000 -14.6209
#
#
#
# Elastic Compliance Matrix: (Units=1/GPa)
#
#
# Indices 1 2 3 4 5 6 
#
# 1 0.073359 0.017007 0.000490 0.000000 -0.005743 0.000000
# 2 0.017007 0.017088 -0.004088 0.000000 -0.003361 0.000000
# 3 0.000490 -0.004088 0.005404 0.000000 -0.005085 0.000000
# 4 0.000000 0.000000 0.000000 0.014812 0.000000 0.006408
# 5 -0.005743 -0.003361 -0.005085 0.000000 0.073757 0.000000
# 6 0.000000 0.000000 0.000000 0.006408 0.000000 -0.065623
#
#
# Mechanical properties :
#
#
# Convention : Reuss Voigt Hill
#
# Bulk Modulus (GPa) = 8.15208 54.93912 31.54560
# Shear Modulus (GPa) = 37.63155 36.93056 37.28105
#
# Velocity S-wave (km/s) = 4.00666 3.96917 3.98796
# Velocity P-wave (km/s) = 4.98819 6.66651 5.88746
#
# Compressibility (1/GPa) = 0.12266806
#
# Stress axis : x y z
#
# Youngs Moduli (GPa) = 13.63167 58.52230 185.06401
#
# Poissons Ratio (x) = -0.99528 -0.09073
# Poissons Ratio (y) = -0.23183 0.75652
# Poissons Ratio (z) = -0.00668 0.23923
#
# Static dielectric constant tensor:
#      x y z
#    x 2.247360 0.000000 -0.016850 
#    y 0.000000 2.015450 0.000000 
#    z -0.016850 0.000000 2.035890 
# 
# From -- ./inp_files/7644.got.cif
#   From: 2010.05.17/outbox.cif.g08.bks.cpg/sg13_4_cif.got.tgz:7644.got - 2010.06.03 16:44:36.
