data_PCOD9228695
_publ_section_title
;
Structure prediction by ZEFSAII (Michael W. Deem and Ramdas Pophale) SiO2 
 PCOD9228695
Probable space group: P 2/C
;
_chemical_formula_sum "Si O2"
_cell_formula_units_Z 18
_cell_length_a 23.706702
_cell_length_b 8.497110
_cell_length_c 15.822195
_cell_angle_alpha 90.000000
_cell_angle_beta 17.940065
_cell_angle_gamma 90.000000
_cell_volume 981.727133
_symmetry_space_group_name_H-M "P 2/C"
_symmetry_group_IT_number 13
_symmetry_cell_setting 'monoclinic'
loop_
_space_group_symop_operation_xyz
x,y,z
-x,y,1/2-z
-x,-y,-z
x,-y,1/2+z
loop_
_atom_site_type_symbol
_atom_site_label
_atom_site_fract_x
_atom_site_fract_y
_atom_site_fract_z
Si Si1 0.726638 0.109618 0.244107
Si Si2 0.293109 0.304272 0.063551
Si Si3 0.074671 0.954454 0.801000
Si Si4 0.411511 0.863849 0.742044
Si Si5 0.500000 0.607288 0.750000
O O1 0.754427 0.245473 0.274457
O O2 0.665671 0.175449 0.240776
O O3 0.568978 0.993157 0.503038
O O4 0.907495 0.001339 0.979092
O O5 0.151077 0.222471 0.202153
O O6 0.500000 0.241465 0.750000
O O7 0.325743 0.489859 0.006418
O O8 0.248039 0.059245 0.528803
O O9 0.000000 0.000000 0.000000
O O10 0.484695 0.716484 0.690066
#
# Coordination Sequence:
#
# PCOD9228695 Si02
#       5
#     4   4   4   4   2
#     4  10  21  35  60  83 112 152 197 251 276 333
#     4   9  18  36  55  80 114 151 183 229 297 348
#     4  10  19  35  60  79 110 149 198 238 278 340
#     4  11  20  36  56  87 114 147 201 238 288 340
#     4  10  20  34  60  80 122 160 178 232 300 360
#
# _framework density 18.335034
#
# number of rings (size 3 to 8) (size 9 to 14) (size 15 to 20)
#    0.667    1.333    2.222    3.333    0.000    0.889 
#    0.000   10.000    0.000    8.000    0.000    0.000 
#    0.000    0.000    0.000    0.000    0.000    0.000 
#
# Total GULP energy -100256.236736 kJ/mol
# GULP energy per Si atom -5569.790930 kJ/mol
# Density = 1.829330 g / cm^3
# Si number density = 18.335034 Si / 1000 Ang^3
#
#
#
# Elastic Constant Matrix: (Units=GPa)
#
#
# Indices 1 2 3 4 5 6 
#
# 1 81.5910 50.1359 6.9340 0.0000 4.5124 0.0000
# 2 50.1359 82.5149 21.4209 0.0000 13.6088 0.0000
# 3 6.9340 21.4209 86.3732 0.0000 -1.2674 0.0000
# 4 0.0000 0.0000 0.0000 0.7975 0.0000 6.4812
# 5 4.5124 13.6088 -1.2674 0.0000 26.2543 0.0000
# 6 0.0000 0.0000 0.0000 6.4812 0.0000 15.0565
#
#
#
# Elastic Compliance Matrix: (Units=1/GPa)
#
#
# Indices 1 2 3 4 5 6 
#
# 1 0.020017 -0.013180 0.001713 0.000000 0.003474 0.000000
# 2 -0.013180 0.023002 -0.004792 0.000000 -0.009889 0.000000
# 3 0.001713 -0.004792 0.012670 0.000000 0.002801 0.000000
# 4 0.000000 0.000000 0.000000 -0.501896 0.000000 0.216046
# 5 0.003474 -0.009889 0.002801 0.000000 0.042753 0.000000
# 6 0.000000 0.000000 0.000000 0.216046 0.000000 -0.026583
#
#
# Mechanical properties :
#
#
# Convention : Reuss Voigt Hill
#
# Bulk Modulus (GPa) = 43.15730 45.27342 44.21536
# Shear Modulus (GPa) = -12.82725 19.88755 3.53015
#
# Velocity S-wave (km/s) = -2.64787 3.29701 1.38908
# Velocity P-wave (km/s) = 3.77372 6.26415 5.17110
#
# Compressibility (1/GPa) = 0.02317105
#
# Stress axis : x y z
#
# Youngs Moduli (GPa) = 49.95636 43.47431 78.92906
#
# Poissons Ratio (x) = 0.57300 -0.13518
# Poissons Ratio (y) = 0.65843 0.37820
# Poissons Ratio (z) = -0.08556 0.20831
#
# Static dielectric constant tensor:
#      x y z
#    x 1.660600 0.000000 -0.020860 
#    y 0.000000 1.617880 0.000000 
#    z -0.020860 0.000000 1.648530 
# 
# From -- ./inp_files/49403.got.cif
#   From: 2010.05.17/outbox.cif.g08.bks.cpg/sg13_25_cif.got.tgz:49403.got - 2010.06.03 16:44:36.
