data_PCOD9228669
_publ_section_title
;
Structure prediction by ZEFSAII (Michael W. Deem and Ramdas Pophale) SiO2 
 PCOD9228669
Probable space group: P 2/C
;
_chemical_formula_sum "Si O2"
_cell_formula_units_Z 26
_cell_length_a 9.709190
_cell_length_b 14.142666
_cell_length_c 9.460562
_cell_angle_alpha 90.000000
_cell_angle_beta 109.837667
_cell_angle_gamma 90.000000
_cell_volume 1221.976677
_symmetry_space_group_name_H-M "P 2/C"
_symmetry_group_IT_number 13
_symmetry_cell_setting 'monoclinic'
loop_
_space_group_symop_operation_xyz
x,y,z
-x,y,1/2-z
-x,-y,-z
x,-y,1/2+z
loop_
_atom_site_type_symbol
_atom_site_label
_atom_site_fract_x
_atom_site_fract_y
_atom_site_fract_z
Si Si1 0.134440 0.863878 0.486172
Si Si2 0.877335 0.930976 0.581272
Si Si3 0.500000 0.327368 0.250000
Si Si4 0.000000 0.386288 0.250000
Si Si5 0.342135 0.470620 0.004082
Si Si6 0.000000 0.278523 0.750000
Si Si7 0.254271 0.233399 0.310005
Si Si8 0.853999 0.443463 0.841382
O O1 0.208677 0.812110 0.643321
O O2 0.970022 0.892857 0.480442
O O3 0.122888 0.790444 0.355128
O O4 0.194466 0.967155 0.468506
O O5 0.764892 0.850747 0.586674
O O6 0.000000 0.939522 0.750000
O O7 0.376419 0.390102 0.130979
O O8 0.416465 0.271133 0.342702
O O9 0.137889 0.315433 0.308039
O O10 0.047660 0.461321 0.144470
O O11 0.254461 0.547977 0.064797
O O12 0.500000 0.500000 0.000000
O O13 0.244636 0.443186 0.836411
O O14 0.053554 0.347921 0.643810
#
# Coordination Sequence:
#
# PCOD9228669 Si02
#       8
#     4   4   2   2   4   2   4   4
#     4  10  19  35  58  89 122 146 193 249 310 359
#     4   9  18  35  60  87 116 150 193 248 306 362
#     4  12  24  40  62  86 116 164 210 242 298 376
#     4  11  20  39  60  92 120 157 208 257 290 364
#     4  12  22  43  58  83 122 171 204 247 292 364
#     4  11  24  33  56  94 126 149 190 259 312 348
#     4  11  21  37  63  89 115 159 202 248 299 365
#     4  11  26  36  61  88 126 160 207 251 304 347
#
# _framework density 21.277002
#
# number of rings (size 3 to 8) (size 9 to 14) (size 15 to 20)
#    0.000    1.231    6.154    0.923    2.154    2.462 
#    0.000    0.769    0.000    0.000    0.000    0.000 
#    0.000    0.000    0.000    0.000    0.000    0.000 
#
# Total GULP energy -145279.562540 kJ/mol
# GULP energy per Si atom -5587.675482 kJ/mol
# Density = 2.122857 g / cm^3
# Si number density = 21.277002 Si / 1000 Ang^3
#
#
#
# Elastic Constant Matrix: (Units=GPa)
#
#
# Indices 1 2 3 4 5 6 
#
# 1 98.7961 39.3843 -0.6771 0.0000 -18.9899 0.0000
# 2 39.3843 147.5950 19.9618 0.0000 -12.0070 0.0000
# 3 -0.6771 19.9618 54.0690 0.0000 -7.0780 0.0000
# 4 0.0000 0.0000 0.0000 29.7711 0.0000 -13.1496
# 5 -18.9899 -12.0070 -7.0780 0.0000 30.5631 0.0000
# 6 0.0000 0.0000 0.0000 -13.1496 0.0000 26.4287
#
#
#
# Elastic Compliance Matrix: (Units=1/GPa)
#
#
# Indices 1 2 3 4 5 6 
#
# 1 0.012774 -0.003126 0.002261 0.000000 0.007232 0.000000
# 2 -0.003126 0.008051 -0.002941 0.000000 0.000540 0.000000
# 3 0.002261 -0.002941 0.020256 0.000000 0.004940 0.000000
# 4 0.000000 0.000000 0.000000 0.043050 0.000000 0.021420
# 5 0.007232 0.000540 0.004940 0.000000 0.038569 0.000000
# 6 0.000000 0.000000 0.000000 0.021420 0.000000 0.048495
#
#
# Mechanical properties :
#
#
# Convention : Reuss Voigt Hill
#
# Bulk Modulus (GPa) = 29.87907 46.42200 38.15054
# Shear Modulus (GPa) = 26.32092 33.47200 29.89646
#
# Velocity S-wave (km/s) = 3.52100 3.97060 3.75254
# Velocity P-wave (km/s) = 5.53203 6.54876 6.06175
#
# Compressibility (1/GPa) = 0.03346825
#
# Stress axis : x y z
#
# Youngs Moduli (GPa) = 78.28644 124.20719 49.36892
#
# Poissons Ratio (x) = 0.38826 -0.11161
# Poissons Ratio (y) = 0.24472 0.14519
# Poissons Ratio (z) = -0.17699 0.36528
#
# Static dielectric constant tensor:
#      x y z
#    x 1.756290 0.000000 -0.008770 
#    y 0.000000 1.806160 0.000000 
#    z -0.008770 0.000000 1.883230 
# 
# From -- ./inp_files/29943.got.cif
#   From: 2010.05.17/outbox.cif.g08.bks.cpg/sg13_15_cif.got.tgz:29943.got - 2010.06.03 16:44:36.
