data_PCOD9228601
_publ_section_title
;
Structure prediction by ZEFSAII (Michael W. Deem and Ramdas Pophale) SiO2 
 PCOD9228601
Probable space group: P 2/C
;
_chemical_formula_sum "Si O2"
_cell_formula_units_Z 32
_cell_length_a 11.845529
_cell_length_b 20.293350
_cell_length_c 9.362155
_cell_angle_alpha 90.000000
_cell_angle_beta 141.759300
_cell_angle_gamma 90.000000
_cell_volume 1393.000133
_symmetry_space_group_name_H-M "P 2/C"
_symmetry_group_IT_number 13
_symmetry_cell_setting 'monoclinic'
loop_
_space_group_symop_operation_xyz
x,y,z
-x,y,1/2-z
-x,-y,-z
x,-y,1/2+z
loop_
_atom_site_type_symbol
_atom_site_label
_atom_site_fract_x
_atom_site_fract_y
_atom_site_fract_z
Si Si1 0.335470 0.712129 0.395728
Si Si2 0.390079 0.591018 0.276385
Si Si3 0.239303 0.690305 0.604161
Si Si4 0.279787 0.929157 0.662695
Si Si5 0.703826 0.956031 0.137601
Si Si6 0.173015 0.807040 0.730270
Si Si7 0.659958 0.448560 0.290740
Si Si8 0.754328 0.833800 0.382716
O O1 0.282468 0.648704 0.248374
O O2 0.217138 0.717841 0.421829
O O3 0.543669 0.697122 0.647061
O O4 0.335006 0.777847 0.303794
O O5 0.500000 0.618133 0.250000
O O6 0.276865 0.524172 0.133928
O O7 0.555496 0.564384 0.539124
O O8 0.157975 0.733993 0.649527
O O9 0.201401 0.612203 0.559134
O O10 0.211871 0.936426 0.432605
O O11 0.255584 0.854770 0.691757
O O12 0.204374 0.977452 0.711491
O O13 0.489612 0.953307 0.883160
O O14 0.708042 0.904859 0.273556
O O15 0.969105 0.827844 0.565022
O O16 0.280374 0.818468 0.985399
O O17 0.500000 0.440816 0.250000
#
# Coordination Sequence:
#
# PCOD9228601 Si02
#       8
#     4   4   4   4   4   4   4   4
#     4  10  20  34  54  83 111 142 185 229 278 335
#     4   9  17  26  49  80 113 141 176 223 283 331
#     4  10  19  35  55  80 112 144 182 229 281 331
#     4  10  21  39  64  91 115 144 179 225 277 325
#     4  10  21  39  64  91 116 142 181 226 273 332
#     4  11  25  40  55  78 113 153 189 231 276 324
#     4   9  15  30  47  78 115 141 172 228 279 333
#     4  11  25  40  54  80 113 149 193 231 272 329
#
# _framework density 22.972000000000001
#
# number of rings (size 3 to 8) (size 9 to 14) (size 15 to 20)
#    0.000    2.000    2.500    2.250    3.500    7.000 
#    0.000    0.000    0.000    0.750    0.000    0.000 
#    0.000    0.000    0.000    0.000    0.000    0.000 
#
# Total GULP energy -178499.830086 kJ/mol
# GULP energy per Si atom -5578.119690 kJ/mol
# Density = 2.291971 g / cm^3
# Si number density = 22.972000 Si / 1000 Ang^3
#
#
#
# Elastic Constant Matrix: (Units=GPa)
#
#
# Indices 1 2 3 4 5 6 
#
# 1 57.4688 1.3869 25.8817 0.0000 -26.6465 0.0000
# 2 1.3869 104.9191 9.2201 0.0000 -15.0118 0.0000
# 3 25.8817 9.2201 44.8711 0.0000 -25.6337 0.0000
# 4 0.0000 0.0000 0.0000 -41.5971 0.0000 -45.1408
# 5 -26.6465 -15.0118 -25.6337 0.0000 42.6426 0.0000
# 6 0.0000 0.0000 0.0000 -45.1408 0.0000 9.8792
#
#
#
# Elastic Compliance Matrix: (Units=1/GPa)
#
#
# Indices 1 2 3 4 5 6 
#
# 1 0.027127 0.002194 -0.009097 0.000000 0.012255 0.000000
# 2 0.002194 0.010214 -0.000803 0.000000 0.004485 0.000000
# 3 -0.009097 -0.000803 0.036993 0.000000 0.016271 0.000000
# 4 0.000000 0.000000 0.000000 -0.004035 0.000000 -0.018435
# 5 0.012255 0.004485 0.016271 0.000000 0.042468 0.000000
# 6 0.000000 0.000000 0.000000 -0.018435 0.000000 0.016988
#
#
# Mechanical properties :
#
#
# Convention : Reuss Voigt Hill
#
# Bulk Modulus (GPa) = 16.97091 31.13738 24.05414
# Shear Modulus (GPa) = 30.33852 13.56964 21.95408
#
# Velocity S-wave (km/s) = 3.63805 2.43308 3.09478
# Velocity P-wave (km/s) = 5.00509 4.63434 4.82327
#
# Compressibility (1/GPa) = 0.05892438
#
# Stress axis : x y z
#
# Youngs Moduli (GPa) = 36.86364 97.90180 27.03224
#
# Poissons Ratio (x) = -0.21483 0.24590
# Poissons Ratio (y) = -0.08089 0.02170
# Poissons Ratio (z) = 0.33533 0.07858
#
# Static dielectric constant tensor:
#      x y z
#    x 1.801850 0.000000 0.077270 
#    y 0.000000 1.910420 0.000000 
#    z 0.077270 0.000000 1.881590 
# 
# From -- ./inp_files/17307.got.cif
#   From: 2010.05.17/outbox.cif.g08.bks.cpg/sg13_9_cif.got.tgz:17307.got - 2010.06.03 16:44:36.
