data_PCOD9228258
_publ_section_title
;
Structure prediction by ZEFSAII (Michael W. Deem and Ramdas Pophale) SiO2 
 PCOD9228258
Probable space group: P 2/C
;
_chemical_formula_sum "Si O2"
_cell_formula_units_Z 22
_cell_length_a 27.309153
_cell_length_b 8.005933
_cell_length_c 5.144912
_cell_angle_alpha 90.000000
_cell_angle_beta 90.534303
_cell_angle_gamma 90.000000
_cell_volume 1124.810208
_symmetry_space_group_name_H-M "P 2/C"
_symmetry_group_IT_number 13
_symmetry_cell_setting 'monoclinic'
loop_
_space_group_symop_operation_xyz
x,y,z
-x,y,1/2-z
-x,-y,-z
x,-y,1/2+z
loop_
_atom_site_type_symbol
_atom_site_label
_atom_site_fract_x
_atom_site_fract_y
_atom_site_fract_z
Si Si1 0.500000 0.118556 0.250000
Si Si2 0.095516 0.610480 0.751430
Si Si3 0.695243 0.612927 0.708564
Si Si4 0.945045 0.934336 0.947690
Si Si5 0.587524 0.381370 0.284388
Si Si6 0.202705 0.612594 0.659767
O O1 0.546961 0.240050 0.256104
O O2 0.500000 0.000000 0.500000
O O3 0.091071 0.537260 0.038871
O O4 0.057380 0.751553 0.671352
O O5 0.149723 0.689765 0.712104
O O6 0.695987 0.541686 0.415883
O O7 0.642536 0.692959 0.759224
O O8 0.746354 0.704985 0.773970
O O9 0.921286 0.053578 0.729755
O O10 0.000000 0.000000 0.000000
O O11 0.582556 0.480950 0.555109
O O12 0.203337 0.542395 0.366673
#
# Coordination Sequence:
#
# PCOD9228258 Si02
#       6
#     2   4   4   4   4   4
#     4  12  24  36  50  72 104 138 166 208 264 298
#     4  10  19  33  55  79 100 128 170 210 242 291
#     4   8  14  25  45  72  97 121 154 202 250 286
#     4  10  21  38  53  71 102 136 163 200 253 298
#     4  10  19  34  55  75  96 129 175 212 240 295
#     4   8  14  25  44  73 101 120 150 202 252 286
#
# _framework density 19.558855999999999
#
# number of rings (size 3 to 8) (size 9 to 14) (size 15 to 20)
#    0.000    2.545    0.000    2.727    0.000    0.000 
#    0.000   10.909    0.000    2.182    0.000    0.000 
#    0.000    0.000    0.000    0.000    0.000    0.000 
#
# Total GULP energy -122491.879281 kJ/mol
# GULP energy per Si atom -5567.812695 kJ/mol
# Density = 1.951434 g / cm^3
# Si number density = 19.558856 Si / 1000 Ang^3
#
#
#
# Elastic Constant Matrix: (Units=GPa)
#
#
# Indices 1 2 3 4 5 6 
#
# 1 130.0586 40.7934 1.4324 0.0000 16.7848 0.0000
# 2 40.7934 39.7285 2.8380 0.0000 9.4524 0.0000
# 3 1.4324 2.8380 112.3767 0.0000 2.4474 0.0000
# 4 0.0000 0.0000 0.0000 20.8448 0.0000 -3.7018
# 5 16.7848 9.4524 2.4474 0.0000 24.0065 0.0000
# 6 0.0000 0.0000 0.0000 -3.7018 0.0000 -3.6874
#
#
#
# Elastic Compliance Matrix: (Units=1/GPa)
#
#
# Indices 1 2 3 4 5 6 
#
# 1 0.011651 -0.011072 0.000214 0.000000 -0.003808 0.000000
# 2 -0.011072 0.038320 -0.000668 0.000000 -0.007278 0.000000
# 3 0.000214 -0.000668 0.008930 0.000000 -0.000797 0.000000
# 4 0.000000 0.000000 0.000000 0.040715 0.000000 -0.040875
# 5 -0.003808 -0.007278 -0.000797 0.000000 0.047265 0.000000
# 6 0.000000 0.000000 0.000000 -0.040875 0.000000 -0.230161
#
#
# Mechanical properties :
#
#
# Convention : Reuss Voigt Hill
#
# Bulk Modulus (GPa) = 27.89581 41.36571 34.63076
# Shear Modulus (GPa) = -103.56470 24.03946 -39.76262
#
# Velocity S-wave (km/s) = -7.28459 3.50963 -4.51374
# Velocity P-wave (km/s) = 7.51400 6.13340 3.06933
#
# Compressibility (1/GPa) = 0.03584768
#
# Stress axis : x y z
#
# Youngs Moduli (GPa) = 85.83070 26.09636 111.98026
#
# Poissons Ratio (x) = 0.28895 -0.02397
# Poissons Ratio (y) = 0.95035 0.07481
# Poissons Ratio (z) = -0.01837 0.01743
#
# Static dielectric constant tensor:
#      x y z
#    x 1.813730 0.000000 -0.029470 
#    y 0.000000 1.651460 0.000000 
#    z -0.029470 0.000000 1.750550 
# 
# From -- ./inp_files/7949.got.cif
#   From: 2010.05.17/outbox.cif.g08.bks.cpg/sg13_4_cif.got.tgz:7949.got - 2010.06.03 16:44:36.
