data_PCOD9228502
_publ_section_title
;
Structure prediction by ZEFSAII (Michael W. Deem and Ramdas Pophale) SiO2 
 PCOD9228502
Probable space group: P 2/C
;
_chemical_formula_sum "Si O2"
_cell_formula_units_Z 26
_cell_length_a 9.365931
_cell_length_b 16.050323
_cell_length_c 17.122239
_cell_angle_alpha 90.000000
_cell_angle_beta 34.270388
_cell_angle_gamma 90.000000
_cell_volume 1449.372644
_symmetry_space_group_name_H-M "P 2/C"
_symmetry_group_IT_number 13
_symmetry_cell_setting 'monoclinic'
loop_
_space_group_symop_operation_xyz
x,y,z
-x,y,1/2-z
-x,-y,-z
x,-y,1/2+z
loop_
_atom_site_type_symbol
_atom_site_label
_atom_site_fract_x
_atom_site_fract_y
_atom_site_fract_z
Si Si1 0.000000 0.285765 0.250000
Si Si2 0.466117 0.401600 0.010592
Si Si3 0.449378 0.325902 0.687109
Si Si4 0.830340 0.182125 0.479893
Si Si5 0.279803 0.012815 0.910792
Si Si6 0.276714 0.823140 0.906498
Si Si7 0.095133 0.285640 0.627169
O O1 0.237455 0.349286 0.153752
O O2 0.056155 0.226174 0.149301
O O3 0.500000 0.500000 0.000000
O O4 0.436103 0.382036 0.932549
O O5 0.722196 0.358626 0.926048
O O6 0.500000 0.358270 0.750000
O O7 0.587972 0.236988 0.614057
O O8 0.152985 0.317732 0.804710
O O9 0.749138 0.084965 0.511491
O O10 0.028905 0.182582 0.462624
O O11 0.500000 0.039830 0.750000
O O12 0.346056 0.917523 0.901094
O O13 0.000000 0.000000 0.000000
O O14 0.500000 0.791520 0.750000
O O15 0.239921 0.771989 0.001393
O O16 0.000000 0.241702 0.750000
#
# Coordination Sequence:
#
# PCOD9228502 Si02
#       7
#     2   4   4   4   4   4   4
#     4  10  22  38  60  86 120 158 198 248 316 360
#     4  10  23  40  62  85 120 156 190 248 315 373
#     4  10  19  36  62  87 110 153 202 243 290 359
#     4  10  19  35  57  84 119 158 203 243 296 364
#     4   9  19  32  55  85 118 161 203 250 302 355
#     4  10  19  34  58  84 123 159 201 249 302 357
#     4  10  21  37  60  88 120 153 202 248 304 360
#
# _framework density 17.938797000000001
#
# number of rings (size 3 to 8) (size 9 to 14) (size 15 to 20)
#    0.000    2.154    1.538    1.385    5.385    0.000 
#    1.385    3.077    0.000    5.538    0.000    0.000 
#    0.000    0.000    0.000    0.000    0.000    0.000 
#
# Total GULP energy -144754.938759 kJ/mol
# GULP energy per Si atom -5567.497645 kJ/mol
# Density = 1.789797 g / cm^3
# Si number density = 17.938797 Si / 1000 Ang^3
#
#
#
# Elastic Constant Matrix: (Units=GPa)
#
#
# Indices 1 2 3 4 5 6 
#
# 1 84.5348 32.4769 39.2097 0.0000 4.7877 0.0000
# 2 32.4769 118.3393 60.1302 0.0000 21.4037 0.0000
# 3 39.2097 60.1302 118.4903 0.0000 6.4300 0.0000
# 4 0.0000 0.0000 0.0000 12.9607 0.0000 0.9145
# 5 4.7877 21.4037 6.4300 0.0000 36.4821 0.0000
# 6 0.0000 0.0000 0.0000 0.9145 0.0000 23.8603
#
#
#
# Elastic Compliance Matrix: (Units=1/GPa)
#
#
# Indices 1 2 3 4 5 6 
#
# 1 0.014335 -0.002048 -0.003703 0.000000 -0.000027 0.000000
# 2 -0.002048 0.012996 -0.005572 0.000000 -0.006374 0.000000
# 3 -0.003703 -0.005572 0.012407 0.000000 0.001568 0.000000
# 4 0.000000 0.000000 0.000000 0.077366 0.000000 -0.002965
# 5 -0.000027 -0.006374 0.001568 0.000000 0.030877 0.000000
# 6 0.000000 0.000000 0.000000 -0.002965 0.000000 0.042024
#
#
# Mechanical properties :
#
#
# Convention : Reuss Voigt Hill
#
# Bulk Modulus (GPa) = 58.50047 64.99978 61.75012
# Shear Modulus (GPa) = 22.89913 27.29713 25.09813
#
# Velocity S-wave (km/s) = 3.57671 3.90510 3.74451
# Velocity P-wave (km/s) = 7.05259 7.52635 7.29332
#
# Compressibility (1/GPa) = 0.01709388
#
# Stress axis : x y z
#
# Youngs Moduli (GPa) = 69.75806 76.94600 80.59787
#
# Poissons Ratio (x) = 0.15755 0.29846
# Poissons Ratio (y) = 0.14284 0.44907
# Poissons Ratio (z) = 0.25832 0.42872
#
# Static dielectric constant tensor:
#      x y z
#    x 1.595220 0.000000 -0.015250 
#    y 0.000000 1.623340 0.000000 
#    z -0.015250 0.000000 1.655980 
# 
# From -- ./inp_files/47571.got.cif
#   From: 2010.05.17/outbox.cif.g08.bks.cpg/sg13_24_cif.got.tgz:47571.got - 2010.06.03 16:44:36.
