data_PCOD9228411
_publ_section_title
;
Structure prediction by ZEFSAII (Michael W. Deem and Ramdas Pophale) SiO2 
 PCOD9228411
Probable space group: P 2/C
;
_chemical_formula_sum "Si O2"
_cell_formula_units_Z 32
_cell_length_a 13.552379
_cell_length_b 5.622915
_cell_length_c 21.599721
_cell_angle_alpha 90.000000
_cell_angle_beta 64.634379
_cell_angle_gamma 90.000000
_cell_volume 1487.297395
_symmetry_space_group_name_H-M "P 2/C"
_symmetry_group_IT_number 13
_symmetry_cell_setting 'monoclinic'
loop_
_space_group_symop_operation_xyz
x,y,z
-x,y,1/2-z
-x,-y,-z
x,-y,1/2+z
loop_
_atom_site_type_symbol
_atom_site_label
_atom_site_fract_x
_atom_site_fract_y
_atom_site_fract_z
Si Si1 0.706369 0.890181 0.564425
Si Si2 0.787687 0.585586 0.436130
Si Si3 0.908420 0.021773 0.578994
Si Si4 0.371048 0.829473 0.105373
Si Si5 0.406062 0.773771 0.495775
Si Si6 0.016856 0.481166 0.420088
Si Si7 0.370343 0.628927 0.799629
Si Si8 0.619914 0.129378 0.750688
O O1 0.782961 0.783765 0.490643
O O2 0.654785 0.689069 0.622175
O O3 0.789254 0.048999 0.581328
O O4 0.614545 0.038939 0.554629
O O5 0.742648 0.711327 0.386220
O O6 0.692326 0.406703 0.480688
O O7 0.903919 0.462801 0.412560
O O8 0.934349 0.260449 0.609564
O O9 0.000000 0.000000 0.500000
O O10 0.915248 0.760412 0.608322
O O11 0.472835 0.679765 0.050135
O O12 0.383397 0.844342 0.174854
O O13 0.389463 0.077670 0.063665
O O14 0.000000 0.500000 0.500000
O O15 0.500000 0.617364 0.750000
O O16 0.327669 0.372560 0.789773
O O17 0.330117 0.869378 0.776368
O O18 0.500000 0.118172 0.750000
#
# Coordination Sequence:
#
# PCOD9228411 Si02
#       8
#     4   4   4   4   4   4   4   4
#     4  11  22  34  60  90 122 160 199 253 307 375
#     4  11  22  33  59  88 123 163 192 247 323 379
#     4  10  19  34  54  87 122 151 191 244 304 367
#     4  10  23  37  55  85 120 165 206 253 304 375
#     4  10  21  36  55  85 126 159 203 243 318 377
#     4  10  19  34  54  84 124 149 191 238 300 381
#     4  10  23  37  58  85 113 161 207 250 287 344
#     4  10  22  41  58  78 111 159 210 250 287 339
#
# _framework density 21.515536999999998
#
# number of rings (size 3 to 8) (size 9 to 14) (size 15 to 20)
#    0.000    1.750    2.500    3.375    8.750    0.000 
#    0.000    0.000    0.000    0.000    0.000    5.250 
#    0.000    0.000    0.000    0.000    0.000    0.000 
#
# Total GULP energy -178500.799257 kJ/mol
# GULP energy per Si atom -5578.149977 kJ/mol
# Density = 2.146657 g / cm^3
# Si number density = 21.515537 Si / 1000 Ang^3
#
#
#
# Elastic Constant Matrix: (Units=GPa)
#
#
# Indices 1 2 3 4 5 6 
#
# 1 83.2962 19.7085 30.4787 0.0000 23.7776 0.0000
# 2 19.7085 141.2835 25.8796 0.0000 11.0728 0.0000
# 3 30.4787 25.8796 97.8542 0.0000 23.3869 0.0000
# 4 0.0000 0.0000 0.0000 15.0594 0.0000 -1.5402
# 5 23.7776 11.0728 23.3869 0.0000 26.6234 0.0000
# 6 0.0000 0.0000 0.0000 -1.5402 0.0000 32.1924
#
#
#
# Elastic Compliance Matrix: (Units=1/GPa)
#
#
# Indices 1 2 3 4 5 6 
#
# 1 0.016553 -0.000970 -0.001851 0.000000 -0.012754 0.000000
# 2 -0.000970 0.007559 -0.001459 0.000000 -0.000995 0.000000
# 3 -0.001851 -0.001459 0.013469 0.000000 -0.009572 0.000000
# 4 0.000000 0.000000 0.000000 0.066730 0.000000 0.003193
# 5 -0.012754 -0.000995 -0.009572 0.000000 0.057774 0.000000
# 6 0.000000 0.000000 0.000000 0.003193 0.000000 0.031216
#
#
# Mechanical properties :
#
#
# Convention : Reuss Voigt Hill
#
# Bulk Modulus (GPa) = 34.45842 52.72971 43.59407
# Shear Modulus (GPa) = 23.63671 31.19950 27.41811
#
# Velocity S-wave (km/s) = 3.31809 3.81214 3.57366
# Velocity P-wave (km/s) = 5.54347 6.62853 6.11013
#
# Compressibility (1/GPa) = 0.02902048
#
# Stress axis : x y z
#
# Youngs Moduli (GPa) = 60.41202 132.29990 74.24272
#
# Poissons Ratio (x) = 0.12839 0.13742
# Poissons Ratio (y) = 0.05863 0.10831
# Poissons Ratio (z) = 0.11182 0.19301
#
# Static dielectric constant tensor:
#      x y z
#    x 1.822190 0.000000 -0.014570 
#    y 0.000000 1.880830 0.000000 
#    z -0.014570 0.000000 1.769640 
# 
# From -- ./inp_files/67572.got.cif
#   From: 2010.05.17/outbox.cif.g08.bks.cpg/sg13_34_cif.got.tgz:67572.got - 2010.06.03 16:44:36.
