data_PCOD9228525
_publ_section_title
;
Structure prediction by ZEFSAII (Michael W. Deem and Ramdas Pophale) SiO2 
 PCOD9228525
Probable space group: P 2/C
;
_chemical_formula_sum "Si O2"
_cell_formula_units_Z 26
_cell_length_a 15.039674
_cell_length_b 7.564338
_cell_length_c 11.942352
_cell_angle_alpha 90.000000
_cell_angle_beta 58.877375
_cell_angle_gamma 90.000000
_cell_volume 1163.067629
_symmetry_space_group_name_H-M "P 2/C"
_symmetry_group_IT_number 13
_symmetry_cell_setting 'monoclinic'
loop_
_space_group_symop_operation_xyz
x,y,z
-x,y,1/2-z
-x,-y,-z
x,-y,1/2+z
loop_
_atom_site_type_symbol
_atom_site_label
_atom_site_fract_x
_atom_site_fract_y
_atom_site_fract_z
Si Si1 0.219874 0.878065 0.548920
Si Si2 0.538381 0.770192 0.850870
Si Si3 0.825859 0.760968 0.170484
Si Si4 0.758832 0.365275 0.248056
Si Si5 0.000000 0.111556 0.250000
Si Si6 0.635762 0.909319 0.420773
Si Si7 0.035644 0.704112 0.963303
O O1 0.206274 0.787493 0.437992
O O2 0.232122 0.732197 0.638843
O O3 0.110274 0.976449 0.647520
O O4 0.324534 0.992954 0.492004
O O5 0.500000 0.773618 0.750000
O O6 0.638680 0.645747 0.793493
O O7 0.578549 0.958943 0.872381
O O8 0.437759 0.746731 0.997100
O O9 0.801672 0.562748 0.225638
O O10 0.745240 0.873577 0.292097
O O11 0.949131 0.804169 0.094293
O O12 0.840086 0.275509 0.105952
O O13 0.018065 0.234300 0.347322
O O14 0.000000 0.500000 0.000000
#
# Coordination Sequence:
#
# PCOD9228525 Si02
#       7
#     4   4   4   4   2   4   4
#     4   9  18  35  54  79 113 143 177 224 272 322
#     4  10  21  38  54  73 108 146 182 228 269 311
#     4  10  19  34  59  84 108 142 178 220 275 326
#     4   9  19  35  56  81 108 142 182 222 268 323
#     4   8  14  28  52  74 104 144 174 210 264 322
#     4  10  21  36  55  77 107 147 186 219 269 325
#     4   8  15  30  52  79 107 135 168 214 270 320
#
# _framework density 22.354673999999999
#
# number of rings (size 3 to 8) (size 9 to 14) (size 15 to 20)
#    0.000    2.769    0.000    0.923    0.000    1.846 
#    0.000   19.231    0.000    5.538    0.000    0.000 
#    0.000    0.000    0.000    0.000    0.000    0.000 
#
# Total GULP energy -144828.863557 kJ/mol
# GULP energy per Si atom -5570.340906 kJ/mol
# Density = 2.230379 g / cm^3
# Si number density = 22.354674 Si / 1000 Ang^3
#
#
#
# Elastic Constant Matrix: (Units=GPa)
#
#
# Indices 1 2 3 4 5 6 
#
# 1 94.3383 9.7862 12.1959 0.0000 -10.2111 0.0000
# 2 9.7862 16.0280 12.2475 0.0000 -4.0110 0.0000
# 3 12.1959 12.2475 73.8411 0.0000 -20.9895 0.0000
# 4 0.0000 0.0000 0.0000 26.2859 0.0000 -12.8744
# 5 -10.2111 -4.0110 -20.9895 0.0000 25.3596 0.0000
# 6 0.0000 0.0000 0.0000 -12.8744 0.0000 16.6514
#
#
#
# Elastic Compliance Matrix: (Units=1/GPa)
#
#
# Indices 1 2 3 4 5 6 
#
# 1 0.011645 -0.006313 0.000226 0.000000 0.003878 0.000000
# 2 -0.006313 0.074942 -0.011430 0.000000 -0.000149 0.000000
# 3 0.000226 -0.011430 0.019501 0.000000 0.014424 0.000000
# 4 0.000000 0.000000 0.000000 0.061230 0.000000 0.047341
# 5 0.003878 -0.000149 0.014424 0.000000 0.052909 0.000000
# 6 0.000000 0.000000 0.000000 0.047341 0.000000 0.096658
#
#
# Mechanical properties :
#
#
# Convention : Reuss Voigt Hill
#
# Bulk Modulus (GPa) = 14.07354 28.07407 21.07380
# Shear Modulus (GPa) = 13.31194 23.65792 18.48493
#
# Velocity S-wave (km/s) = 2.44291 3.25668 2.87869
# Velocity P-wave (km/s) = 3.77708 5.16982 4.52732
#
# Compressibility (1/GPa) = 0.07105533
#
# Stress axis : x y z
#
# Youngs Moduli (GPa) = 85.87015 13.34372 51.27951
#
# Poissons Ratio (x) = 0.08423 -0.01158
# Poissons Ratio (y) = 0.54206 0.58610
# Poissons Ratio (z) = -0.01939 0.15251
#
# Static dielectric constant tensor:
#      x y z
#    x 1.898170 0.000000 -0.098870 
#    y 0.000000 1.878080 0.000000 
#    z -0.098870 0.000000 1.896000 
# 
# From -- ./inp_files/36092.got.cif
#   From: 2010.05.17/outbox.cif.g08.bks.cpg/sg13_19_cif.got.tgz:36092.got - 2010.06.03 16:44:36.
