data_PCOD9228374
_publ_section_title
;
Structure prediction by ZEFSAII (Michael W. Deem and Ramdas Pophale) SiO2 
 PCOD9228374
Probable space group: P 2/C
;
_chemical_formula_sum "Si O2"
_cell_formula_units_Z 22
_cell_length_a 7.165960
_cell_length_b 17.163661
_cell_length_c 10.365741
_cell_angle_alpha 90.000000
_cell_angle_beta 48.358334
_cell_angle_gamma 90.000000
_cell_volume 952.770730
_symmetry_space_group_name_H-M "P 2/C"
_symmetry_group_IT_number 13
_symmetry_cell_setting 'monoclinic'
loop_
_space_group_symop_operation_xyz
x,y,z
-x,y,1/2-z
-x,-y,-z
x,-y,1/2+z
loop_
_atom_site_type_symbol
_atom_site_label
_atom_site_fract_x
_atom_site_fract_y
_atom_site_fract_z
Si Si1 0.039511 0.385100 0.905383
Si Si2 0.334876 0.973643 0.954633
Si Si3 0.000000 0.916439 0.750000
Si Si4 0.276247 0.552991 0.746360
Si Si5 0.425025 0.339816 0.562282
Si Si6 0.530919 0.185667 0.379489
O O1 0.132866 0.470850 0.815079
O O2 0.288395 0.338016 0.762252
O O3 0.809459 0.354733 0.926688
O O4 0.928768 0.389088 0.098689
O O5 0.500000 0.986858 0.750000
O O6 0.312897 0.880339 0.983050
O O7 0.500000 0.000000 0.000000
O O8 0.095143 0.027409 0.090124
O O9 0.217730 0.862628 0.708083
O O10 0.500000 0.546114 0.750000
O O11 0.391071 0.589043 0.563099
O O12 0.528316 0.256308 0.478992
O O13 0.500000 0.219644 0.250000
#
# Coordination Sequence:
#
# PCOD9228374 Si02
#       6
#     4   4   2   4   4   4
#     4   9  18  31  50  72 100 139 184 232 284 336
#     4   9  20  38  63  93 122 159 209 253 302 374
#     4  10  22  42  62  88 126 162 202 254 304 362
#     4   9  17  32  52  75 104 141 189 244 290 347
#     4  10  19  34  52  77 110 145 191 239 293 359
#     4  10  21  38  61  89 121 158 197 246 307 364
#
# _framework density 23.090548999999999
#
# number of rings (size 3 to 8) (size 9 to 14) (size 15 to 20)
#    0.000    2.545    0.000    2.182    0.000    8.000 
#    0.000   16.364    0.000    1.091    0.000    1.273 
#    0.000    0.000    0.000    0.000    0.000    0.000 
#
# Total GULP energy -122677.630062 kJ/mol
# GULP energy per Si atom -5576.255912 kJ/mol
# Density = 2.303799 g / cm^3
# Si number density = 23.090549 Si / 1000 Ang^3
#
#
#
# Elastic Constant Matrix: (Units=GPa)
#
#
# Indices 1 2 3 4 5 6 
#
# 1 90.0142 0.0471 2.0040 0.0000 -14.4839 0.0000
# 2 0.0471 89.5021 28.1588 0.0000 -25.6165 0.0000
# 3 2.0040 28.1588 100.2779 0.0000 -18.8919 0.0000
# 4 0.0000 0.0000 0.0000 33.5966 0.0000 0.9835
# 5 -14.4839 -25.6165 -18.8919 0.0000 22.1385 0.0000
# 6 0.0000 0.0000 0.0000 0.9835 0.0000 22.6722
#
#
#
# Elastic Compliance Matrix: (Units=1/GPa)
#
#
# Indices 1 2 3 4 5 6 
#
# 1 0.013336 0.003579 0.001373 0.000000 0.014037 0.000000
# 2 0.003579 0.017798 -0.000892 0.000000 0.022175 0.000000
# 3 0.001373 -0.000892 0.012118 0.000000 0.010208 0.000000
# 4 0.000000 0.000000 0.000000 0.029803 0.000000 -0.001293
# 5 0.014037 0.022175 0.010208 0.000000 0.088723 0.000000
# 6 0.000000 0.000000 0.000000 -0.001293 0.000000 0.044163
#
#
# Mechanical properties :
#
#
# Convention : Reuss Voigt Hill
#
# Bulk Modulus (GPa) = 19.46584 37.80158 28.63371
# Shear Modulus (GPa) = 23.26177 32.32041 27.79109
#
# Velocity S-wave (km/s) = 3.17742 3.74535 3.47301
# Velocity P-wave (km/s) = 4.68080 5.92538 5.33947
#
# Compressibility (1/GPa) = 0.05137203
#
# Stress axis : x y z
#
# Youngs Moduli (GPa) = 74.98717 56.18533 82.51955
#
# Poissons Ratio (x) = -0.20106 -0.11331
# Poissons Ratio (y) = -0.26835 0.07359
# Poissons Ratio (z) = -0.10297 0.05011
#
# Static dielectric constant tensor:
#      x y z
#    x 1.979450 0.000000 0.005440 
#    y 0.000000 1.879700 0.000000 
#    z 0.005440 0.000000 1.994820 
# 
# From -- ./inp_files/30592.got.cif
#   From: 2010.05.17/outbox.cif.g08.bks.cpg/sg13_16_cif.got.tgz:30592.got - 2010.06.03 16:44:36.
