data_PCOD9228514
_publ_section_title
;
Structure prediction by ZEFSAII (Michael W. Deem and Ramdas Pophale) SiO2 
 PCOD9228514
Probable space group: P 2/C
;
_chemical_formula_sum "Si O2"
_cell_formula_units_Z 18
_cell_length_a 11.115578
_cell_length_b 19.035428
_cell_length_c 5.191015
_cell_angle_alpha 90.000000
_cell_angle_beta 66.847963
_cell_angle_gamma 90.000000
_cell_volume 1009.908631
_symmetry_space_group_name_H-M "P 2/C"
_symmetry_group_IT_number 13
_symmetry_cell_setting 'monoclinic'
loop_
_space_group_symop_operation_xyz
x,y,z
-x,y,1/2-z
-x,-y,-z
x,-y,1/2+z
loop_
_atom_site_type_symbol
_atom_site_label
_atom_site_fract_x
_atom_site_fract_y
_atom_site_fract_z
Si Si1 0.500000 0.205890 0.750000
Si Si2 0.608187 0.662749 0.459500
Si Si3 0.787460 0.168516 0.466656
Si Si4 0.148345 0.740881 0.085028
Si Si5 0.000000 0.048612 0.250000
Si Si6 0.500000 0.450496 0.750000
O O1 0.449320 0.261709 0.580660
O O2 0.629870 0.162286 0.572930
O O3 0.747204 0.679096 0.464854
O O4 0.613763 0.606992 0.221084
O O5 0.500000 0.635883 0.750000
O O6 0.821927 0.201680 0.715843
O O7 0.872643 0.098866 0.359249
O O8 0.831110 0.223125 0.208580
O O9 0.000000 0.717775 0.250000
O O10 0.000000 0.000000 0.500000
O O11 0.500000 0.500000 0.500000
#
# Coordination Sequence:
#
# PCOD9228514 Si02
#       6
#     2   4   4   4   2   2
#     4   9  20  34  58  88 114 139 180 258 302 325
#     4  10  19  34  58  90 114 141 190 242 285 328
#     4  11  21  37  58  83 113 149 187 234 298 337
#     4  11  20  35  58  89 116 141 182 245 301 335
#     4  12  24  40  56  80 114 160 198 224 266 358
#     4  11  22  36  56  82 118 161 194 222 268 341
#
# _framework density 17.823395000000001
#
# number of rings (size 3 to 8) (size 9 to 14) (size 15 to 20)
#    0.000    1.333    5.556    1.333    0.000    0.000 
#    0.000    1.111    0.000    1.333    0.000    0.000 
#    0.000    0.000    0.000    0.000    0.000    0.000 
#
# Total GULP energy -100283.213389 kJ/mol
# GULP energy per Si atom -5571.289633 kJ/mol
# Density = 1.778283 g / cm^3
# Si number density = 17.823395 Si / 1000 Ang^3
#
#
#
# Elastic Constant Matrix: (Units=GPa)
#
#
# Indices 1 2 3 4 5 6 
#
# 1 114.7114 46.4854 28.1152 0.0000 -33.3666 0.0000
# 2 46.4854 96.2782 27.0922 0.0000 -8.1901 0.0000
# 3 28.1152 27.0922 69.5173 0.0000 -5.4034 0.0000
# 4 0.0000 0.0000 0.0000 21.3761 0.0000 15.4725
# 5 -33.3666 -8.1901 -5.4034 0.0000 44.0772 0.0000
# 6 0.0000 0.0000 0.0000 15.4725 0.0000 12.1410
#
#
#
# Elastic Compliance Matrix: (Units=1/GPa)
#
#
# Indices 1 2 3 4 5 6 
#
# 1 0.014365 -0.005278 -0.003013 0.000000 0.009524 0.000000
# 2 -0.005278 0.013722 -0.003357 0.000000 -0.001857 0.000000
# 3 -0.003013 -0.003357 0.016846 0.000000 -0.000839 0.000000
# 4 0.000000 0.000000 0.000000 0.603117 0.000000 -0.768611
# 5 0.009524 -0.001857 -0.000839 0.000000 0.029449 0.000000
# 6 0.000000 0.000000 0.000000 -0.768611 0.000000 1.061881
#
#
# Mechanical properties :
#
#
# Convention : Reuss Voigt Hill
#
# Bulk Modulus (GPa) = 46.21586 53.76583 49.99084
# Shear Modulus (GPa) = 2.82504 27.43981 15.13242
#
# Velocity S-wave (km/s) = 1.26034 3.92795 2.91696
# Velocity P-wave (km/s) = 5.30133 7.12763 6.28121
#
# Compressibility (1/GPa) = 0.02163759
#
# Stress axis : x y z
#
# Youngs Moduli (GPa) = 69.61321 72.87780 59.35956
#
# Poissons Ratio (x) = 0.38464 0.17882
# Poissons Ratio (y) = 0.36741 0.19929
# Poissons Ratio (z) = 0.20971 0.24468
#
# Static dielectric constant tensor:
#      x y z
#    x 1.580100 0.000000 0.040830 
#    y 0.000000 1.607410 0.000000 
#    z 0.040830 0.000000 1.662230 
# 
# From -- ./inp_files/2290.got.cif
#   From: 2010.05.17/outbox.cif.g08.bks.cpg/sg13_2_cif.got.tgz:2290.got - 2010.06.03 16:44:36.
