data_PCOD9228216
_publ_section_title
;
Structure prediction by ZEFSAII (Michael W. Deem and Ramdas Pophale) SiO2 
 PCOD9228216
Probable space group: P 2/C
;
_chemical_formula_sum "Si O2"
_cell_formula_units_Z 16
_cell_length_a 8.222093
_cell_length_b 18.468197
_cell_length_c 7.214372
_cell_angle_alpha 90.000000
_cell_angle_beta 35.735334
_cell_angle_gamma 90.000000
_cell_volume 639.807647
_symmetry_space_group_name_H-M "P 2/C"
_symmetry_group_IT_number 13
_symmetry_cell_setting 'monoclinic'
loop_
_space_group_symop_operation_xyz
x,y,z
-x,y,1/2-z
-x,-y,-z
x,-y,1/2+z
loop_
_atom_site_type_symbol
_atom_site_label
_atom_site_fract_x
_atom_site_fract_y
_atom_site_fract_z
Si Si1 0.270576 0.817577 0.116218
Si Si2 0.016701 0.676675 0.460741
Si Si3 0.223397 0.948968 0.403586
Si Si4 0.503564 0.585817 0.967923
O O1 0.161974 0.754080 0.353792
O O2 0.357157 0.887299 0.151224
O O3 0.000000 0.840481 0.250000
O O4 0.500000 0.793954 0.750000
O O5 0.000000 0.677673 0.250000
O O6 0.730539 0.647655 0.808057
O O7 0.223584 0.612711 0.318792
O O8 0.500000 0.982241 0.250000
O O9 0.000000 0.000000 0.500000
O O10 0.000000 0.913153 0.750000
O O11 0.500000 0.592503 0.750000
O O12 0.500000 0.500000 0.000000
#
# Coordination Sequence:
#
# PCOD9228216 Si02
#       4
#     4   4   4   4
#     4  11  22  42  70  97 126 172 226 280 339 409
#     4   9  18  34  58  83 114 158 209 259 318 392
#     4  12  27  47  70 101 140 182 225 281 346 418
#     4  10  19  33  53  81 116 158 205 258 316 383
#
# _framework density 25.007512999999999
#
# number of rings (size 3 to 8) (size 9 to 14) (size 15 to 20)
#    0.000    1.500    0.000    7.500    0.000    2.000 
#    0.000    3.750    0.000    0.000    0.000    0.000 
#    0.000    0.000    0.000    0.000    0.000    0.000 
#
# Total GULP energy -89177.101993 kJ/mol
# GULP energy per Si atom -5573.568875 kJ/mol
# Density = 2.495059 g / cm^3
# Si number density = 25.007513 Si / 1000 Ang^3
#
#
#
# Elastic Constant Matrix: (Units=GPa)
#
#
# Indices 1 2 3 4 5 6 
#
# 1 66.4130 38.3833 23.5886 0.0000 -8.3226 0.0000
# 2 38.3833 150.3219 -1.3017 0.0000 -7.3591 0.0000
# 3 23.5886 -1.3017 72.3833 0.0000 -18.9611 0.0000
# 4 0.0000 0.0000 0.0000 38.5514 0.0000 -2.5466
# 5 -8.3226 -7.3591 -18.9611 0.0000 39.8333 0.0000
# 6 0.0000 0.0000 0.0000 -2.5466 0.0000 27.6365
#
#
#
# Elastic Compliance Matrix: (Units=1/GPa)
#
#
# Indices 1 2 3 4 5 6 
#
# 1 0.020532 -0.005297 -0.006762 0.000000 0.000093 0.000000
# 2 -0.005297 0.008096 0.002255 0.000000 0.001462 0.000000
# 3 -0.006762 0.002255 0.018049 0.000000 0.007595 0.000000
# 4 0.000000 0.000000 0.000000 0.026098 0.000000 0.002405
# 5 0.000093 0.001462 0.007595 0.000000 0.029010 0.000000
# 6 0.000000 0.000000 0.000000 0.002405 0.000000 0.036406
#
#
# Mechanical properties :
#
#
# Convention : Reuss Voigt Hill
#
# Bulk Modulus (GPa) = 36.94245 45.60648 41.27447
# Shear Modulus (GPa) = 29.97221 36.43411 33.20316
#
# Velocity S-wave (km/s) = 3.46573 3.82111 3.64775
# Velocity P-wave (km/s) = 5.55155 6.14366 5.85509
#
# Compressibility (1/GPa) = 0.02706913
#
# Stress axis : x y z
#
# Youngs Moduli (GPa) = 48.70493 123.51857 55.40423
#
# Poissons Ratio (x) = 0.65423 0.37464
# Poissons Ratio (y) = 0.25797 -0.12492
# Poissons Ratio (z) = 0.32934 -0.27850
#
# Static dielectric constant tensor:
#      x y z
#    x 2.153190 0.000000 -0.006020 
#    y 0.000000 1.983400 0.000000 
#    z -0.006020 0.000000 1.953880 
# 
# From -- ./inp_files/12979.got.cif
#   From: 2010.05.17/outbox.cif.g08.bks.cpg/sg13_7_cif.got.tgz:12979.got - 2010.06.03 16:44:36.
