data_PCOD9228162
_publ_section_title
;
Structure prediction by ZEFSAII (Michael W. Deem and Ramdas Pophale) SiO2 
 PCOD9228162
Probable space group: P 2/C
;
_chemical_formula_sum "Si O2"
_cell_formula_units_Z 32
_cell_length_a 28.659119
_cell_length_b 13.791972
_cell_length_c 10.112639
_cell_angle_alpha 90.000000
_cell_angle_beta 153.601800
_cell_angle_gamma 90.000000
_cell_volume 1777.174369
_symmetry_space_group_name_H-M "P 2/C"
_symmetry_group_IT_number 13
_symmetry_cell_setting 'monoclinic'
loop_
_space_group_symop_operation_xyz
x,y,z
-x,y,1/2-z
-x,-y,-z
x,-y,1/2+z
loop_
_atom_site_type_symbol
_atom_site_label
_atom_site_fract_x
_atom_site_fract_y
_atom_site_fract_z
Si Si1 0.560465 0.627975 0.269834
Si Si2 0.971685 0.373288 0.320706
Si Si3 0.925977 0.881656 0.189923
Si Si4 0.250892 0.260655 0.357912
Si Si5 0.414386 0.592978 0.648937
Si Si6 0.227801 0.260973 0.604648
Si Si7 0.913289 0.404480 0.632677
Si Si8 0.924153 0.891352 0.684369
O O1 0.500000 0.651525 0.250000
O O2 0.637338 0.714249 0.420852
O O3 0.615676 0.521671 0.430392
O O4 0.474725 0.611518 0.938272
O O5 0.931303 0.481166 0.185213
O O6 0.000000 0.328989 0.250000
O O7 0.067147 0.372863 0.666232
O O8 0.875864 0.326693 0.154823
O O9 0.000000 0.871103 0.250000
O O10 0.000434 0.858833 0.503251
O O11 0.896947 0.994997 0.130088
O O12 0.824454 0.814507 0.910425
O O13 0.254457 0.232372 0.521429
O O14 0.192767 0.364400 0.195879
O O15 0.500000 0.606246 0.750000
O O16 0.321046 0.670343 0.394171
O O17 0.183351 0.170728 0.578523
O O18 0.000000 0.365078 0.750000
O O19 0.000000 0.883702 0.750000
#
# Coordination Sequence:
#
# PCOD9228162 Si02
#       8
#     4   4   4   4   4   4   4   4
#     4  10  23  40  59  85 117 150 193 247 291 333
#     4  10  21  32  47  77 117 146 177 225 276 330
#     4  10  20  38  60  87 120 154 188 231 289 352
#     4  12  21  35  62  83 106 152 198 231 281 347
#     4  10  21  40  60  84 117 152 193 242 292 339
#     4  12  21  35  60  85 108 150 198 234 278 342
#     4  10  19  33  49  75 114 150 179 219 275 342
#     4  10  22  37  58  89 123 150 186 239 288 341
#
# _framework density 18.006112000000002
#
# number of rings (size 3 to 8) (size 9 to 14) (size 15 to 20)
#    0.000    1.500    3.750    2.250    0.000    2.000 
#    0.000    0.000    0.000    1.500    0.000    0.000 
#    0.000    0.000    0.000    0.000    0.000    0.000 
#
# Total GULP energy -178357.431353 kJ/mol
# GULP energy per Si atom -5573.669730 kJ/mol
# Density = 1.796513 g / cm^3
# Si number density = 18.006112 Si / 1000 Ang^3
#
#
#
# Elastic Constant Matrix: (Units=GPa)
#
#
# Indices 1 2 3 4 5 6 
#
# 1 116.9470 24.1655 27.4892 0.0000 1.2799 0.0000
# 2 24.1655 84.1477 37.7062 0.0000 11.0394 0.0000
# 3 27.4892 37.7062 51.4572 0.0000 8.1808 0.0000
# 4 0.0000 0.0000 0.0000 36.4601 0.0000 5.6786
# 5 1.2799 11.0394 8.1808 0.0000 28.7764 0.0000
# 6 0.0000 0.0000 0.0000 5.6786 0.0000 10.5365
#
#
#
# Elastic Compliance Matrix: (Units=1/GPa)
#
#
# Indices 1 2 3 4 5 6 
#
# 1 0.009849 -0.000813 -0.004865 0.000000 0.001257 0.000000
# 2 -0.000813 0.018056 -0.012255 0.000000 -0.003407 0.000000
# 3 -0.004865 -0.012255 0.031662 0.000000 -0.004084 0.000000
# 4 0.000000 0.000000 0.000000 0.029940 0.000000 -0.016136
# 5 0.001257 -0.003407 -0.004084 0.000000 0.037162 0.000000
# 6 0.000000 0.000000 0.000000 -0.016136 0.000000 0.103605
#
#
# Mechanical properties :
#
#
# Convention : Reuss Voigt Hill
#
# Bulk Modulus (GPa) = 42.19421 47.91931 45.05676
# Shear Modulus (GPa) = 18.24550 26.03399 22.13974
#
# Velocity S-wave (km/s) = 3.18668 3.80655 3.51032
# Velocity P-wave (km/s) = 6.08474 6.78162 6.44261
#
# Compressibility (1/GPa) = 0.02369993
#
# Stress axis : x y z
#
# Youngs Moduli (GPa) = 101.53530 55.38474 31.58382
#
# Poissons Ratio (x) = 0.04503 0.15367
# Poissons Ratio (y) = 0.08256 0.38705
# Poissons Ratio (z) = 0.49401 0.67872
#
# Static dielectric constant tensor:
#      x y z
#    x 1.706270 0.000000 -0.073960 
#    y 0.000000 1.671380 0.000000 
#    z -0.073960 0.000000 1.666600 
# 
# From -- ./inp_files/24254.got.cif
#   From: 2010.05.17/outbox.cif.g08.bks.cpg/sg13_13_cif.got.tgz:24254.got - 2010.06.03 16:44:36.
