data_PCOD9228278
_publ_section_title
;
Structure prediction by ZEFSAII (Michael W. Deem and Ramdas Pophale) SiO2 
 PCOD9228278
Probable space group: P 2/C
;
_chemical_formula_sum "Si O2"
_cell_formula_units_Z 28
_cell_length_a 5.563350
_cell_length_b 10.719169
_cell_length_c 22.616217
_cell_angle_alpha 90.000000
_cell_angle_beta 121.997503
_cell_angle_gamma 90.000000
_cell_volume 1143.799160
_symmetry_space_group_name_H-M "P 2/C"
_symmetry_group_IT_number 13
_symmetry_cell_setting 'monoclinic'
loop_
_space_group_symop_operation_xyz
x,y,z
-x,y,1/2-z
-x,-y,-z
x,-y,1/2+z
loop_
_atom_site_type_symbol
_atom_site_label
_atom_site_fract_x
_atom_site_fract_y
_atom_site_fract_z
Si Si1 0.316933 0.897096 0.284254
Si Si2 0.317879 0.251784 0.104967
Si Si3 0.868579 0.865369 0.809396
Si Si4 0.846059 0.600951 0.673454
Si Si5 0.886176 0.359217 0.972825
Si Si6 0.412551 0.016303 0.420372
Si Si7 0.299642 0.411420 0.933470
O O1 0.500000 0.849094 0.250000
O O2 0.246808 0.038620 0.253346
O O3 0.449641 0.920459 0.368031
O O4 0.000000 0.837241 0.250000
O O5 0.343687 0.201005 0.173784
O O6 0.508839 0.375813 0.128260
O O7 0.429352 0.142917 0.077988
O O8 0.999067 0.281253 0.043501
O O9 0.044228 0.742625 0.814938
O O10 0.077801 0.953484 0.874722
O O11 0.899861 0.506148 0.627887
O O12 0.000000 0.545583 0.750000
O O13 0.546901 0.349847 0.925481
O O14 0.090227 0.324194 0.944029
O O15 0.000000 0.500000 0.000000
O O16 0.500000 0.000000 0.500000
O O17 0.500000 0.500000 0.000000
#
# Coordination Sequence:
#
# PCOD9228278 Si02
#       7
#     4   4   4   4   4   4   4
#     4  10  19  37  54  78 113 158 183 224 298 365
#     4  11  20  34  56  81 115 160 192 247 302 367
#     4  10  20  34  54  80 120 153 185 232 308 371
#     4  11  22  31  51  84 117 152 190 237 294 368
#     4  10  19  33  56  75 109 153 195 231 276 346
#     4  10  22  36  53  83 122 152 199 248 300 365
#     4  10  19  36  50  75 114 148 191 229 273 343
#
# _framework density 24.479824000000001
#
# number of rings (size 3 to 8) (size 9 to 14) (size 15 to 20)
#    0.000    1.714    4.286    3.857    2.000    0.571 
#    0.000    0.000    0.000    0.000    0.000    3.000 
#   12.857    0.000    0.000    0.000    0.000    0.000 
#
# Total GULP energy -155892.447848 kJ/mol
# GULP energy per Si atom -5567.587423 kJ/mol
# Density = 2.442411 g / cm^3
# Si number density = 24.479824 Si / 1000 Ang^3
#
#
#
# Elastic Constant Matrix: (Units=GPa)
#
#
# Indices 1 2 3 4 5 6 
#
# 1 125.6730 2.3030 6.3912 0.0000 -23.3865 0.0000
# 2 2.3030 32.9151 26.6033 0.0000 -2.9063 0.0000
# 3 6.3912 26.6033 158.3195 0.0000 -24.9884 0.0000
# 4 0.0000 0.0000 0.0000 34.3882 0.0000 -4.5803
# 5 -23.3865 -2.9063 -24.9884 0.0000 29.7900 0.0000
# 6 0.0000 0.0000 0.0000 -4.5803 0.0000 8.1287
#
#
#
# Elastic Compliance Matrix: (Units=1/GPa)
#
#
# Indices 1 2 3 4 5 6 
#
# 1 0.009448 -0.000782 0.001047 0.000000 0.008219 0.000000
# 2 -0.000782 0.035301 -0.006286 0.000000 -0.002442 0.000000
# 3 0.001047 -0.006286 0.008487 0.000000 0.007328 0.000000
# 4 0.000000 0.000000 0.000000 0.031439 0.000000 0.017715
# 5 0.008219 -0.002442 0.007328 0.000000 0.045929 0.000000
# 6 0.000000 0.000000 0.000000 0.017715 0.000000 0.133003
#
#
# Mechanical properties :
#
#
# Convention : Reuss Voigt Hill
#
# Bulk Modulus (GPa) = 24.27491 43.05585 33.66538
# Shear Modulus (GPa) = 17.27842 33.23538 25.25690
#
# Velocity S-wave (km/s) = 2.65962 3.68865 3.21556
# Velocity P-wave (km/s) = 4.40105 5.98063 5.25058
#
# Compressibility (1/GPa) = 0.04119479
#
# Stress axis : x y z
#
# Youngs Moduli (GPa) = 105.84585 28.32810 117.82901
#
# Poissons Ratio (x) = 0.02214 -0.12339
# Poissons Ratio (y) = 0.08274 0.74064
# Poissons Ratio (z) = -0.11084 0.17806
#
# Static dielectric constant tensor:
#      x y z
#    x 2.336300 0.000000 -0.063970 
#    y 0.000000 1.901790 0.000000 
#    z -0.063970 0.000000 1.934450 
# 
# From -- ./inp_files/61674.got.cif
#   From: 2010.05.17/outbox.cif.g08.bks.cpg/sg13_31_cif.got.tgz:61674.got - 2010.06.03 16:44:36.
