data_PCOD9228117
_publ_section_title
;
Structure prediction by ZEFSAII (Michael W. Deem and Ramdas Pophale) SiO2 
 PCOD9228117
Probable space group: P 2/C
;
_chemical_formula_sum "Si O2"
_cell_formula_units_Z 30
_cell_length_a 16.954717
_cell_length_b 5.913241
_cell_length_c 14.677475
_cell_angle_alpha 90.000000
_cell_angle_beta 112.900891
_cell_angle_gamma 90.000000
_cell_volume 1355.537916
_symmetry_space_group_name_H-M "P 2/C"
_symmetry_group_IT_number 13
_symmetry_cell_setting 'monoclinic'
loop_
_space_group_symop_operation_xyz
x,y,z
-x,y,1/2-z
-x,-y,-z
x,-y,1/2+z
loop_
_atom_site_type_symbol
_atom_site_label
_atom_site_fract_x
_atom_site_fract_y
_atom_site_fract_z
Si Si1 0.634151 0.412812 0.070385
Si Si2 0.774602 0.634268 0.220700
Si Si3 0.947091 0.621595 0.058416
Si Si4 0.914956 0.045483 0.822287
Si Si5 0.494605 0.192684 0.919414
Si Si6 0.352987 0.029097 0.266924
Si Si7 0.000000 0.323958 0.250000
Si Si8 0.208681 0.249118 0.117327
O O1 0.727830 0.522537 0.113186
O O2 0.569014 0.608512 0.074875
O O3 0.641073 0.222882 0.152573
O O4 0.589495 0.301871 0.961929
O O5 0.865110 0.753659 0.249341
O O6 0.785713 0.448493 0.304974
O O7 0.710457 0.831704 0.226595
O O8 0.996558 0.856088 0.100554
O O9 0.961034 0.467077 0.151590
O O10 0.847830 0.654758 0.989732
O O11 0.000000 0.500000 0.000000
O O12 0.929676 0.840510 0.761348
O O13 0.853954 0.948474 0.873247
O O14 0.447074 0.081931 0.811824
O O15 0.500000 0.000000 0.000000
O O16 0.304505 0.142825 0.158980
#
# Coordination Sequence:
#
# PCOD9228117 Si02
#       8
#     4   4   4   4   4   4   2   4
#     4   8  13  21  35  58  90 131 173 210 259 319
#     4   9  16  28  44  69  94 129 181 221 267 331
#     4  12  23  40  57  77 105 140 191 251 291 355
#     4  11  21  36  54  75 101 135 187 244 284 346
#     4   8  12  20  33  55  91 128 173 214 252 316
#     4   8  15  23  39  64  91 129 177 216 262 326
#     4  12  26  36  54  80 102 138 190 248 314 346
#     4  10  19  32  54  71  97 137 183 233 281 335
#
# _framework density 22.131436000000001
#
# number of rings (size 3 to 8) (size 9 to 14) (size 15 to 20)
#    0.000    2.400    2.667    0.800    0.000    0.000 
#    0.000    0.000    0.000    0.000    0.000    0.000 
#    0.000    0.000    0.000    0.000    0.000 11197.334 
#
# Total GULP energy -167164.478002 kJ/mol
# GULP energy per Si atom -5572.149267 kJ/mol
# Density = 2.208106 g / cm^3
# Si number density = 22.131436 Si / 1000 Ang^3
#
#
#
# Elastic Constant Matrix: (Units=GPa)
#
#
# Indices 1 2 3 4 5 6 
#
# 1 35.4857 22.6341 63.2506 0.0000 21.0733 0.0000
# 2 22.6341 104.9793 57.5270 0.0000 19.5069 0.0000
# 3 63.2506 57.5270 158.8594 0.0000 55.7679 0.0000
# 4 0.0000 0.0000 0.0000 37.2044 0.0000 28.4491
# 5 21.0733 19.5069 55.7679 0.0000 44.3081 0.0000
# 6 0.0000 0.0000 0.0000 28.4491 0.0000 42.0110
#
#
#
# Elastic Compliance Matrix: (Units=1/GPa)
#
#
# Indices 1 2 3 4 5 6 
#
# 1 0.097567 0.000350 -0.040543 0.000000 0.004471 0.000000
# 2 0.000350 0.011888 -0.004566 0.000000 0.000347 0.000000
# 3 -0.040543 -0.004566 0.029769 0.000000 -0.016176 0.000000
# 4 0.000000 0.000000 0.000000 0.055744 0.000000 -0.037749
# 5 0.004471 0.000347 -0.016176 0.000000 0.040650 0.000000
# 6 0.000000 0.000000 0.000000 -0.037749 0.000000 0.049366
#
#
# Mechanical properties :
#
#
# Convention : Reuss Voigt Hill
#
# Bulk Modulus (GPa) = 20.11825 65.12752 42.62289
# Shear Modulus (GPa) = 12.78541 35.09889 23.94215
#
# Velocity S-wave (km/s) = 2.40615 3.98669 3.29267
# Velocity P-wave (km/s) = 4.10238 7.11921 5.81002
#
# Compressibility (1/GPa) = 0.04970610
#
# Stress axis : x y z
#
# Youngs Moduli (GPa) = 10.24939 84.11927 33.59147
#
# Poissons Ratio (x) = -0.02947 1.36191
# Poissons Ratio (y) = -0.00359 0.15338
# Poissons Ratio (z) = 0.41554 0.38410
#
# Static dielectric constant tensor:
#      x y z
#    x 1.825060 0.000000 0.047010 
#    y 0.000000 1.842450 0.000000 
#    z 0.047010 0.000000 1.863000 
# 
# From -- ./inp_files/58227.got.cif
#   From: 2010.05.17/outbox.cif.g08.bks.cpg/sg13_30_cif.got.tgz:58227.got - 2010.06.03 16:44:36.
