data_PCOD9228527
_publ_section_title
;
Structure prediction by ZEFSAII (Michael W. Deem and Ramdas Pophale) SiO2 
 PCOD9228527
Probable space group: P 2/C
;
_chemical_formula_sum "Si O2"
_cell_formula_units_Z 26
_cell_length_a 11.319757
_cell_length_b 11.527896
_cell_length_c 11.386690
_cell_angle_alpha 90.000000
_cell_angle_beta 117.285019
_cell_angle_gamma 90.000000
_cell_volume 1320.559497
_symmetry_space_group_name_H-M "P 2/C"
_symmetry_group_IT_number 13
_symmetry_cell_setting 'monoclinic'
loop_
_space_group_symop_operation_xyz
x,y,z
-x,y,1/2-z
-x,-y,-z
x,-y,1/2+z
loop_
_atom_site_type_symbol
_atom_site_label
_atom_site_fract_x
_atom_site_fract_y
_atom_site_fract_z
Si Si1 0.186367 0.736211 0.052509
Si Si2 0.105505 0.643508 0.605464
Si Si3 0.715094 0.301636 0.523476
Si Si4 0.149075 0.108690 0.764393
Si Si5 0.159409 0.154381 0.300073
Si Si6 0.500000 0.361753 0.250000
Si Si7 0.293897 0.456045 0.756025
O O1 0.152529 0.829467 0.138985
O O2 0.288094 0.644031 0.154025
O O3 0.225205 0.800795 0.950483
O O4 0.050688 0.666144 0.963096
O O5 0.163938 0.650712 0.501231
O O6 0.174570 0.749834 0.706751
O O7 0.153646 0.524745 0.686395
O O8 0.760456 0.184897 0.607919
O O9 0.589079 0.290350 0.381210
O O10 0.685842 0.395271 0.610917
O O11 0.000000 0.112079 0.750000
O O12 0.195918 0.975687 0.780796
O O13 0.000000 0.150105 0.250000
O O14 0.598371 0.447477 0.224973
#
# Coordination Sequence:
#
# PCOD9228527 Si02
#       7
#     4   4   4   4   4   2   4
#     4  10  20  36  53  87 120 149 184 225 291 333
#     4  10  20  34  55  86 119 149 179 230 285 340
#     4  10  21  37  59  84 109 151 189 233 279 337
#     4  10  19  34  59  84 116 149 186 230 278 338
#     4   9  21  32  53  84 120 155 181 221 276 349
#     4  10  22  40  58  82 110 148 194 236 284 330
#     4  10  22  36  60  81 111 149 189 240 277 339
#
# _framework density 19.688624000000001
#
# number of rings (size 3 to 8) (size 9 to 14) (size 15 to 20)
#    0.000    2.154    1.538    0.923    6.462    1.846 
#    2.769    0.000    0.000    4.615    0.000    0.000 
#    0.000    0.000    0.000    0.000    0.000    0.000 
#
# Total GULP energy -145173.064560 kJ/mol
# GULP energy per Si atom -5583.579406 kJ/mol
# Density = 1.964381 g / cm^3
# Si number density = 19.688624 Si / 1000 Ang^3
#
#
#
# Elastic Constant Matrix: (Units=GPa)
#
#
# Indices 1 2 3 4 5 6 
#
# 1 23.1476 5.4859 11.7900 0.0000 -3.3214 0.0000
# 2 5.4859 91.5189 42.5702 0.0000 -1.2743 0.0000
# 3 11.7900 42.5702 103.3072 0.0000 -8.9435 0.0000
# 4 0.0000 0.0000 0.0000 7.4134 0.0000 1.2381
# 5 -3.3214 -1.2743 -8.9435 0.0000 17.1022 0.0000
# 6 0.0000 0.0000 0.0000 1.2381 0.0000 13.8697
#
#
#
# Elastic Compliance Matrix: (Units=1/GPa)
#
#
# Indices 1 2 3 4 5 6 
#
# 1 0.046587 -0.000612 -0.004488 0.000000 0.006655 0.000000
# 2 -0.000612 0.013591 -0.005712 0.000000 -0.002093 0.000000
# 3 -0.004488 -0.005712 0.013023 0.000000 0.005513 0.000000
# 4 0.000000 0.000000 0.000000 0.136932 0.000000 -0.012223
# 5 0.006655 -0.002093 0.005513 0.000000 0.062491 0.000000
# 6 0.000000 0.000000 0.000000 -0.012223 0.000000 0.073191
#
#
# Mechanical properties :
#
#
# Convention : Reuss Voigt Hill
#
# Bulk Modulus (GPa) = 19.38862 37.51841 28.45352
# Shear Modulus (GPa) = 12.99942 18.21891 15.60916
#
# Velocity S-wave (km/s) = 2.57232 3.04526 2.81873
# Velocity P-wave (km/s) = 4.32336 5.60911 5.00767
#
# Compressibility (1/GPa) = 0.05157663
#
# Stress axis : x y z
#
# Youngs Moduli (GPa) = 21.46510 73.57726 76.78649
#
# Poissons Ratio (x) = 0.04503 0.34465
# Poissons Ratio (y) = 0.01314 0.43860
# Poissons Ratio (z) = 0.09635 0.42027
#
# Static dielectric constant tensor:
#      x y z
#    x 1.687540 0.000000 0.005130 
#    y 0.000000 1.681510 0.000000 
#    z 0.005130 0.000000 1.704530 
# 
# From -- ./inp_files/33966.got.cif
#   From: 2010.05.17/outbox.cif.g08.bks.cpg/sg13_17_cif.got.tgz:33966.got - 2010.06.03 16:44:36.
