data_PCOD9228436
_publ_section_title
;
Structure prediction by ZEFSAII (Michael W. Deem and Ramdas Pophale) SiO2 
 PCOD9228436
Probable space group: P 2/C
;
_chemical_formula_sum "Si O2"
_cell_formula_units_Z 24
_cell_length_a 7.107565
_cell_length_b 7.034592
_cell_length_c 21.346689
_cell_angle_alpha 90.000000
_cell_angle_beta 97.146659
_cell_angle_gamma 90.000000
_cell_volume 1059.017283
_symmetry_space_group_name_H-M "P 2/C"
_symmetry_group_IT_number 13
_symmetry_cell_setting 'monoclinic'
loop_
_space_group_symop_operation_xyz
x,y,z
-x,y,1/2-z
-x,-y,-z
x,-y,1/2+z
loop_
_atom_site_type_symbol
_atom_site_label
_atom_site_fract_x
_atom_site_fract_y
_atom_site_fract_z
Si Si1 0.292344 0.725861 0.170106
Si Si2 0.704432 0.128417 0.961363
Si Si3 0.841475 0.546808 0.545675
Si Si4 0.995579 0.413544 0.317019
Si Si5 0.728922 0.121000 0.569644
Si Si6 0.743389 0.780344 0.196997
O O1 0.212399 0.813376 0.102501
O O2 0.206578 0.514850 0.175978
O O3 0.520860 0.727241 0.178064
O O4 0.236791 0.841743 0.230318
O O5 0.491825 0.061758 0.938070
O O6 0.697732 0.315347 0.004281
O O7 0.804689 0.976684 0.010242
O O8 0.751384 0.346696 0.561635
O O9 0.000000 0.500000 0.500000
O O10 0.926599 0.648611 0.611512
O O11 0.000000 0.304083 0.250000
O O12 0.133728 0.591376 0.306434
O O13 0.800657 0.081559 0.642830
#
# Coordination Sequence:
#
# PCOD9228436 Si02
#       6
#     4   4   4   4   4   4
#     4   9  15  29  51  75 101 135 175 215 257 308
#     4  10  19  34  56  78 105 135 175 219 264 308
#     4  11  20  33  53  80 105 137 172 216 263 312
#     4   9  17  31  50  73 105 137 173 215 258 310
#     4   9  20  35  53  78 104 139 175 216 261 312
#     4   8  16  29  50  74 100 137 177 211 255 310
#
# _framework density 22.662521000000002
#
# number of rings (size 3 to 8) (size 9 to 14) (size 15 to 20)
#    0.000    2.667    1.667    0.500    0.000    0.667 
#    0.000    0.000    3.667    1.000    0.000    0.000 
#    0.000    0.000    0.000    0.000    0.000    0.000 
#
# Total GULP energy -133624.369650 kJ/mol
# GULP energy per Si atom -5567.682069 kJ/mol
# Density = 2.261094 g / cm^3
# Si number density = 22.662521 Si / 1000 Ang^3
#
#
#
# Elastic Constant Matrix: (Units=GPa)
#
#
# Indices 1 2 3 4 5 6 
#
# 1 68.4317 -6.9102 16.8305 0.0000 -3.3935 0.0000
# 2 -6.9102 32.3681 17.4075 0.0000 0.5769 0.0000
# 3 16.8305 17.4075 224.0280 0.0000 -3.5828 0.0000
# 4 0.0000 0.0000 0.0000 17.3540 0.0000 -6.0668
# 5 -3.3935 0.5769 -3.5828 0.0000 15.8876 0.0000
# 6 0.0000 0.0000 0.0000 -6.0668 0.0000 -2.6267
#
#
#
# Elastic Compliance Matrix: (Units=1/GPa)
#
#
# Indices 1 2 3 4 5 6 
#
# 1 0.015514 0.004032 -0.001433 0.000000 0.002844 0.000000
# 2 0.004032 0.033338 -0.002909 0.000000 -0.001005 0.000000
# 3 -0.001433 -0.002909 0.004812 0.000000 0.000885 0.000000
# 4 0.000000 0.000000 0.000000 0.031881 0.000000 -0.073636
# 5 0.002844 -0.001005 0.000885 0.000000 0.063786 0.000000
# 6 0.000000 0.000000 0.000000 -0.073636 0.000000 -0.210634
#
#
# Mechanical properties :
#
#
# Convention : Reuss Voigt Hill
#
# Bulk Modulus (GPa) = 18.85291 42.16484 30.50887
# Shear Modulus (GPa) = -116.27530 25.95632 -45.15949
#
# Velocity S-wave (km/s) = -7.17068 3.38796 -4.46880
# Velocity P-wave (km/s) = 7.76023 5.82669 3.62429
#
# Compressibility (1/GPa) = 0.05304221
#
# Stress axis : x y z
#
# Youngs Moduli (GPa) = 64.45862 29.99580 207.82992
#
# Poissons Ratio (x) = -0.12095 0.29789
# Poissons Ratio (y) = -0.25991 0.60467
# Poissons Ratio (z) = 0.09239 0.08727
#
# Static dielectric constant tensor:
#      x y z
#    x 1.884460 0.000000 0.008460 
#    y 0.000000 1.849470 0.000000 
#    z 0.008460 0.000000 1.979420 
# 
# From -- ./inp_files/75025.got.cif
#   From: 2010.05.17/outbox.cif.g08.bks.cpg/sg13_38_cif.got.tgz:75025.got - 2010.06.03 16:44:36.
