data_PCOD9228211
_publ_section_title
;
Structure prediction by ZEFSAII (Michael W. Deem and Ramdas Pophale) SiO2 
 PCOD9228211
Probable space group: P 2/C
;
_chemical_formula_sum "Si O2"
_cell_formula_units_Z 20
_cell_length_a 9.857138
_cell_length_b 11.062368
_cell_length_c 9.741954
_cell_angle_alpha 90.000000
_cell_angle_beta 104.946228
_cell_angle_gamma 90.000000
_cell_volume 1026.355462
_symmetry_space_group_name_H-M "P 2/C"
_symmetry_group_IT_number 13
_symmetry_cell_setting 'monoclinic'
loop_
_space_group_symop_operation_xyz
x,y,z
-x,y,1/2-z
-x,-y,-z
x,-y,1/2+z
loop_
_atom_site_type_symbol
_atom_site_label
_atom_site_fract_x
_atom_site_fract_y
_atom_site_fract_z
Si Si1 0.451222 0.890988 0.083235
Si Si2 0.608623 0.496563 0.404319
Si Si3 0.699372 0.260781 0.552927
Si Si4 0.790720 0.274939 0.891324
Si Si5 0.959131 0.884781 0.079234
O O1 0.500000 0.920225 0.250000
O O2 0.542731 0.780998 0.047149
O O3 0.296046 0.837865 0.065443
O O4 0.500000 0.000000 0.000000
O O5 0.500000 0.504804 0.250000
O O6 0.500000 0.500000 0.500000
O O7 0.691367 0.370639 0.445238
O O8 0.722564 0.604205 0.434877
O O9 0.762139 0.289760 0.720147
O O10 0.796050 0.150939 0.525901
O O11 0.951264 0.233064 0.944722
O O12 0.000000 0.907225 0.250000
O O13 0.000000 0.000000 0.000000
#
# Coordination Sequence:
#
# PCOD9228211 Si02
#       5
#     4   4   4   4   4
#     4  10  19  33  53  80 111 147 194 240 288 341
#     4  12  21  39  63  90 120 153 199 250 295 352
#     4  10  21  38  59  85 117 157 193 241 303 343
#     4  10  20  38  60  82 119 158 189 244 300 344
#     4  10  22  42  62  85 122 159 196 243 296 354
#
# _framework density 19.486426000000002
#
# number of rings (size 3 to 8) (size 9 to 14) (size 15 to 20)
#    0.000    1.600    4.000    1.800    0.000    1.600 
#    3.600    0.000    0.000    0.000    0.000    0.000 
#    0.000    0.000    0.000    0.000    0.000    0.000 
#
# Total GULP energy -111421.247303 kJ/mol
# GULP energy per Si atom -5571.062365 kJ/mol
# Density = 1.944207 g / cm^3
# Si number density = 19.486426 Si / 1000 Ang^3
#
#
#
# Elastic Constant Matrix: (Units=GPa)
#
#
# Indices 1 2 3 4 5 6 
#
# 1 69.3635 4.2952 19.9826 0.0000 -11.4683 0.0000
# 2 4.2952 93.6372 44.8745 0.0000 -9.7275 0.0000
# 3 19.9826 44.8745 56.5384 0.0000 -24.0870 0.0000
# 4 0.0000 0.0000 0.0000 23.2330 0.0000 -19.5124
# 5 -11.4683 -9.7275 -24.0870 0.0000 20.8431 0.0000
# 6 0.0000 0.0000 0.0000 -19.5124 0.0000 35.7885
#
#
#
# Elastic Compliance Matrix: (Units=1/GPa)
#
#
# Indices 1 2 3 4 5 6 
#
# 1 0.016704 0.003006 -0.007439 0.000000 0.001997 0.000000
# 2 0.003006 0.020667 -0.024922 0.000000 -0.017501 0.000000
# 3 -0.007439 -0.024922 0.065787 0.000000 0.060302 0.000000
# 4 0.000000 0.000000 0.000000 0.079399 0.000000 0.043289
# 5 0.001997 -0.017501 0.060302 0.000000 0.110595 0.000000
# 6 0.000000 0.000000 0.000000 0.043289 0.000000 0.051544
#
#
# Mechanical properties :
#
#
# Convention : Reuss Voigt Hill
#
# Bulk Modulus (GPa) = 22.49789 39.76041 31.12915
# Shear Modulus (GPa) = 11.95537 25.99872 18.97705
#
# Velocity S-wave (km/s) = 2.47963 3.65663 3.12406
# Velocity P-wave (km/s) = 4.44618 6.18679 5.38725
#
# Compressibility (1/GPa) = 0.04444860
#
# Stress axis : x y z
#
# Youngs Moduli (GPa) = 59.86618 48.38608 15.20053
#
# Poissons Ratio (x) = -0.14546 0.11308
# Poissons Ratio (y) = -0.17998 0.37883
# Poissons Ratio (z) = 0.44535 1.20588
#
# Static dielectric constant tensor:
#      x y z
#    x 1.787180 0.000000 -0.049530 
#    y 0.000000 1.758140 0.000000 
#    z -0.049530 0.000000 1.673200 
# 
# From -- ./inp_files/11673.got.cif
#   From: 2010.05.17/outbox.cif.g08.bks.cpg/sg13_6_cif.got.tgz:11673.got - 2010.06.03 16:44:36.
