data_PCOD9228972
_publ_section_title
;
Structure prediction by ZEFSAII (Michael W. Deem and Ramdas Pophale) SiO2 
 PCOD9228972
Probable space group: P 2/C
;
_chemical_formula_sum "Si O2"
_cell_formula_units_Z 20
_cell_length_a 7.668767
_cell_length_b 6.098192
_cell_length_c 19.595885
_cell_angle_alpha 90.000000
_cell_angle_beta 115.864796
_cell_angle_gamma 90.000000
_cell_volume 824.612763
_symmetry_space_group_name_H-M "P 2/C"
_symmetry_group_IT_number 13
_symmetry_cell_setting 'monoclinic'
loop_
_space_group_symop_operation_xyz
x,y,z
-x,y,1/2-z
-x,-y,-z
x,-y,1/2+z
loop_
_atom_site_type_symbol
_atom_site_label
_atom_site_fract_x
_atom_site_fract_y
_atom_site_fract_z
Si Si1 0.183484 0.679970 0.704019
Si Si2 0.246468 0.479820 0.849984
Si Si3 0.347557 0.803940 0.981925
Si Si4 0.023604 0.082530 0.862500
Si Si5 0.183840 0.573434 0.077055
O O1 0.302547 0.559985 0.783982
O O2 0.249716 0.621916 0.638678
O O3 0.969610 0.577461 0.675547
O O4 0.132059 0.935449 0.705142
O O5 0.363148 0.614117 0.927370
O O6 0.190614 0.224698 0.852243
O O7 0.141811 0.922024 0.932773
O O8 0.338169 0.687214 0.053706
O O9 0.500000 0.000000 0.000000
O O10 0.897287 0.243224 0.886386
O O11 0.000000 0.500000 0.000000
#
# Coordination Sequence:
#
# PCOD9228972 Si02
#       5
#     4   4   4   4   4
#     4   9  19  32  59  86 117 153 205 269 316 374
#     4   9  19  35  53  90 118 153 209 256 322 388
#     4  11  23  36  56  89 125 161 206 263 327 385
#     4  10  19  36  63  82 121 157 204 262 323 374
#     4  11  19  36  57  93 115 151 219 263 312 387
#
# _framework density 24.253809
#
# number of rings (size 3 to 8) (size 9 to 14) (size 15 to 20)
#    0.000    2.000    6.000    0.600    0.000   13.600 
#    0.000    0.000    0.000    7.200    0.000    0.000 
#    0.000    0.000    0.000    0.000    0.000    0.000 
#
# Total GULP energy -111568.544167 kJ/mol
# GULP energy per Si atom -5578.427208 kJ/mol
# Density = 2.419861 g / cm^3
# Si number density = 24.253809 Si / 1000 Ang^3
#
#
#
# Elastic Constant Matrix: (Units=GPa)
#
#
# Indices 1 2 3 4 5 6 
#
# 1 78.4987 38.4499 32.8681 0.0000 -9.2493 0.0000
# 2 38.4499 149.8840 72.8005 0.0000 -25.4580 0.0000
# 3 32.8681 72.8005 145.3838 0.0000 -38.9125 0.0000
# 4 0.0000 0.0000 0.0000 40.5739 0.0000 -2.2892
# 5 -9.2493 -25.4580 -38.9125 0.0000 29.3876 0.0000
# 6 0.0000 0.0000 0.0000 -2.2892 0.0000 39.7595
#
#
#
# Elastic Compliance Matrix: (Units=1/GPa)
#
#
# Indices 1 2 3 4 5 6 
#
# 1 0.014975 -0.002933 -0.002068 0.000000 -0.000567 0.000000
# 2 -0.002933 0.009539 -0.003329 0.000000 0.002933 0.000000
# 3 -0.002068 -0.003329 0.012495 0.000000 0.013010 0.000000
# 4 0.000000 0.000000 0.000000 0.024727 0.000000 0.001424
# 5 -0.000567 0.002933 0.013010 0.000000 0.053618 0.000000
# 6 0.000000 0.000000 0.000000 0.001424 0.000000 0.025233
#
#
# Mechanical properties :
#
#
# Convention : Reuss Voigt Hill
#
# Bulk Modulus (GPa) = 49.14239 73.55594 61.34917
# Shear Modulus (GPa) = 30.48223 37.25408 33.86815
#
# Velocity S-wave (km/s) = 3.54899 3.92345 3.74091
# Velocity P-wave (km/s) = 6.09093 7.13569 6.63391
#
# Compressibility (1/GPa) = 0.02034903
#
# Stress axis : x y z
#
# Youngs Moduli (GPa) = 66.77765 104.83093 80.03209
#
# Poissons Ratio (x) = 0.30749 0.16554
# Poissons Ratio (y) = 0.19587 0.26639
# Poissons Ratio (z) = 0.13812 0.34893
#
# Static dielectric constant tensor:
#      x y z
#    x 1.985810 0.000000 0.015890 
#    y 0.000000 2.025060 0.000000 
#    z 0.015890 0.000000 2.045880 
# 
# From -- ./inp_files/74631.got.cif
#   From: 2010.05.17/outbox.cif.g08.bks.cpg/sg13_38_cif.got.tgz:74631.got - 2010.06.03 16:44:36.
