data_PCOD9228893
_publ_section_title
;
Structure prediction by ZEFSAII (Michael W. Deem and Ramdas Pophale) SiO2 
 PCOD9228893
Probable space group: P 2/C
;
_chemical_formula_sum "Si O2"
_cell_formula_units_Z 18
_cell_length_a 7.426938
_cell_length_b 7.134820
_cell_length_c 17.614515
_cell_angle_alpha 90.000000
_cell_angle_beta 112.678869
_cell_angle_gamma 90.000000
_cell_volume 861.221338
_symmetry_space_group_name_H-M "P 2/C"
_symmetry_group_IT_number 13
_symmetry_cell_setting 'monoclinic'
loop_
_space_group_symop_operation_xyz
x,y,z
-x,y,1/2-z
-x,-y,-z
x,-y,1/2+z
loop_
_atom_site_type_symbol
_atom_site_label
_atom_site_fract_x
_atom_site_fract_y
_atom_site_fract_z
Si Si1 0.570177 0.455872 0.426838
Si Si2 0.264575 0.139300 0.577520
Si Si3 0.500000 0.140415 0.750000
Si Si4 0.187449 0.152949 0.956810
Si Si5 0.777902 0.618738 0.194433
O O1 0.500000 0.500000 0.500000
O O2 0.674113 0.644256 0.414942
O O3 0.723883 0.290943 0.464178
O O4 0.368921 0.445859 0.346613
O O5 0.406184 0.040932 0.661988
O O6 0.043037 0.130162 0.569387
O O7 0.278894 0.046271 0.496492
O O8 0.676260 0.265608 0.745164
O O9 0.224014 0.244749 0.880546
O O10 0.000000 0.568891 0.250000
#
# Coordination Sequence:
#
# PCOD9228893 Si02
#       5
#     4   4   2   4   4
#     4   9  20  34  57  83 111 149 191 236 283 340
#     4  10  20  36  61  87 116 154 194 238 289 342
#     4  10  20  34  58  88 116 156 188 240 294 342
#     4  10  20  37  63  85 115 154 196 239 284 349
#     4  10  19  36  59  86 119 154 194 237 293 342
#
# _framework density 20.900549999999999
#
# number of rings (size 3 to 8) (size 9 to 14) (size 15 to 20)
#    0.000    2.222    2.222    0.667    0.000    8.000 
#    0.000    4.444    9.778    2.667    0.000    0.000 
#    0.000    0.000    0.000    0.000    0.000    0.000 
#
# Total GULP energy -100234.524808 kJ/mol
# GULP energy per Si atom -5568.584712 kJ/mol
# Density = 2.085298 g / cm^3
# Si number density = 20.900550 Si / 1000 Ang^3
#
#
#
# Elastic Constant Matrix: (Units=GPa)
#
#
# Indices 1 2 3 4 5 6 
#
# 1 68.5412 -2.1475 33.0878 0.0000 13.5815 0.0000
# 2 -2.1475 35.8957 26.8893 0.0000 9.1424 0.0000
# 3 33.0878 26.8893 134.0660 0.0000 26.3570 0.0000
# 4 0.0000 0.0000 0.0000 25.9442 0.0000 -2.6408
# 5 13.5815 9.1424 26.3570 0.0000 48.9448 0.0000
# 6 0.0000 0.0000 0.0000 -2.6408 0.0000 9.6846
#
#
#
# Elastic Compliance Matrix: (Units=1/GPa)
#
#
# Indices 1 2 3 4 5 6 
#
# 1 0.017763 0.005540 -0.004834 0.000000 -0.003360 0.000000
# 2 0.005540 0.034881 -0.007583 0.000000 -0.003969 0.000000
# 3 -0.004834 -0.007583 0.010771 0.000000 -0.003042 0.000000
# 4 0.000000 0.000000 0.000000 0.039645 0.000000 0.010810
# 5 -0.003360 -0.003969 -0.003042 0.000000 0.023743 0.000000
# 6 0.000000 0.000000 0.000000 0.010810 0.000000 0.106205
#
#
# Mechanical properties :
#
#
# Convention : Reuss Voigt Hill
#
# Bulk Modulus (GPa) = 20.13669 39.35138 29.74403
# Shear Modulus (GPa) = 18.98855 28.95960 23.97408
#
# Velocity S-wave (km/s) = 3.01744 3.72639 3.39049
# Velocity P-wave (km/s) = 4.66855 6.11420 5.43961
#
# Compressibility (1/GPa) = 0.04966059
#
# Stress axis : x y z
#
# Youngs Moduli (GPa) = 56.29675 28.66872 92.84019
#
# Poissons Ratio (x) = -0.15883 0.44883
# Poissons Ratio (y) = -0.31189 0.70401
# Poissons Ratio (z) = 0.27216 0.21739
#
# Static dielectric constant tensor:
#      x y z
#    x 1.757510 0.000000 0.003740 
#    y 0.000000 1.786380 0.000000 
#    z 0.003740 0.000000 1.831240 
# 
# From -- ./inp_files/62117.got.cif
#   From: 2010.05.17/outbox.cif.g08.bks.cpg/sg13_32_cif.got.tgz:62117.got - 2010.06.03 16:44:36.
