data_PCOD9228742
_publ_section_title
;
Structure prediction by ZEFSAII (Michael W. Deem and Ramdas Pophale) SiO2 
 PCOD9228742
Probable space group: P 2/C
;
_chemical_formula_sum "Si O2"
_cell_formula_units_Z 26
_cell_length_a 9.609763
_cell_length_b 11.398823
_cell_length_c 13.559279
_cell_angle_alpha 90.000000
_cell_angle_beta 59.507693
_cell_angle_gamma 90.000000
_cell_volume 1279.864567
_symmetry_space_group_name_H-M "P 2/C"
_symmetry_group_IT_number 13
_symmetry_cell_setting 'monoclinic'
loop_
_space_group_symop_operation_xyz
x,y,z
-x,y,1/2-z
-x,-y,-z
x,-y,1/2+z
loop_
_atom_site_type_symbol
_atom_site_label
_atom_site_fract_x
_atom_site_fract_y
_atom_site_fract_z
Si Si1 0.260567 0.666814 0.473996
Si Si2 0.613287 0.653930 0.856907
Si Si3 0.500000 0.538807 0.250000
Si Si4 0.480643 0.913015 0.598600
Si Si5 0.666014 0.099304 0.637254
Si Si6 0.941281 0.261529 0.156570
Si Si7 0.877378 0.010820 0.205849
O O1 0.325524 0.621127 0.555646
O O2 0.349690 0.614481 0.346449
O O3 0.301431 0.806337 0.458513
O O4 0.066657 0.662704 0.548455
O O5 0.536020 0.545191 0.829432
O O6 0.507119 0.772628 0.908390
O O7 0.761828 0.689549 0.731173
O O8 0.294957 0.940844 0.693291
O O9 0.500000 0.000000 0.500000
O O10 0.617936 0.968445 0.619908
O O11 0.500000 0.138206 0.750000
O O12 0.818187 0.091801 0.655355
O O13 0.947577 0.124607 0.124978
O O14 0.000000 0.260997 0.250000
O O15 0.000000 0.979045 0.250000
#
# Coordination Sequence:
#
# PCOD9228742 Si02
#       7
#     4   4   2   4   4   4   4
#     4  11  21  41  60  88 121 166 207 258 311 368
#     4  10  22  40  62  89 120 156 212 263 309 370
#     4  12  26  38  64  88 118 170 220 258 302 372
#     4  10  19  35  61  91 121 156 198 257 322 375
#     4  10  20  34  60  89 128 161 197 250 319 379
#     4   8  18  36  60  83 119 161 198 249 314 366
#     4   9  19  34  53  89 128 162 198 247 311 385
#
# _framework density 20.314651000000001
#
# number of rings (size 3 to 8) (size 9 to 14) (size 15 to 20)
#    0.000    2.154    2.308    1.385    5.385    1.231 
#    0.000    0.000    0.000    2.769    0.000    0.000 
#    0.000    0.000    0.000    0.000    0.000    0.000 
#
# Total GULP energy -144747.424793 kJ/mol
# GULP energy per Si atom -5567.208646 kJ/mol
# Density = 2.026841 g / cm^3
# Si number density = 20.314651 Si / 1000 Ang^3
#
#
#
# Elastic Constant Matrix: (Units=GPa)
#
#
# Indices 1 2 3 4 5 6 
#
# 1 88.8559 22.1823 13.1478 0.0000 8.6928 0.0000
# 2 22.1823 68.8617 30.4149 0.0000 -5.8329 0.0000
# 3 13.1478 30.4149 95.6798 0.0000 -8.7991 0.0000
# 4 0.0000 0.0000 0.0000 25.8829 0.0000 4.4452
# 5 8.6928 -5.8329 -8.7991 0.0000 23.9381 0.0000
# 6 0.0000 0.0000 0.0000 4.4452 0.0000 15.4072
#
#
#
# Elastic Compliance Matrix: (Units=1/GPa)
#
#
# Indices 1 2 3 4 5 6 
#
# 1 0.013077 -0.004293 -0.000999 0.000000 -0.006162 0.000000
# 2 -0.004293 0.018418 -0.004873 0.000000 0.004255 0.000000
# 3 -0.000999 -0.004873 0.012484 0.000000 0.003764 0.000000
# 4 0.000000 0.000000 0.000000 0.040650 0.000000 -0.011728
# 5 -0.006162 0.004255 0.003764 0.000000 0.046432 0.000000
# 6 0.000000 0.000000 0.000000 -0.011728 0.000000 0.068289
#
#
# Mechanical properties :
#
#
# Convention : Reuss Voigt Hill
#
# Bulk Modulus (GPa) = 42.28747 42.76530 42.52638
# Shear Modulus (GPa) = 21.97200 25.55580 23.76390
#
# Velocity S-wave (km/s) = 3.29231 3.55068 3.42393
# Velocity P-wave (km/s) = 5.94255 6.15686 6.05065
#
# Compressibility (1/GPa) = 0.02364767
#
# Stress axis : x y z
#
# Youngs Moduli (GPa) = 76.47298 54.29560 80.10181
#
# Poissons Ratio (x) = 0.23309 0.08001
# Poissons Ratio (y) = 0.32830 0.39037
# Poissons Ratio (z) = 0.07639 0.26460
#
# Static dielectric constant tensor:
#      x y z
#    x 1.781650 0.000000 0.029440 
#    y 0.000000 1.754100 0.000000 
#    z 0.029440 0.000000 1.800240 
# 
# From -- ./inp_files/46791.got.cif
#   From: 2010.05.17/outbox.cif.g08.bks.cpg/sg13_24_cif.got.tgz:46791.got - 2010.06.03 16:44:36.
