data_PCOD9228676
_publ_section_title
;
Structure prediction by ZEFSAII (Michael W. Deem and Ramdas Pophale) SiO2 
 PCOD9228676
Probable space group: P 2/C
;
_chemical_formula_sum "Si O2"
_cell_formula_units_Z 28
_cell_length_a 9.330345
_cell_length_b 11.596243
_cell_length_c 15.753346
_cell_angle_alpha 90.000000
_cell_angle_beta 118.337089
_cell_angle_gamma 90.000000
_cell_volume 1500.218517
_symmetry_space_group_name_H-M "P 2/C"
_symmetry_group_IT_number 13
_symmetry_cell_setting 'monoclinic'
loop_
_space_group_symop_operation_xyz
x,y,z
-x,y,1/2-z
-x,-y,-z
x,-y,1/2+z
loop_
_atom_site_type_symbol
_atom_site_label
_atom_site_fract_x
_atom_site_fract_y
_atom_site_fract_z
Si Si1 0.115155 0.027375 0.856222
Si Si2 0.183468 0.437299 0.785035
Si Si3 0.142772 0.567076 0.086548
Si Si4 0.665623 0.804446 0.178366
Si Si5 0.342707 0.579667 0.972697
Si Si6 0.669254 0.157936 0.003708
Si Si7 0.129094 0.830909 0.104585
O O1 0.192468 0.141804 0.838324
O O2 0.000000 0.975350 0.750000
O O3 0.002563 0.076431 0.900659
O O4 0.266228 0.943364 0.918287
O O5 0.192903 0.485510 0.691466
O O6 0.314359 0.333175 0.824509
O O7 0.216196 0.527075 0.869386
O O8 0.000000 0.393228 0.750000
O O9 0.081091 0.695783 0.093982
O O10 0.283865 0.572423 0.054603
O O11 0.000000 0.500000 0.000000
O O12 0.715891 0.837514 0.288088
O O13 0.497440 0.853509 0.095965
O O14 0.352874 0.716930 0.959366
O O15 0.500000 0.500000 0.000000
O O16 0.812767 0.156031 0.974589
#
# Coordination Sequence:
#
# PCOD9228676 Si02
#       7
#     4   4   4   4   4   4   4
#     4  10  21  37  57  84 114 152 194 239 295 360
#     4  11  20  36  62  84 118 159 198 249 303 357
#     4  10  20  35  58  89 115 153 204 242 293 365
#     4  10  19  35  59  83 108 146 199 243 289 346
#     4  11  23  37  56  87 122 155 195 249 301 365
#     4  11  21  36  57  85 115 151 192 244 298 348
#     4   9  20  35  57  83 113 147 195 246 286 344
#
# _framework density 18.663948999999999
#
# number of rings (size 3 to 8) (size 9 to 14) (size 15 to 20)
#    0.000    1.714    2.857    3.429    0.000    1.143 
#    0.000    0.000    0.000    0.000    7.429    0.000 
#    0.000    0.000    0.000    0.000    0.000    0.000 
#
# Total GULP energy -155904.374335 kJ/mol
# GULP energy per Si atom -5568.013369 kJ/mol
# Density = 1.862147 g / cm^3
# Si number density = 18.663949 Si / 1000 Ang^3
#
#
#
# Elastic Constant Matrix: (Units=GPa)
#
#
# Indices 1 2 3 4 5 6 
#
# 1 57.2116 27.3822 18.9799 0.0000 -2.7469 0.0000
# 2 27.3822 82.3158 47.0604 0.0000 8.4980 0.0000
# 3 18.9799 47.0604 94.4099 0.0000 1.8108 0.0000
# 4 0.0000 0.0000 0.0000 28.5517 0.0000 6.7268
# 5 -2.7469 8.4980 1.8108 0.0000 36.8330 0.0000
# 6 0.0000 0.0000 0.0000 6.7268 0.0000 26.5474
#
#
#
# Elastic Compliance Matrix: (Units=1/GPa)
#
#
# Indices 1 2 3 4 5 6 
#
# 1 0.021223 -0.006877 -0.000900 0.000000 0.003214 0.000000
# 2 -0.006877 0.019683 -0.008340 0.000000 -0.004644 0.000000
# 3 -0.000900 -0.008340 0.014909 0.000000 0.001124 0.000000
# 4 0.000000 0.000000 0.000000 0.037248 0.000000 -0.009438
# 5 0.003214 -0.004644 0.001124 0.000000 0.028405 0.000000
# 6 0.000000 0.000000 0.000000 -0.009438 0.000000 0.040060
#
#
# Mechanical properties :
#
#
# Convention : Reuss Voigt Hill
#
# Bulk Modulus (GPa) = 42.40705 46.75357 44.58031
# Shear Modulus (GPa) = 24.79868 27.75406 26.27637
#
# Velocity S-wave (km/s) = 3.64908 3.86040 3.75623
# Velocity P-wave (km/s) = 6.36593 6.70633 6.53835
#
# Compressibility (1/GPa) = 0.02358098
#
# Stress axis : x y z
#
# Youngs Moduli (GPa) = 47.11789 50.80433 67.07464
#
# Poissons Ratio (x) = 0.34938 0.06039
# Poissons Ratio (y) = 0.32403 0.55940
# Poissons Ratio (z) = 0.04242 0.42371
#
# Static dielectric constant tensor:
#      x y z
#    x 1.682960 0.000000 -0.000860 
#    y 0.000000 1.655090 0.000000 
#    z -0.000860 0.000000 1.706860 
# 
# From -- ./inp_files/46969.got.cif
#   From: 2010.05.17/outbox.cif.g08.bks.cpg/sg13_24_cif.got.tgz:46969.got - 2010.06.03 16:44:36.
