data_PCOD9228172
_publ_section_title
;
Structure prediction by ZEFSAII (Michael W. Deem and Ramdas Pophale) SiO2 
 PCOD9228172
Probable space group: P 2/C
;
_chemical_formula_sum "Si O2"
_cell_formula_units_Z 24
_cell_length_a 24.219678
_cell_length_b 11.329355
_cell_length_c 9.989167
_cell_angle_alpha 90.000000
_cell_angle_beta 149.035599
_cell_angle_gamma 90.000000
_cell_volume 1410.239133
_symmetry_space_group_name_H-M "P 2/C"
_symmetry_group_IT_number 13
_symmetry_cell_setting 'monoclinic'
loop_
_space_group_symop_operation_xyz
x,y,z
-x,y,1/2-z
-x,-y,-z
x,-y,1/2+z
loop_
_atom_site_type_symbol
_atom_site_label
_atom_site_fract_x
_atom_site_fract_y
_atom_site_fract_z
Si Si1 0.167879 0.271490 0.567873
Si Si2 0.128602 0.243721 0.799422
Si Si3 0.074486 0.885576 0.644259
Si Si4 0.277369 0.976332 0.563222
Si Si5 0.078052 0.517878 0.288628
Si Si6 0.375985 0.870374 0.504271
O O1 0.127737 0.264937 0.636966
O O2 0.109328 0.170722 0.358351
O O3 0.141410 0.397629 0.450134
O O4 0.293227 0.238781 0.825105
O O5 0.152202 0.368276 0.916878
O O6 0.007744 0.206861 0.591910
O O7 0.211402 0.135493 0.987503
O O8 0.000000 0.000000 0.500000
O O9 0.185870 0.933431 0.815915
O O10 0.349286 0.932001 0.590522
O O11 0.342680 0.042009 0.814499
O O12 0.000000 0.539562 0.250000
O O13 0.000000 0.500000 0.000000
O O14 0.500000 0.838698 0.750000
#
# Coordination Sequence:
#
# PCOD9228172 Si02
#       6
#     4   4   4   4   4   4
#     4  10  19  34  52  74 105 140 180 213 257 310
#     4  10  19  33  51  76 111 142 166 207 260 315
#     4   9  16  28  48  75 106 137 164 200 257 319
#     4   9  20  33  54  79 105 132 171 217 262 316
#     4  12  21  33  54  78 109 145 176 208 252 316
#     4  10  20  37  58  75  99 136 178 223 267 307
#
# _framework density 17.01839
#
# number of rings (size 3 to 8) (size 9 to 14) (size 15 to 20)
#    0.000    2.000    3.333    1.000    0.000    2.667 
#    0.000    5.000    0.000    5.000    0.000    0.000 
#    0.000    0.000    0.000    0.000    0.000    0.000 
#
# Total GULP energy -133776.052729 kJ/mol
# GULP energy per Si atom -5574.002197 kJ/mol
# Density = 1.697966 g / cm^3
# Si number density = 17.018390 Si / 1000 Ang^3
#
#
#
# Elastic Constant Matrix: (Units=GPa)
#
#
# Indices 1 2 3 4 5 6 
#
# 1 86.0481 32.2933 37.9108 0.0000 12.8986 0.0000
# 2 32.2933 107.2263 39.7849 0.0000 6.4118 0.0000
# 3 37.9108 39.7849 75.2956 0.0000 18.2734 0.0000
# 4 0.0000 0.0000 0.0000 20.6219 0.0000 -3.2208
# 5 12.8986 6.4118 18.2734 0.0000 27.9774 0.0000
# 6 0.0000 0.0000 0.0000 -3.2208 0.0000 20.3860
#
#
#
# Elastic Compliance Matrix: (Units=1/GPa)
#
#
# Indices 1 2 3 4 5 6 
#
# 1 0.015509 -0.002310 -0.005920 0.000000 -0.002754 0.000000
# 2 -0.002310 0.012005 -0.005670 0.000000 0.002017 0.000000
# 3 -0.005920 -0.005670 0.021723 0.000000 -0.010160 0.000000
# 4 0.000000 0.000000 0.000000 0.049719 0.000000 0.007855
# 5 -0.002754 0.002017 -0.010160 0.000000 0.043187 0.000000
# 6 0.000000 0.000000 0.000000 0.007855 0.000000 0.050294
#
#
# Mechanical properties :
#
#
# Convention : Reuss Voigt Hill
#
# Bulk Modulus (GPa) = 46.64502 54.28311 50.46406
# Shear Modulus (GPa) = 21.98945 24.36912 23.17929
#
# Velocity S-wave (km/s) = 3.59848 3.78819 3.69455
# Velocity P-wave (km/s) = 6.68831 7.14841 6.92219
#
# Compressibility (1/GPa) = 0.02143852
#
# Stress axis : x y z
#
# Youngs Moduli (GPa) = 64.47748 83.30050 46.03406
#
# Poissons Ratio (x) = 0.19240 0.27252
# Poissons Ratio (y) = 0.14892 0.26100
# Poissons Ratio (z) = 0.38170 0.47228
#
# Static dielectric constant tensor:
#      x y z
#    x 1.572020 0.000000 0.001210 
#    y 0.000000 1.603900 0.000000 
#    z 0.001210 0.000000 1.567200 
# 
# From -- ./inp_files/15872.got.cif
#   From: 2010.05.17/outbox.cif.g08.bks.cpg/sg13_8_cif.got.tgz:15872.got - 2010.06.03 16:44:36.
