data_PCOD9228041
_publ_section_title
;
Structure prediction by ZEFSAII (Michael W. Deem and Ramdas Pophale) SiO2 
 PCOD9228041
Probable space group: P 2/C
;
_chemical_formula_sum "Si O2"
_cell_formula_units_Z 24
_cell_length_a 24.127733
_cell_length_b 5.136561
_cell_length_c 22.320163
_cell_angle_alpha 90.000000
_cell_angle_beta 153.100312
_cell_angle_gamma 90.000000
_cell_volume 1251.519393
_symmetry_space_group_name_H-M "P 2/C"
_symmetry_group_IT_number 13
_symmetry_cell_setting 'monoclinic'
loop_
_space_group_symop_operation_xyz
x,y,z
-x,y,1/2-z
-x,-y,-z
x,-y,1/2+z
loop_
_atom_site_type_symbol
_atom_site_label
_atom_site_fract_x
_atom_site_fract_y
_atom_site_fract_z
Si Si1 0.465772 0.211569 0.415457
Si Si2 0.086855 0.743759 0.695717
Si Si3 0.983613 0.240315 0.663567
Si Si4 0.863504 0.769457 0.403022
Si Si5 0.701068 0.526294 0.152552
Si Si6 0.765477 0.262638 0.372052
O O1 0.379624 0.406268 0.371192
O O2 0.595482 0.316499 0.517344
O O3 0.375201 0.172235 0.271696
O O4 0.500000 0.000000 0.500000
O O5 0.037788 0.507163 0.689176
O O6 0.227342 0.690520 0.815256
O O7 0.005622 0.737208 0.556233
O O8 0.054736 0.006658 0.699131
O O9 0.000000 0.226590 0.750000
O O10 0.840846 0.221832 0.505787
O O11 0.807264 0.704354 0.284293
O O12 0.795306 0.559213 0.380821
O O13 0.830019 0.061995 0.388360
#
# Coordination Sequence:
#
# PCOD9228041 Si02
#       6
#     4   4   4   4   4   4
#     4  10  19  32  50  75 112 145 174 197 249 319
#     4  10  21  33  55  81 105 135 172 221 271 314
#     4  10  21  38  57  78 100 133 179 231 277 304
#     4   9  17  31  48  76 111 133 164 205 262 319
#     4  10  20  31  49  79 111 145 170 207 251 322
#     4   9  18  32  51  76 101 138 173 210 255 313
#
# _framework density 19.176691999999999
#
# number of rings (size 3 to 8) (size 9 to 14) (size 15 to 20)
#    0.000    2.333    1.667    1.000    2.333    0.000 
#    0.000    6.667    0.000    1.000    0.000    0.000 
#    0.000    0.000    0.000    0.000    0.000    0.000 
#
# Total GULP energy -133690.573077 kJ/mol
# GULP energy per Si atom -5570.440545 kJ/mol
# Density = 1.913305 g / cm^3
# Si number density = 19.176692 Si / 1000 Ang^3
#
#
#
# Elastic Constant Matrix: (Units=GPa)
#
#
# Indices 1 2 3 4 5 6 
#
# 1 52.3239 16.7306 53.0046 0.0000 -9.6861 0.0000
# 2 16.7306 70.0375 12.2561 0.0000 -2.6319 0.0000
# 3 53.0046 12.2561 154.5214 0.0000 -3.2338 0.0000
# 4 0.0000 0.0000 0.0000 27.8763 0.0000 1.4639
# 5 -9.6861 -2.6319 -3.2338 0.0000 28.8103 0.0000
# 6 0.0000 0.0000 0.0000 1.4639 0.0000 16.2775
#
#
#
# Elastic Compliance Matrix: (Units=1/GPa)
#
#
# Indices 1 2 3 4 5 6 
#
# 1 0.033835 -0.005806 -0.010945 0.000000 0.009617 0.000000
# 2 -0.005806 0.015517 0.000751 0.000000 -0.000450 0.000000
# 3 -0.010945 0.000751 0.010114 0.000000 -0.002476 0.000000
# 4 0.000000 0.000000 0.000000 0.036043 0.000000 -0.003242
# 5 0.009617 -0.000450 -0.002476 0.000000 0.037624 0.000000
# 6 0.000000 0.000000 0.000000 -0.003242 0.000000 0.061726
#
#
# Mechanical properties :
#
#
# Convention : Reuss Voigt Hill
#
# Bulk Modulus (GPa) = 36.40582 48.98505 42.69543
# Shear Modulus (GPa) = 21.18520 27.58559 24.38540
#
# Velocity S-wave (km/s) = 3.32736 3.79687 3.56984
# Velocity P-wave (km/s) = 5.81270 6.69486 6.26931
#
# Compressibility (1/GPa) = 0.02746814
#
# Stress axis : x y z
#
# Youngs Moduli (GPa) = 29.55479 64.44712 98.86835
#
# Poissons Ratio (x) = 0.37418 1.08208
# Poissons Ratio (y) = 0.17160 -0.07430
# Poissons Ratio (z) = 0.32347 -0.04843
#
# Static dielectric constant tensor:
#      x y z
#    x 1.620290 0.000000 -0.012540 
#    y 0.000000 1.743690 0.000000 
#    z -0.012540 0.000000 1.786980 
# 
# From -- ./inp_files/77032.got.cif
#   From: 2010.05.17/outbox.cif.g08.bks.cpg/sg13_39_cif.got.tgz:77032.got - 2010.06.03 16:44:36.
