data_PCOD9228740
_publ_section_title
;
Structure prediction by ZEFSAII (Michael W. Deem and Ramdas Pophale) SiO2 
 PCOD9228740
Probable space group: P 2/C
;
_chemical_formula_sum "Si O2"
_cell_formula_units_Z 28
_cell_length_a 9.314172
_cell_length_b 9.733265
_cell_length_c 26.362332
_cell_angle_alpha 90.000000
_cell_angle_beta 140.075502
_cell_angle_gamma 90.000000
_cell_volume 1533.808622
_symmetry_space_group_name_H-M "P 2/C"
_symmetry_group_IT_number 13
_symmetry_cell_setting 'monoclinic'
loop_
_space_group_symop_operation_xyz
x,y,z
-x,y,1/2-z
-x,-y,-z
x,-y,1/2+z
loop_
_atom_site_type_symbol
_atom_site_label
_atom_site_fract_x
_atom_site_fract_y
_atom_site_fract_z
Si Si1 0.935614 0.779466 0.150891
Si Si2 0.427034 0.957189 0.671937
Si Si3 0.298871 0.550355 0.480470
Si Si4 0.921907 0.988674 0.059005
Si Si5 0.282217 0.249053 0.061509
Si Si6 0.638543 0.795447 0.170666
Si Si7 0.174690 0.288032 0.504615
O O1 0.850121 0.657743 0.091520
O O2 0.943889 0.919348 0.120064
O O3 0.763620 0.801583 0.150557
O O4 0.175850 0.741007 0.239678
O O5 0.500000 0.958652 0.750000
O O6 0.425328 0.805559 0.647383
O O7 0.570386 0.058283 0.676007
O O8 0.169817 0.009805 0.601944
O O9 0.500000 0.500000 0.500000
O O10 0.379662 0.634338 0.551983
O O11 0.172355 0.416775 0.466599
O O12 0.763237 0.886468 0.984791
O O13 0.837178 0.144344 0.029916
O O14 0.039494 0.293631 0.016779
O O15 0.407367 0.714567 0.098854
#
# Coordination Sequence:
#
# PCOD9228740 Si02
#       7
#     4   4   4   4   4   4   4
#     4  10  23  37  57  89 121 154 202 248 297 361
#     4  11  19  35  61  90 119 150 190 253 309 342
#     4  11  23  40  59  85 120 165 201 242 296 358
#     4  10  19  35  61  90 115 146 199 250 295 355
#     4  10  21  37  59  90 119 148 201 249 292 361
#     4  11  20  36  61  85 119 154 198 246 302 348
#     4  11  20  37  61  87 119 157 197 247 296 354
#
# _framework density 18.255212
#
# number of rings (size 3 to 8) (size 9 to 14) (size 15 to 20)
#    0.000    1.429    5.714    1.286    0.000    1.714 
#    0.000    2.857    0.000    0.000    0.000    0.000 
#    0.000    0.000    0.000    0.000    0.000    0.000 
#
# Total GULP energy -156186.675418 kJ/mol
# GULP energy per Si atom -5578.095551 kJ/mol
# Density = 1.821366 g / cm^3
# Si number density = 18.255212 Si / 1000 Ang^3
#
#
#
# Elastic Constant Matrix: (Units=GPa)
#
#
# Indices 1 2 3 4 5 6 
#
# 1 73.1648 44.9547 23.0170 0.0000 -12.0730 0.0000
# 2 44.9547 107.7717 22.6231 0.0000 -10.8365 0.0000
# 3 23.0170 22.6231 73.1982 0.0000 -4.9287 0.0000
# 4 0.0000 0.0000 0.0000 19.9122 0.0000 -5.8171
# 5 -12.0730 -10.8365 -4.9287 0.0000 26.7231 0.0000
# 6 0.0000 0.0000 0.0000 -5.8171 0.0000 30.6297
#
#
#
# Elastic Compliance Matrix: (Units=1/GPa)
#
#
# Indices 1 2 3 4 5 6 
#
# 1 0.020086 -0.007031 -0.003771 0.000000 0.005528 0.000000
# 2 -0.007031 0.012718 -0.001606 0.000000 0.001685 0.000000
# 3 -0.003771 -0.001606 0.015376 0.000000 0.000481 0.000000
# 4 0.000000 0.000000 0.000000 0.053170 0.000000 0.010098
# 5 0.005528 0.001685 0.000481 0.000000 0.040690 0.000000
# 6 0.000000 0.000000 0.000000 0.010098 0.000000 0.034566
#
#
# Mechanical properties :
#
#
# Convention : Reuss Voigt Hill
#
# Bulk Modulus (GPa) = 42.80088 48.36939 45.58513
# Shear Modulus (GPa) = 23.89918 26.35566 25.12742
#
# Velocity S-wave (km/s) = 3.62217 3.80377 3.71408
# Velocity P-wave (km/s) = 6.40236 6.77092 6.58922
#
# Compressibility (1/GPa) = 0.02336401
#
# Stress axis : x y z
#
# Youngs Moduli (GPa) = 49.78490 78.62608 65.03584
#
# Poissons Ratio (x) = 0.55284 0.24524
# Poissons Ratio (y) = 0.35005 0.10448
# Poissons Ratio (z) = 0.18773 0.12631
#
# Static dielectric constant tensor:
#      x y z
#    x 1.628910 0.000000 -0.016160 
#    y 0.000000 1.629670 0.000000 
#    z -0.016160 0.000000 1.662150 
# 
# From -- ./inp_files/91462.got.cif
#   From: 2010.05.17/outbox.cif.g08.bks.cpg/sg13_46_cif.got.tgz:91462.got - 2010.06.03 16:44:36.
