data_PCOD9228571
_publ_section_title
;
Structure prediction by ZEFSAII (Michael W. Deem and Ramdas Pophale) SiO2 
 PCOD9228571
Probable space group: P 2/C
;
_chemical_formula_sum "Si O2"
_cell_formula_units_Z 18
_cell_length_a 10.912074
_cell_length_b 17.882817
_cell_length_c 5.382813
_cell_angle_alpha 90.000000
_cell_angle_beta 127.225474
_cell_angle_gamma 90.000000
_cell_volume 836.388378
_symmetry_space_group_name_H-M "P 2/C"
_symmetry_group_IT_number 13
_symmetry_cell_setting 'monoclinic'
loop_
_space_group_symop_operation_xyz
x,y,z
-x,y,1/2-z
-x,-y,-z
x,-y,1/2+z
loop_
_atom_site_type_symbol
_atom_site_label
_atom_site_fract_x
_atom_site_fract_y
_atom_site_fract_z
Si Si1 0.500000 0.451089 0.250000
Si Si2 0.500000 0.224974 0.750000
Si Si3 0.706652 0.682648 0.133240
Si Si4 0.000000 0.261228 0.250000
Si Si5 0.209452 0.813340 0.627328
Si Si6 0.682687 0.954274 0.988124
O O1 0.500000 0.500000 0.500000
O O2 0.646597 0.395999 0.460620
O O3 0.429245 0.278179 0.875229
O O4 0.357436 0.174841 0.487784
O O5 0.858214 0.687196 0.490273
O O6 0.749616 0.737264 0.963212
O O7 0.062415 0.206861 0.110246
O O8 0.215446 0.881669 0.445681
O O9 0.500000 0.934639 0.750000
O O10 0.712495 0.010420 0.794013
#
# Coordination Sequence:
#
# PCOD9228571 Si02
#       6
#     2   2   4   2   4   4
#     4  12  27  46  76 113 142 174 224 288 357 422
#     4  10  19  34  70  99 124 170 242 288 337 392
#     4  11  22  44  69 103 135 182 229 289 339 420
#     4  10  26  40  72  96 142 178 256 274 348 402
#     4  11  22  40  67  98 132 188 239 296 337 419
#     4  10  23  38  61  99 142 183 233 300 363 408
#
# _framework density 21.521103
#
# number of rings (size 3 to 8) (size 9 to 14) (size 15 to 20)
#    0.000    1.333    2.222    2.667   14.000    0.000 
#    0.000    2.222    0.000    0.000    0.000    0.000 
#    0.000    0.000    0.000    0.000    0.000    0.000 
#
# Total GULP energy -100664.375164 kJ/mol
# GULP energy per Si atom -5592.465287 kJ/mol
# Density = 2.147212 g / cm^3
# Si number density = 21.521103 Si / 1000 Ang^3
#
#
#
# Elastic Constant Matrix: (Units=GPa)
#
#
# Indices 1 2 3 4 5 6 
#
# 1 166.1154 74.5791 39.4131 0.0000 -25.2593 0.0000
# 2 74.5791 136.3105 44.9935 0.0000 -10.5118 0.0000
# 3 39.4131 44.9935 96.8709 0.0000 9.1554 0.0000
# 4 0.0000 0.0000 0.0000 19.6044 0.0000 -33.1211
# 5 -25.2593 -10.5118 9.1554 0.0000 47.1112 0.0000
# 6 0.0000 0.0000 0.0000 -33.1211 0.0000 0.7782
#
#
#
# Elastic Compliance Matrix: (Units=1/GPa)
#
#
# Indices 1 2 3 4 5 6 
#
# 1 0.008933 -0.003794 -0.002287 0.000000 0.004387 0.000000
# 2 -0.003794 0.010645 -0.003497 0.000000 0.001020 0.000000
# 3 -0.002287 -0.003497 0.013312 0.000000 -0.004593 0.000000
# 4 0.000000 0.000000 0.000000 -0.000719 0.000000 -0.030618
# 5 0.004387 0.001020 -0.004593 0.000000 0.024699 0.000000
# 6 0.000000 0.000000 0.000000 -0.030618 0.000000 -0.018123
#
#
# Mechanical properties :
#
#
# Convention : Reuss Voigt Hill
#
# Bulk Modulus (GPa) = 72.81366 79.69649 76.25507
# Shear Modulus (GPa) = 80.02376 29.51949 54.77162
#
# Velocity S-wave (km/s) = 6.10447 3.70760 5.05029
# Velocity P-wave (km/s) = 9.14293 7.44584 8.33768
#
# Compressibility (1/GPa) = 0.01373369
#
# Stress axis : x y z
#
# Youngs Moduli (GPa) = 111.94233 93.93918 75.12118
#
# Poissons Ratio (x) = 0.35644 0.17179
# Poissons Ratio (y) = 0.42475 0.26270
# Poissons Ratio (z) = 0.25600 0.32851
#
# Static dielectric constant tensor:
#      x y z
#    x 1.765030 0.000000 -0.006900 
#    y 0.000000 1.748920 0.000000 
#    z -0.006900 0.000000 1.923250 
# 
# From -- ./inp_files/1350.got.cif
#   From: 2010.05.17/outbox.cif.g08.bks.cpg/sg13_1_cif.got.tgz:1350.got - 2010.06.03 16:44:36.
