data_PCOD9228250
_publ_section_title
;
Structure prediction by ZEFSAII (Michael W. Deem and Ramdas Pophale) SiO2 
 PCOD9228250
Probable space group: P 2/C
;
_chemical_formula_sum "Si O2"
_cell_formula_units_Z 30
_cell_length_a 12.411693
_cell_length_b 8.336677
_cell_length_c 24.841458
_cell_angle_alpha 90.000000
_cell_angle_beta 36.457617
_cell_angle_gamma 90.000000
_cell_volume 1527.404932
_symmetry_space_group_name_H-M "P 2/C"
_symmetry_group_IT_number 13
_symmetry_cell_setting 'monoclinic'
loop_
_space_group_symop_operation_xyz
x,y,z
-x,y,1/2-z
-x,-y,-z
x,-y,1/2+z
loop_
_atom_site_type_symbol
_atom_site_label
_atom_site_fract_x
_atom_site_fract_y
_atom_site_fract_z
Si Si1 0.469484 0.942508 0.203611
Si Si2 0.765207 0.257739 0.185652
Si Si3 0.443502 0.678749 0.407308
Si Si4 0.201490 0.552416 0.933894
Si Si5 0.635835 0.634215 0.852120
Si Si6 0.875617 0.131992 0.413638
Si Si7 0.701268 0.157567 0.035112
Si Si8 0.000000 0.237371 0.250000
O O1 0.500000 0.867643 0.250000
O O2 0.431894 0.807346 0.174214
O O3 0.673245 0.083432 0.227659
O O4 0.637981 0.039983 0.109356
O O5 0.721728 0.356690 0.149642
O O6 0.694701 0.354654 0.265700
O O7 0.977677 0.218880 0.106841
O O8 0.322769 0.590227 0.409559
O O9 0.549501 0.538931 0.395014
O O10 0.310372 0.771234 0.501519
O O11 0.200491 0.688364 0.980205
O O12 0.000000 0.500000 0.000000
O O13 0.481697 0.772788 0.919416
O O14 0.816648 0.664024 0.812886
O O15 0.958561 0.140914 0.320935
O O16 0.829777 0.950436 0.447362
#
# Coordination Sequence:
#
# PCOD9228250 Si02
#       8
#     4   4   4   4   4   4   4   2
#     4  10  19  33  54  83 121 165 193 228 277 350
#     4  10  20  36  55  84 126 160 198 231 286 355
#     4  10  22  35  57  89 121 155 199 239 296 363
#     4  11  20  34  57  90 128 164 188 234 294 355
#     4   9  21  39  60  87 114 155 196 252 299 350
#     4  10  21  40  59  85 114 157 205 250 299 352
#     4   9  20  36  58  86 124 152 196 241 287 355
#     4  10  22  42  68  80 112 158 200 264 320 344
#
# _framework density 19.641155999999999
#
# number of rings (size 3 to 8) (size 9 to 14) (size 15 to 20)
#    0.000    2.133    2.667    0.000    1.867    2.667 
#    0.000    0.000    0.000   16.000    0.000    0.000 
#    0.000    0.000    0.000    0.000    0.000    0.000 
#
# Total GULP energy -167311.853829 kJ/mol
# GULP energy per Si atom -5577.061794 kJ/mol
# Density = 1.959645 g / cm^3
# Si number density = 19.641156 Si / 1000 Ang^3
#
#
#
# Elastic Constant Matrix: (Units=GPa)
#
#
# Indices 1 2 3 4 5 6 
#
# 1 58.1488 2.9399 13.4796 0.0000 -5.9610 0.0000
# 2 2.9399 64.2681 22.0620 0.0000 6.4063 0.0000
# 3 13.4796 22.0620 62.1134 0.0000 0.1254 0.0000
# 4 0.0000 0.0000 0.0000 25.2077 0.0000 -1.4593
# 5 -5.9610 6.4063 0.1254 0.0000 23.7372 0.0000
# 6 0.0000 0.0000 0.0000 -1.4593 0.0000 -0.3859
#
#
#
# Elastic Compliance Matrix: (Units=1/GPa)
#
#
# Indices 1 2 3 4 5 6 
#
# 1 0.018618 0.000083 -0.004079 0.000000 0.004675 0.000000
# 2 0.000083 0.018273 -0.006498 0.000000 -0.004877 0.000000
# 3 -0.004079 -0.006498 0.019292 0.000000 0.000628 0.000000
# 4 0.000000 0.000000 0.000000 0.032546 0.000000 -0.123071
# 5 0.004675 -0.004877 0.000628 0.000000 0.044615 0.000000
# 6 0.000000 0.000000 0.000000 -0.123071 0.000000 -2.125886
#
#
# Mechanical properties :
#
#
# Convention : Reuss Voigt Hill
#
# Bulk Modulus (GPa) = 28.41503 29.05481 28.73492
# Shear Modulus (GPa) = -2.55125 19.44838 8.44856
#
# Velocity S-wave (km/s) = -1.14094 3.15013 2.07625
# Velocity P-wave (km/s) = 3.57251 5.29680 4.51768
#
# Compressibility (1/GPa) = 0.03519265
#
# Stress axis : x y z
#
# Youngs Moduli (GPa) = 53.71177 54.72586 51.83575
#
# Poissons Ratio (x) = -0.00452 0.21145
# Poissons Ratio (y) = -0.00444 0.33685
# Poissons Ratio (z) = 0.21910 0.35563
#
# Static dielectric constant tensor:
#      x y z
#    x 1.715480 0.000000 -0.009870 
#    y 0.000000 1.690050 0.000000 
#    z -0.009870 0.000000 1.709140 
# 
# From -- ./inp_files/86356.got.cif
#   From: 2010.05.17/outbox.cif.g08.bks.cpg/sg13_44_cif.got.tgz:86356.got - 2010.06.03 16:44:36.
