data_PCOD9228432
_publ_section_title
;
Structure prediction by ZEFSAII (Michael W. Deem and Ramdas Pophale) SiO2 
 PCOD9228432
Probable space group: P 2/C
;
_chemical_formula_sum "Si O2"
_cell_formula_units_Z 32
_cell_length_a 14.062120
_cell_length_b 6.104157
_cell_length_c 18.934288
_cell_angle_alpha 90.000000
_cell_angle_beta 95.574245
_cell_angle_gamma 90.000000
_cell_volume 1617.584195
_symmetry_space_group_name_H-M "P 2/C"
_symmetry_group_IT_number 13
_symmetry_cell_setting 'monoclinic'
loop_
_space_group_symop_operation_xyz
x,y,z
-x,y,1/2-z
-x,-y,-z
x,-y,1/2+z
loop_
_atom_site_type_symbol
_atom_site_label
_atom_site_fract_x
_atom_site_fract_y
_atom_site_fract_z
Si Si1 0.094879 0.012324 0.406807
Si Si2 0.248631 0.392483 0.718065
Si Si3 0.733186 0.704893 0.126378
Si Si4 0.096076 0.714383 0.767862
Si Si5 0.881572 0.974227 0.359854
Si Si6 0.611314 0.956282 0.002161
Si Si7 0.272826 0.677559 0.594955
Si Si8 0.760930 0.326443 0.022491
O O1 0.097418 0.191771 0.345156
O O2 0.152495 0.150093 0.470208
O O3 0.164318 0.817640 0.385224
O O4 0.016126 0.055177 0.593342
O O5 0.290046 0.276859 0.791506
O O6 0.183387 0.570078 0.752193
O O7 0.306543 0.534879 0.664883
O O8 0.180997 0.235253 0.666429
O O9 0.655562 0.837113 0.074476
O O10 0.740265 0.461624 0.093205
O O11 0.091448 0.915721 0.713288
O O12 0.000000 0.575731 0.750000
O O13 0.809618 0.149052 0.390156
O O14 0.667861 0.183788 0.998767
O O15 0.642593 0.804635 0.938593
O O16 0.500000 0.000000 0.000000
O O17 0.226440 0.511882 0.535158
#
# Coordination Sequence:
#
# PCOD9228432 Si02
#       8
#     4   4   4   4   4   4   4   4
#     4  10  19  34  55  90 125 165 216 247 284 357
#     4  11  20  34  58  87 129 162 201 256 307 359
#     4  10  21  34  63  95 118 159 207 255 306 363
#     4   9  18  28  49  83 117 164 208 240 286 343
#     4  10  21  33  54  86 132 170 201 246 296 357
#     4  10  23  45  70  88 113 154 208 262 316 393
#     4  10  23  39  59  90 119 167 203 255 325 364
#     4  10  21  41  62  87 121 154 212 254 305 375
#
# _framework density 19.782586999999999
#
# number of rings (size 3 to 8) (size 9 to 14) (size 15 to 20)
#    0.000    2.000    2.500    0.750    1.750    3.500 
#    0.000    8.750    0.000   11.250    0.000    0.000 
#    0.000    0.000    0.000    0.000    0.000    0.000 
#
# Total GULP energy -178310.211988 kJ/mol
# GULP energy per Si atom -5572.194125 kJ/mol
# Density = 1.973756 g / cm^3
# Si number density = 19.782587 Si / 1000 Ang^3
#
#
#
# Elastic Constant Matrix: (Units=GPa)
#
#
# Indices 1 2 3 4 5 6 
#
# 1 109.3493 29.4952 52.0974 0.0000 -3.2272 0.0000
# 2 29.4952 70.8047 37.3838 0.0000 -2.5605 0.0000
# 3 52.0974 37.3838 101.5321 0.0000 -11.8386 0.0000
# 4 0.0000 0.0000 0.0000 17.5042 0.0000 6.5542
# 5 -3.2272 -2.5605 -11.8386 0.0000 17.4701 0.0000
# 6 0.0000 0.0000 0.0000 6.5542 0.0000 7.4647
#
#
#
# Elastic Compliance Matrix: (Units=1/GPa)
#
#
# Indices 1 2 3 4 5 6 
#
# 1 0.012445 -0.002188 -0.005808 0.000000 -0.001958 0.000000
# 2 -0.002188 0.017978 -0.005686 0.000000 -0.001622 0.000000
# 3 -0.005808 -0.005686 0.015962 0.000000 0.008910 0.000000
# 4 0.000000 0.000000 0.000000 0.085110 0.000000 -0.074729
# 5 -0.001958 -0.001622 0.008910 0.000000 0.062679 0.000000
# 6 0.000000 0.000000 0.000000 -0.074729 0.000000 0.199579
#
#
# Mechanical properties :
#
#
# Convention : Reuss Voigt Hill
#
# Bulk Modulus (GPa) = 52.57555 57.73766 55.15661
# Shear Modulus (GPa) = 11.69707 19.33512 15.51610
#
# Velocity S-wave (km/s) = 2.43427 3.12970 2.80363
# Velocity P-wave (km/s) = 5.87667 6.50458 6.19858
#
# Compressibility (1/GPa) = 0.01902025
#
# Stress axis : x y z
#
# Youngs Moduli (GPa) = 80.35608 55.62248 62.64992
#
# Poissons Ratio (x) = 0.12172 0.36387
# Poissons Ratio (y) = 0.17584 0.35622
# Poissons Ratio (z) = 0.46671 0.31626
#
# Static dielectric constant tensor:
#      x y z
#    x 1.687800 0.000000 0.028380 
#    y 0.000000 1.731480 0.000000 
#    z 0.028380 0.000000 1.814580 
# 
# From -- ./inp_files/69047.got.cif
#   From: 2010.05.17/outbox.cif.g08.bks.cpg/sg13_35_cif.got.tgz:69047.got - 2010.06.03 16:44:36.
