data_PCOD9228538
_publ_section_title
;
Structure prediction by ZEFSAII (Michael W. Deem and Ramdas Pophale) SiO2 
 PCOD9228538
Probable space group: P 2/C
;
_chemical_formula_sum "Si O2"
_cell_formula_units_Z 32
_cell_length_a 20.928353
_cell_length_b 9.111284
_cell_length_c 25.177355
_cell_angle_alpha 90.000000
_cell_angle_beta 157.806817
_cell_angle_gamma 90.000000
_cell_volume 1813.455640
_symmetry_space_group_name_H-M "P 2/C"
_symmetry_group_IT_number 13
_symmetry_cell_setting 'monoclinic'
loop_
_space_group_symop_operation_xyz
x,y,z
-x,y,1/2-z
-x,-y,-z
x,-y,1/2+z
loop_
_atom_site_type_symbol
_atom_site_label
_atom_site_fract_x
_atom_site_fract_y
_atom_site_fract_z
Si Si1 0.518106 0.738958 0.021614
Si Si2 0.719680 0.148673 0.776256
Si Si3 0.114250 0.455414 0.953791
Si Si4 0.382889 0.610478 0.573094
Si Si5 0.619411 0.821508 0.696334
Si Si6 0.946103 0.661771 0.978662
Si Si7 0.386886 0.346237 0.709298
Si Si8 0.266669 0.510059 0.870389
O O1 0.621517 0.825621 0.145476
O O2 0.642538 0.609052 0.097722
O O3 0.461171 0.822412 0.924540
O O4 0.354451 0.663165 0.922520
O O5 0.632644 0.243517 0.755479
O O6 0.699357 0.977300 0.772896
O O7 0.907150 0.218223 0.916950
O O8 0.932500 0.500285 0.791620
O O9 0.234219 0.380732 0.001984
O O10 0.089457 0.353193 0.986031
O O11 0.210059 0.600822 0.048641
O O12 0.478346 0.758326 0.628341
O O13 0.520285 0.496966 0.702135
O O14 0.311909 0.536216 0.464966
O O15 0.774109 0.706262 0.816681
O O16 0.000000 0.500000 0.000000
O O17 0.500000 0.277377 0.750000
#
# Coordination Sequence:
#
# PCOD9228538 Si02
#       8
#     4   4   4   4   4   4   4   4
#     4  10  21  35  59  85 116 151 191 245 290 347
#     4  12  22  40  59  86 122 156 192 239 301 358
#     4  11  20  34  62  87 114 146 201 252 284 338
#     4  10  20  38  58  84 114 155 202 243 287 346
#     4  11  24  38  57  88 120 156 193 242 302 357
#     4  12  22  38  61  88 118 149 196 248 293 343
#     4  10  21  38  59  85 115 153 195 241 286 349
#     4  10  19  34  59  91 111 145 202 243 292 332
#
# _framework density 17.645869999999999
#
# number of rings (size 3 to 8) (size 9 to 14) (size 15 to 20)
#    0.000    1.250    5.000    1.875    1.750    0.000 
#    2.250    0.000    0.000    0.000    6.500    0.000 
#    0.000    0.000    0.000    0.000    0.000    0.000 
#
# Total GULP energy -178617.857974 kJ/mol
# GULP energy per Si atom -5581.808062 kJ/mol
# Density = 1.760571 g / cm^3
# Si number density = 17.645870 Si / 1000 Ang^3
#
#
#
# Elastic Constant Matrix: (Units=GPa)
#
#
# Indices 1 2 3 4 5 6 
#
# 1 109.6014 23.1512 26.4955 0.0000 14.3679 0.0000
# 2 23.1512 50.0210 16.9206 0.0000 11.4391 0.0000
# 3 26.4955 16.9206 113.5250 0.0000 4.8629 0.0000
# 4 0.0000 0.0000 0.0000 18.7319 0.0000 -0.6963
# 5 14.3679 11.4391 4.8629 0.0000 28.5756 0.0000
# 6 0.0000 0.0000 0.0000 -0.6963 0.0000 5.7499
#
#
#
# Elastic Compliance Matrix: (Units=1/GPa)
#
#
# Indices 1 2 3 4 5 6 
#
# 1 0.010799 -0.003530 -0.001836 0.000000 -0.003704 0.000000
# 2 -0.003530 0.024168 -0.002458 0.000000 -0.007481 0.000000
# 3 -0.001836 -0.002458 0.009592 0.000000 0.000275 0.000000
# 4 0.000000 0.000000 0.000000 0.053626 0.000000 0.006494
# 5 -0.003704 -0.007481 0.000275 0.000000 0.039806 0.000000
# 6 0.000000 0.000000 0.000000 0.006494 0.000000 0.174702
#
#
# Mechanical properties :
#
#
# Convention : Reuss Voigt Hill
#
# Bulk Modulus (GPa) = 34.58834 45.14243 39.86539
# Shear Modulus (GPa) = 14.79396 24.38350 19.58873
#
# Velocity S-wave (km/s) = 2.89862 3.72132 3.33544
# Velocity P-wave (km/s) = 5.55397 6.64096 6.12164
#
# Compressibility (1/GPa) = 0.02891148
#
# Stress axis : x y z
#
# Youngs Moduli (GPa) = 92.60154 41.37756 104.25789
#
# Poissons Ratio (x) = 0.14606 0.19137
# Poissons Ratio (y) = 0.32689 0.25625
# Poissons Ratio (z) = 0.16997 0.10170
#
# Static dielectric constant tensor:
#      x y z
#    x 1.612700 0.000000 0.004500 
#    y 0.000000 1.587100 0.000000 
#    z 0.004500 0.000000 1.604710 
# 
# From -- ./inp_files/93599.got.cif
#   From: 2010.05.17/outbox.cif.g08.bks.cpg/sg13_47_cif.got.tgz:93599.got - 2010.06.03 16:44:36.
