data_PCOD9228245
_publ_section_title
;
Structure prediction by ZEFSAII (Michael W. Deem and Ramdas Pophale) SiO2 
 PCOD9228245
Probable space group: P 2/C
;
_chemical_formula_sum "Si O2"
_cell_formula_units_Z 24
_cell_length_a 29.508396
_cell_length_b 5.450973
_cell_length_c 21.391467
_cell_angle_alpha 90.000000
_cell_angle_beta 15.125003
_cell_angle_gamma 90.000000
_cell_volume 897.795096
_symmetry_space_group_name_H-M "P 2/C"
_symmetry_group_IT_number 13
_symmetry_cell_setting 'monoclinic'
loop_
_space_group_symop_operation_xyz
x,y,z
-x,y,1/2-z
-x,-y,-z
x,-y,1/2+z
loop_
_atom_site_type_symbol
_atom_site_label
_atom_site_fract_x
_atom_site_fract_y
_atom_site_fract_z
Si Si1 0.465214 0.316254 0.870752
Si Si2 0.915283 0.699320 0.196877
Si Si3 0.779560 0.202926 0.617674
Si Si4 0.839563 0.292732 0.013371
Si Si5 0.174421 0.195222 0.124311
Si Si6 0.720993 0.816738 0.342976
O O1 0.500000 0.299863 0.750000
O O2 0.658547 0.261561 0.637497
O O3 0.399468 0.587092 0.975907
O O4 0.346949 0.087487 0.049144
O O5 0.847959 0.425274 0.298710
O O6 0.898164 0.759359 0.146555
O O7 0.083943 0.712095 0.016913
O O8 0.804884 0.924435 0.374009
O O9 0.727284 0.464197 0.661556
O O10 0.743797 0.195288 0.738933
O O11 0.992129 0.195792 0.330496
O O12 0.726234 0.949695 0.657194
O O13 0.000000 0.300451 0.750000
#
# Coordination Sequence:
#
# PCOD9228245 Si02
#       6
#     4   4   4   4   4   4
#     4  12  21  35  53  82 123 160 187 215 273 360
#     4  10  19  33  54  82 112 146 186 223 287 321
#     4  10  23  38  58  89 115 148 184 238 297 322
#     4  10  21  38  59  83 113 147 195 238 278 334
#     4  10  20  34  52  79 117 150 194 212 273 347
#     4  12  22  35  57  86 126 145 181 236 285 344
#
# _framework density 26.732157999999998
#
# number of rings (size 3 to 8) (size 9 to 14) (size 15 to 20)
#    0.000    1.333    3.333    3.000    0.000    5.333 
#    0.000    0.000    0.000    0.000    0.000   93.333 
#    0.000    0.000    0.000    0.000    0.000    0.000 
#
# Total GULP energy -134253.706278 kJ/mol
# GULP energy per Si atom -5593.904428 kJ/mol
# Density = 2.667131 g / cm^3
# Si number density = 26.732158 Si / 1000 Ang^3
#
#
#
# Elastic Constant Matrix: (Units=GPa)
#
#
# Indices 1 2 3 4 5 6 
#
# 1 84.8195 48.8553 30.6918 0.0000 44.5952 0.0000
# 2 48.8553 265.6984 48.2376 0.0000 45.4459 0.0000
# 3 30.6918 48.2376 65.0374 0.0000 16.3740 0.0000
# 4 0.0000 0.0000 0.0000 42.2430 0.0000 11.9521
# 5 44.5952 45.4459 16.3740 0.0000 37.1516 0.0000
# 6 0.0000 0.0000 0.0000 11.9521 0.0000 31.3445
#
#
#
# Elastic Compliance Matrix: (Units=1/GPa)
#
#
# Indices 1 2 3 4 5 6 
#
# 1 0.035017 0.001976 -0.007648 0.000000 -0.041080 0.000000
# 2 0.001976 0.005205 -0.002916 0.000000 -0.007453 0.000000
# 3 -0.007648 -0.002916 0.020178 0.000000 0.003855 0.000000
# 4 0.000000 0.000000 0.000000 0.026535 0.000000 -0.010118
# 5 -0.041080 -0.007453 0.003855 0.000000 0.083646 0.000000
# 6 0.000000 0.000000 0.000000 -0.010118 0.000000 0.035762
#
#
# Mechanical properties :
#
#
# Convention : Reuss Voigt Hill
#
# Bulk Modulus (GPa) = 23.13606 74.56942 48.85274
# Shear Modulus (GPa) = 21.01484 41.33251 31.17368
#
# Velocity S-wave (km/s) = 2.80684 3.93640 3.41860
# Velocity P-wave (km/s) = 4.37927 6.97251 5.82211
#
# Compressibility (1/GPa) = 0.04322257
#
# Stress axis : x y z
#
# Youngs Moduli (GPa) = 28.55717 192.13775 49.56014
#
# Poissons Ratio (x) = -0.37970 0.37906
# Poissons Ratio (y) = -0.05643 0.14453
# Poissons Ratio (z) = 0.21842 0.56033
#
# Static dielectric constant tensor:
#      x y z
#    x 2.166710 0.000000 -0.066550 
#    y 0.000000 2.176200 0.000000 
#    z -0.066550 0.000000 2.115050 
# 
# From -- ./inp_files/82648.got.cif
#   From: 2010.05.17/outbox.cif.g08.bks.cpg/sg13_42_cif.got.tgz:82648.got - 2010.06.03 16:44:36.
