data_PCOD9228813
_publ_section_title
;
Structure prediction by ZEFSAII (Michael W. Deem and Ramdas Pophale) SiO2 
 PCOD9228813
Probable space group: P 2/C
;
_chemical_formula_sum "Si O2"
_cell_formula_units_Z 24
_cell_length_a 8.701651
_cell_length_b 12.142276
_cell_length_c 23.938038
_cell_angle_alpha 90.000000
_cell_angle_beta 24.950129
_cell_angle_gamma 90.000000
_cell_volume 1066.908053
_symmetry_space_group_name_H-M "P 2/C"
_symmetry_group_IT_number 13
_symmetry_cell_setting 'monoclinic'
loop_
_space_group_symop_operation_xyz
x,y,z
-x,y,1/2-z
-x,-y,-z
x,-y,1/2+z
loop_
_atom_site_type_symbol
_atom_site_label
_atom_site_fract_x
_atom_site_fract_y
_atom_site_fract_z
Si Si1 0.219744 0.378445 0.123592
Si Si2 0.574525 0.004716 0.892263
Si Si3 0.731846 0.539634 0.007062
Si Si4 0.742987 0.178995 0.924196
Si Si5 0.215945 0.345546 0.894745
Si Si6 0.436985 0.881247 0.331828
O O1 0.052282 0.405688 0.116982
O O2 0.000000 0.332988 0.250000
O O3 0.368173 0.494437 0.098193
O O4 0.542477 0.292088 0.003746
O O5 0.582764 0.122645 0.921156
O O6 0.402149 0.026336 0.889329
O O7 0.000000 0.971374 0.750000
O O8 0.360484 0.913830 0.996641
O O9 0.909006 0.429932 0.975392
O O10 0.670321 0.616266 0.080689
O O11 0.180161 0.181536 0.778470
O O12 0.500000 0.353669 0.750000
O O13 0.139852 0.215477 0.925727
O O14 0.500000 0.929519 0.250000
#
# Coordination Sequence:
#
# PCOD9228813 Si02
#       6
#     4   4   4   4   4   4
#     4  11  21  34  53  79 107 139 180 226 274 321
#     4   9  19  36  56  80 108 141 181 225 273 325
#     4  10  22  35  52  78 107 140 180 226 272 323
#     4  10  20  35  56  79 108 143 182 227 272 324
#     4  10  19  36  56  76 106 142 180 222 270 325
#     4  10  20  34  56  81 107 143 182 223 274 329
#
# _framework density 22.494907999999999
#
# number of rings (size 3 to 8) (size 9 to 14) (size 15 to 20)
#    0.000    2.000    0.000    4.500    0.000    2.000 
#    0.000    0.833    0.000    3.000    0.000    0.000 
#    0.000    0.000    0.000    0.000    0.000    0.000 
#
# Total GULP energy -133860.153282 kJ/mol
# GULP energy per Si atom -5577.506387 kJ/mol
# Density = 2.244371 g / cm^3
# Si number density = 22.494908 Si / 1000 Ang^3
#
#
#
# Elastic Constant Matrix: (Units=GPa)
#
#
# Indices 1 2 3 4 5 6 
#
# 1 150.2637 35.8765 24.7330 0.0000 51.3961 0.0000
# 2 35.8765 58.1593 21.9934 0.0000 17.8007 0.0000
# 3 24.7330 21.9934 56.8765 0.0000 20.2498 0.0000
# 4 0.0000 0.0000 0.0000 31.5493 0.0000 7.6161
# 5 51.3961 17.8007 20.2498 0.0000 39.8158 0.0000
# 6 0.0000 0.0000 0.0000 7.6161 0.0000 19.8322
#
#
#
# Elastic Compliance Matrix: (Units=1/GPa)
#
#
# Indices 1 2 3 4 5 6 
#
# 1 0.012486 -0.003560 0.001366 0.000000 -0.015221 0.000000
# 2 -0.003560 0.022472 -0.006351 0.000000 -0.002221 0.000000
# 3 0.001366 -0.006351 0.023275 0.000000 -0.010762 0.000000
# 4 0.000000 0.000000 0.000000 0.034935 0.000000 -0.013416
# 5 -0.015221 -0.002221 -0.010762 0.000000 0.051230 0.000000
# 6 0.000000 0.000000 0.000000 -0.013416 0.000000 0.055575
#
#
# Mechanical properties :
#
#
# Convention : Reuss Voigt Hill
#
# Bulk Modulus (GPa) = 24.30512 47.83393 36.06952
# Shear Modulus (GPa) = 21.66592 30.41924 26.04258
#
# Velocity S-wave (km/s) = 3.10683 3.68131 3.40621
# Velocity P-wave (km/s) = 4.86806 6.27534 5.61596
#
# Compressibility (1/GPa) = 0.04114360
#
# Stress axis : x y z
#
# Youngs Moduli (GPa) = 80.08751 44.50047 42.96439
#
# Poissons Ratio (x) = 0.15844 -0.05870
# Poissons Ratio (y) = 0.28514 0.27285
# Poissons Ratio (z) = -0.10941 0.28260
#
# Static dielectric constant tensor:
#      x y z
#    x 1.928890 0.000000 0.003170 
#    y 0.000000 1.805640 0.000000 
#    z 0.003170 0.000000 1.904930 
# 
# From -- ./inp_files/80133.got.cif
#   From: 2010.05.17/outbox.cif.g08.bks.cpg/sg13_41_cif.got.tgz:80133.got - 2010.06.03 16:44:36.
