data_PCOD9228196
_publ_section_title
;
Structure prediction by ZEFSAII (Michael W. Deem and Ramdas Pophale) SiO2 
 PCOD9228196
Probable space group: P 2/C
;
_chemical_formula_sum "Si O2"
_cell_formula_units_Z 28
_cell_length_a 8.167750
_cell_length_b 12.549079
_cell_length_c 13.917616
_cell_angle_alpha 90.000000
_cell_angle_beta 108.236453
_cell_angle_gamma 90.000000
_cell_volume 1354.874361
_symmetry_space_group_name_H-M "P 2/C"
_symmetry_group_IT_number 13
_symmetry_cell_setting 'monoclinic'
loop_
_space_group_symop_operation_xyz
x,y,z
-x,y,1/2-z
-x,-y,-z
x,-y,1/2+z
loop_
_atom_site_type_symbol
_atom_site_label
_atom_site_fract_x
_atom_site_fract_y
_atom_site_fract_z
Si Si1 0.988593 0.824251 0.469592
Si Si2 0.193182 0.998076 0.931434
Si Si3 0.509526 0.884110 0.579602
Si Si4 0.507069 0.515526 0.364436
Si Si5 0.701107 0.701948 0.874111
Si Si6 0.679610 0.722781 0.477419
Si Si7 0.809943 0.381794 0.187988
O O1 0.133892 0.745149 0.537392
O O2 0.925089 0.907809 0.540977
O O3 0.812147 0.760475 0.419752
O O4 0.072651 0.897757 0.402106
O O5 0.348056 0.038157 0.030755
O O6 0.311109 0.947072 0.868612
O O7 0.440060 0.794269 0.637698
O O8 0.553923 0.815920 0.491102
O O9 0.500000 0.537267 0.250000
O O10 0.625164 0.409842 0.399355
O O11 0.577294 0.618454 0.429346
O O12 0.315659 0.479813 0.356649
O O13 0.744723 0.678552 0.771557
O O14 0.794588 0.693107 0.592412
O O15 0.000000 0.416854 0.250000
#
# Coordination Sequence:
#
# PCOD9228196 Si02
#       7
#     4   4   4   4   4   4   4
#     4   9  17  31  54  85 112 149 186 236 285 348
#     4   8  16  31  50  86 113 141 192 230 286 350
#     4   9  17  30  55  84 110 155 188 229 290 356
#     4  10  23  39  54  82 116 157 200 248 294 363
#     4  10  19  33  52  83 123 149 187 242 297 351
#     4  11  20  35  59  84 114 163 191 238 302 357
#     4  11  21  36  52  83 123 148 197 249 295 359
#
# _framework density 20.666122000000001
#
# number of rings (size 3 to 8) (size 9 to 14) (size 15 to 20)
#    0.000    2.286    2.857    0.429    0.000    0.571 
#    0.000    0.000    0.000    0.000  104.000    0.000 
#    0.000    0.000    0.000    0.000    0.000    0.000 
#
# Total GULP energy -156011.085573 kJ/mol
# GULP energy per Si atom -5571.824485 kJ/mol
# Density = 2.061909 g / cm^3
# Si number density = 20.666122 Si / 1000 Ang^3
#
#
#
# Elastic Constant Matrix: (Units=GPa)
#
#
# Indices 1 2 3 4 5 6 
#
# 1 136.6882 57.5045 19.3768 0.0000 7.5518 0.0000
# 2 57.5045 130.5779 37.1768 0.0000 13.4817 0.0000
# 3 19.3768 37.1768 28.4663 0.0000 1.3892 0.0000
# 4 0.0000 0.0000 0.0000 1.4155 0.0000 2.0791
# 5 7.5518 13.4817 1.3892 0.0000 22.1212 0.0000
# 6 0.0000 0.0000 0.0000 2.0791 0.0000 23.1633
#
#
#
# Elastic Compliance Matrix: (Units=1/GPa)
#
#
# Indices 1 2 3 4 5 6 
#
# 1 0.009037 -0.003420 -0.001641 0.000000 -0.000898 0.000000
# 2 -0.003420 0.014477 -0.016256 0.000000 -0.006635 0.000000
# 3 -0.001641 -0.016256 0.057141 0.000000 0.006879 0.000000
# 4 0.000000 0.000000 0.000000 0.813748 0.000000 -0.073041
# 5 -0.000898 -0.006635 0.006879 0.000000 0.049124 0.000000
# 6 0.000000 0.000000 0.000000 -0.073041 0.000000 0.049728
#
#
# Mechanical properties :
#
#
# Convention : Reuss Voigt Hill
#
# Bulk Modulus (GPa) = 26.30106 58.20539 42.25323
# Shear Modulus (GPa) = 4.76843 21.45162 13.11003
#
# Velocity S-wave (km/s) = 1.52065 3.22531 2.52141
# Velocity P-wave (km/s) = 3.97963 6.48814 5.38207
#
# Compressibility (1/GPa) = 0.03802128
#
# Stress axis : x y z
#
# Youngs Moduli (GPa) = 110.65795 69.07275 17.50053
#
# Poissons Ratio (x) = 0.23621 0.02873
# Poissons Ratio (y) = 0.37841 0.28449
# Poissons Ratio (z) = 0.18164 1.12285
#
# Static dielectric constant tensor:
#      x y z
#    x 1.812340 0.000000 -0.020830 
#    y 0.000000 1.775360 0.000000 
#    z -0.020830 0.000000 1.735850 
# 
# From -- ./inp_files/46966.got.cif
#   From: 2010.05.17/outbox.cif.g08.bks.cpg/sg13_24_cif.got.tgz:46966.got - 2010.06.03 16:44:36.
