data_PCOD9228142
_publ_section_title
;
Structure prediction by ZEFSAII (Michael W. Deem and Ramdas Pophale) SiO2 
 PCOD9228142
Probable space group: P 2/C
;
_chemical_formula_sum "Si O2"
_cell_formula_units_Z 26
_cell_length_a 10.578434
_cell_length_b 7.986939
_cell_length_c 15.187957
_cell_angle_alpha 90.000000
_cell_angle_beta 112.888743
_cell_angle_gamma 90.000000
_cell_volume 1182.181584
_symmetry_space_group_name_H-M "P 2/C"
_symmetry_group_IT_number 13
_symmetry_cell_setting 'monoclinic'
loop_
_space_group_symop_operation_xyz
x,y,z
-x,y,1/2-z
-x,-y,-z
x,-y,1/2+z
loop_
_atom_site_type_symbol
_atom_site_label
_atom_site_fract_x
_atom_site_fract_y
_atom_site_fract_z
Si Si1 0.288991 0.306896 0.138575
Si Si2 0.722579 0.282301 0.883624
Si Si3 0.491757 0.820240 0.039774
Si Si4 0.004966 0.322390 0.449451
Si Si5 0.583476 0.677055 0.650997
Si Si6 0.279844 0.335689 0.808891
Si Si7 0.000000 0.542298 0.750000
O O1 0.284716 0.511588 0.123763
O O2 0.142326 0.239996 0.068948
O O3 0.312335 0.256151 0.247377
O O4 0.431104 0.260055 0.131452
O O5 0.590450 0.198307 0.891697
O O6 0.735303 0.233772 0.785050
O O7 0.857693 0.238935 0.976735
O O8 0.649676 0.765902 0.094678
O O9 0.401831 0.709325 0.947644
O O10 0.500000 0.000000 0.000000
O O11 0.000000 0.500000 0.500000
O O12 0.005008 0.357746 0.344102
O O13 0.604523 0.480337 0.671747
O O14 0.136936 0.428304 0.787585
#
# Coordination Sequence:
#
# PCOD9228142 Si02
#       7
#     4   4   4   4   4   4   2
#     4   9  18  34  59  95 121 149 197 261 323 357
#     4  10  20  38  61  88 125 159 196 258 329 372
#     4  12  26  40  60  87 125 173 216 252 313 384
#     4  10  19  32  57 100 131 151 195 263 333 378
#     4  10  19  37  62  91 117 155 208 263 309 367
#     4  11  22  38  65  91 124 158 207 270 320 378
#     4  12  20  32  62  98 128 158 206 258 334 390
#
# _framework density 21.993236
#
# number of rings (size 3 to 8) (size 9 to 14) (size 15 to 20)
#    0.000    1.538    6.154    1.846    4.308    0.000 
#    5.538    0.000    3.385    1.846    0.000    0.000 
#    0.000    0.000    0.000    0.000    0.000    0.000 
#
# Total GULP energy -144904.071478 kJ/mol
# GULP energy per Si atom -5573.233518 kJ/mol
# Density = 2.194318 g / cm^3
# Si number density = 21.993236 Si / 1000 Ang^3
#
#
#
# Elastic Constant Matrix: (Units=GPa)
#
#
# Indices 1 2 3 4 5 6 
#
# 1 107.4545 9.2031 37.7517 0.0000 27.4844 0.0000
# 2 9.2031 22.4807 26.3391 0.0000 9.9676 0.0000
# 3 37.7517 26.3391 123.5411 0.0000 17.9189 0.0000
# 4 0.0000 0.0000 0.0000 -4.3430 0.0000 -6.7690
# 5 27.4844 9.9676 17.9189 0.0000 46.4331 0.0000
# 6 0.0000 0.0000 0.0000 -6.7690 0.0000 6.4319
#
#
#
# Elastic Compliance Matrix: (Units=1/GPa)
#
#
# Indices 1 2 3 4 5 6 
#
# 1 0.011815 0.001427 -0.003025 0.000000 -0.006133 0.000000
# 2 0.001427 0.062660 -0.012417 0.000000 -0.009504 0.000000
# 3 -0.003025 -0.012417 0.011673 0.000000 -0.000049 0.000000
# 4 0.000000 0.000000 0.000000 -0.087209 0.000000 -0.091779
# 5 -0.006133 -0.009504 -0.000049 0.000000 0.027225 0.000000
# 6 0.000000 0.000000 0.000000 -0.091779 0.000000 0.058886
#
#
# Mechanical properties :
#
#
# Convention : Reuss Voigt Hill
#
# Bulk Modulus (GPa) = 17.20636 44.45157 30.82897
# Shear Modulus (GPa) = 37.74873 21.71656 29.73264
#
# Velocity S-wave (km/s) = 4.14742 3.14573 3.68081
# Velocity P-wave (km/s) = 5.54754 5.78356 5.66678
#
# Compressibility (1/GPa) = 0.05811803
#
# Stress axis : x y z
#
# Youngs Moduli (GPa) = 84.63466 15.95915 85.66624
#
# Poissons Ratio (x) = -0.02277 0.25916
# Poissons Ratio (y) = -0.12073 1.06368
# Poissons Ratio (z) = 0.25604 0.19816
#
# Static dielectric constant tensor:
#      x y z
#    x 1.832380 0.000000 -0.015400 
#    y 0.000000 1.838080 0.000000 
#    z -0.015400 0.000000 1.897900 
# 
# From -- ./inp_files/50158.got.cif
#   From: 2010.05.17/outbox.cif.g08.bks.cpg/sg13_26_cif.got.tgz:50158.got - 2010.06.03 16:44:36.
