data_PCOD9228806
_publ_section_title
;
Structure prediction by ZEFSAII (Michael W. Deem and Ramdas Pophale) SiO2 
 PCOD9228806
Probable space group: P 2/C
;
_chemical_formula_sum "Si O2"
_cell_formula_units_Z 32
_cell_length_a 24.658237
_cell_length_b 12.855621
_cell_length_c 10.107693
_cell_angle_alpha 90.000000
_cell_angle_beta 136.849903
_cell_angle_gamma 90.000000
_cell_volume 2191.327598
_symmetry_space_group_name_H-M "P 2/C"
_symmetry_group_IT_number 13
_symmetry_cell_setting 'monoclinic'
loop_
_space_group_symop_operation_xyz
x,y,z
-x,y,1/2-z
-x,-y,-z
x,-y,1/2+z
loop_
_atom_site_type_symbol
_atom_site_label
_atom_site_fract_x
_atom_site_fract_y
_atom_site_fract_z
Si Si1 0.944148 0.509635 0.773193
Si Si2 0.670182 0.608595 0.385362
Si Si3 0.323337 0.592799 0.791460
Si Si4 0.155373 0.691774 0.490690
Si Si5 0.053088 0.123549 0.216913
Si Si6 0.163516 0.697201 0.822650
Si Si7 0.060216 0.116220 0.736163
Si Si8 0.503005 0.598775 0.409401
O O1 0.901484 0.401019 0.661325
O O2 0.878352 0.595653 0.689861
O O3 0.000000 0.540687 0.750000
O O4 0.000000 0.500000 0.000000
O O5 0.679683 0.570796 0.555447
O O6 0.678387 0.512071 0.298964
O O7 0.742429 0.686649 0.490103
O O8 0.581089 0.654830 0.215223
O O9 0.246024 0.660397 0.622497
O O10 0.409189 0.646066 0.916981
O O11 0.147220 0.699364 0.635628
O O12 0.128582 0.799287 0.376454
O O13 0.123480 0.203593 0.318154
O O14 0.000000 0.146244 0.250000
O O15 0.084220 0.004935 0.280492
O O16 0.991754 0.132692 0.986688
O O17 0.000000 0.132463 0.750000
O O18 0.500000 0.565662 0.250000
O O19 0.500000 0.500000 0.500000
#
# Coordination Sequence:
#
# PCOD9228806 Si02
#       8
#     4   4   4   4   4   4   4   4
#     4  12  22  31  44  64  94 128 155 183 223 277
#     4   9  17  29  45  66  94 123 149 187 221 271
#     4   9  17  29  45  67  93 122 152 184 221 273
#     4  11  20  33  49  67  94 126 152 189 234 273
#     4  10  21  35  51  71  85 117 163 205 234 265
#     4  11  20  33  48  68  95 122 156 190 230 273
#     4  10  19  36  55  64  88 120 160 199 237 277
#     4   8  14  26  44  64  88 119 152 180 220 263
#
# _framework density 14.603020000000001
#
# number of rings (size 3 to 8) (size 9 to 14) (size 15 to 20)
#    0.000    2.000    3.750    1.500    0.000    0.000 
#    2.250    0.000    0.000    0.000    0.000    0.875 
#    0.000    0.000    0.000    0.000    0.000    0.000 
#
# Total GULP energy -178196.125807 kJ/mol
# GULP energy per Si atom -5568.628931 kJ/mol
# Density = 1.456978 g / cm^3
# Si number density = 14.603020 Si / 1000 Ang^3
#
#
#
# Elastic Constant Matrix: (Units=GPa)
#
#
# Indices 1 2 3 4 5 6 
#
# 1 105.9808 48.9069 49.5664 0.0000 15.6811 0.0000
# 2 48.9069 67.2155 31.7839 0.0000 18.4219 0.0000
# 3 49.5664 31.7839 70.1345 0.0000 14.6443 0.0000
# 4 0.0000 0.0000 0.0000 17.5931 0.0000 -1.8556
# 5 15.6811 18.4219 14.6443 0.0000 29.4715 0.0000
# 6 0.0000 0.0000 0.0000 -1.8556 0.0000 15.6839
#
#
#
# Elastic Compliance Matrix: (Units=1/GPa)
#
#
# Indices 1 2 3 4 5 6 
#
# 1 0.017332 -0.008771 -0.008361 0.000000 0.000415 0.000000
# 2 -0.008771 0.025468 -0.003340 0.000000 -0.009593 0.000000
# 3 -0.008361 -0.003340 0.022668 0.000000 -0.004727 0.000000
# 4 0.000000 0.000000 0.000000 0.057559 0.000000 0.006810
# 5 0.000415 -0.009593 -0.004727 0.000000 0.042056 0.000000
# 6 0.000000 0.000000 0.000000 0.006810 0.000000 0.064565
#
#
# Mechanical properties :
#
#
# Convention : Reuss Voigt Hill
#
# Bulk Modulus (GPa) = 40.77608 55.98279 48.37944
# Shear Modulus (GPa) = 17.93615 20.08794 19.01205
#
# Velocity S-wave (km/s) = 3.50844 3.71293 3.61214
# Velocity P-wave (km/s) = 6.66302 7.53663 7.11325
#
# Compressibility (1/GPa) = 0.02452418
#
# Stress axis : x y z
#
# Youngs Moduli (GPa) = 57.69557 39.26488 44.11532
#
# Poissons Ratio (x) = 0.34441 0.36885
# Poissons Ratio (y) = 0.50607 0.14733
# Poissons Ratio (z) = 0.48239 0.13113
#
# Static dielectric constant tensor:
#      x y z
#    x 1.505370 0.000000 0.010320 
#    y 0.000000 1.461290 0.000000 
#    z 0.010320 0.000000 1.494330 
# 
# From -- ./inp_files/24075.got.cif
#   From: 2010.05.17/outbox.cif.g08.bks.cpg/sg13_13_cif.got.tgz:24075.got - 2010.06.03 16:44:36.
