data_PCOD9228873
_publ_section_title
;
Structure prediction by ZEFSAII (Michael W. Deem and Ramdas Pophale) SiO2 
 PCOD9228873
Probable space group: P 2/C
;
_chemical_formula_sum "Si O2"
_cell_formula_units_Z 16
_cell_length_a 7.759136
_cell_length_b 7.191427
_cell_length_c 15.617340
_cell_angle_alpha 90.000000
_cell_angle_beta 121.455115
_cell_angle_gamma 90.000000
_cell_volume 743.377818
_symmetry_space_group_name_H-M "P 2/C"
_symmetry_group_IT_number 13
_symmetry_cell_setting 'monoclinic'
loop_
_space_group_symop_operation_xyz
x,y,z
-x,y,1/2-z
-x,-y,-z
x,-y,1/2+z
loop_
_atom_site_type_symbol
_atom_site_label
_atom_site_fract_x
_atom_site_fract_y
_atom_site_fract_z
Si Si1 0.320486 0.567232 0.638990
Si Si2 0.222137 0.887214 0.492721
Si Si3 0.128327 0.747359 0.199171
Si Si4 0.497880 0.226100 0.592522
O O1 0.500000 0.624350 0.750000
O O2 0.218382 0.742474 0.569106
O O3 0.171408 0.433403 0.653214
O O4 0.420047 0.431832 0.593258
O O5 0.380711 0.802676 0.464017
O O6 0.008213 0.890189 0.389268
O O7 0.312440 0.084004 0.543017
O O8 0.341733 0.820005 0.290298
O O9 0.000000 0.694539 0.250000
#
# Coordination Sequence:
#
# PCOD9228873 Si02
#       4
#     4   4   4   4
#     4  10  20  34  55  81 111 145 182 226 272 325
#     4  10  19  36  59  79 108 149 183 219 278 332
#     4   9  19  36  56  82 114 145 183 231 274 320
#     4   9  20  36  55  82 113 141 180 231 271 322
#
# _framework density 21.523375999999999
#
# number of rings (size 3 to 8) (size 9 to 14) (size 15 to 20)
#    0.000    2.500    0.000    1.500    0.000    4.000 
#    0.000    5.000    0.000   18.000    0.000    0.000 
#    0.000    0.000    0.000    0.000    0.000    0.000 
#
# Total GULP energy -89422.825820 kJ/mol
# GULP energy per Si atom -5588.926614 kJ/mol
# Density = 2.147439 g / cm^3
# Si number density = 21.523376 Si / 1000 Ang^3
#
#
#
# Elastic Constant Matrix: (Units=GPa)
#
#
# Indices 1 2 3 4 5 6 
#
# 1 78.0110 -2.4398 10.2862 0.0000 -8.0171 0.0000
# 2 -2.4398 51.4366 54.3132 0.0000 1.6721 0.0000
# 3 10.2862 54.3132 91.0570 0.0000 6.7407 0.0000
# 4 0.0000 0.0000 0.0000 19.1465 0.0000 2.2498
# 5 -8.0171 1.6721 6.7407 0.0000 27.6419 0.0000
# 6 0.0000 0.0000 0.0000 2.2498 0.0000 10.8680
#
#
#
# Elastic Compliance Matrix: (Units=1/GPa)
#
#
# Indices 1 2 3 4 5 6 
#
# 1 0.014413 0.007142 -0.006279 0.000000 0.005279 0.000000
# 2 0.007142 0.056627 -0.035117 0.000000 0.007210 0.000000
# 3 -0.006279 -0.035117 0.033215 0.000000 -0.007797 0.000000
# 4 0.000000 0.000000 0.000000 0.053531 0.000000 -0.011081
# 5 0.005279 0.007210 -0.007797 0.000000 0.039173 0.000000
# 6 0.000000 0.000000 0.000000 -0.011081 0.000000 0.094307
#
#
# Mechanical properties :
#
#
# Convention : Reuss Voigt Hill
#
# Bulk Modulus (GPa) = 27.97457 38.31373 33.14415
# Shear Modulus (GPa) = 13.45211 22.08760 17.76985
#
# Velocity S-wave (km/s) = 2.50271 3.20693 2.87646
# Velocity P-wave (km/s) = 4.62352 5.61713 5.14437
#
# Compressibility (1/GPa) = 0.03574676
#
# Stress axis : x y z
#
# Youngs Moduli (GPa) = 69.38383 17.65953 30.10690
#
# Poissons Ratio (x) = -0.12613 0.18905
# Poissons Ratio (y) = -0.49556 1.05726
# Poissons Ratio (z) = 0.43567 0.62015
#
# Static dielectric constant tensor:
#      x y z
#    x 1.824600 0.000000 -0.004790 
#    y 0.000000 1.705650 0.000000 
#    z -0.004790 0.000000 1.781700 
# 
# From -- ./inp_files/45118.got.cif
#   From: 2010.05.17/outbox.cif.g08.bks.cpg/sg13_23_cif.got.tgz:45118.got - 2010.06.03 16:44:36.
