data_PCOD9228644
_publ_section_title
;
Structure prediction by ZEFSAII (Michael W. Deem and Ramdas Pophale) SiO2 
 PCOD9228644
Probable space group: P 2/C
;
_chemical_formula_sum "Si O2"
_cell_formula_units_Z 18
_cell_length_a 24.154956
_cell_length_b 8.084912
_cell_length_c 5.164149
_cell_angle_alpha 90.000000
_cell_angle_beta 63.242364
_cell_angle_gamma 90.000000
_cell_volume 900.517904
_symmetry_space_group_name_H-M "P 2/C"
_symmetry_group_IT_number 13
_symmetry_cell_setting 'monoclinic'
loop_
_space_group_symop_operation_xyz
x,y,z
-x,y,1/2-z
-x,-y,-z
x,-y,1/2+z
loop_
_atom_site_type_symbol
_atom_site_label
_atom_site_fract_x
_atom_site_fract_y
_atom_site_fract_z
Si Si1 0.569600 0.565415 0.305819
Si Si2 0.109301 0.117587 0.543973
Si Si3 0.000000 0.617233 0.250000
Si Si4 0.380482 0.890555 0.487041
Si Si5 0.754849 0.892844 0.830841
O O1 0.500000 0.500000 0.500000
O O2 0.599700 0.551041 0.524418
O O3 0.572162 0.747868 0.187013
O O4 0.179360 0.188884 0.370307
O O5 0.059162 0.261101 0.628472
O O6 0.102446 0.984418 0.325488
O O7 0.000000 0.500000 0.500000
O O8 0.311459 0.813850 0.592276
O O9 0.386573 0.964912 0.759724
O O10 0.754737 0.048646 0.629449
#
# Coordination Sequence:
#
# PCOD9228644 Si02
#       5
#     4   4   2   4   4
#     4  10  21  38  53  74 109 141 169 209 261 316
#     4  10  19  36  58  77 100 142 185 214 256 320
#     4  12  24  36  50  78 116 142 172 224 266 302
#     4  10  19  35  58  82 103 134 177 222 262 305
#     4   8  16  30  53  80 102 125 172 227 260 297
#
# _framework density 19.988496999999999
#
# number of rings (size 3 to 8) (size 9 to 14) (size 15 to 20)
#    0.000    2.222    0.000    3.333    0.000    0.000 
#    0.000   15.556    0.000    0.000    0.000    0.000 
#    0.000    0.000    0.000    0.000    0.000    0.000 
#
# Total GULP energy -100313.643881 kJ/mol
# GULP energy per Si atom -5572.980216 kJ/mol
# Density = 1.994300 g / cm^3
# Si number density = 19.988497 Si / 1000 Ang^3
#
#
#
# Elastic Constant Matrix: (Units=GPa)
#
#
# Indices 1 2 3 4 5 6 
#
# 1 75.9074 34.1500 27.9121 0.0000 -23.0536 0.0000
# 2 34.1500 58.4436 24.0773 0.0000 -20.8625 0.0000
# 3 27.9121 24.0773 110.1155 0.0000 15.5645 0.0000
# 4 0.0000 0.0000 0.0000 19.6132 0.0000 15.9677
# 5 -23.0536 -20.8625 15.5645 0.0000 46.4899 0.0000
# 6 0.0000 0.0000 0.0000 15.9677 0.0000 3.0830
#
#
#
# Elastic Compliance Matrix: (Units=1/GPa)
#
#
# Indices 1 2 3 4 5 6 
#
# 1 0.020847 -0.006928 -0.005029 0.000000 0.008912 0.000000
# 2 -0.006928 0.027375 -0.005753 0.000000 0.010775 0.000000
# 3 -0.005029 -0.005753 0.012944 0.000000 -0.009409 0.000000
# 4 0.000000 0.000000 0.000000 -0.015851 0.000000 0.082096
# 5 0.008912 0.010775 -0.009409 0.000000 0.033915 0.000000
# 6 0.000000 0.000000 0.000000 0.082096 0.000000 -0.100839
#
#
# Mechanical properties :
#
#
# Convention : Reuss Voigt Hill
#
# Bulk Modulus (GPa) = 38.84059 46.30504 42.57281
# Shear Modulus (GPa) = 223.28479 24.39235 123.83857
#
# Velocity S-wave (km/s) = 10.58060 3.49710 7.87968
# Velocity P-wave (km/s) = 12.98996 6.28668 10.20445
#
# Compressibility (1/GPa) = 0.02574626
#
# Stress axis : x y z
#
# Youngs Moduli (GPa) = 47.96905 36.52968 77.25635
#
# Poissons Ratio (x) = 0.25308 0.38853
# Poissons Ratio (y) = 0.33233 0.44443
# Poissons Ratio (z) = 0.24124 0.21014
#
# Static dielectric constant tensor:
#      x y z
#    x 1.845400 0.000000 0.034470 
#    y 0.000000 1.680940 0.000000 
#    z 0.034470 0.000000 1.762870 
# 
# From -- ./inp_files/7218.got.cif
#   From: 2010.05.17/outbox.cif.g08.bks.cpg/sg13_4_cif.got.tgz:7218.got - 2010.06.03 16:44:36.
