data_PCOD9228579
_publ_section_title
;
Structure prediction by ZEFSAII (Michael W. Deem and Ramdas Pophale) SiO2 
 PCOD9228579
Probable space group: P 2/C
;
_chemical_formula_sum "Si O2"
_cell_formula_units_Z 26
_cell_length_a 6.559737
_cell_length_b 11.014411
_cell_length_c 24.583160
_cell_angle_alpha 90.000000
_cell_angle_beta 63.179970
_cell_angle_gamma 90.000000
_cell_volume 1585.107315
_symmetry_space_group_name_H-M "P 2/C"
_symmetry_group_IT_number 13
_symmetry_cell_setting 'monoclinic'
loop_
_space_group_symop_operation_xyz
x,y,z
-x,y,1/2-z
-x,-y,-z
x,-y,1/2+z
loop_
_atom_site_type_symbol
_atom_site_label
_atom_site_fract_x
_atom_site_fract_y
_atom_site_fract_z
Si Si1 0.583207 0.321712 0.031770
Si Si2 0.297346 0.094630 0.038266
Si Si3 0.911669 0.234554 0.537262
Si Si4 0.500000 0.882089 0.250000
Si Si5 0.778842 0.257288 0.808155
Si Si6 0.490765 0.417780 0.921856
Si Si7 0.963607 0.919492 0.140166
O O1 0.405803 0.211226 0.054900
O O2 0.526038 0.437446 0.075498
O O3 0.576847 0.372600 0.970611
O O4 0.834433 0.269766 0.011117
O O5 0.105255 0.029809 0.097450
O O6 0.194944 0.142409 0.993747
O O7 0.500000 0.000000 0.000000
O O8 0.754472 0.354063 0.556965
O O9 0.917208 0.171540 0.595386
O O10 0.394403 0.800408 0.214474
O O11 0.721369 0.949798 0.198020
O O12 0.656817 0.359948 0.857664
O O13 0.875464 0.151876 0.836376
O O14 0.000000 0.305279 0.750000
#
# Coordination Sequence:
#
# PCOD9228579 Si02
#       7
#     4   4   4   2   4   4   4
#     4  10  21  33  52  82 110 147 174 217 282 333
#     4  11  22  33  53  83 113 146 178 221 279 335
#     4  11  19  33  55  83 109 145 175 221 287 325
#     4  10  22  34  54  80 104 144 182 224 276 312
#     4  10  20  35  55  82 104 141 183 226 278 310
#     4  10  19  35  53  78 113 137 180 227 268 333
#     4  11  20  34  55  80 113 140 183 228 270 332
#
# _framework density 16.402674999999999
#
# number of rings (size 3 to 8) (size 9 to 14) (size 15 to 20)
#    0.000    1.538    4.615    1.846    0.000    0.000 
#    0.000    0.000    0.000    4.615    0.000    1.077 
#    0.000    0.000    0.000    0.000    0.000    0.000 
#
# Total GULP energy -145071.839264 kJ/mol
# GULP energy per Si atom -5579.686126 kJ/mol
# Density = 1.636534 g / cm^3
# Si number density = 16.402675 Si / 1000 Ang^3
#
#
#
# Elastic Constant Matrix: (Units=GPa)
#
#
# Indices 1 2 3 4 5 6 
#
# 1 111.7606 49.8804 43.1697 0.0000 0.4677 0.0000
# 2 49.8804 100.4970 47.6695 0.0000 -6.3354 0.0000
# 3 43.1697 47.6695 89.6875 0.0000 -13.9545 0.0000
# 4 0.0000 0.0000 0.0000 24.6474 0.0000 -4.7794
# 5 0.4677 -6.3354 -13.9545 0.0000 32.0334 0.0000
# 6 0.0000 0.0000 0.0000 -4.7794 0.0000 11.8786
#
#
#
# Elastic Compliance Matrix: (Units=1/GPa)
#
#
# Indices 1 2 3 4 5 6 
#
# 1 0.012534 -0.004451 -0.004112 0.000000 -0.002854 0.000000
# 2 -0.004451 0.014892 -0.005690 0.000000 0.000531 0.000000
# 3 -0.004112 -0.005690 0.017150 0.000000 0.006406 0.000000
# 4 0.000000 0.000000 0.000000 0.044006 0.000000 0.017706
# 5 -0.002854 0.000531 0.006406 0.000000 0.034155 0.000000
# 6 0.000000 0.000000 0.000000 0.017706 0.000000 0.091309
#
#
# Mechanical properties :
#
#
# Convention : Reuss Voigt Hill
#
# Bulk Modulus (GPa) = 62.22409 64.82049 63.52229
# Shear Modulus (GPa) = 20.16871 24.46024 22.31447
#
# Velocity S-wave (km/s) = 3.51037 3.86584 3.69238
# Velocity P-wave (km/s) = 7.37888 7.71559 7.54911
#
# Compressibility (1/GPa) = 0.01607095
#
# Stress axis : x y z
#
# Youngs Moduli (GPa) = 79.78073 67.14875 58.30910
#
# Poissons Ratio (x) = 0.29887 0.23975
# Poissons Ratio (y) = 0.35510 0.33180
# Poissons Ratio (z) = 0.32803 0.38210
#
# Static dielectric constant tensor:
#      x y z
#    x 1.566860 0.000000 -0.001610 
#    y 0.000000 1.529900 0.000000 
#    z -0.001610 0.000000 1.543750 
# 
# From -- ./inp_files/73378.got.cif
#   From: 2010.05.17/outbox.cif.g08.bks.cpg/sg13_37_cif.got.tgz:73378.got - 2010.06.03 16:44:36.
