data_PCOD9228535
_publ_section_title
;
Structure prediction by ZEFSAII (Michael W. Deem and Ramdas Pophale) SiO2 
 PCOD9228535
Probable space group: P 2/C
;
_chemical_formula_sum "Si O2"
_cell_formula_units_Z 32
_cell_length_a 9.973644
_cell_length_b 21.202273
_cell_length_c 9.286649
_cell_angle_alpha 90.000000
_cell_angle_beta 127.210700
_cell_angle_gamma 90.000000
_cell_volume 1563.996709
_symmetry_space_group_name_H-M "P 2/C"
_symmetry_group_IT_number 13
_symmetry_cell_setting 'monoclinic'
loop_
_space_group_symop_operation_xyz
x,y,z
-x,y,1/2-z
-x,-y,-z
x,-y,1/2+z
loop_
_atom_site_type_symbol
_atom_site_label
_atom_site_fract_x
_atom_site_fract_y
_atom_site_fract_z
Si Si1 0.811245 0.196147 0.071332
Si Si2 0.851805 0.451249 0.538425
Si Si3 0.319253 0.939679 0.051359
Si Si4 0.323535 0.696188 0.214430
Si Si5 0.688492 0.799180 0.804313
Si Si6 0.672020 0.680637 0.949291
Si Si7 0.094138 0.586401 0.950321
Si Si8 0.315223 0.938998 0.703513
O O1 0.692680 0.208259 0.134411
O O2 0.000000 0.206158 0.250000
O O3 0.784778 0.124553 0.003417
O O4 0.758934 0.242647 0.911033
O O5 0.740701 0.390336 0.495364
O O6 0.792040 0.523912 0.505451
O O7 0.000000 0.449574 0.750000
O O8 0.937943 0.438493 0.441914
O O9 0.500000 0.930366 0.250000
O O10 0.235983 0.000348 0.074001
O O11 0.335724 0.949333 0.888862
O O12 0.500000 0.684666 0.250000
O O13 0.348650 0.701946 0.400463
O O14 0.200174 0.638082 0.101231
O O15 0.500000 0.801777 0.750000
O O16 0.771389 0.737339 0.931304
O O17 0.763577 0.869638 0.874780
O O18 0.500000 0.675916 0.750000
O O19 0.000000 0.613397 0.750000
O O20 0.500000 0.936316 0.750000
#
# Coordination Sequence:
#
# PCOD9228535 Si02
#       8
#     4   4   4   4   4   4   4   4
#     4  11  25  42  62  92 127 163 206 258 317 370
#     4  10  21  43  63  89 124 161 207 245 304 365
#     4  10  19  34  59  88 120 161 208 255 300 363
#     4  12  25  41  62  93 122 159 207 254 307 367
#     4   9  20  39  60  87 121 162 204 249 302 362
#     4  11  24  39  62  90 124 159 202 258 303 358
#     4  10  23  40  66  91 120 164 202 250 300 368
#     4   9  17  31  57  88 116 155 207 249 297 361
#
# _framework density 20.460401000000001
#
# number of rings (size 3 to 8) (size 9 to 14) (size 15 to 20)
#    0.000    1.750    1.250    3.750    5.250    4.500 
#    0.000    3.750    0.000    0.750    0.000    0.000 
#    0.000    0.000    0.000    0.000    0.000    0.000 
#
# Total GULP energy -178408.228593 kJ/mol
# GULP energy per Si atom -5575.257144 kJ/mol
# Density = 2.041383 g / cm^3
# Si number density = 20.460401 Si / 1000 Ang^3
#
#
#
# Elastic Constant Matrix: (Units=GPa)
#
#
# Indices 1 2 3 4 5 6 
#
# 1 33.1969 22.7028 26.5201 0.0000 -11.2719 0.0000
# 2 22.7028 155.3125 51.6875 0.0000 -14.5103 0.0000
# 3 26.5201 51.6875 112.8338 0.0000 -27.0041 0.0000
# 4 0.0000 0.0000 0.0000 37.5186 0.0000 -2.0362
# 5 -11.2719 -14.5103 -27.0041 0.0000 25.5659 0.0000
# 6 0.0000 0.0000 0.0000 -2.0362 0.0000 29.3338
#
#
#
# Elastic Compliance Matrix: (Units=1/GPa)
#
#
# Indices 1 2 3 4 5 6 
#
# 1 0.040108 -0.003053 -0.005635 0.000000 0.009998 0.000000
# 2 -0.003053 0.007843 -0.002853 0.000000 0.000091 0.000000
# 3 -0.005635 -0.002853 0.014068 0.000000 0.010756 0.000000
# 4 0.000000 0.000000 0.000000 0.026754 0.000000 0.001857
# 5 0.009998 0.000091 0.010756 0.000000 0.054936 0.000000
# 6 0.000000 0.000000 0.000000 0.001857 0.000000 0.034219
#
#
# Mechanical properties :
#
#
# Convention : Reuss Voigt Hill
#
# Bulk Modulus (GPa) = 25.68335 55.90711 40.79523
# Shear Modulus (GPa) = 23.36546 31.84583 27.60564
#
# Velocity S-wave (km/s) = 3.38299 3.94948 3.67716
# Velocity P-wave (km/s) = 5.27631 6.94131 6.16527
#
# Compressibility (1/GPa) = 0.03893574
#
# Stress axis : x y z
#
# Youngs Moduli (GPa) = 24.93250 127.50142 71.08203
#
# Poissons Ratio (x) = 0.38930 0.40057
# Poissons Ratio (y) = 0.07613 0.20282
# Poissons Ratio (z) = 0.14050 0.36380
#
# Static dielectric constant tensor:
#      x y z
#    x 1.770670 0.000000 -0.002180 
#    y 0.000000 1.846230 0.000000 
#    z -0.002180 0.000000 1.695440 
# 
# From -- ./inp_files/17301.got.cif
#   From: 2010.05.17/outbox.cif.g08.bks.cpg/sg13_9_cif.got.tgz:17301.got - 2010.06.03 16:44:36.
