data_PCOD9228810
_publ_section_title
;
Structure prediction by ZEFSAII (Michael W. Deem and Ramdas Pophale) SiO2 
 PCOD9228810
Probable space group: P 2/C
;
_chemical_formula_sum "Si O2"
_cell_formula_units_Z 20
_cell_length_a 9.097096
_cell_length_b 12.146099
_cell_length_c 12.622786
_cell_angle_alpha 90.000000
_cell_angle_beta 143.384177
_cell_angle_gamma 90.000000
_cell_volume 831.890860
_symmetry_space_group_name_H-M "P 2/C"
_symmetry_group_IT_number 13
_symmetry_cell_setting 'monoclinic'
loop_
_space_group_symop_operation_xyz
x,y,z
-x,y,1/2-z
-x,-y,-z
x,-y,1/2+z
loop_
_atom_site_type_symbol
_atom_site_label
_atom_site_fract_x
_atom_site_fract_y
_atom_site_fract_z
Si Si1 0.813433 0.723122 0.739456
Si Si2 0.118465 0.882451 0.044710
Si Si3 0.488210 0.885994 0.057879
Si Si4 0.229141 0.460665 0.764032
Si Si5 0.667760 0.433510 0.437164
O O1 0.581213 0.792802 0.566130
O O2 0.786215 0.593461 0.733088
O O3 0.000000 0.737202 0.750000
O O4 0.928904 0.787032 0.905139
O O5 0.290433 0.896253 0.039752
O O6 0.269230 0.853922 0.237093
O O7 0.000000 0.000000 0.000000
O O8 0.500000 0.000000 0.000000
O O9 0.488895 0.456209 0.849992
O O10 0.953430 0.433588 0.564065
O O11 0.278314 0.408773 0.907597
O O12 0.500000 0.372836 0.250000
#
# Coordination Sequence:
#
# PCOD9228810 Si02
#       5
#     4   4   4   4   4
#     4  10  19  36  55  83 116 146 198 242 278 355
#     4  10  20  34  56  82 109 151 192 236 296 344
#     4  10  20  34  56  82 110 151 192 238 292 345
#     4  10  21  38  59  91 118 157 200 250 297 363
#     4  10  20  37  62  85 120 155 198 244 311 355
#
# _framework density 24.041615
#
# number of rings (size 3 to 8) (size 9 to 14) (size 15 to 20)
#    0.000    2.000    4.000    0.600    0.000    1.600 
#    0.000    2.000    0.000    2.400    0.000    0.000 
#    0.000    0.000    0.000    0.000    0.000    0.000 
#
# Total GULP energy -111360.668247 kJ/mol
# GULP energy per Si atom -5568.033412 kJ/mol
# Density = 2.398689 g / cm^3
# Si number density = 24.041615 Si / 1000 Ang^3
#
#
#
# Elastic Constant Matrix: (Units=GPa)
#
#
# Indices 1 2 3 4 5 6 
#
# 1 43.8929 -10.7458 50.0055 0.0000 -15.6739 0.0000
# 2 -10.7458 125.4898 70.1788 0.0000 -20.3239 0.0000
# 3 50.0055 70.1788 256.0719 0.0000 -8.2076 0.0000
# 4 0.0000 0.0000 0.0000 29.2095 0.0000 6.0986
# 5 -15.6739 -20.3239 -8.2076 0.0000 43.0986 0.0000
# 6 0.0000 0.0000 0.0000 6.0986 0.0000 19.0251
#
#
#
# Elastic Compliance Matrix: (Units=1/GPa)
#
#
# Indices 1 2 3 4 5 6 
#
# 1 0.049644 0.015295 -0.013157 0.000000 0.022762 0.000000
# 2 0.015295 0.014851 -0.006695 0.000000 0.011291 0.000000
# 3 -0.013157 -0.006695 0.008104 0.000000 -0.006399 0.000000
# 4 0.000000 0.000000 0.000000 0.036691 0.000000 -0.011762
# 5 0.022762 0.011291 -0.006399 0.000000 0.035586 0.000000
# 6 0.000000 0.000000 0.000000 -0.011762 0.000000 0.056332
#
#
# Mechanical properties :
#
#
# Convention : Reuss Voigt Hill
#
# Bulk Modulus (GPa) = 15.75138 71.59241 43.67190
# Shear Modulus (GPa) = 21.59968 39.33437 30.46702
#
# Velocity S-wave (km/s) = 3.00063 4.04926 3.56372
# Velocity P-wave (km/s) = 4.30941 7.19063 5.92774
#
# Compressibility (1/GPa) = 0.06348650
#
# Stress axis : x y z
#
# Youngs Moduli (GPa) = 20.14334 67.33419 123.39372
#
# Poissons Ratio (x) = -1.02989 1.62346
# Poissons Ratio (y) = -0.30810 0.82613
# Poissons Ratio (z) = 0.26502 0.45081
#
# Static dielectric constant tensor:
#      x y z
#    x 2.463530 0.000000 -0.049790 
#    y 0.000000 1.871230 0.000000 
#    z -0.049790 0.000000 2.042550 
# 
# From -- ./inp_files/51228.got.cif
#   From: 2010.05.17/outbox.cif.g08.bks.cpg/sg13_26_cif.got.tgz:51228.got - 2010.06.03 16:44:36.
