data_PCOD9228360
_publ_section_title
;
Structure prediction by ZEFSAII (Michael W. Deem and Ramdas Pophale) SiO2 
 PCOD9228360
Probable space group: P 2/C
;
_chemical_formula_sum "Si O2"
_cell_formula_units_Z 20
_cell_length_a 8.249823
_cell_length_b 12.553645
_cell_length_c 8.440674
_cell_angle_alpha 90.000000
_cell_angle_beta 87.909289
_cell_angle_gamma 90.000000
_cell_volume 873.579440
_symmetry_space_group_name_H-M "P 2/C"
_symmetry_group_IT_number 13
_symmetry_cell_setting 'monoclinic'
loop_
_space_group_symop_operation_xyz
x,y,z
-x,y,1/2-z
-x,-y,-z
x,-y,1/2+z
loop_
_atom_site_type_symbol
_atom_site_label
_atom_site_fract_x
_atom_site_fract_y
_atom_site_fract_z
Si Si1 0.318661 0.463140 0.567936
Si Si2 0.324213 0.952107 0.035632
Si Si3 0.839656 0.882861 0.156049
Si Si4 0.286925 0.658424 0.403679
Si Si5 0.596593 0.268434 0.083999
O O1 0.500000 0.500000 0.500000
O O2 0.228261 0.573437 0.537693
O O3 0.307283 0.412718 0.742964
O O4 0.281069 0.364951 0.453196
O O5 0.316902 0.844379 0.932825
O O6 0.193920 0.041012 0.990829
O O7 0.301036 0.914212 0.215140
O O8 0.500000 0.000000 0.000000
O O9 0.829378 0.758264 0.117653
O O10 0.000000 0.904117 0.250000
O O11 0.455876 0.714911 0.454724
O O12 0.500000 0.279284 0.250000
#
# Coordination Sequence:
#
# PCOD9228360 Si02
#       5
#     4   4   4   4   4
#     4  10  19  33  62  95 132 166 218 288 335 381
#     4  12  24  42  73  99 131 172 235 285 329 401
#     4  12  27  47  67  97 142 183 219 278 349 412
#     4  11  22  40  63  97 138 172 220 280 343 397
#     4  11  20  35  62 102 131 166 221 286 338 384
#
# _framework density 22.894311999999999
#
# number of rings (size 3 to 8) (size 9 to 14) (size 15 to 20)
#    0.000    0.800    4.000    7.200    0.000    0.000 
#    0.000    1.000    0.000    0.000    0.000    0.000 
#    0.000    0.000    0.000    0.000    0.000    0.000 
#
# Total GULP energy -111671.751347 kJ/mol
# GULP energy per Si atom -5583.587567 kJ/mol
# Density = 2.284220 g / cm^3
# Si number density = 22.894312 Si / 1000 Ang^3
#
#
#
# Elastic Constant Matrix: (Units=GPa)
#
#
# Indices 1 2 3 4 5 6 
#
# 1 28.9643 21.7615 -6.7865 0.0000 9.1986 0.0000
# 2 21.7615 191.7377 50.8064 0.0000 15.9863 0.0000
# 3 -6.7865 50.8064 112.0740 0.0000 0.9451 0.0000
# 4 0.0000 0.0000 0.0000 46.5633 0.0000 12.7409
# 5 9.1986 15.9863 0.9451 0.0000 18.0460 0.0000
# 6 0.0000 0.0000 0.0000 12.7409 0.0000 13.0403
#
#
#
# Elastic Compliance Matrix: (Units=1/GPa)
#
#
# Indices 1 2 3 4 5 6 
#
# 1 0.045507 -0.004939 0.005156 0.000000 -0.019091 0.000000
# 2 -0.004939 0.006976 -0.003432 0.000000 -0.003482 0.000000
# 3 0.005156 -0.003432 0.010792 0.000000 -0.000153 0.000000
# 4 0.000000 0.000000 0.000000 0.029313 0.000000 -0.028640
# 5 -0.019091 -0.003482 -0.000153 0.000000 0.068238 0.000000
# 6 0.000000 0.000000 0.000000 -0.028640 0.000000 0.104668
#
#
# Mechanical properties :
#
#
# Convention : Reuss Voigt Hill
#
# Bulk Modulus (GPa) = 17.59212 51.59321 34.59266
# Shear Modulus (GPa) = 17.18970 33.32957 25.25963
#
# Velocity S-wave (km/s) = 2.74310 3.81964 3.32522
# Velocity P-wave (km/s) = 4.21112 6.48360 5.46675
#
# Compressibility (1/GPa) = 0.05684363
#
# Stress axis : x y z
#
# Youngs Moduli (GPa) = 21.97458 143.35261 92.66104
#
# Poissons Ratio (x) = 0.70807 -0.47774
# Poissons Ratio (y) = 0.10854 0.31802
# Poissons Ratio (z) = -0.11330 0.49200
#
# Static dielectric constant tensor:
#      x y z
#    x 1.927470 0.000000 0.042300 
#    y 0.000000 1.963730 0.000000 
#    z 0.042300 0.000000 1.935660 
# 
# From -- ./inp_files/11750.got.cif
#   From: 2010.05.17/outbox.cif.g08.bks.cpg/sg13_6_cif.got.tgz:11750.got - 2010.06.03 16:44:36.
