data_PCOD9228473
_publ_section_title
;
Structure prediction by ZEFSAII (Michael W. Deem and Ramdas Pophale) SiO2 
 PCOD9228473
Probable space group: P 2/C
;
_chemical_formula_sum "Si O2"
_cell_formula_units_Z 32
_cell_length_a 10.829524
_cell_length_b 14.208128
_cell_length_c 13.844150
_cell_angle_alpha 90.000000
_cell_angle_beta 40.005919
_cell_angle_gamma 90.000000
_cell_volume 1369.409968
_symmetry_space_group_name_H-M "P 2/C"
_symmetry_group_IT_number 13
_symmetry_cell_setting 'monoclinic'
loop_
_space_group_symop_operation_xyz
x,y,z
-x,y,1/2-z
-x,-y,-z
x,-y,1/2+z
loop_
_atom_site_type_symbol
_atom_site_label
_atom_site_fract_x
_atom_site_fract_y
_atom_site_fract_z
Si Si1 0.734862 0.564662 0.343921
Si Si2 0.268835 0.012622 0.256299
Si Si3 0.030110 0.582808 0.904267
Si Si4 0.617636 0.454976 0.581424
Si Si5 0.219896 0.925437 0.590128
Si Si6 0.004826 0.713135 0.084293
Si Si7 0.683987 0.170400 0.667187
Si Si8 0.859451 0.096546 0.972068
O O1 0.687288 0.550522 0.484807
O O2 0.541892 0.585053 0.397963
O O3 0.897725 0.638344 0.216038
O O4 0.820569 0.462212 0.259928
O O5 0.381374 0.921808 0.231150
O O6 0.064945 0.958819 0.355580
O O7 0.327526 0.073668 0.128492
O O8 0.232313 0.081292 0.368072
O O9 0.817577 0.599134 0.986008
O O10 0.100057 0.665716 0.932545
O O11 0.000000 0.500000 0.000000
O O12 0.500000 0.472206 0.750000
O O13 0.240332 0.864943 0.480887
O O14 0.000000 0.905606 0.750000
O O15 0.250181 0.033568 0.538755
O O16 0.834442 0.773176 0.137543
O O17 0.126479 0.794468 0.062173
O O18 0.500000 0.231732 0.750000
#
# Coordination Sequence:
#
# PCOD9228473 Si02
#       8
#     4   4   4   4   4   4   4   4
#     4  10  23  38  62  90 111 161 202 232 310 358
#     4   8  15  31  51  75 110 143 189 220 270 350
#     4  10  20  37  59  87 115 155 199 242 290 360
#     4  11  20  39  65  83 116 154 196 248 288 362
#     4   9  16  32  56  76 106 150 191 223 276 342
#     4  10  19  34  57  83 119 141 190 251 285 342
#     4  10  21  32  53  85 113 147 184 236 293 334
#     4   8  15  29  52  81 106 139 182 235 279 320
#
# _framework density 23.367726999999999
#
# number of rings (size 3 to 8) (size 9 to 14) (size 15 to 20)
#    0.000    2.500    2.500    2.625    1.750    0.500 
#    0.000   16.250    0.000    0.000   26.000    0.000 
#    0.000    0.000    0.000    0.000    0.000    0.000 
#
# Total GULP energy -178374.912597 kJ/mol
# GULP energy per Si atom -5574.216019 kJ/mol
# Density = 2.331454 g / cm^3
# Si number density = 23.367727 Si / 1000 Ang^3
#
#
#
# Elastic Constant Matrix: (Units=GPa)
#
#
# Indices 1 2 3 4 5 6 
#
# 1 73.4416 -17.1082 24.7355 0.0000 6.7354 0.0000
# 2 -17.1082 62.8286 20.3231 0.0000 8.0112 0.0000
# 3 24.7355 20.3231 72.8171 0.0000 25.7374 0.0000
# 4 0.0000 0.0000 0.0000 13.9766 0.0000 -5.5030
# 5 6.7354 8.0112 25.7374 0.0000 43.6371 0.0000
# 6 0.0000 0.0000 0.0000 -5.5030 0.0000 19.0524
#
#
#
# Elastic Compliance Matrix: (Units=1/GPa)
#
#
# Indices 1 2 3 4 5 6 
#
# 1 0.018224 0.007643 -0.008634 0.000000 0.000876 0.000000
# 2 0.007643 0.020708 -0.008357 0.000000 -0.000052 0.000000
# 3 -0.008634 -0.008357 0.022722 0.000000 -0.010535 0.000000
# 4 0.000000 0.000000 0.000000 0.080729 0.000000 0.023318
# 5 0.000876 -0.000052 -0.010535 0.000000 0.029004 0.000000
# 6 0.000000 0.000000 0.000000 0.023318 0.000000 0.059222
#
#
# Mechanical properties :
#
#
# Convention : Reuss Voigt Hill
#
# Bulk Modulus (GPa) = 23.27819 29.44311 26.36065
# Shear Modulus (GPa) = 18.96645 27.40901 23.18773
#
# Velocity S-wave (km/s) = 2.85204 3.42854 3.15349
# Velocity P-wave (km/s) = 4.56386 5.31982 4.95627
#
# Compressibility (1/GPa) = 0.04295866
#
# Stress axis : x y z
#
# Youngs Moduli (GPa) = 54.87179 48.29130 44.01054
#
# Poissons Ratio (x) = -0.36911 0.37997
# Poissons Ratio (y) = -0.41941 0.36782
# Poissons Ratio (z) = 0.47374 0.40359
#
# Static dielectric constant tensor:
#      x y z
#    x 1.991090 0.000000 -0.029650 
#    y 0.000000 1.938620 0.000000 
#    z -0.029650 0.000000 1.965260 
# 
# From -- ./inp_files/51455.got.cif
#   From: 2010.05.17/outbox.cif.g08.bks.cpg/sg13_26_cif.got.tgz:51455.got - 2010.06.03 16:44:36.
