data_PCOD9228462
_publ_section_title
;
Structure prediction by ZEFSAII (Michael W. Deem and Ramdas Pophale) SiO2 
 PCOD9228462
Probable space group: P 2/C
;
_chemical_formula_sum "Si O2"
_cell_formula_units_Z 24
_cell_length_a 10.373930
_cell_length_b 14.328793
_cell_length_c 8.480164
_cell_angle_alpha 90.000000
_cell_angle_beta 100.372192
_cell_angle_gamma 90.000000
_cell_volume 1239.943023
_symmetry_space_group_name_H-M "P 2/C"
_symmetry_group_IT_number 13
_symmetry_cell_setting 'monoclinic'
loop_
_space_group_symop_operation_xyz
x,y,z
-x,y,1/2-z
-x,-y,-z
x,-y,1/2+z
loop_
_atom_site_type_symbol
_atom_site_label
_atom_site_fract_x
_atom_site_fract_y
_atom_site_fract_z
Si Si1 0.500000 0.161897 0.750000
Si Si2 0.500000 0.291010 0.250000
Si Si3 0.555583 0.344241 0.930269
Si Si4 0.000000 0.458099 0.750000
Si Si5 0.352879 0.028184 0.918177
Si Si6 0.738244 0.859237 0.799905
Si Si7 0.000000 0.767581 0.750000
Si Si8 0.858545 0.386610 0.013723
O O1 0.543540 0.232466 0.896722
O O2 0.379939 0.098970 0.779869
O O3 0.509694 0.353369 0.411617
O O4 0.371101 0.223682 0.230151
O O5 0.500000 0.382922 0.750000
O O6 0.703687 0.376521 0.978582
O O7 0.086187 0.398823 0.649216
O O8 0.093939 0.524427 0.874478
O O9 0.285895 0.934685 0.843124
O O10 0.285337 0.084485 0.043212
O O11 0.500000 0.000000 0.000000
O O12 0.885295 0.822890 0.813141
O O13 0.924592 0.701905 0.609970
#
# Coordination Sequence:
#
# PCOD9228462 Si02
#       8
#     2   2   4   2   4   4   2   4
#     4  10  19  34  56  95 118 168 222 264 315 372
#     4  12  19  38  66  89 128 166 230 272 317 382
#     4  10  22  37  66 101 126 167 223 278 313 383
#     4   9  22  42  74  93 124 182 194 245 342 434
#     4  12  20  34  58  83 122 171 221 278 313 378
#     4  12  23  37  58  92 120 178 225 273 334 371
#     4  11  26  40  64  93 134 168 214 281 324 386
#     4  10  21  45  67  96 131 164 214 257 325 413
#
# _framework density 19.355727999999999
#
# number of rings (size 3 to 8) (size 9 to 14) (size 15 to 20)
#    0.500    0.667    6.667    0.000    0.000    3.333 
#    3.000    0.833    0.000    0.000    0.000    0.000 
#    0.000    0.000    0.000    0.000    0.000    0.000 
#
# Total GULP energy -133899.043282 kJ/mol
# GULP energy per Si atom -5579.126803 kJ/mol
# Density = 1.931167 g / cm^3
# Si number density = 19.355728 Si / 1000 Ang^3
#
#
#
# Elastic Constant Matrix: (Units=GPa)
#
#
# Indices 1 2 3 4 5 6 
#
# 1 127.3091 27.1098 46.3826 0.0000 -9.6354 0.0000
# 2 27.1098 20.9895 15.1771 0.0000 -9.3492 0.0000
# 3 46.3826 15.1771 125.1372 0.0000 -23.1265 0.0000
# 4 0.0000 0.0000 0.0000 -19.2242 0.0000 -8.3752
# 5 -9.6354 -9.3492 -23.1265 0.0000 36.5932 0.0000
# 6 0.0000 0.0000 0.0000 -8.3752 0.0000 4.9775
#
#
#
# Elastic Compliance Matrix: (Units=1/GPa)
#
#
# Indices 1 2 3 4 5 6 
#
# 1 0.011806 -0.014088 -0.003123 0.000000 -0.002464 0.000000
# 2 -0.014088 0.072917 -0.000979 0.000000 0.014302 0.000000
# 3 -0.003123 -0.000979 0.010269 0.000000 0.005417 0.000000
# 4 0.000000 0.000000 0.000000 -0.030015 0.000000 -0.050504
# 5 -0.002464 0.014302 0.005417 0.000000 0.033756 0.000000
# 6 0.000000 0.000000 0.000000 -0.050504 0.000000 0.115925
#
#
# Mechanical properties :
#
#
# Convention : Reuss Voigt Hill
#
# Bulk Modulus (GPa) = 17.06125 50.08609 33.57367
# Shear Modulus (GPa) = 18.47916 16.78706 17.63311
#
# Velocity S-wave (km/s) = 3.09319 2.94818 3.02156
# Velocity P-wave (km/s) = 4.64660 6.12550 5.43657
#
# Compressibility (1/GPa) = 0.05861235
#
# Stress axis : x y z
#
# Youngs Moduli (GPa) = 84.70179 13.71419 97.38474
#
# Poissons Ratio (x) = 0.19321 0.30411
# Poissons Ratio (y) = 1.19331 0.09531
# Poissons Ratio (z) = 0.26450 0.01342
#
# Static dielectric constant tensor:
#      x y z
#    x 1.631440 0.000000 -0.013690 
#    y 0.000000 1.684120 0.000000 
#    z -0.013690 0.000000 1.753580 
# 
# From -- ./inp_files/12608.got.cif
#   From: 2010.05.17/outbox.cif.g08.bks.cpg/sg13_7_cif.got.tgz:12608.got - 2010.06.03 16:44:36.
