data_PCOD9228767
_publ_section_title
;
Structure prediction by ZEFSAII (Michael W. Deem and Ramdas Pophale) SiO2 
 PCOD9228767
Probable space group: P 2/C
;
_chemical_formula_sum "Si O2"
_cell_formula_units_Z 30
_cell_length_a 17.491718
_cell_length_b 14.824444
_cell_length_c 10.910724
_cell_angle_alpha 90.000000
_cell_angle_beta 29.319666
_cell_angle_gamma 90.000000
_cell_volume 1385.410160
_symmetry_space_group_name_H-M "P 2/C"
_symmetry_group_IT_number 13
_symmetry_cell_setting 'monoclinic'
loop_
_space_group_symop_operation_xyz
x,y,z
-x,y,1/2-z
-x,-y,-z
x,-y,1/2+z
loop_
_atom_site_type_symbol
_atom_site_label
_atom_site_fract_x
_atom_site_fract_y
_atom_site_fract_z
Si Si1 0.253497 0.737460 0.072399
Si Si2 0.727892 0.794235 0.048725
Si Si3 0.461706 0.302695 0.059327
Si Si4 0.313073 0.631528 0.548649
Si Si5 0.171924 0.903327 0.806859
Si Si6 0.000000 0.792496 0.250000
Si Si7 0.159602 0.893837 0.372194
Si Si8 0.359896 0.434198 0.543707
O O1 0.252443 0.827974 0.151769
O O2 0.254389 0.651169 0.158505
O O3 0.097334 0.736598 0.211129
O O4 0.397766 0.730180 0.777933
O O5 0.571790 0.769101 0.340622
O O6 0.775945 0.694999 0.924788
O O7 0.827347 0.847616 0.012408
O O8 0.709991 0.854105 0.951246
O O9 0.315699 0.320439 0.176192
O O10 0.554763 0.398244 0.951451
O O11 0.500000 0.633662 0.250000
O O12 0.274095 0.528446 0.637344
O O13 0.218986 0.003912 0.779571
O O14 0.120553 0.853925 0.003625
O O15 0.014390 0.900309 0.942445
O O16 0.500000 0.437946 0.250000
#
# Coordination Sequence:
#
# PCOD9228767 Si02
#       8
#     4   4   4   4   4   2   4   4
#     4  10  20  37  59  88 120 159 205 242 307 350
#     4  11  21  37  61  90 125 155 196 257 310 356
#     4  10  19  35  63  88 129 158 196 250 299 366
#     4   9  19  33  56  88 122 159 201 243 300 358
#     4  10  23  39  62  88 111 154 212 250 303 358
#     4  10  22  40  66  82 118 160 200 264 292 366
#     4  10  22  38  62  86 116 154 206 258 294 366
#     4   9  17  33  58  91 119 158 206 247 292 359
#
# _framework density 21.654236999999998
#
# number of rings (size 3 to 8) (size 9 to 14) (size 15 to 20)
#    0.000    2.133    1.333    1.600    5.600    1.067 
#    0.000    0.667   11.733    2.400    0.000    0.000 
#    0.000    0.000    0.000    0.000    0.000    0.000 
#
# Total GULP energy -167116.469617 kJ/mol
# GULP energy per Si atom -5570.548987 kJ/mol
# Density = 2.160495 g / cm^3
# Si number density = 21.654237 Si / 1000 Ang^3
#
#
#
# Elastic Constant Matrix: (Units=GPa)
#
#
# Indices 1 2 3 4 5 6 
#
# 1 96.4669 47.2040 6.3921 0.0000 15.5955 0.0000
# 2 47.2040 155.2901 40.3690 0.0000 3.3943 0.0000
# 3 6.3921 40.3690 61.0340 0.0000 24.6045 0.0000
# 4 0.0000 0.0000 0.0000 -20.8221 0.0000 1.6226
# 5 15.5955 3.3943 24.6045 0.0000 26.1139 0.0000
# 6 0.0000 0.0000 0.0000 1.6226 0.0000 29.2793
#
#
#
# Elastic Compliance Matrix: (Units=1/GPa)
#
#
# Indices 1 2 3 4 5 6 
#
# 1 0.016313 -0.007351 0.010797 0.000000 -0.018959 0.000000
# 2 -0.007351 0.011762 -0.013163 0.000000 0.015263 0.000000
# 3 0.010797 -0.013163 0.041713 0.000000 -0.044039 0.000000
# 4 0.000000 0.000000 0.000000 -0.047819 0.000000 0.002650
# 5 -0.018959 0.015263 -0.044039 0.000000 0.089125 0.000000
# 6 0.000000 0.000000 0.000000 0.002650 0.000000 0.034007
#
#
# Mechanical properties :
#
#
# Convention : Reuss Voigt Hill
#
# Bulk Modulus (GPa) = 19.85958 55.63569 37.74764
# Shear Modulus (GPa) = 27.57553 21.50262 24.53907
#
# Velocity S-wave (km/s) = 3.57241 3.15461 3.36999
# Velocity P-wave (km/s) = 5.11931 6.24638 5.71072
#
# Compressibility (1/GPa) = 0.05035353
#
# Stress axis : x y z
#
# Youngs Moduli (GPa) = 61.30099 85.01785 23.97340
#
# Poissons Ratio (x) = 0.62496 -0.25883
# Poissons Ratio (y) = 0.45062 0.31556
# Poissons Ratio (z) = -0.66184 1.11908
#
# Static dielectric constant tensor:
#      x y z
#    x 1.862470 0.000000 -0.017320 
#    y 0.000000 1.833810 0.000000 
#    z -0.017320 0.000000 1.825280 
# 
# From -- ./inp_files/40935.got.cif
#   From: 2010.05.17/outbox.cif.g08.bks.cpg/sg13_21_cif.got.tgz:40935.got - 2010.06.03 16:44:36.
