data_PCOD9228778
_publ_section_title
;
Structure prediction by ZEFSAII (Michael W. Deem and Ramdas Pophale) SiO2 
 PCOD9228778
Probable space group: P 2/C
;
_chemical_formula_sum "Si O2"
_cell_formula_units_Z 24
_cell_length_a 5.583330
_cell_length_b 7.082935
_cell_length_c 26.188464
_cell_angle_alpha 90.000000
_cell_angle_beta 106.170121
_cell_angle_gamma 90.000000
_cell_volume 994.686877
_symmetry_space_group_name_H-M "P 2/C"
_symmetry_group_IT_number 13
_symmetry_cell_setting 'monoclinic'
loop_
_space_group_symop_operation_xyz
x,y,z
-x,y,1/2-z
-x,-y,-z
x,-y,1/2+z
loop_
_atom_site_type_symbol
_atom_site_label
_atom_site_fract_x
_atom_site_fract_y
_atom_site_fract_z
Si Si1 0.949800 0.725180 0.691224
Si Si2 0.255665 0.513191 0.545658
Si Si3 0.596479 0.332073 0.338612
Si Si4 0.534317 0.115382 0.812638
Si Si5 0.429278 0.200324 0.973489
Si Si6 0.909145 0.876734 0.138533
O O1 0.693754 0.607775 0.677257
O O2 0.000000 0.813930 0.750000
O O3 0.206320 0.617401 0.693737
O O4 0.921361 0.895251 0.648749
O O5 0.266892 0.601187 0.602111
O O6 0.372826 0.305215 0.550866
O O7 0.408864 0.661621 0.520385
O O8 0.000000 0.500000 0.500000
O O9 0.558734 0.106349 0.329438
O O10 0.500000 0.128888 0.750000
O O11 0.297502 0.184455 0.831561
O O12 0.809474 0.196605 0.839643
O O13 0.190295 0.175332 0.923257
O O14 0.500000 0.000000 0.000000
#
# Coordination Sequence:
#
# PCOD9228778 Si02
#       6
#     4   4   4   4   4   4
#     4  10  19  36  67 106 134 181 240 290 352 438
#     4  11  28  45  70 102 147 190 242 303 359 429
#     4  10  20  36  63  94 139 178 230 286 352 415
#     4  10  19  35  64 104 134 178 238 291 353 439
#     4  11  26  46  71 102 142 191 242 298 364 433
#     4  10  20  34  62  96 134 173 232 287 347 418
#
# _framework density 24.128195000000002
#
# number of rings (size 3 to 8) (size 9 to 14) (size 15 to 20)
#    0.000    1.667    0.000    7.000   11.667    0.667 
#    0.000    0.000    0.000    6.000    0.000    0.000 
#    0.000    0.000    0.000    0.000    0.000    0.000 
#
# Total GULP energy -134058.232065 kJ/mol
# GULP energy per Si atom -5585.759669 kJ/mol
# Density = 2.407328 g / cm^3
# Si number density = 24.128195 Si / 1000 Ang^3
#
#
#
# Elastic Constant Matrix: (Units=GPa)
#
#
# Indices 1 2 3 4 5 6 
#
# 1 173.5978 8.1690 8.7555 0.0000 2.6012 0.0000
# 2 8.1690 111.0596 12.9901 0.0000 2.6554 0.0000
# 3 8.7555 12.9901 107.7323 0.0000 1.1705 0.0000
# 4 0.0000 0.0000 0.0000 12.9878 0.0000 8.0546
# 5 2.6012 2.6554 1.1705 0.0000 49.3317 0.0000
# 6 0.0000 0.0000 0.0000 8.0546 0.0000 -1.0229
#
#
#
# Elastic Compliance Matrix: (Units=1/GPa)
#
#
# Indices 1 2 3 4 5 6 
#
# 1 0.005803 -0.000371 -0.000424 0.000000 -0.000276 0.000000
# 2 -0.000371 0.009167 -0.001070 0.000000 -0.000449 0.000000
# 3 -0.000424 -0.001070 0.009447 0.000000 -0.000144 0.000000
# 4 0.000000 0.000000 0.000000 0.013087 0.000000 0.103051
# 5 -0.000276 -0.000449 -0.000144 0.000000 0.020313 0.000000
# 6 0.000000 0.000000 0.000000 0.103051 0.000000 -0.166166
#
#
# Mechanical properties :
#
#
# Convention : Reuss Voigt Hill
#
# Bulk Modulus (GPa) = 48.33701 50.24654 49.29177
# Shear Modulus (GPa) = -51.16544 36.42432 -7.37056
#
# Velocity S-wave (km/s) = -4.60996 3.88959 -1.74968
# Velocity P-wave (km/s) = 2.87379 6.40640 4.04866
#
# Compressibility (1/GPa) = 0.02068808
#
# Stress axis : x y z
#
# Youngs Moduli (GPa) = 172.31272 109.08263 105.84975
#
# Poissons Ratio (x) = 0.04044 0.04488
# Poissons Ratio (y) = 0.06387 0.11330
# Poissons Ratio (z) = 0.07305 0.11676
#
# Static dielectric constant tensor:
#      x y z
#    x 2.049030 0.000000 -0.038570 
#    y 0.000000 1.970820 0.000000 
#    z -0.038570 0.000000 1.843770 
# 
# From -- ./inp_files/83405.got.cif
#   From: 2010.05.17/outbox.cif.g08.bks.cpg/sg13_42_cif.got.tgz:83405.got - 2010.06.03 16:44:36.
