data_PCOD9228911
_publ_section_title
;
Structure prediction by ZEFSAII (Michael W. Deem and Ramdas Pophale) SiO2 
 PCOD9228911
Probable space group: P 2/C
;
_chemical_formula_sum "Si O2"
_cell_formula_units_Z 32
_cell_length_a 7.764873
_cell_length_b 11.498651
_cell_length_c 20.479711
_cell_angle_alpha 90.000000
_cell_angle_beta 54.395012
_cell_angle_gamma 90.000000
_cell_volume 1486.696676
_symmetry_space_group_name_H-M "P 2/C"
_symmetry_group_IT_number 13
_symmetry_cell_setting 'monoclinic'
loop_
_space_group_symop_operation_xyz
x,y,z
-x,y,1/2-z
-x,-y,-z
x,-y,1/2+z
loop_
_atom_site_type_symbol
_atom_site_label
_atom_site_fract_x
_atom_site_fract_y
_atom_site_fract_z
Si Si1 0.033168 0.219184 0.636435
Si Si2 0.181270 0.564788 0.266479
Si Si3 0.413278 0.847454 0.650003
Si Si4 0.758066 0.197130 0.450150
Si Si5 0.654135 0.063919 0.771860
Si Si6 0.193978 0.049911 0.495407
Si Si7 0.542234 0.724009 0.374900
Si Si8 0.133806 0.301899 0.289759
O O1 0.123295 0.160629 0.552436
O O2 0.238502 0.243551 0.635873
O O3 0.900356 0.338810 0.664253
O O4 0.865786 0.126363 0.700993
O O5 0.393307 0.613283 0.183786
O O6 0.184286 0.435690 0.293692
O O7 0.000000 0.562652 0.250000
O O8 0.369679 0.791808 0.589290
O O9 0.641347 0.903283 0.593328
O O10 0.347941 0.762258 0.721643
O O11 0.277462 0.963944 0.693179
O O12 0.647361 0.274725 0.530935
O O13 0.992700 0.238485 0.376298
O O14 0.734096 0.061391 0.476864
O O15 0.500000 0.013762 0.750000
O O16 0.511106 0.165276 0.835272
O O17 0.000000 0.000000 0.500000
O O18 0.000000 0.297408 0.250000
#
# Coordination Sequence:
#
# PCOD9228911 Si02
#       8
#     4   4   4   4   4   4   4   4
#     4  10  20  35  58  83 114 154 193 241 291 345
#     4   8  17  36  57  85 114 146 202 242 290 343
#     4  11  21  37  57  84 122 151 196 232 298 359
#     4  11  21  38  59  86 120 154 196 242 297 351
#     4  11  21  34  55  85 116 154 192 238 296 351
#     4  12  23  36  56  89 120 152 190 244 295 355
#     4  10  19  36  60  86 116 152 195 245 286 353
#     4   9  20  37  58  86 117 152 193 249 293 347
#
# _framework density 21.524228999999998
#
# number of rings (size 3 to 8) (size 9 to 14) (size 15 to 20)
#    0.000    1.750    2.500    3.750    0.000    2.000 
#    2.250    2.500    0.000    9.750    0.000    0.000 
#    0.000    0.000    0.000    0.000    0.000    0.000 
#
# Total GULP energy -178541.302531 kJ/mol
# GULP energy per Si atom -5579.415704 kJ/mol
# Density = 2.147524 g / cm^3
# Si number density = 21.524229 Si / 1000 Ang^3
#
#
#
# Elastic Constant Matrix: (Units=GPa)
#
#
# Indices 1 2 3 4 5 6 
#
# 1 30.9271 6.8616 23.1834 0.0000 -3.6082 0.0000
# 2 6.8616 119.5657 70.6809 0.0000 -23.5350 0.0000
# 3 23.1834 70.6809 166.0974 0.0000 -31.8521 0.0000
# 4 0.0000 0.0000 0.0000 21.4487 0.0000 -3.0440
# 5 -3.6082 -23.5350 -31.8521 0.0000 15.5336 0.0000
# 6 0.0000 0.0000 0.0000 -3.0440 0.0000 9.3170
#
#
#
# Elastic Compliance Matrix: (Units=1/GPa)
#
#
# Indices 1 2 3 4 5 6 
#
# 1 0.036284 0.000973 -0.005899 0.000000 -0.002194 0.000000
# 2 0.000973 0.012697 -0.002977 0.000000 0.013359 0.000000
# 3 -0.005899 -0.002977 0.011509 0.000000 0.017717 0.000000
# 4 0.000000 0.000000 0.000000 0.048890 0.000000 0.015973
# 5 -0.002194 0.013359 0.017717 0.000000 0.120437 0.000000
# 6 0.000000 0.000000 0.000000 0.015973 0.000000 0.112549
#
#
# Mechanical properties :
#
#
# Convention : Reuss Voigt Hill
#
# Bulk Modulus (GPa) = 22.37966 57.56021 39.96993
# Shear Modulus (GPa) = 13.40241 23.65082 18.52661
#
# Velocity S-wave (km/s) = 2.49803 3.31841 2.93701
# Velocity P-wave (km/s) = 4.32900 6.44070 5.48739
#
# Compressibility (1/GPa) = 0.04468343
#
# Stress axis : x y z
#
# Youngs Moduli (GPa) = 27.56004 78.75739 86.89190
#
# Poissons Ratio (x) = -0.07665 0.51261
# Poissons Ratio (y) = -0.02682 0.25870
# Poissons Ratio (z) = 0.16259 0.23448
#
# Static dielectric constant tensor:
#      x y z
#    x 1.891060 0.000000 0.014340 
#    y 0.000000 1.785910 0.000000 
#    z 0.014340 0.000000 1.823940 
# 
# From -- ./inp_files/76412.got.cif
#   From: 2010.05.17/outbox.cif.g08.bks.cpg/sg13_39_cif.got.tgz:76412.got - 2010.06.03 16:44:36.
