data_PCOD9228896
_publ_section_title
;
Structure prediction by ZEFSAII (Michael W. Deem and Ramdas Pophale) SiO2 
 PCOD9228896
Probable space group: P 2/C
;
_chemical_formula_sum "Si O2"
_cell_formula_units_Z 20
_cell_length_a 9.590676
_cell_length_b 10.221691
_cell_length_c 10.436502
_cell_angle_alpha 90.000000
_cell_angle_beta 66.119562
_cell_angle_gamma 90.000000
_cell_volume 935.533737
_symmetry_space_group_name_H-M "P 2/C"
_symmetry_group_IT_number 13
_symmetry_cell_setting 'monoclinic'
loop_
_space_group_symop_operation_xyz
x,y,z
-x,y,1/2-z
-x,-y,-z
x,-y,1/2+z
loop_
_atom_site_type_symbol
_atom_site_label
_atom_site_fract_x
_atom_site_fract_y
_atom_site_fract_z
Si Si1 0.110359 0.381869 0.397827
Si Si2 0.000000 0.194605 0.250000
Si Si3 0.489867 0.285609 0.982273
Si Si4 0.500000 0.083464 0.750000
Si Si5 0.243566 0.506985 0.091366
Si Si6 0.300140 0.853886 0.762293
O O1 0.979560 0.291743 0.380204
O O2 0.177319 0.466764 0.254596
O O3 0.116824 0.457268 0.530346
O O4 0.233925 0.263301 0.372332
O O5 0.155325 0.119750 0.221564
O O6 0.504820 0.175896 0.870083
O O7 0.641961 0.371507 0.933398
O O8 0.353625 0.389105 0.004404
O O9 0.436425 0.210334 0.129905
O O10 0.355844 0.985872 0.805223
#
# Coordination Sequence:
#
# PCOD9228896 Si02
#       6
#     4   2   4   2   4   4
#     4   9  19  35  59  80 116 161 185 235 285 348
#     4   8  20  40  54  80 114 164 196 212 304 340
#     4  10  21  33  57  90 113 147 186 247 287 344
#     4  12  20  34  62  84 114 140 210 232 284 328
#     4  10  19  36  59  88 122 139 193 236 301 331
#     4   9  20  37  54  81 115 156 188 238 280 349
#
# _framework density 21.378169
#
# number of rings (size 3 to 8) (size 9 to 14) (size 15 to 20)
#    1.200    1.200    0.000    3.000    0.000    6.400 
#    0.000    1.000    0.000    1.200    0.000    0.000 
#    0.000    0.000    0.000    0.000    0.000    0.000 
#
# Total GULP energy -111443.998168 kJ/mol
# GULP energy per Si atom -5572.199908 kJ/mol
# Density = 2.132951 g / cm^3
# Si number density = 21.378169 Si / 1000 Ang^3
#
#
#
# Elastic Constant Matrix: (Units=GPa)
#
#
# Indices 1 2 3 4 5 6 
#
# 1 128.9183 26.2861 11.3155 0.0000 20.0572 0.0000
# 2 26.2861 84.3177 23.0679 0.0000 28.1350 0.0000
# 3 11.3155 23.0679 32.1077 0.0000 12.2234 0.0000
# 4 0.0000 0.0000 0.0000 11.0487 0.0000 9.8174
# 5 20.0572 28.1350 12.2234 0.0000 22.4799 0.0000
# 6 0.0000 0.0000 0.0000 9.8174 0.0000 8.8688
#
#
#
# Elastic Compliance Matrix: (Units=1/GPa)
#
#
# Indices 1 2 3 4 5 6 
#
# 1 0.009010 -0.000204 -0.000083 0.000000 -0.007738 0.000000
# 2 -0.000204 0.021402 -0.006528 0.000000 -0.023055 0.000000
# 3 -0.000083 -0.006528 0.041269 0.000000 -0.014196 0.000000
# 4 0.000000 0.000000 0.000000 5.518342 0.000000 -6.108601
# 5 -0.007738 -0.023055 -0.014196 0.000000 0.087963 0.000000
# 6 0.000000 0.000000 0.000000 -6.108601 0.000000 6.874750
#
#
# Mechanical properties :
#
#
# Convention : Reuss Voigt Hill
#
# Bulk Modulus (GPa) = 17.22594 40.74252 28.98423
# Shear Modulus (GPa) = 0.39728 20.79109 10.59418
#
# Velocity S-wave (km/s) = 0.43155 3.12194 2.22853
# Velocity P-wave (km/s) = 2.88505 5.66522 4.49546
#
# Compressibility (1/GPa) = 0.05805200
#
# Stress axis : x y z
#
# Youngs Moduli (GPa) = 110.99221 46.72392 24.23142
#
# Poissons Ratio (x) = 0.00953 0.00200
# Poissons Ratio (y) = 0.02264 0.15818
# Poissons Ratio (z) = 0.00917 0.30500
#
# Static dielectric constant tensor:
#      x y z
#    x 1.911880 0.000000 0.023630 
#    y 0.000000 1.787660 0.000000 
#    z 0.023630 0.000000 1.750390 
# 
# From -- ./inp_files/32149.got.cif
#   From: 2010.05.17/outbox.cif.g08.bks.cpg/sg13_17_cif.got.tgz:32149.got - 2010.06.03 16:44:36.
