data_PCOD9228931
_publ_section_title
;
Structure prediction by ZEFSAII (Michael W. Deem and Ramdas Pophale) SiO2 
 PCOD9228931
Probable space group: P 2/C
;
_chemical_formula_sum "Si O2"
_cell_formula_units_Z 22
_cell_length_a 6.783571
_cell_length_b 10.012131
_cell_length_c 15.916394
_cell_angle_alpha 90.000000
_cell_angle_beta 66.291386
_cell_angle_gamma 90.000000
_cell_volume 989.774783
_symmetry_space_group_name_H-M "P 2/C"
_symmetry_group_IT_number 13
_symmetry_cell_setting 'monoclinic'
loop_
_space_group_symop_operation_xyz
x,y,z
-x,y,1/2-z
-x,-y,-z
x,-y,1/2+z
loop_
_atom_site_type_symbol
_atom_site_label
_atom_site_fract_x
_atom_site_fract_y
_atom_site_fract_z
Si Si1 0.534288 0.775492 0.006306
Si Si2 0.000000 0.679500 0.750000
Si Si3 0.467665 0.362382 0.170042
Si Si4 0.060027 0.825275 0.084816
Si Si5 0.027524 0.113295 0.092603
Si Si6 0.192464 0.581991 0.421903
O O1 0.493582 0.718981 0.920548
O O2 0.713074 0.891182 0.968490
O O3 0.298382 0.806912 0.080917
O O4 0.662281 0.662577 0.036027
O O5 0.218073 0.596507 0.706470
O O6 0.991097 0.775761 0.669817
O O7 0.500000 0.279309 0.250000
O O8 0.641806 0.478776 0.146524
O O9 0.916542 0.693057 0.118787
O O10 0.959213 0.965354 0.131802
O O11 0.070195 0.846325 0.980754
O O12 0.000000 0.500000 0.500000
#
# Coordination Sequence:
#
# PCOD9228931 Si02
#       6
#     4   2   4   4   4   4
#     4  10  20  36  61  87 114 161 199 251 297 356
#     4  10  22  38  58  88 120 156 206 246 314 356
#     4  11  23  36  59  89 123 155 199 256 303 362
#     4  10  19  36  61  84 122 150 204 248 296 356
#     4   9  20  36  58  88 114 155 202 250 297 361
#     4  11  23  37  60  91 123 158 206 247 304 362
#
# _framework density 22.227278999999999
#
# number of rings (size 3 to 8) (size 9 to 14) (size 15 to 20)
#    0.000    1.818    1.818    2.182    5.091    0.000 
#    0.000    1.818    0.000    0.000    0.000    0.000 
#    0.000    0.000    0.000    0.000    0.000    0.000 
#
# Total GULP energy -122796.094575 kJ/mol
# GULP energy per Si atom -5581.640663 kJ/mol
# Density = 2.217669 g / cm^3
# Si number density = 22.227279 Si / 1000 Ang^3
#
#
#
# Elastic Constant Matrix: (Units=GPa)
#
#
# Indices 1 2 3 4 5 6 
#
# 1 132.6198 48.6333 11.7143 0.0000 -33.7779 0.0000
# 2 48.6333 87.1072 3.2719 0.0000 -12.0713 0.0000
# 3 11.7143 3.2719 29.0972 0.0000 -5.2353 0.0000
# 4 0.0000 0.0000 0.0000 10.0614 0.0000 -6.1367
# 5 -33.7779 -12.0713 -5.2353 0.0000 41.1656 0.0000
# 6 0.0000 0.0000 0.0000 -6.1367 0.0000 33.3498
#
#
#
# Elastic Compliance Matrix: (Units=1/GPa)
#
#
# Indices 1 2 3 4 5 6 
#
# 1 0.011708 -0.005369 -0.002727 0.000000 0.007685 0.000000
# 2 -0.005369 0.014444 0.000519 0.000000 -0.000104 0.000000
# 3 -0.002727 0.000519 0.035852 0.000000 0.002474 0.000000
# 4 0.000000 0.000000 0.000000 0.111955 0.000000 0.020601
# 5 0.007685 -0.000104 0.002474 0.000000 0.030882 0.000000
# 6 0.000000 0.000000 0.000000 0.020601 0.000000 0.033776
#
#
# Mechanical properties :
#
#
# Convention : Reuss Voigt Hill
#
# Bulk Modulus (GPa) = 21.34517 41.78483 31.56500
# Shear Modulus (GPa) = 18.56061 29.26233 23.91147
#
# Velocity S-wave (km/s) = 2.89284 3.63230 3.28345
# Velocity P-wave (km/s) = 4.55873 6.03583 5.34851
#
# Compressibility (1/GPa) = 0.04684900
#
# Stress axis : x y z
#
# Youngs Moduli (GPa) = 85.41503 69.23373 27.89229
#
# Poissons Ratio (x) = 0.37172 0.07606
# Poissons Ratio (y) = 0.45860 -0.01447
# Poissons Ratio (z) = 0.23292 -0.03591
#
# Static dielectric constant tensor:
#      x y z
#    x 1.849480 0.000000 -0.004400 
#    y 0.000000 1.859250 0.000000 
#    z -0.004400 0.000000 1.824550 
# 
# From -- ./inp_files/61039.got.cif
#   From: 2010.05.17/outbox.cif.g08.bks.cpg/sg13_31_cif.got.tgz:61039.got - 2010.06.03 16:44:36.
