data_PCOD9228885
_publ_section_title
;
Structure prediction by ZEFSAII (Michael W. Deem and Ramdas Pophale) SiO2 
 PCOD9228885
Probable space group: P 2/C
;
_chemical_formula_sum "Si O2"
_cell_formula_units_Z 20
_cell_length_a 14.958867
_cell_length_b 7.175344
_cell_length_c 20.512528
_cell_angle_alpha 90.000000
_cell_angle_beta 154.503462
_cell_angle_gamma 90.000000
_cell_volume 947.741600
_symmetry_space_group_name_H-M "P 2/C"
_symmetry_group_IT_number 13
_symmetry_cell_setting 'monoclinic'
loop_
_space_group_symop_operation_xyz
x,y,z
-x,y,1/2-z
-x,-y,-z
x,-y,1/2+z
loop_
_atom_site_type_symbol
_atom_site_label
_atom_site_fract_x
_atom_site_fract_y
_atom_site_fract_z
Si Si1 0.117039 0.191326 0.587646
Si Si2 0.822963 0.531261 0.956344
Si Si3 0.461833 0.236399 0.906897
Si Si4 0.757499 0.088924 0.609205
Si Si5 0.538728 0.601165 0.886227
O O1 0.113892 0.323393 0.522461
O O2 0.348917 0.165732 0.766376
O O3 0.006544 0.322043 0.568910
O O4 0.000000 0.000000 0.500000
O O5 0.722070 0.529769 0.960148
O O6 0.658182 0.599493 0.792219
O O7 0.311372 0.179641 0.867286
O O8 0.496704 0.454532 0.916340
O O9 0.674685 0.122976 0.056460
O O10 0.615559 0.203570 0.464580
O O11 0.000000 0.103610 0.750000
#
# Coordination Sequence:
#
# PCOD9228885 Si02
#       5
#     4   4   4   4   4
#     4  10  19  36  59  84 117 149 183 238 290 333
#     4   9  20  34  57  88 110 144 194 230 283 353
#     4  10  23  39  57  86 117 149 195 238 281 344
#     4  11  23  39  59  83 114 155 197 234 282 344
#     4  10  20  38  57  80 116 149 186 240 286 329
#
# _framework density 21.102799999999998
#
# number of rings (size 3 to 8) (size 9 to 14) (size 15 to 20)
#    0.000    2.000    0.000    3.000    0.000    4.000 
#    0.000   10.000    0.000    0.000    0.000    0.000 
#    0.000    0.000    0.000    0.000    0.000    0.000 
#
# Total GULP energy -111622.571176 kJ/mol
# GULP energy per Si atom -5581.128559 kJ/mol
# Density = 2.105477 g / cm^3
# Si number density = 21.102800 Si / 1000 Ang^3
#
#
#
# Elastic Constant Matrix: (Units=GPa)
#
#
# Indices 1 2 3 4 5 6 
#
# 1 76.6846 13.4466 5.1662 0.0000 12.1665 0.0000
# 2 13.4466 64.6508 29.0763 0.0000 6.2506 0.0000
# 3 5.1662 29.0763 35.2029 0.0000 6.6391 0.0000
# 4 0.0000 0.0000 0.0000 31.9493 0.0000 7.4156
# 5 12.1665 6.2506 6.6391 0.0000 25.3667 0.0000
# 6 0.0000 0.0000 0.0000 7.4156 0.0000 0.6262
#
#
#
# Elastic Compliance Matrix: (Units=1/GPa)
#
#
# Indices 1 2 3 4 5 6 
#
# 1 0.014532 -0.003157 0.001728 0.000000 -0.006644 0.000000
# 2 -0.003157 0.025310 -0.020567 0.000000 0.000660 0.000000
# 3 0.001728 -0.020567 0.046643 0.000000 -0.007969 0.000000
# 4 0.000000 0.000000 0.000000 -0.017898 0.000000 0.211962
# 5 -0.006644 0.000660 -0.007969 0.000000 0.044531 0.000000
# 6 0.000000 0.000000 0.000000 0.211962 0.000000 -0.913210
#
#
# Mechanical properties :
#
#
# Convention : Reuss Voigt Hill
#
# Bulk Modulus (GPa) = 23.53271 30.21295 26.87283
# Shear Modulus (GPa) = -6.73913 20.17836 6.71962
#
# Velocity S-wave (km/s) = -1.78897 3.09559 1.78638
# Velocity P-wave (km/s) = 2.62839 5.20817 4.12514
#
# Compressibility (1/GPa) = 0.04249405
#
# Stress axis : x y z
#
# Youngs Moduli (GPa) = 68.81471 39.50966 21.43934
#
# Poissons Ratio (x) = 0.12475 -0.03705
# Poissons Ratio (y) = 0.21727 0.44093
# Poissons Ratio (z) = -0.11893 0.81258
#
# Static dielectric constant tensor:
#      x y z
#    x 1.766830 0.000000 0.009130 
#    y 0.000000 1.732810 0.000000 
#    z 0.009130 0.000000 1.799390 
# 
# From -- ./inp_files/79432.got.cif
#   From: 2010.05.17/outbox.cif.g08.bks.cpg/sg13_40_cif.got.tgz:79432.got - 2010.06.03 16:44:36.
