data_PCOD9228986
_publ_section_title
;
Structure prediction by ZEFSAII (Michael W. Deem and Ramdas Pophale) SiO2 
 PCOD9228986
Probable space group: P 2/C
;
_chemical_formula_sum "Si O2"
_cell_formula_units_Z 28
_cell_length_a 10.431532
_cell_length_b 14.315357
_cell_length_c 14.379672
_cell_angle_alpha 90.000000
_cell_angle_beta 140.551194
_cell_angle_gamma 90.000000
_cell_volume 1364.390288
_symmetry_space_group_name_H-M "P 2/C"
_symmetry_group_IT_number 13
_symmetry_cell_setting 'monoclinic'
loop_
_space_group_symop_operation_xyz
x,y,z
-x,y,1/2-z
-x,-y,-z
x,-y,1/2+z
loop_
_atom_site_type_symbol
_atom_site_label
_atom_site_fract_x
_atom_site_fract_y
_atom_site_fract_z
Si Si1 0.827351 0.978036 0.209802
Si Si2 0.079035 0.089198 0.486998
Si Si3 0.192066 0.582026 0.926067
Si Si4 0.681465 0.618057 0.926741
Si Si5 0.420802 0.282031 0.426043
Si Si6 0.550114 0.098060 0.929194
Si Si7 0.948051 0.709448 0.926986
O O1 0.000000 0.922483 0.250000
O O2 0.944752 0.066713 0.318867
O O3 0.686825 0.927118 0.206876
O O4 0.667172 0.012793 0.044755
O O5 0.309877 0.103724 0.583341
O O6 0.013947 0.187324 0.492004
O O7 0.000000 0.000000 0.500000
O O8 0.364310 0.634721 0.964621
O O9 0.000000 0.569456 0.750000
O O10 0.116295 0.649806 0.966637
O O11 0.267928 0.483045 0.004529
O O12 0.500000 0.610672 0.750000
O O13 0.609838 0.688354 0.968144
O O14 0.868159 0.655739 0.971890
O O15 0.436833 0.188805 0.496935
O O16 0.234188 0.276496 0.249219
#
# Coordination Sequence:
#
# PCOD9228986 Si02
#       7
#     4   4   4   4   4   4   4
#     4   9  20  35  57  82 114 147 197 245 291 342
#     4  11  22  37  57  86 121 156 203 249 295 359
#     4  10  20  37  65  86 113 160 207 247 302 373
#     4  10  22  37  56  92 125 151 197 258 311 357
#     4  10  19  36  64  85 114 156 209 239 294 372
#     4  10  19  37  61  83 109 160 199 244 294 348
#     4  10  20  37  61  86 118 158 199 249 299 358
#
# _framework density 20.521986999999999
#
# number of rings (size 3 to 8) (size 9 to 14) (size 15 to 20)
#    0.000    2.000    2.857    0.857    0.000    4.000 
#    2.571    3.571    0.000    0.000    0.000    0.000 
#    0.000    0.000    0.000    0.000    0.000    0.000 
#
# Total GULP energy -156071.171191 kJ/mol
# GULP energy per Si atom -5573.970400 kJ/mol
# Density = 2.047528 g / cm^3
# Si number density = 20.521987 Si / 1000 Ang^3
#
#
#
# Elastic Constant Matrix: (Units=GPa)
#
#
# Indices 1 2 3 4 5 6 
#
# 1 157.9070 65.9822 28.7372 0.0000 -3.4077 0.0000
# 2 65.9822 101.2077 17.2375 0.0000 -3.1769 0.0000
# 3 28.7372 17.2375 29.0393 0.0000 8.5848 0.0000
# 4 0.0000 0.0000 0.0000 35.7906 0.0000 -10.9163
# 5 -3.4077 -3.1769 8.5848 0.0000 23.4085 0.0000
# 6 0.0000 0.0000 0.0000 -10.9163 0.0000 32.5162
#
#
#
# Elastic Compliance Matrix: (Units=1/GPa)
#
#
# Indices 1 2 3 4 5 6 
#
# 1 0.009960 -0.005021 -0.007968 0.000000 0.003691 0.000000
# 2 -0.005021 0.013934 -0.004089 0.000000 0.002660 0.000000
# 3 -0.007968 -0.004089 0.050758 0.000000 -0.020330 0.000000
# 4 0.000000 0.000000 0.000000 0.031128 0.000000 0.010450
# 5 0.003691 0.002660 -0.020330 0.000000 0.051073 0.000000
# 6 0.000000 0.000000 0.000000 0.010450 0.000000 0.034262
#
#
# Mechanical properties :
#
#
# Convention : Reuss Voigt Hill
#
# Bulk Modulus (GPa) = 24.69264 56.89643 40.79453
# Shear Modulus (GPa) = 20.94077 30.08953 25.51515
#
# Velocity S-wave (km/s) = 3.19785 3.83327 3.52988
# Velocity P-wave (km/s) = 5.06886 6.88307 6.04442
#
# Compressibility (1/GPa) = 0.04049789
#
# Stress axis : x y z
#
# Youngs Moduli (GPa) = 100.39674 71.76762 19.70147
#
# Poissons Ratio (x) = 0.36034 0.15697
# Poissons Ratio (y) = 0.50408 0.08055
# Poissons Ratio (z) = 0.79992 0.29343
#
# Static dielectric constant tensor:
#      x y z
#    x 1.832540 0.000000 -0.018440 
#    y 0.000000 1.672550 0.000000 
#    z -0.018440 0.000000 1.784330 
# 
# From -- ./inp_files/47740.got.cif
#   From: 2010.05.17/outbox.cif.g08.bks.cpg/sg13_24_cif.got.tgz:47740.got - 2010.06.03 16:44:36.
