data_PCOD9228434
_publ_section_title
;
Structure prediction by ZEFSAII (Michael W. Deem and Ramdas Pophale) SiO2 
 PCOD9228434
Probable space group: P 2/C
;
_chemical_formula_sum "Si O2"
_cell_formula_units_Z 28
_cell_length_a 16.290560
_cell_length_b 7.241527
_cell_length_c 11.099504
_cell_angle_alpha 90.000000
_cell_angle_beta 112.067545
_cell_angle_gamma 90.000000
_cell_volume 1213.468187
_symmetry_space_group_name_H-M "P 2/C"
_symmetry_group_IT_number 13
_symmetry_cell_setting 'monoclinic'
loop_
_space_group_symop_operation_xyz
x,y,z
-x,y,1/2-z
-x,-y,-z
x,-y,1/2+z
loop_
_atom_site_type_symbol
_atom_site_label
_atom_site_fract_x
_atom_site_fract_y
_atom_site_fract_z
Si Si1 0.675284 0.742644 0.585831
Si Si2 0.016057 0.709027 0.959715
Si Si3 0.877032 0.649176 0.719103
Si Si4 0.603480 0.223340 0.301657
Si Si5 0.092789 0.788558 0.240769
Si Si6 0.299838 0.824286 0.401665
Si Si7 0.396080 0.775296 0.209267
O O1 0.774750 0.677530 0.654525
O O2 0.631833 0.691099 0.689383
O O3 0.644850 0.689790 0.434863
O O4 0.667336 0.964929 0.579195
O O5 0.076567 0.714928 0.876167
O O6 0.918754 0.756083 0.856172
O O7 0.068820 0.819240 0.088630
O O8 0.000000 0.500000 0.000000
O O9 0.900650 0.433194 0.738184
O O10 0.500000 0.269179 0.250000
O O11 0.662453 0.265648 0.453735
O O12 0.609922 0.999439 0.297777
O O13 0.192178 0.843981 0.334424
O O14 0.000000 0.852201 0.250000
O O15 0.343590 0.732634 0.305533
O O16 0.500000 0.730983 0.250000
#
# Coordination Sequence:
#
# PCOD9228434 Si02
#       7
#     4   4   4   4   4   4   4
#     4  10  20  33  54  82 109 133 177 223 269 310
#     4   9  17  34  52  71  95 134 188 216 240 305
#     4  10  19  34  56  73 100 140 179 223 252 313
#     4   9  18  33  56  81 108 140 174 214 269 328
#     4  11  21  35  53  74 104 146 182 213 256 320
#     4  10  21  34  53  83 112 134 177 226 268 311
#     4   9  17  34  57  79 106 141 176 217 268 327
#
# _framework density 23.074358
#
# number of rings (size 3 to 8) (size 9 to 14) (size 15 to 20)
#    0.000    2.286    2.857    1.714    2.000    3.429 
#    2.571    0.714    0.000    5.143    0.000    0.000 
#    0.000    0.000    0.000    0.000    0.000    0.000 
#
# Total GULP energy -156072.230038 kJ/mol
# GULP energy per Si atom -5574.008216 kJ/mol
# Density = 2.302184 g / cm^3
# Si number density = 23.074358 Si / 1000 Ang^3
#
#
#
# Elastic Constant Matrix: (Units=GPa)
#
#
# Indices 1 2 3 4 5 6 
#
# 1 100.7726 3.1426 46.2410 0.0000 4.9427 0.0000
# 2 3.1426 68.6190 6.7737 0.0000 -9.1214 0.0000
# 3 46.2410 6.7737 147.7091 0.0000 -0.4682 0.0000
# 4 0.0000 0.0000 0.0000 -43.9296 0.0000 14.7762
# 5 4.9427 -9.1214 -0.4682 0.0000 34.0880 0.0000
# 6 0.0000 0.0000 0.0000 14.7762 0.0000 14.6446
#
#
#
# Elastic Compliance Matrix: (Units=1/GPa)
#
#
# Indices 1 2 3 4 5 6 
#
# 1 0.011703 -0.000423 -0.003650 0.000000 -0.001860 0.000000
# 2 -0.000423 0.015195 -0.000551 0.000000 0.004120 0.000000
# 3 -0.003650 -0.000551 0.007940 0.000000 0.000491 0.000000
# 4 0.000000 0.000000 0.000000 -0.016996 0.000000 0.017148
# 5 -0.001860 0.004120 0.000491 0.000000 0.030715 0.000000
# 6 0.000000 0.000000 0.000000 0.017148 0.000000 0.050982
#
#
# Mechanical properties :
#
#
# Convention : Reuss Voigt Hill
#
# Bulk Modulus (GPa) = 39.08054 47.71282 43.39668
# Shear Modulus (GPa) = 42.62002 18.35684 30.48843
#
# Velocity S-wave (km/s) = 4.30242 2.82361 3.63893
# Velocity P-wave (km/s) = 6.45404 5.59939 6.04185
#
# Compressibility (1/GPa) = 0.02558818
#
# Stress axis : x y z
#
# Youngs Moduli (GPa) = 85.45072 65.81276 125.95127
#
# Poissons Ratio (x) = 0.02783 0.45973
# Poissons Ratio (y) = 0.03614 0.06944
# Poissons Ratio (z) = 0.31190 0.03629
#
# Static dielectric constant tensor:
#      x y z
#    x 1.915330 0.000000 -0.044580 
#    y 0.000000 1.944770 0.000000 
#    z -0.044580 0.000000 1.921610 
# 
# From -- ./inp_files/36239.got.cif
#   From: 2010.05.17/outbox.cif.g08.bks.cpg/sg13_19_cif.got.tgz:36239.got - 2010.06.03 16:44:36.
