data_PCOD9228342
_publ_section_title
;
Structure prediction by ZEFSAII (Michael W. Deem and Ramdas Pophale) SiO2 
 PCOD9228342
Probable space group: P 2/C
;
_chemical_formula_sum "Si O2"
_cell_formula_units_Z 26
_cell_length_a 6.160802
_cell_length_b 13.754760
_cell_length_c 18.317103
_cell_angle_alpha 90.000000
_cell_angle_beta 119.639725
_cell_angle_gamma 90.000000
_cell_volume 1349.096194
_symmetry_space_group_name_H-M "P 2/C"
_symmetry_group_IT_number 13
_symmetry_cell_setting 'monoclinic'
loop_
_space_group_symop_operation_xyz
x,y,z
-x,y,1/2-z
-x,-y,-z
x,-y,1/2+z
loop_
_atom_site_type_symbol
_atom_site_label
_atom_site_fract_x
_atom_site_fract_y
_atom_site_fract_z
Si Si1 0.246669 0.878037 0.158441
Si Si2 0.953636 0.611585 0.008728
Si Si3 0.514952 0.750069 0.900842
Si Si4 0.919233 0.300396 0.657925
Si Si5 0.238154 0.099044 0.163917
Si Si6 0.000000 0.218750 0.250000
Si Si7 0.369706 0.240627 0.537930
O O1 0.500000 0.873581 0.250000
O O2 0.051052 0.803723 0.162963
O O3 0.295752 0.840117 0.084627
O O4 0.155241 0.988888 0.136708
O O5 0.987321 0.632978 0.100451
O O6 0.154669 0.678590 0.000887
O O7 0.682893 0.654493 0.941739
O O8 0.000000 0.500000 0.000000
O O9 0.690018 0.830850 0.891177
O O10 0.263750 0.729582 0.812173
O O11 0.434151 0.789951 0.966589
O O12 0.000000 0.337189 0.750000
O O13 0.623788 0.287181 0.610010
O O14 0.500000 0.089654 0.250000
O O15 0.054054 0.152618 0.188576
#
# Coordination Sequence:
#
# PCOD9228342 Si02
#       7
#     4   4   4   4   4   2   4
#     4  10  19  33  58  92 126 164 203 245 296 362
#     4  10  23  42  66  85 119 158 202 258 319 371
#     4  10  21  39  62  87 118 165 206 248 310 356
#     4  10  20  35  63  91 122 157 199 248 311 362
#     4   9  20  34  57  89 124 168 207 243 293 358
#     4  10  20  38  62  80 126 162 206 252 296 354
#     4  10  21  38  62  86 123 160 194 260 302 358
#
# _framework density 19.272162000000002
#
# number of rings (size 3 to 8) (size 9 to 14) (size 15 to 20)
#    0.000    2.154    1.538    0.923    1.077    4.308 
#    0.000   10.769   32.154    0.000    0.000    0.000 
#    0.000    0.000    0.000    0.000    0.000    0.000 
#
# Total GULP energy -145034.567348 kJ/mol
# GULP energy per Si atom -5578.252590 kJ/mol
# Density = 1.922830 g / cm^3
# Si number density = 19.272162 Si / 1000 Ang^3
#
#
#
# Elastic Constant Matrix: (Units=GPa)
#
#
# Indices 1 2 3 4 5 6 
#
# 1 107.0161 46.2055 43.7543 0.0000 -9.6199 0.0000
# 2 46.2055 117.7831 60.5995 0.0000 -11.1815 0.0000
# 3 43.7543 60.5995 94.7736 0.0000 -5.1886 0.0000
# 4 0.0000 0.0000 0.0000 17.0341 0.0000 2.6592
# 5 -9.6199 -11.1815 -5.1886 0.0000 47.3772 0.0000
# 6 0.0000 0.0000 0.0000 2.6592 0.0000 5.2845
#
#
#
# Elastic Compliance Matrix: (Units=1/GPa)
#
#
# Indices 1 2 3 4 5 6 
#
# 1 0.012198 -0.002672 -0.003845 0.000000 0.001425 0.000000
# 2 -0.002672 0.013451 -0.007267 0.000000 0.001836 0.000000
# 3 -0.003845 -0.007267 0.016938 0.000000 -0.000641 0.000000
# 4 0.000000 0.000000 0.000000 0.063710 0.000000 -0.032059
# 5 0.001425 0.001836 -0.000641 0.000000 0.021760 0.000000
# 6 0.000000 0.000000 0.000000 -0.032059 0.000000 0.205366
#
#
# Mechanical properties :
#
#
# Convention : Reuss Voigt Hill
#
# Bulk Modulus (GPa) = 66.57785 68.96572 67.77178
# Shear Modulus (GPa) = 13.66125 25.20673 19.43399
#
# Velocity S-wave (km/s) = 2.66533 3.62046 3.17897
# Velocity P-wave (km/s) = 6.64026 7.30341 6.97972
#
# Compressibility (1/GPa) = 0.01502001
#
# Stress axis : x y z
#
# Youngs Moduli (GPa) = 81.97965 74.34119 59.03760
#
# Poissons Ratio (x) = 0.19861 0.22702
# Poissons Ratio (y) = 0.21901 0.42904
# Poissons Ratio (z) = 0.31524 0.54025
#
# Static dielectric constant tensor:
#      x y z
#    x 1.685570 0.000000 0.013760 
#    y 0.000000 1.636350 0.000000 
#    z 0.013760 0.000000 1.708370 
# 
# From -- ./inp_files/61326.got.cif
#   From: 2010.05.17/outbox.cif.g08.bks.cpg/sg13_31_cif.got.tgz:61326.got - 2010.06.03 16:44:36.
