data_PCOD9228454
_publ_section_title
;
Structure prediction by ZEFSAII (Michael W. Deem and Ramdas Pophale) SiO2 
 PCOD9228454
Probable space group: P 2/C
;
_chemical_formula_sum "Si O2"
_cell_formula_units_Z 24
_cell_length_a 19.081132
_cell_length_b 8.544355
_cell_length_c 15.489350
_cell_angle_alpha 90.000000
_cell_angle_beta 25.224083
_cell_angle_gamma 90.000000
_cell_volume 1076.189788
_symmetry_space_group_name_H-M "P 2/C"
_symmetry_group_IT_number 13
_symmetry_cell_setting 'monoclinic'
loop_
_space_group_symop_operation_xyz
x,y,z
-x,y,1/2-z
-x,-y,-z
x,-y,1/2+z
loop_
_atom_site_type_symbol
_atom_site_label
_atom_site_fract_x
_atom_site_fract_y
_atom_site_fract_z
Si Si1 0.826569 0.095264 0.185286
Si Si2 0.502125 0.405979 0.152851
Si Si3 0.292324 0.225072 0.693826
Si Si4 0.675848 0.725285 0.013285
Si Si5 0.829339 0.406138 0.502204
Si Si6 0.008478 0.374475 0.912807
O O1 0.756795 0.165318 0.351842
O O2 0.866592 0.244422 0.081642
O O3 0.703256 0.958744 0.295452
O O4 0.000000 0.000000 0.000000
O O5 0.500000 0.325692 0.250000
O O6 0.625078 0.557168 0.026736
O O7 0.324332 0.479089 0.338560
O O8 0.542941 0.303922 0.023799
O O9 0.214631 0.302291 0.864974
O O10 0.173990 0.276373 0.744870
O O11 0.500000 0.779584 0.250000
O O12 0.808761 0.703298 0.941591
O O13 0.980010 0.518599 0.361469
O O14 0.000000 0.500000 0.000000
#
# Coordination Sequence:
#
# PCOD9228454 Si02
#       6
#     4   4   4   4   4   4
#     4  10  21  37  56  83 122 160 189 236 306 362
#     4   9  19  36  57  84 115 154 202 247 286 344
#     4  10  19  34  56  84 115 151 185 237 301 353
#     4   9  19  37  58  82 112 152 202 250 288 341
#     4   9  18  35  60  83 107 149 200 245 286 346
#     4   9  18  35  58  80 106 148 193 233 282 348
#
# _framework density 22.300899000000001
#
# number of rings (size 3 to 8) (size 9 to 14) (size 15 to 20)
#    0.000    3.000    0.000    2.500    0.000    2.000 
#    0.000   31.667    0.000   18.000    0.000    0.000 
#    0.000    0.000    0.000    0.000    0.000    0.000 
#
# Total GULP energy -133794.268322 kJ/mol
# GULP energy per Si atom -5574.761180 kJ/mol
# Density = 2.225014 g / cm^3
# Si number density = 22.300899 Si / 1000 Ang^3
#
#
#
# Elastic Constant Matrix: (Units=GPa)
#
#
# Indices 1 2 3 4 5 6 
#
# 1 77.9222 8.1811 4.9410 0.0000 -1.6465 0.0000
# 2 8.1811 55.1951 24.1315 0.0000 12.0556 0.0000
# 3 4.9410 24.1315 73.7664 0.0000 15.2882 0.0000
# 4 0.0000 0.0000 0.0000 -89.4414 0.0000 -87.3577
# 5 -1.6465 12.0556 15.2882 0.0000 33.4283 0.0000
# 6 0.0000 0.0000 0.0000 -87.3577 0.0000 -62.6584
#
#
#
# Elastic Compliance Matrix: (Units=1/GPa)
#
#
# Indices 1 2 3 4 5 6 
#
# 1 0.013119 -0.002065 -0.000543 0.000000 0.001639 0.000000
# 2 -0.002065 0.022228 -0.006021 0.000000 -0.005364 0.000000
# 3 -0.000543 -0.006021 0.016701 0.000000 -0.005493 0.000000
# 4 0.000000 0.000000 0.000000 0.030910 0.000000 -0.043095
# 5 0.001639 -0.005364 -0.005493 0.000000 0.034442 0.000000
# 6 0.000000 0.000000 0.000000 -0.043095 0.000000 0.044123
#
#
# Mechanical properties :
#
#
# Convention : Reuss Voigt Hill
#
# Bulk Modulus (GPa) = 28.74474 31.26564 30.00519
# Shear Modulus (GPa) = 26.26341 -12.42564 6.91889
#
# Velocity S-wave (km/s) = 3.43546 -2.36303 1.76331
# Velocity P-wave (km/s) = 5.35295 2.57005 4.19876
#
# Compressibility (1/GPa) = 0.03478897
#
# Stress axis : x y z
#
# Youngs Moduli (GPa) = 76.22414 44.98857 59.87676
#
# Poissons Ratio (x) = 0.09291 0.03251
# Poissons Ratio (y) = 0.15742 0.36054
# Poissons Ratio (z) = 0.04138 0.27089
#
# Static dielectric constant tensor:
#      x y z
#    x 1.866220 0.000000 -0.024400 
#    y 0.000000 1.826010 0.000000 
#    z -0.024400 0.000000 2.071200 
# 
# From -- ./inp_files/55196.got.cif
#   From: 2010.05.17/outbox.cif.g08.bks.cpg/sg13_28_cif.got.tgz:55196.got - 2010.06.03 16:44:36.
