data_PCOD9228357
_publ_section_title
;
Structure prediction by ZEFSAII (Michael W. Deem and Ramdas Pophale) SiO2 
 PCOD9228357
Probable space group: P 2/C
;
_chemical_formula_sum "Si O2"
_cell_formula_units_Z 28
_cell_length_a 15.355834
_cell_length_b 17.263053
_cell_length_c 5.778360
_cell_angle_alpha 90.000000
_cell_angle_beta 64.126173
_cell_angle_gamma 90.000000
_cell_volume 1378.227615
_symmetry_space_group_name_H-M "P 2/C"
_symmetry_group_IT_number 13
_symmetry_cell_setting 'monoclinic'
loop_
_space_group_symop_operation_xyz
x,y,z
-x,y,1/2-z
-x,-y,-z
x,-y,1/2+z
loop_
_atom_site_type_symbol
_atom_site_label
_atom_site_fract_x
_atom_site_fract_y
_atom_site_fract_z
Si Si1 0.963965 0.911719 0.542817
Si Si2 0.766704 0.458886 0.142954
Si Si3 0.597136 0.220568 0.243130
Si Si4 0.263445 0.711935 0.305280
Si Si5 0.221982 0.169462 0.238833
Si Si6 0.403021 0.625311 0.475145
Si Si7 0.885095 0.687498 0.385043
O O1 0.848176 0.903364 0.684033
O O2 0.000000 0.876755 0.750000
O O3 0.000000 0.000000 0.500000
O O4 0.000000 0.879568 0.250000
O O5 0.781237 0.504869 0.368704
O O6 0.655107 0.428515 0.280171
O O7 0.839338 0.385761 0.068416
O O8 0.500000 0.186606 0.250000
O O9 0.672476 0.161726 0.271558
O O10 0.569796 0.291160 0.446307
O O11 0.661135 0.263793 0.977825
O O12 0.240892 0.789351 0.473877
O O13 0.319609 0.647897 0.387948
O O14 0.163515 0.683757 0.311738
O O15 0.160646 0.235430 0.447555
O O16 0.500000 0.592340 0.250000
O O17 0.000000 0.687800 0.250000
#
# Coordination Sequence:
#
# PCOD9228357 Si02
#       7
#     4   4   4   4   4   4   4
#     4  10  23  42  65  99 143 181 210 252 312 381
#     4  12  27  45  61  84 122 163 222 280 337 412
#     4  10  19  33  61  90 124 163 209 271 340 385
#     4  10  19  37  58  90 124 157 206 274 327 388
#     4  10  22  35  63  96 127 167 214 270 319 385
#     4  11  21  38  63  85 116 163 209 273 349 404
#     4  11  24  40  61  86 118 165 218 275 334 387
#
# _framework density 20.315947000000001
#
# number of rings (size 3 to 8) (size 9 to 14) (size 15 to 20)
#    0.000    1.429    5.714    1.286    6.000    1.143 
#    0.000    0.000    0.000    0.000    0.000    4.000 
#    0.000    0.000    0.000    0.000    0.000    0.000 
#
# Total GULP energy -156118.329293 kJ/mol
# GULP energy per Si atom -5575.654618 kJ/mol
# Density = 2.026971 g / cm^3
# Si number density = 20.315947 Si / 1000 Ang^3
#
#
#
# Elastic Constant Matrix: (Units=GPa)
#
#
# Indices 1 2 3 4 5 6 
#
# 1 170.3822 29.5851 56.7169 0.0000 -18.9770 0.0000
# 2 29.5851 51.8479 11.5726 0.0000 -7.3000 0.0000
# 3 56.7169 11.5726 91.2361 0.0000 4.0461 0.0000
# 4 0.0000 0.0000 0.0000 -5.7455 0.0000 -15.2050
# 5 -18.9770 -7.3000 4.0461 0.0000 40.6284 0.0000
# 6 0.0000 0.0000 0.0000 -15.2050 0.0000 21.7334
#
#
#
# Elastic Compliance Matrix: (Units=1/GPa)
#
#
# Indices 1 2 3 4 5 6 
#
# 1 0.008555 -0.003193 -0.005087 0.000000 0.003929 0.000000
# 2 -0.003193 0.021654 -0.000872 0.000000 0.002486 0.000000
# 3 -0.005087 -0.000872 0.014410 0.000000 -0.003968 0.000000
# 4 0.000000 0.000000 0.000000 -0.061038 0.000000 -0.042703
# 5 0.003929 0.002486 -0.003968 0.000000 0.027290 0.000000
# 6 0.000000 0.000000 0.000000 -0.042703 0.000000 0.016136
#
#
# Mechanical properties :
#
#
# Convention : Reuss Voigt Hill
#
# Bulk Modulus (GPa) = 38.00284 56.57949 47.29116
# Shear Modulus (GPa) = 92.45295 25.69603 59.07449
#
# Velocity S-wave (km/s) = 6.75325 3.56029 5.39824
# Velocity P-wave (km/s) = 8.91936 6.69411 7.88562
#
# Compressibility (1/GPa) = 0.02631383
#
# Stress axis : x y z
#
# Youngs Moduli (GPa) = 116.89702 46.18147 69.39813
#
# Poissons Ratio (x) = 0.14744 0.35304
# Poissons Ratio (y) = 0.37322 0.06052
# Poissons Ratio (z) = 0.59468 0.04028
#
# Static dielectric constant tensor:
#      x y z
#    x 1.757720 0.000000 0.069630 
#    y 0.000000 1.724100 0.000000 
#    z 0.069630 0.000000 1.775370 
# 
# From -- ./inp_files/5312.got.cif
#   From: 2010.05.17/outbox.cif.g08.bks.cpg/sg13_3_cif.got.tgz:5312.got - 2010.06.03 16:44:36.
