data_PCOD9228326
_publ_section_title
;
Structure prediction by ZEFSAII (Michael W. Deem and Ramdas Pophale) SiO2 
 PCOD9228326
Probable space group: P 2/C
;
_chemical_formula_sum "Si O2"
_cell_formula_units_Z 28
_cell_length_a 5.580688
_cell_length_b 9.606058
_cell_length_c 26.697583
_cell_angle_alpha 90.000000
_cell_angle_beta 101.150568
_cell_angle_gamma 90.000000
_cell_volume 1404.197092
_symmetry_space_group_name_H-M "P 2/C"
_symmetry_group_IT_number 13
_symmetry_cell_setting 'monoclinic'
loop_
_space_group_symop_operation_xyz
x,y,z
-x,y,1/2-z
-x,-y,-z
x,-y,1/2+z
loop_
_atom_site_type_symbol
_atom_site_label
_atom_site_fract_x
_atom_site_fract_y
_atom_site_fract_z
Si Si1 0.628187 0.470364 0.129432
Si Si2 0.793790 0.654073 0.042538
Si Si3 0.814648 0.437595 0.444463
Si Si4 0.254998 0.581497 0.257533
Si Si5 0.779417 0.022570 0.532013
Si Si6 0.777513 0.268043 0.279106
Si Si7 0.935690 0.216958 0.110751
O O1 0.716711 0.570398 0.088266
O O2 0.341738 0.466740 0.110827
O O3 0.702127 0.528559 0.185008
O O4 0.729767 0.315208 0.126921
O O5 0.794162 0.816804 0.048975
O O6 0.053971 0.583698 0.039241
O O7 0.655466 0.614888 0.985158
O O8 0.976951 0.308473 0.433411
O O9 0.500000 0.656555 0.250000
O O10 0.225431 0.438838 0.223532
O O11 0.000000 0.661067 0.250000
O O12 0.500000 0.000000 0.500000
O O13 0.835499 0.923200 0.581779
O O14 0.000000 0.000000 0.500000
O O15 0.500000 0.228867 0.250000
O O16 0.000000 0.228297 0.250000
O O17 0.858154 0.210498 0.337091
#
# Coordination Sequence:
#
# PCOD9228326 Si02
#       7
#     4   4   4   4   4   4   4
#     4  11  21  35  64  94 125 165 208 266 326 373
#     4  10  23  38  58  92 128 170 206 263 308 387
#     4  10  20  37  61  90 128 158 215 255 318 373
#     4  10  19  34  55  91 123 150 198 262 313 366
#     4  12  27  45  64  90 134 175 221 262 321 391
#     4  10  19  33  57  91 122 150 208 267 313 366
#     4  11  22  37  64  96 122 173 212 266 326 380
#
# _framework density 19.940221999999999
#
# number of rings (size 3 to 8) (size 9 to 14) (size 15 to 20)
#    0.000    1.429    4.286    3.000    4.000    0.000 
#    0.000    0.000    0.000    0.857    0.000    1.000 
#    0.000    0.000    0.000    0.000    0.000    0.000 
#
# Total GULP energy -155946.628027 kJ/mol
# GULP energy per Si atom -5569.522430 kJ/mol
# Density = 1.989484 g / cm^3
# Si number density = 19.940222 Si / 1000 Ang^3
#
#
#
# Elastic Constant Matrix: (Units=GPa)
#
#
# Indices 1 2 3 4 5 6 
#
# 1 111.1349 28.7009 34.8487 0.0000 9.3478 0.0000
# 2 28.7009 110.4361 42.1299 0.0000 9.8541 0.0000
# 3 34.8487 42.1299 122.1591 0.0000 3.0706 0.0000
# 4 0.0000 0.0000 0.0000 14.3030 0.0000 5.4408
# 5 9.3478 9.8541 3.0706 0.0000 38.7089 0.0000
# 6 0.0000 0.0000 0.0000 5.4408 0.0000 6.6095
#
#
#
# Elastic Compliance Matrix: (Units=1/GPa)
#
#
# Indices 1 2 3 4 5 6 
#
# 1 0.010307 -0.001619 -0.002334 0.000000 -0.001892 0.000000
# 2 -0.001619 0.010904 -0.003245 0.000000 -0.002127 0.000000
# 3 -0.002334 -0.003245 0.009956 0.000000 0.000600 0.000000
# 4 0.000000 0.000000 0.000000 0.101789 0.000000 -0.083791
# 5 -0.001892 -0.002127 0.000600 0.000000 0.026785 0.000000
# 6 0.000000 0.000000 0.000000 -0.083791 0.000000 0.220274
#
#
# Mechanical properties :
#
#
# Convention : Reuss Voigt Hill
#
# Bulk Modulus (GPa) = 59.63209 61.67658 60.65434
# Shear Modulus (GPa) = 12.49994 27.79430 20.14712
#
# Velocity S-wave (km/s) = 2.50646 3.73752 3.18209
# Velocity P-wave (km/s) = 6.19248 7.04438 6.63212
#
# Compressibility (1/GPa) = 0.01676949
#
# Stress axis : x y z
#
# Youngs Moduli (GPa) = 97.01760 91.71277 100.44190
#
# Poissons Ratio (x) = 0.14852 0.23447
# Poissons Ratio (y) = 0.15711 0.32593
# Poissons Ratio (z) = 0.22647 0.29760
#
# Static dielectric constant tensor:
#      x y z
#    x 1.856160 0.000000 0.025320 
#    y 0.000000 1.647780 0.000000 
#    z 0.025320 0.000000 1.832360 
# 
# From -- ./inp_files/94903.got.cif
#   From: 2010.05.17/outbox.cif.g08.bks.cpg/sg13_48_cif.got.tgz:94903.got - 2010.06.03 16:44:36.
