data_PCOD9228916
_publ_section_title
;
Structure prediction by ZEFSAII (Michael W. Deem and Ramdas Pophale) SiO2 
 PCOD9228916
Probable space group: P 2/C
;
_chemical_formula_sum "Si O2"
_cell_formula_units_Z 32
_cell_length_a 16.806960
_cell_length_b 16.472558
_cell_length_c 16.684158
_cell_angle_alpha 90.000000
_cell_angle_beta 17.784828
_cell_angle_gamma 90.000000
_cell_volume 1410.863256
_symmetry_space_group_name_H-M "P 2/C"
_symmetry_group_IT_number 13
_symmetry_cell_setting 'monoclinic'
loop_
_space_group_symop_operation_xyz
x,y,z
-x,y,1/2-z
-x,-y,-z
x,-y,1/2+z
loop_
_atom_site_type_symbol
_atom_site_label
_atom_site_fract_x
_atom_site_fract_y
_atom_site_fract_z
Si Si1 0.260013 0.348237 0.509682
Si Si2 0.594183 0.038778 0.566723
Si Si3 0.051884 0.701477 0.793509
Si Si4 0.075055 0.038778 0.513517
Si Si5 0.003131 0.594613 0.980906
Si Si6 0.571265 0.786878 0.338094
Si Si7 0.779062 0.827575 0.522151
Si Si8 0.463646 0.684318 0.987552
O O1 0.224394 0.270221 0.484455
O O2 0.335032 0.314044 0.523800
O O3 0.000000 0.396946 0.750000
O O4 0.500000 0.399565 0.250000
O O5 0.500000 0.042776 0.750000
O O6 0.538048 0.126870 0.583352
O O7 0.876452 0.004599 0.268028
O O8 0.374806 0.984057 0.737504
O O9 0.012626 0.617964 0.878435
O O10 0.352146 0.725477 0.516294
O O11 0.000000 0.700267 0.750000
O O12 0.851961 0.764746 0.030133
O O13 0.110743 0.134995 0.500538
O O14 0.000000 0.000000 0.500000
O O15 0.249255 0.643920 0.783746
O O16 0.000000 0.500000 0.000000
O O17 0.733364 0.628902 0.273213
O O18 0.557131 0.770669 0.447133
O O19 0.500000 0.852829 0.750000
O O20 0.000000 0.856885 0.250000
#
# Coordination Sequence:
#
# PCOD9228916 Si02
#       8
#     4   4   4   4   4   4   4   4
#     4  10  21  36  60  87 115 156 203 254 305 350
#     4  12  24  40  61  85 117 153 194 247 315 369
#     4  10  19  36  60  87 118 154 201 243 291 360
#     4  12  26  41  59  86 118 156 203 254 305 376
#     4  10  21  38  61  89 126 166 195 241 305 363
#     4  10  22  37  60  88 116 151 193 252 304 354
#     4  10  21  39  61  81 111 156 200 247 308 370
#     4  10  21  39  61  89 121 156 207 250 296 366
#
# _framework density 22.681149000000001
#
# number of rings (size 3 to 8) (size 9 to 14) (size 15 to 20)
#    0.000    1.500    0.000    5.625    0.000    4.000 
#    0.000    1.875    0.000    1.500    0.000    0.000 
#    0.000    0.000    0.000    0.000    0.000    0.000 
#
# Total GULP energy -178405.101031 kJ/mol
# GULP energy per Si atom -5575.159407 kJ/mol
# Density = 2.262953 g / cm^3
# Si number density = 22.681149 Si / 1000 Ang^3
#
#
#
# Elastic Constant Matrix: (Units=GPa)
#
#
# Indices 1 2 3 4 5 6 
#
# 1 75.0472 -25.9015 19.0082 0.0000 -2.2924 0.0000
# 2 -25.9015 43.4841 0.3912 0.0000 7.3460 0.0000
# 3 19.0082 0.3912 126.9942 0.0000 -10.0694 0.0000
# 4 0.0000 0.0000 0.0000 27.2426 0.0000 11.0183
# 5 -2.2924 7.3460 -10.0694 0.0000 33.3054 0.0000
# 6 0.0000 0.0000 0.0000 11.0183 0.0000 40.8691
#
#
#
# Elastic Compliance Matrix: (Units=1/GPa)
#
#
# Indices 1 2 3 4 5 6 
#
# 1 0.017767 0.010956 -0.002856 0.000000 -0.002057 0.000000
# 2 0.010956 0.030675 -0.002265 0.000000 -0.006697 0.000000
# 3 -0.002856 -0.002265 0.008538 0.000000 0.002884 0.000000
# 4 0.000000 0.000000 0.000000 0.041200 0.000000 -0.011107
# 5 -0.002057 -0.006697 0.002884 0.000000 0.032233 0.000000
# 6 0.000000 0.000000 0.000000 -0.011107 0.000000 0.027463
#
#
# Mechanical properties :
#
#
# Convention : Reuss Voigt Hill
#
# Bulk Modulus (GPa) = 14.56697 25.83568 20.20133
# Shear Modulus (GPa) = 29.57044 37.08528 33.32786
#
# Velocity S-wave (km/s) = 3.61466 4.04799 3.83744
# Velocity P-wave (km/s) = 4.88441 5.76748 5.34421
#
# Compressibility (1/GPa) = 0.06864844
#
# Stress axis : x y z
#
# Youngs Moduli (GPa) = 56.28440 32.60020 117.12966
#
# Poissons Ratio (x) = -0.35717 0.33454
# Poissons Ratio (y) = -0.61666 0.26534
# Poissons Ratio (z) = 0.16076 0.07385
#
# Static dielectric constant tensor:
#      x y z
#    x 1.936470 0.000000 0.052040 
#    y 0.000000 -3.259530 0.000000 
#    z 0.052040 0.000000 1.928810 
# 
# From -- ./inp_files/53976.got.cif
#   From: 2010.05.17/outbox.cif.g08.bks.cpg/sg13_27_cif.got.tgz:53976.got - 2010.06.03 16:44:36.
