data_PCOD9228728
_publ_section_title
;
Structure prediction by ZEFSAII (Michael W. Deem and Ramdas Pophale) SiO2 
 PCOD9228728
Probable space group: P 2/C
;
_chemical_formula_sum "Si O2"
_cell_formula_units_Z 22
_cell_length_a 15.246374
_cell_length_b 9.016568
_cell_length_c 18.311161
_cell_angle_alpha 90.000000
_cell_angle_beta 25.586529
_cell_angle_gamma 90.000000
_cell_volume 1087.127480
_symmetry_space_group_name_H-M "P 2/C"
_symmetry_group_IT_number 13
_symmetry_cell_setting 'monoclinic'
loop_
_space_group_symop_operation_xyz
x,y,z
-x,y,1/2-z
-x,-y,-z
x,-y,1/2+z
loop_
_atom_site_type_symbol
_atom_site_label
_atom_site_fract_x
_atom_site_fract_y
_atom_site_fract_z
Si Si1 0.476482 0.930755 0.653157
Si Si2 0.242046 0.492834 0.832850
Si Si3 0.260155 0.732368 0.705487
Si Si4 0.759493 0.197088 0.435595
Si Si5 0.220221 0.194188 0.913948
Si Si6 0.500000 0.677853 0.750000
O O1 0.385613 0.864263 0.647883
O O2 0.551318 0.794075 0.646912
O O3 0.659874 0.038368 0.498527
O O4 0.308533 0.034876 0.821996
O O5 0.319616 0.586736 0.706349
O O6 0.294578 0.320741 0.802449
O O7 0.324521 0.576750 0.844192
O O8 0.000000 0.500000 0.000000
O O9 0.295820 0.706818 0.593340
O O10 0.024646 0.783483 0.897371
O O11 0.708373 0.234507 0.557598
O O12 0.000000 0.185530 0.250000
#
# Coordination Sequence:
#
# PCOD9228728 Si02
#       6
#     4   4   4   4   4   2
#     4  11  19  35  57  86 110 150 197 233 283 347
#     4   9  20  37  57  85 116 151 195 235 286 345
#     4   9  20  36  57  83 118 145 182 247 291 335
#     4  10  20  34  55  82 117 148 185 235 294 335
#     4  10  19  35  61  83 108 152 199 229 286 352
#     4  10  20  32  60  84 116 146 196 246 278 332
#
# _framework density 20.236816999999999
#
# number of rings (size 3 to 8) (size 9 to 14) (size 15 to 20)
#    0.000    2.182    1.818    1.091    2.545    0.000 
#    0.000    0.909    4.000    1.091    0.000    0.000 
#    0.000    0.000    0.000    0.000    0.000    0.000 
#
# Total GULP energy -122483.484375 kJ/mol
# GULP energy per Si atom -5567.431108 kJ/mol
# Density = 2.019076 g / cm^3
# Si number density = 20.236817 Si / 1000 Ang^3
#
#
#
# Elastic Constant Matrix: (Units=GPa)
#
#
# Indices 1 2 3 4 5 6 
#
# 1 142.9289 36.7158 33.1987 0.0000 -12.4788 0.0000
# 2 36.7158 72.3066 4.2968 0.0000 -4.6699 0.0000
# 3 33.1987 4.2968 47.8044 0.0000 9.6964 0.0000
# 4 0.0000 0.0000 0.0000 17.9665 0.0000 -8.0296
# 5 -12.4788 -4.6699 9.6964 0.0000 18.6184 0.0000
# 6 0.0000 0.0000 0.0000 -8.0296 0.0000 28.6562
#
#
#
# Elastic Compliance Matrix: (Units=1/GPa)
#
#
# Indices 1 2 3 4 5 6 
#
# 1 0.011489 -0.004482 -0.009962 0.000000 0.011764 0.000000
# 2 -0.004482 0.016019 0.001640 0.000000 0.000159 0.000000
# 3 -0.009962 0.001640 0.032381 0.000000 -0.023129 0.000000
# 4 0.000000 0.000000 0.000000 0.063627 0.000000 0.017828
# 5 0.011764 0.000159 -0.023129 0.000000 0.073681 0.000000
# 6 0.000000 0.000000 0.000000 0.017828 0.000000 0.039892
#
#
# Mechanical properties :
#
#
# Convention : Reuss Voigt Hill
#
# Bulk Modulus (GPa) = 29.17040 45.71804 37.44422
# Shear Modulus (GPa) = 18.24001 25.63681 21.93841
#
# Velocity S-wave (km/s) = 3.00547 3.56313 3.29611
# Velocity P-wave (km/s) = 5.14681 6.29034 5.74709
#
# Compressibility (1/GPa) = 0.03428133
#
# Stress axis : x y z
#
# Youngs Moduli (GPa) = 87.04074 62.42713 30.88239
#
# Poissons Ratio (x) = 0.27980 0.30765
# Poissons Ratio (y) = 0.39012 -0.05066
# Poissons Ratio (z) = 0.86710 -0.10241
#
# Static dielectric constant tensor:
#      x y z
#    x 1.785400 0.000000 -0.024150 
#    y 0.000000 1.707100 0.000000 
#    z -0.024150 0.000000 1.743450 
# 
# From -- ./inp_files/62858.got.cif
#   From: 2010.05.17/outbox.cif.g08.bks.cpg/sg13_32_cif.got.tgz:62858.got - 2010.06.03 16:44:36.
