data_PCOD9228741
_publ_section_title
;
Structure prediction by ZEFSAII (Michael W. Deem and Ramdas Pophale) SiO2 
 PCOD9228741
Probable space group: P 2/C
;
_chemical_formula_sum "Si O2"
_cell_formula_units_Z 30
_cell_length_a 12.864517
_cell_length_b 6.154300
_cell_length_c 19.258410
_cell_angle_alpha 90.000000
_cell_angle_beta 95.345509
_cell_angle_gamma 90.000000
_cell_volume 1518.097683
_symmetry_space_group_name_H-M "P 2/C"
_symmetry_group_IT_number 13
_symmetry_cell_setting 'monoclinic'
loop_
_space_group_symop_operation_xyz
x,y,z
-x,y,1/2-z
-x,-y,-z
x,-y,1/2+z
loop_
_atom_site_type_symbol
_atom_site_label
_atom_site_fract_x
_atom_site_fract_y
_atom_site_fract_z
Si Si1 0.500000 0.811515 0.750000
Si Si2 0.745649 0.220131 0.933880
Si Si3 0.688791 0.887745 0.212135
Si Si4 0.030781 0.239878 0.409460
Si Si5 0.171564 0.876918 0.672667
Si Si6 0.339505 0.497835 0.686569
Si Si7 0.241399 0.964351 0.437416
Si Si8 0.125949 0.407170 0.989182
O O1 0.439975 0.651081 0.694048
O O2 0.410186 0.963177 0.775028
O O3 0.663638 0.336684 0.878800
O O4 0.833593 0.396945 0.959936
O O5 0.795918 0.029010 0.890580
O O6 0.704863 0.125157 0.004043
O O7 0.669149 0.651255 0.244863
O O8 0.789592 0.989367 0.258087
O O9 0.706484 0.911463 0.131882
O O10 0.949378 0.182698 0.344285
O O11 0.958681 0.263994 0.474566
O O12 0.126154 0.071920 0.418278
O O13 0.081380 0.480784 0.416535
O O14 0.239785 0.657242 0.676102
O O15 0.222332 0.740512 0.475883
#
# Coordination Sequence:
#
# PCOD9228741 Si02
#       8
#     2   4   4   4   4   4   4   4
#     4  10  22  44  68  84 108 146 200 250 300 374
#     4  10  19  35  61  90 117 159 200 243 285 342
#     4  10  24  40  61  87 115 153 192 250 310 357
#     4  10  20  32  55  86 122 167 206 233 275 335
#     4  10  20  37  59  84 121 160 208 240 278 347
#     4  10  20  39  66  88 110 153 199 241 299 365
#     4  11  22  36  54  89 130 154 196 246 291 340
#     4  10  20  31  56  88 120 167 205 236 280 338
#
# _framework density 19.761575000000001
#
# number of rings (size 3 to 8) (size 9 to 14) (size 15 to 20)
#    0.000    1.867    2.667    0.800    3.733    4.800 
#    0.000    0.667    0.000   15.200    0.000    0.000 
#    0.000    0.000    0.000    0.000    0.000    0.000 
#
# Total GULP energy -167237.229082 kJ/mol
# GULP energy per Si atom -5574.574303 kJ/mol
# Density = 1.971660 g / cm^3
# Si number density = 19.761575 Si / 1000 Ang^3
#
#
#
# Elastic Constant Matrix: (Units=GPa)
#
#
# Indices 1 2 3 4 5 6 
#
# 1 42.0538 30.8237 22.6751 0.0000 4.1650 0.0000
# 2 30.8237 102.2785 37.3208 0.0000 -3.5053 0.0000
# 3 22.6751 37.3208 88.3838 0.0000 -16.5258 0.0000
# 4 0.0000 0.0000 0.0000 26.1225 0.0000 16.2029
# 5 4.1650 -3.5053 -16.5258 0.0000 18.5653 0.0000
# 6 0.0000 0.0000 0.0000 16.2029 0.0000 20.3261
#
#
#
# Elastic Compliance Matrix: (Units=1/GPa)
#
#
# Indices 1 2 3 4 5 6 
#
# 1 0.036631 -0.008273 -0.009277 0.000000 -0.018038 0.000000
# 2 -0.008273 0.013531 -0.003319 0.000000 0.001456 0.000000
# 3 -0.009277 -0.003319 0.018436 0.000000 0.017866 0.000000
# 4 0.000000 0.000000 0.000000 0.075722 0.000000 -0.060362
# 5 -0.018038 0.001456 0.017866 0.000000 0.074089 0.000000
# 6 0.000000 0.000000 0.000000 -0.060362 0.000000 0.097315
#
#
# Mechanical properties :
#
#
# Convention : Reuss Voigt Hill
#
# Bulk Modulus (GPa) = 37.22872 46.03947 41.63410
# Shear Modulus (GPa) = 13.64567 22.46253 18.05410
#
# Velocity S-wave (km/s) = 2.63062 3.37512 3.02585
# Velocity P-wave (km/s) = 5.30158 6.20779 5.77249
#
# Compressibility (1/GPa) = 0.02686098
#
# Stress axis : x y z
#
# Youngs Moduli (GPa) = 27.29902 73.90247 54.24037
#
# Poissons Ratio (x) = 0.61136 0.50321
# Poissons Ratio (y) = 0.22583 0.18003
# Poissons Ratio (z) = 0.25327 0.24529
#
# Static dielectric constant tensor:
#      x y z
#    x 1.683400 0.000000 0.041480 
#    y 0.000000 1.733350 0.000000 
#    z 0.041480 0.000000 1.726170 
# 
# From -- ./inp_files/79063.got.cif
#   From: 2010.05.17/outbox.cif.g08.bks.cpg/sg13_40_cif.got.tgz:79063.got - 2010.06.03 16:44:36.
