data_PCOD9228352
_publ_section_title
;
Structure prediction by ZEFSAII (Michael W. Deem and Ramdas Pophale) SiO2 
 PCOD9228352
Probable space group: P 2/C
;
_chemical_formula_sum "Si O2"
_cell_formula_units_Z 24
_cell_length_a 28.016965
_cell_length_b 8.012834
_cell_length_c 18.255550
_cell_angle_alpha 90.000000
_cell_angle_beta 18.210635
_cell_angle_gamma 90.000000
_cell_volume 1280.760135
_symmetry_space_group_name_H-M "P 2/C"
_symmetry_group_IT_number 13
_symmetry_cell_setting 'monoclinic'
loop_
_space_group_symop_operation_xyz
x,y,z
-x,y,1/2-z
-x,-y,-z
x,-y,1/2+z
loop_
_atom_site_type_symbol
_atom_site_label
_atom_site_fract_x
_atom_site_fract_y
_atom_site_fract_z
Si Si1 0.747194 0.532893 0.940194
Si Si2 0.032623 0.847077 0.853246
Si Si3 0.558150 0.618453 0.350005
Si Si4 0.852330 0.650948 0.008728
Si Si5 0.258999 0.363926 0.216958
Si Si6 0.941404 0.801358 0.148844
O O1 0.850716 0.693183 0.810264
O O2 0.703746 0.566473 0.918880
O O3 0.845389 0.364654 0.802214
O O4 0.616866 0.524215 0.191450
O O5 0.919987 0.810278 0.951246
O O6 0.108121 0.028743 0.739488
O O7 0.939020 0.838049 0.065616
O O8 0.500000 0.500000 0.500000
O O9 0.408455 0.713278 0.538165
O O10 0.710421 0.696794 0.163561
O O11 0.000000 0.579082 0.750000
O O12 0.797890 0.516585 0.148632
O O13 0.116456 0.240016 0.415134
#
# Coordination Sequence:
#
# PCOD9228352 Si02
#       6
#     4   4   4   4   4   4
#     4  11  18  38  62  81 114 152 196 239 280 336
#     4  10  19  33  60  88 109 142 193 244 281 325
#     4  10  22  33  58  84 117 156 187 231 295 347
#     4  11  18  35  56  82 118 151 185 234 285 339
#     4  10  19  35  57  87 112 153 192 232 288 339
#     4  10  19  34  62  89 106 140 206 241 270 337
#
# _framework density 18.738871
#
# number of rings (size 3 to 8) (size 9 to 14) (size 15 to 20)
#    0.000    1.667    5.000    1.500    0.000    0.000 
#    0.000    5.000    7.333    2.000    0.000    0.000 
#    0.000    0.000    0.000    0.000    0.000    0.000 
#
# Total GULP energy -133644.233164 kJ/mol
# GULP energy per Si atom -5568.509715 kJ/mol
# Density = 1.869622 g / cm^3
# Si number density = 18.738871 Si / 1000 Ang^3
#
#
#
# Elastic Constant Matrix: (Units=GPa)
#
#
# Indices 1 2 3 4 5 6 
#
# 1 120.8067 28.1785 42.7387 0.0000 -16.3825 0.0000
# 2 28.1785 95.1798 16.0861 0.0000 -3.9936 0.0000
# 3 42.7387 16.0861 67.1358 0.0000 -5.8372 0.0000
# 4 0.0000 0.0000 0.0000 -3.3685 0.0000 -0.2582
# 5 -16.3825 -3.9936 -5.8372 0.0000 47.5423 0.0000
# 6 0.0000 0.0000 0.0000 -0.2582 0.0000 19.1563
#
#
#
# Elastic Compliance Matrix: (Units=1/GPa)
#
#
# Indices 1 2 3 4 5 6 
#
# 1 0.011504 -0.002175 -0.006543 0.000000 0.002978 0.000000
# 2 -0.002175 0.011378 -0.001338 0.000000 0.000042 0.000000
# 3 -0.006543 -0.001338 0.019382 0.000000 0.000013 0.000000
# 4 0.000000 0.000000 0.000000 -0.296563 0.000000 -0.003997
# 5 0.002978 0.000042 0.000013 0.000000 0.022065 0.000000
# 6 0.000000 0.000000 0.000000 -0.003997 0.000000 0.052148
#
#
# Mechanical properties :
#
#
# Convention : Reuss Voigt Hill
#
# Bulk Modulus (GPa) = 45.14303 50.79211 47.96757
# Shear Modulus (GPa) = -32.76771 25.74062 -3.51354
#
# Velocity S-wave (km/s) = -4.18622 3.71030 -1.37079
# Velocity P-wave (km/s) = 0.88144 6.74679 4.81124
#
# Compressibility (1/GPa) = 0.02215182
#
# Stress axis : x y z
#
# Youngs Moduli (GPa) = 86.92873 87.88708 51.59344
#
# Poissons Ratio (x) = 0.19115 0.33759
# Poissons Ratio (y) = 0.18906 0.06904
# Poissons Ratio (z) = 0.56879 0.11760
#
# Static dielectric constant tensor:
#      x y z
#    x 1.693920 0.000000 -0.006550 
#    y 0.000000 1.647330 0.000000 
#    z -0.006550 0.000000 1.700160 
# 
# From -- ./inp_files/65920.got.cif
#   From: 2010.05.17/outbox.cif.g08.bks.cpg/sg13_33_cif.got.tgz:65920.got - 2010.06.03 16:44:36.
