data_PCOD9228652
_publ_section_title
;
Structure prediction by ZEFSAII (Michael W. Deem and Ramdas Pophale) SiO2 
 PCOD9228652
Probable space group: P 2/C
;
_chemical_formula_sum "Si O2"
_cell_formula_units_Z 22
_cell_length_a 22.060368
_cell_length_b 7.897447
_cell_length_c 5.433660
_cell_angle_alpha 90.000000
_cell_angle_beta 77.113093
_cell_angle_gamma 90.000000
_cell_volume 922.811253
_symmetry_space_group_name_H-M "P 2/C"
_symmetry_group_IT_number 13
_symmetry_cell_setting 'monoclinic'
loop_
_space_group_symop_operation_xyz
x,y,z
-x,y,1/2-z
-x,-y,-z
x,-y,1/2+z
loop_
_atom_site_type_symbol
_atom_site_label
_atom_site_fract_x
_atom_site_fract_y
_atom_site_fract_z
Si Si1 0.500000 0.392727 0.250000
Si Si2 0.640555 0.393532 0.123442
Si Si3 0.929584 0.066264 0.533394
Si Si4 0.862255 0.608058 0.967976
Si Si5 0.234798 0.901327 0.483261
Si Si6 0.365393 0.963767 0.867125
O O1 0.500000 0.500000 0.500000
O O2 0.569201 0.318339 0.187421
O O3 0.649778 0.499898 0.365260
O O4 0.673081 0.212752 0.095723
O O5 0.918295 0.256352 0.451188
O O6 0.902976 0.954617 0.332570
O O7 0.000000 0.000000 0.500000
O O8 0.864283 0.489843 0.207178
O O9 0.800167 0.723976 0.019066
O O10 0.218336 0.015584 0.260771
O O11 0.309969 0.896229 0.415213
O O12 0.401213 0.998295 0.584183
#
# Coordination Sequence:
#
# PCOD9228652 Si02
#       6
#     2   4   4   4   4   4
#     4   8  16  30  52  80 112 142 180 236 296 336
#     4  10  19  35  58  84 110 147 194 240 283 341
#     4  10  21  41  65  89 122 166 193 223 292 357
#     4  12  24  40  64  95 119 148 199 251 283 331
#     4  10  21  41  62  82 116 159 192 232 294 354
#     4  10  21  38  56  81 117 155 188 233 294 353
#
# _framework density 23.840195000000001
#
# number of rings (size 3 to 8) (size 9 to 14) (size 15 to 20)
#    0.000    1.818    0.000    4.364    0.000    0.000 
#    0.000   33.636    0.000    0.000    0.000    0.000 
#    0.000    0.000    0.000    0.000    0.000    0.000 
#
# Total GULP energy -122671.731060 kJ/mol
# GULP energy per Si atom -5575.987775 kJ/mol
# Density = 2.378593 g / cm^3
# Si number density = 23.840195 Si / 1000 Ang^3
#
#
#
# Elastic Constant Matrix: (Units=GPa)
#
#
# Indices 1 2 3 4 5 6 
#
# 1 36.3779 -16.0201 -7.0163 0.0000 5.0369 0.0000
# 2 -16.0201 118.7881 61.6502 0.0000 17.3698 0.0000
# 3 -7.0163 61.6502 238.5405 0.0000 44.0833 0.0000
# 4 0.0000 0.0000 0.0000 60.9107 0.0000 9.9036
# 5 5.0369 17.3698 44.0833 0.0000 30.7738 0.0000
# 6 0.0000 0.0000 0.0000 9.9036 0.0000 14.1177
#
#
#
# Elastic Compliance Matrix: (Units=1/GPa)
#
#
# Indices 1 2 3 4 5 6 
#
# 1 0.031339 0.004914 0.001513 0.000000 -0.010070 0.000000
# 2 0.004914 0.010644 -0.001833 0.000000 -0.004187 0.000000
# 3 0.001513 -0.001833 0.006208 0.000000 -0.008107 0.000000
# 4 0.000000 0.000000 0.000000 0.018531 0.000000 -0.013000
# 5 -0.010070 -0.004187 -0.008107 0.000000 0.048120 0.000000
# 6 0.000000 0.000000 0.000000 -0.013000 0.000000 0.079953
#
#
# Mechanical properties :
#
#
# Convention : Reuss Voigt Hill
#
# Bulk Modulus (GPa) = 17.42765 52.32602 34.87684
# Shear Modulus (GPa) = 24.42188 44.83327 34.62757
#
# Velocity S-wave (km/s) = 3.20410 4.34126 3.81529
# Velocity P-wave (km/s) = 4.58414 6.86477 5.83693
#
# Compressibility (1/GPa) = 0.05738007
#
# Stress axis : x y z
#
# Youngs Moduli (GPa) = 31.90887 93.94552 161.06982
#
# Poissons Ratio (x) = -0.46163 -0.24367
# Poissons Ratio (y) = -0.15680 0.29520
# Poissons Ratio (z) = -0.04827 0.17218
#
# Static dielectric constant tensor:
#      x y z
#    x 2.223860 0.000000 -0.093810 
#    y 0.000000 1.993660 0.000000 
#    z -0.093810 0.000000 2.028420 
# 
# From -- ./inp_files/7950.got.cif
#   From: 2010.05.17/outbox.cif.g08.bks.cpg/sg13_4_cif.got.tgz:7950.got - 2010.06.03 16:44:36.
