data_PCOD9228336
_publ_section_title
;
Structure prediction by ZEFSAII (Michael W. Deem and Ramdas Pophale) SiO2 
 PCOD9228336
Probable space group: P 2/C
;
_chemical_formula_sum "Si O2"
_cell_formula_units_Z 20
_cell_length_a 5.415717
_cell_length_b 7.397317
_cell_length_c 25.025481
_cell_angle_alpha 90.000000
_cell_angle_beta 134.947032
_cell_angle_gamma 90.000000
_cell_volume 709.575721
_symmetry_space_group_name_H-M "P 2/C"
_symmetry_group_IT_number 13
_symmetry_cell_setting 'monoclinic'
loop_
_space_group_symop_operation_xyz
x,y,z
-x,y,1/2-z
-x,-y,-z
x,-y,1/2+z
loop_
_atom_site_type_symbol
_atom_site_label
_atom_site_fract_x
_atom_site_fract_y
_atom_site_fract_z
Si Si1 0.943650 0.788343 0.981002
Si Si2 0.016183 0.915604 0.146388
Si Si3 0.901617 0.485294 0.800000
Si Si4 0.652828 0.271268 0.048506
Si Si5 0.361351 0.100628 0.317531
O O1 0.760838 0.712974 0.005324
O O2 0.263201 0.695155 0.000891
O O3 0.635496 0.775562 0.890272
O O4 0.000000 0.000000 0.000000
O O5 0.077250 0.704639 0.164526
O O6 0.391125 0.995596 0.185120
O O7 0.814081 0.955967 0.170577
O O8 0.775480 0.060799 0.075723
O O9 0.500000 0.552360 0.750000
O O10 0.000000 0.454278 0.750000
O O11 0.135721 0.616375 0.874623
O O12 0.000000 0.204049 0.250000
#
# Coordination Sequence:
#
# PCOD9228336 Si02
#       5
#     4   4   4   4   4
#     4  10  21  39  63  87 118 162 204 246 299 358
#     4  10  21  37  57  84 121 157 193 241 296 355
#     4  12  24  36  57  90 125 160 197 243 304 363
#     4  10  23  39  60  86 119 157 204 250 297 355
#     4  10  19  33  58  86 113 152 197 243 298 352
#
# _framework density 28.185856999999999
#
# number of rings (size 3 to 8) (size 9 to 14) (size 15 to 20)
#    0.000    1.600    0.000    5.400    0.000   11.200 
#    0.000    0.000    0.000   28.800    0.000    0.000 
#    0.000    0.000    0.000    0.000    0.000    0.000 
#
# Total GULP energy -111380.595086 kJ/mol
# GULP energy per Si atom -5569.029754 kJ/mol
# Density = 2.812170 g / cm^3
# Si number density = 28.185857 Si / 1000 Ang^3
#
#
#
# Elastic Constant Matrix: (Units=GPa)
#
#
# Indices 1 2 3 4 5 6 
#
# 1 297.4972 28.8910 48.9890 0.0000 3.4611 0.0000
# 2 28.8910 143.8599 20.7232 0.0000 -8.7560 0.0000
# 3 48.9890 20.7232 100.3713 0.0000 -2.9565 0.0000
# 4 0.0000 0.0000 0.0000 40.4940 0.0000 21.7985
# 5 3.4611 -8.7560 -2.9565 0.0000 34.1911 0.0000
# 6 0.0000 0.0000 0.0000 21.7985 0.0000 41.4186
#
#
#
# Elastic Compliance Matrix: (Units=1/GPa)
#
#
# Indices 1 2 3 4 5 6 
#
# 1 0.003704 -0.000537 -0.001716 0.000000 -0.000661 0.000000
# 2 -0.000537 0.007343 -0.001200 0.000000 0.001831 0.000000
# 3 -0.001716 -0.001200 0.011073 0.000000 0.000824 0.000000
# 4 0.000000 0.000000 0.000000 0.034457 0.000000 -0.018135
# 5 -0.000661 0.001831 0.000824 0.000000 0.029854 0.000000
# 6 0.000000 0.000000 0.000000 -0.018135 0.000000 0.033688
#
#
# Mechanical properties :
#
#
# Convention : Reuss Voigt Hill
#
# Bulk Modulus (GPa) = 65.73243 82.10385 73.91814
# Shear Modulus (GPa) = 37.85082 52.76241 45.30662
#
# Velocity S-wave (km/s) = 3.66854 4.33129 4.01362
# Velocity P-wave (km/s) = 6.42775 7.36248 6.91094
#
# Compressibility (1/GPa) = 0.01521319
#
# Stress axis : x y z
#
# Youngs Moduli (GPa) = 269.99047 136.17756 90.31128
#
# Poissons Ratio (x) = 0.07310 0.15501
# Poissons Ratio (y) = 0.14493 0.10839
# Poissons Ratio (z) = 0.46341 0.16344
#
# Static dielectric constant tensor:
#      x y z
#    x 2.428390 0.000000 -0.024530 
#    y 0.000000 2.264950 0.000000 
#    z -0.024530 0.000000 2.042150 
# 
# From -- ./inp_files/94798.got.cif
#   From: 2010.05.17/outbox.cif.g08.bks.cpg/sg13_48_cif.got.tgz:94798.got - 2010.06.03 16:44:36.
