data_PCOD9228940
_publ_section_title
;
Structure prediction by ZEFSAII (Michael W. Deem and Ramdas Pophale) SiO2 
 PCOD9228940
Probable space group: P 2/C
;
_chemical_formula_sum "Si O2"
_cell_formula_units_Z 30
_cell_length_a 13.900652
_cell_length_b 7.756659
_cell_length_c 14.681130
_cell_angle_alpha 90.000000
_cell_angle_beta 66.783467
_cell_angle_gamma 90.000000
_cell_volume 1454.772511
_symmetry_space_group_name_H-M "P 2/C"
_symmetry_group_IT_number 13
_symmetry_cell_setting 'monoclinic'
loop_
_space_group_symop_operation_xyz
x,y,z
-x,y,1/2-z
-x,-y,-z
x,-y,1/2+z
loop_
_atom_site_type_symbol
_atom_site_label
_atom_site_fract_x
_atom_site_fract_y
_atom_site_fract_z
Si Si1 0.448188 0.454245 0.409794
Si Si2 0.161827 0.858664 0.836229
Si Si3 0.000000 0.059011 0.250000
Si Si4 0.347898 0.178908 0.955820
Si Si5 0.619471 0.853892 0.451086
Si Si6 0.668388 0.565234 0.733556
Si Si7 0.693685 0.177992 0.728393
Si Si8 0.166185 0.935088 0.045897
O O1 0.386694 0.629211 0.458237
O O2 0.439902 0.306973 0.486749
O O3 0.385920 0.395343 0.342708
O O4 0.569707 0.465339 0.336642
O O5 0.251370 0.718956 0.779743
O O6 0.069737 0.835949 0.797331
O O7 0.210300 0.047685 0.800251
O O8 0.138284 0.864741 0.954734
O O9 0.074292 0.951493 0.153346
O O10 0.404894 0.039696 0.997009
O O11 0.367179 0.140419 0.842335
O O12 0.225083 0.123679 0.013828
O O13 0.622871 0.854882 0.342031
O O14 0.739592 0.826720 0.443821
O O15 0.724170 0.378807 0.710613
#
# Coordination Sequence:
#
# PCOD9228940 Si02
#       8
#     4   4   2   4   4   4   4   4
#     4  10  19  38  63  89 129 170 206 247 313 383
#     4  11  21  42  63  91 127 165 207 266 314 374
#     4  12  22  38  72  90 118 168 220 262 332 368
#     4   8  19  37  59  88 125 165 202 260 310 369
#     4  10  19  36  61  90 124 169 203 254 312 369
#     4  10  22  37  63  94 123 170 211 251 310 381
#     4  10  20  37  60  87 124 160 208 255 309 364
#     4   9  20  38  63  92 120 165 207 264 314 374
#
# _framework density 20.621782
#
# number of rings (size 3 to 8) (size 9 to 14) (size 15 to 20)
#    0.800    1.333    2.667    0.400    0.000    3.733 
#    0.000    6.000    2.933    3.200    0.000    0.000 
#    0.000    0.000    0.000    0.000    0.000    0.000 
#
# Total GULP energy -167267.664595 kJ/mol
# GULP energy per Si atom -5575.588820 kJ/mol
# Density = 2.057485 g / cm^3
# Si number density = 20.621782 Si / 1000 Ang^3
#
#
#
# Elastic Constant Matrix: (Units=GPa)
#
#
# Indices 1 2 3 4 5 6 
#
# 1 96.4852 40.4148 12.3603 0.0000 -0.3635 0.0000
# 2 40.4148 69.3457 47.1696 0.0000 5.3125 0.0000
# 3 12.3603 47.1696 111.0289 0.0000 -6.3765 0.0000
# 4 0.0000 0.0000 0.0000 20.6094 0.0000 1.5280
# 5 -0.3635 5.3125 -6.3765 0.0000 18.3373 0.0000
# 6 0.0000 0.0000 0.0000 1.5280 0.0000 12.0935
#
#
#
# Elastic Compliance Matrix: (Units=1/GPa)
#
#
# Indices 1 2 3 4 5 6 
#
# 1 0.014642 -0.011210 0.003404 0.000000 0.004721 0.000000
# 2 -0.011210 0.030452 -0.012458 0.000000 -0.013377 0.000000
# 3 0.003404 -0.012458 0.014419 0.000000 0.008691 0.000000
# 4 0.000000 0.000000 0.000000 0.048980 0.000000 -0.006188
# 5 0.004721 -0.013377 0.008691 0.000000 0.061525 0.000000
# 6 0.000000 0.000000 0.000000 -0.006188 0.000000 0.083471
#
#
# Mechanical properties :
#
#
# Convention : Reuss Voigt Hill
#
# Bulk Modulus (GPa) = 52.67256 52.97213 52.82234
# Shear Modulus (GPa) = 16.64749 22.00239 19.32494
#
# Velocity S-wave (km/s) = 2.84434 3.26996 3.06455
# Velocity P-wave (km/s) = 6.03197 6.32456 6.18000
#
# Compressibility (1/GPa) = 0.01898522
#
# Stress axis : x y z
#
# Youngs Moduli (GPa) = 68.29856 32.83820 69.35108
#
# Poissons Ratio (x) = 0.36812 -0.23605
# Poissons Ratio (y) = 0.76563 0.86395
# Poissons Ratio (z) = -0.23247 0.40909
#
# Static dielectric constant tensor:
#      x y z
#    x 1.810760 0.000000 0.021950 
#    y 0.000000 1.721620 0.000000 
#    z 0.021950 0.000000 1.781710 
# 
# From -- ./inp_files/50296.got.cif
#   From: 2010.05.17/outbox.cif.g08.bks.cpg/sg13_26_cif.got.tgz:50296.got - 2010.06.03 16:44:36.
