data_PCOD9228630
_publ_section_title
;
Structure prediction by ZEFSAII (Michael W. Deem and Ramdas Pophale) SiO2 
 PCOD9228630
Probable space group: P 2/C
;
_chemical_formula_sum "Si O2"
_cell_formula_units_Z 30
_cell_length_a 13.686432
_cell_length_b 11.021354
_cell_length_c 11.317515
_cell_angle_alpha 90.000000
_cell_angle_beta 74.858424
_cell_angle_gamma 90.000000
_cell_volume 1647.900887
_symmetry_space_group_name_H-M "P 2/C"
_symmetry_group_IT_number 13
_symmetry_cell_setting 'monoclinic'
loop_
_space_group_symop_operation_xyz
x,y,z
-x,y,1/2-z
-x,-y,-z
x,-y,1/2+z
loop_
_atom_site_type_symbol
_atom_site_label
_atom_site_fract_x
_atom_site_fract_y
_atom_site_fract_z
Si Si1 0.887908 0.674553 0.264740
Si Si2 0.736579 0.832765 0.197682
Si Si3 0.404050 0.171249 0.532562
Si Si4 0.231740 0.716025 0.956557
Si Si5 0.633511 0.884529 0.983119
Si Si6 0.800992 0.899399 0.739500
Si Si7 0.075544 0.561836 0.881745
Si Si8 0.000000 0.224561 0.250000
O O1 0.823464 0.732376 0.179856
O O2 0.827310 0.707375 0.401436
O O3 0.900603 0.533092 0.229880
O O4 0.000000 0.724595 0.250000
O O5 0.648610 0.810691 0.322951
O O6 0.789865 0.958624 0.218620
O O7 0.687926 0.843139 0.085076
O O8 0.347822 0.261028 0.458542
O O9 0.524583 0.177820 0.502359
O O10 0.381476 0.030866 0.503917
O O11 0.202445 0.830079 0.884147
O O12 0.183828 0.602774 0.901269
O O13 0.704495 0.861151 0.848251
O O14 0.900734 0.859263 0.779439
O O15 0.019300 0.682228 0.851897
O O16 0.000000 0.500000 0.000000
#
# Coordination Sequence:
#
# PCOD9228630 Si02
#       8
#     4   4   4   4   4   4   4   2
#     4  11  22  37  57  86 111 157 190 236 292 338
#     4  10  21  35  55  86 121 149 191 234 292 353
#     4   9  19  35  58  84 115 154 187 246 282 342
#     4  10  20  38  57  85 119 140 199 244 284 341
#     4  10  19  35  57  85 118 150 199 225 292 352
#     4  10  22  35  54  88 118 158 183 237 291 351
#     4  11  20  37  60  82 106 153 203 237 280 346
#     4  10  22  36  52  80 118 148 190 238 288 342
#
# _framework density 18.204979999999999
#
# number of rings (size 3 to 8) (size 9 to 14) (size 15 to 20)
#    0.000    1.867    3.333    0.400    2.800    0.533 
#    0.000    1.333    0.000    0.800   13.867    0.000 
#    0.000    0.000    0.000    0.000    0.000    0.000 
#
# Total GULP energy -167172.313636 kJ/mol
# GULP energy per Si atom -5572.410455 kJ/mol
# Density = 1.816354 g / cm^3
# Si number density = 18.204980 Si / 1000 Ang^3
#
#
#
# Elastic Constant Matrix: (Units=GPa)
#
#
# Indices 1 2 3 4 5 6 
#
# 1 152.3396 47.3155 31.7539 0.0000 9.2362 0.0000
# 2 47.3155 45.8576 16.0752 0.0000 -2.5079 0.0000
# 3 31.7539 16.0752 46.1381 0.0000 10.6238 0.0000
# 4 0.0000 0.0000 0.0000 22.6183 0.0000 10.9309
# 5 9.2362 -2.5079 10.6238 0.0000 28.4211 0.0000
# 6 0.0000 0.0000 0.0000 10.9309 0.0000 32.7484
#
#
#
# Elastic Compliance Matrix: (Units=1/GPa)
#
#
# Indices 1 2 3 4 5 6 
#
# 1 0.010462 -0.009906 -0.003025 0.000000 -0.003143 0.000000
# 2 -0.009906 0.035171 -0.007541 0.000000 0.009142 0.000000
# 3 -0.003025 -0.007541 0.028788 0.000000 -0.010443 0.000000
# 4 0.000000 0.000000 0.000000 0.052716 0.000000 -0.017596
# 5 -0.003143 0.009142 -0.010443 0.000000 0.040917 0.000000
# 6 0.000000 0.000000 0.000000 -0.017596 0.000000 0.036409
#
#
# Mechanical properties :
#
#
# Convention : Reuss Voigt Hill
#
# Bulk Modulus (GPa) = 29.87196 48.29164 39.08180
# Shear Modulus (GPa) = 19.48798 26.70360 23.09579
#
# Velocity S-wave (km/s) = 3.27536 3.83408 3.56568
# Velocity P-wave (km/s) = 5.54511 6.79591 6.20212
#
# Compressibility (1/GPa) = 0.03347621
#
# Stress axis : x y z
#
# Youngs Moduli (GPa) = 95.58169 28.43218 34.73625
#
# Poissons Ratio (x) = 0.28166 0.10508
# Poissons Ratio (y) = 0.94686 0.26196
# Poissons Ratio (z) = 0.28915 0.21442
#
# Static dielectric constant tensor:
#      x y z
#    x 1.640360 0.000000 0.029810 
#    y 0.000000 1.624880 0.000000 
#    z 0.029810 0.000000 1.639420 
# 
# From -- ./inp_files/33837.got.cif
#   From: 2010.05.17/outbox.cif.g08.bks.cpg/sg13_17_cif.got.tgz:33837.got - 2010.06.03 16:44:36.
