data_PCOD9228329
_publ_section_title
;
Structure prediction by ZEFSAII (Michael W. Deem and Ramdas Pophale) SiO2 
 PCOD9228329
Probable space group: P 2/C
;
_chemical_formula_sum "Si O2"
_cell_formula_units_Z 28
_cell_length_a 9.480037
_cell_length_b 14.495443
_cell_length_c 19.710015
_cell_angle_alpha 90.000000
_cell_angle_beta 147.713960
_cell_angle_gamma 90.000000
_cell_volume 1446.734290
_symmetry_space_group_name_H-M "P 2/C"
_symmetry_group_IT_number 13
_symmetry_cell_setting 'monoclinic'
loop_
_space_group_symop_operation_xyz
x,y,z
-x,y,1/2-z
-x,-y,-z
x,-y,1/2+z
loop_
_atom_site_type_symbol
_atom_site_label
_atom_site_fract_x
_atom_site_fract_y
_atom_site_fract_z
Si Si1 0.316773 0.617631 0.862300
Si Si2 0.464173 0.192751 0.358331
Si Si3 0.244400 0.783562 0.294567
Si Si4 0.939042 0.117164 0.914948
Si Si5 0.308170 0.411998 0.853656
Si Si6 0.936634 0.903811 0.891543
Si Si7 0.635395 0.097723 0.043795
O O1 0.435901 0.698810 0.864024
O O2 0.357631 0.515317 0.847573
O O3 0.000000 0.632249 0.750000
O O4 0.491875 0.611072 0.002692
O O5 0.752530 0.145998 0.469718
O O6 0.299539 0.162281 0.226119
O O7 0.338584 0.147284 0.374327
O O8 0.322724 0.677720 0.312877
O O9 0.461990 0.837987 0.424936
O O10 0.000000 0.784125 0.250000
O O11 0.192561 0.832332 0.201979
O O12 0.899544 0.138052 0.978701
O O13 0.862876 0.008970 0.879782
O O14 0.000000 0.416187 0.750000
O O15 0.102511 0.917220 0.891230
O O16 0.500000 0.000000 0.000000
#
# Coordination Sequence:
#
# PCOD9228329 Si02
#       7
#     4   4   4   4   4   4   4
#     4  10  19  33  57  92 126 151 197 264 321 366
#     4  12  21  39  61  85 118 154 197 248 302 361
#     4  11  19  36  60  85 118 153 202 248 298 359
#     4  11  24  41  58  82 117 164 203 239 296 369
#     4   9  18  33  56  90 124 156 197 257 322 371
#     4  11  25  39  56  85 120 157 201 243 296 361
#     4  12  21  35  58  88 115 150 191 249 297 344
#
# _framework density 19.353935
#
# number of rings (size 3 to 8) (size 9 to 14) (size 15 to 20)
#    0.000    1.143    4.286    3.429    0.000    0.571 
#    0.000    0.000    0.000    0.857    3.714    0.000 
#    0.000    0.000    0.000    0.000    0.000    0.000 
#
# Total GULP energy -156045.107704 kJ/mol
# GULP energy per Si atom -5573.039561 kJ/mol
# Density = 1.930988 g / cm^3
# Si number density = 19.353935 Si / 1000 Ang^3
#
#
#
# Elastic Constant Matrix: (Units=GPa)
#
#
# Indices 1 2 3 4 5 6 
#
# 1 56.4085 7.9154 16.4419 0.0000 -16.0134 0.0000
# 2 7.9154 143.0737 29.5903 0.0000 -22.6498 0.0000
# 3 16.4419 29.5903 94.8234 0.0000 -13.6107 0.0000
# 4 0.0000 0.0000 0.0000 24.3467 0.0000 5.8967
# 5 -16.0134 -22.6498 -13.6107 0.0000 29.2693 0.0000
# 6 0.0000 0.0000 0.0000 5.8967 0.0000 -9.9887
#
#
#
# Elastic Compliance Matrix: (Units=1/GPa)
#
#
# Indices 1 2 3 4 5 6 
#
# 1 0.021554 0.001138 -0.002436 0.000000 0.011541 0.000000
# 2 0.001138 0.008294 -0.001902 0.000000 0.006157 0.000000
# 3 -0.002436 -0.001902 0.011957 0.000000 0.002756 0.000000
# 4 0.000000 0.000000 0.000000 0.035935 0.000000 0.021214
# 5 0.011541 0.006157 0.002756 0.000000 0.046525 0.000000
# 6 0.000000 0.000000 0.000000 0.021214 0.000000 -0.087590
#
#
# Mechanical properties :
#
#
# Convention : Reuss Voigt Hill
#
# Bulk Modulus (GPa) = 28.24331 44.68899 36.46615
# Shear Modulus (GPa) = 91.10915 24.74931 57.92923
#
# Velocity S-wave (km/s) = 6.86858 3.57987 5.47690
# Velocity P-wave (km/s) = 8.80500 6.34254 7.67320
#
# Compressibility (1/GPa) = 0.03540661
#
# Stress axis : x y z
#
# Youngs Moduli (GPa) = 46.39438 120.56192 83.63012
#
# Poissons Ratio (x) = -0.13724 0.20374
# Poissons Ratio (y) = -0.05281 0.15906
# Poissons Ratio (z) = 0.11302 0.22931
#
# Static dielectric constant tensor:
#      x y z
#    x 1.609480 0.000000 0.122140 
#    y 0.000000 1.686710 0.000000 
#    z 0.122140 0.000000 1.604410 
# 
# From -- ./inp_files/64660.got.cif
#   From: 2010.05.17/outbox.cif.g08.bks.cpg/sg13_33_cif.got.tgz:64660.got - 2010.06.03 16:44:36.
