data_PCOD9228879
_publ_section_title
;
Structure prediction by ZEFSAII (Michael W. Deem and Ramdas Pophale) SiO2 
 PCOD9228879
Probable space group: P 2/C
;
_chemical_formula_sum "Si O2"
_cell_formula_units_Z 30
_cell_length_a 12.021450
_cell_length_b 11.164168
_cell_length_c 15.165197
_cell_angle_alpha 90.000000
_cell_angle_beta 50.312125
_cell_angle_gamma 90.000000
_cell_volume 1566.244252
_symmetry_space_group_name_H-M "P 2/C"
_symmetry_group_IT_number 13
_symmetry_cell_setting 'monoclinic'
loop_
_space_group_symop_operation_xyz
x,y,z
-x,y,1/2-z
-x,-y,-z
x,-y,1/2+z
loop_
_atom_site_type_symbol
_atom_site_label
_atom_site_fract_x
_atom_site_fract_y
_atom_site_fract_z
Si Si1 0.795302 0.040013 0.049917
Si Si2 0.658517 0.870361 0.242642
Si Si3 0.356468 0.234348 0.261974
Si Si4 0.001319 0.413940 0.643422
Si Si5 0.500000 0.346115 0.750000
Si Si6 0.229790 0.511844 0.879640
Si Si7 0.955003 0.867422 0.177486
Si Si8 0.477162 0.931226 0.921970
O O1 0.759262 0.137493 0.144047
O O2 0.688273 0.080321 0.024242
O O3 0.745525 0.909971 0.110269
O O4 0.957745 0.052276 0.935516
O O5 0.570087 0.748007 0.283265
O O6 0.783998 0.868124 0.251144
O O7 0.548652 0.977153 0.316372
O O8 0.500000 0.228072 0.250000
O O9 0.289374 0.364175 0.308597
O O10 0.425685 0.188566 0.135110
O O11 0.863007 0.451941 0.653106
O O12 0.000000 0.448523 0.750000
O O13 0.132532 0.463231 0.515985
O O14 0.006971 0.269601 0.640018
O O15 0.365046 0.430519 0.840652
O O16 0.000000 0.911001 0.250000
O O17 0.500000 0.000000 0.000000
#
# Coordination Sequence:
#
# PCOD9228879 Si02
#       8
#     4   4   4   4   2   4   4   4
#     4  10  19  36  59  82 116 157 202 239 300 368
#     4  11  21  39  56  87 121 155 198 248 306 374
#     4   9  18  34  59  86 110 157 202 243 299 365
#     4  10  23  41  61  88 123 166 208 256 311 366
#     4  12  22  38  62  92 116 164 206 246 324 364
#     4  11  21  41  66  85 127 163 208 259 308 373
#     4  11  21  35  60  88 118 152 203 249 301 366
#     4  10  20  36  58  84 124 155 194 255 310 360
#
# _framework density 19.154101000000001
#
# number of rings (size 3 to 8) (size 9 to 14) (size 15 to 20)
#    0.000    1.600    4.667    2.000    0.000    0.000 
#    2.400    0.667    0.000    4.000    0.000    0.000 
#    0.000    0.000    0.000    0.000    0.000    0.000 
#
# Total GULP energy -167066.657542 kJ/mol
# GULP energy per Si atom -5568.888585 kJ/mol
# Density = 1.911051 g / cm^3
# Si number density = 19.154101 Si / 1000 Ang^3
#
#
#
# Elastic Constant Matrix: (Units=GPa)
#
#
# Indices 1 2 3 4 5 6 
#
# 1 104.9752 14.2596 44.7703 0.0000 -4.8434 0.0000
# 2 14.2596 75.9549 32.9354 0.0000 -2.7906 0.0000
# 3 44.7703 32.9354 83.3250 0.0000 6.2636 0.0000
# 4 0.0000 0.0000 0.0000 20.8462 0.0000 -3.2130
# 5 -4.8434 -2.7906 6.2636 0.0000 35.4297 0.0000
# 6 0.0000 0.0000 0.0000 -3.2130 0.0000 29.0999
#
#
#
# Elastic Compliance Matrix: (Units=1/GPa)
#
#
# Indices 1 2 3 4 5 6 
#
# 1 0.012716 0.000956 -0.007446 0.000000 0.003130 0.000000
# 2 0.000956 0.016164 -0.007103 0.000000 0.002660 0.000000
# 3 -0.007446 -0.007103 0.019183 0.000000 -0.004969 0.000000
# 4 0.000000 0.000000 0.000000 0.048801 0.000000 0.005388
# 5 0.003130 0.002660 -0.004969 0.000000 0.029741 0.000000
# 6 0.000000 0.000000 0.000000 0.005388 0.000000 0.034959
#
#
# Mechanical properties :
#
#
# Convention : Reuss Voigt Hill
#
# Bulk Modulus (GPa) = 47.89631 49.79841 48.84736
# Shear Modulus (GPa) = 25.54848 28.56115 27.05481
#
# Velocity S-wave (km/s) = 3.65614 3.86570 3.76238
# Velocity P-wave (km/s) = 6.54853 6.78086 6.66571
#
# Compressibility (1/GPa) = 0.02087843
#
# Stress axis : x y z
#
# Youngs Moduli (GPa) = 78.64128 61.86687 52.13064
#
# Poissons Ratio (x) = -0.05916 0.38814
# Poissons Ratio (y) = -0.07520 0.37027
# Poissons Ratio (z) = 0.58552 0.43942
#
# Static dielectric constant tensor:
#      x y z
#    x 1.711240 0.000000 0.030330 
#    y 0.000000 1.673000 0.000000 
#    z 0.030330 0.000000 1.750020 
# 
# From -- ./inp_files/51167.got.cif
#   From: 2010.05.17/outbox.cif.g08.bks.cpg/sg13_26_cif.got.tgz:51167.got - 2010.06.03 16:44:36.
