data_PCOD9228218
_publ_section_title
;
Structure prediction by ZEFSAII (Michael W. Deem and Ramdas Pophale) SiO2 
 PCOD9228218
Probable space group: P 2/C
;
_chemical_formula_sum "Si O2"
_cell_formula_units_Z 24
_cell_length_a 20.567830
_cell_length_b 8.992269
_cell_length_c 8.788910
_cell_angle_alpha 90.000000
_cell_angle_beta 129.923712
_cell_angle_gamma 90.000000
_cell_volume 1246.612004
_symmetry_space_group_name_H-M "P 2/C"
_symmetry_group_IT_number 13
_symmetry_cell_setting 'monoclinic'
loop_
_space_group_symop_operation_xyz
x,y,z
-x,y,1/2-z
-x,-y,-z
x,-y,1/2+z
loop_
_atom_site_type_symbol
_atom_site_label
_atom_site_fract_x
_atom_site_fract_y
_atom_site_fract_z
Si Si1 0.202531 0.301959 0.172877
Si Si2 0.182926 0.855753 0.091230
Si Si3 0.909527 0.076933 0.345294
Si Si4 0.240432 0.605381 0.387631
Si Si5 0.592186 0.798511 0.839401
Si Si6 0.336611 0.952481 0.832383
O O1 0.115405 0.217727 0.086719
O O2 0.225424 0.435221 0.321216
O O3 0.277038 0.180133 0.302864
O O4 0.203029 0.354111 0.997623
O O5 0.199650 0.695230 0.184869
O O6 0.155506 0.949934 0.197618
O O7 0.267520 0.934639 0.152928
O O8 0.111503 0.873068 0.856994
O O9 0.000000 0.000000 0.500000
O O10 0.336598 0.670009 0.538682
O O11 0.500000 0.745254 0.750000
O O12 0.598968 0.869778 0.682557
O O13 0.617726 0.939111 0.982315
#
# Coordination Sequence:
#
# PCOD9228218 Si02
#       6
#     4   4   4   4   4   4
#     4  10  20  37  56  82 111 150 197 235 282 354
#     4  10  19  35  57  81 111 150 189 230 279 348
#     4  11  21  35  58  87 113 141 183 236 286 334
#     4  10  21  37  59  82 115 159 197 232 287 354
#     4  10  19  33  53  83 115 148 195 249 288 328
#     4   9  18  33  54  77 107 150 194 232 284 340
#
# _framework density 19.252182000000001
#
# number of rings (size 3 to 8) (size 9 to 14) (size 15 to 20)
#    0.000    2.000    0.000    7.000    0.000    1.333 
#    0.000    5.000    0.000    4.000    0.000    0.000 
#    0.000    0.000    0.000    0.000    0.000    0.000 
#
# Total GULP energy -133751.703367 kJ/mol
# GULP energy per Si atom -5572.987640 kJ/mol
# Density = 1.920836 g / cm^3
# Si number density = 19.252182 Si / 1000 Ang^3
#
#
#
# Elastic Constant Matrix: (Units=GPa)
#
#
# Indices 1 2 3 4 5 6 
#
# 1 94.4919 39.6052 30.9472 0.0000 -1.1672 0.0000
# 2 39.6052 103.5006 31.2372 0.0000 -0.4604 0.0000
# 3 30.9472 31.2372 70.3322 0.0000 -11.3106 0.0000
# 4 0.0000 0.0000 0.0000 21.5544 0.0000 -4.8472
# 5 -1.1672 -0.4604 -11.3106 0.0000 18.2874 0.0000
# 6 0.0000 0.0000 0.0000 -4.8472 0.0000 18.3368
#
#
#
# Elastic Compliance Matrix: (Units=1/GPa)
#
#
# Indices 1 2 3 4 5 6 
#
# 1 0.013693 -0.003844 -0.004656 0.000000 -0.002103 0.000000
# 2 -0.003844 0.012396 -0.004224 0.000000 -0.002546 0.000000
# 3 -0.004656 -0.004224 0.020075 0.000000 0.012012 0.000000
# 4 0.000000 0.000000 0.000000 0.049326 0.000000 0.013039
# 5 -0.002103 -0.002546 0.012012 0.000000 0.061914 0.000000
# 6 0.000000 0.000000 0.000000 0.013039 0.000000 0.057982
#
#
# Mechanical properties :
#
#
# Convention : Reuss Voigt Hill
#
# Bulk Modulus (GPa) = 48.27012 52.43376 50.35194
# Shear Modulus (GPa) = 20.18258 22.73806 21.46032
#
# Velocity S-wave (km/s) = 3.24130 3.44039 3.34233
# Velocity P-wave (km/s) = 6.25580 6.56324 6.41136
#
# Compressibility (1/GPa) = 0.02071675
#
# Stress axis : x y z
#
# Youngs Moduli (GPa) = 73.03034 80.67099 49.81416
#
# Poissons Ratio (x) = 0.31009 0.23194
# Poissons Ratio (y) = 0.28072 0.21039
# Poissons Ratio (z) = 0.34003 0.34072
#
# Static dielectric constant tensor:
#      x y z
#    x 1.720200 0.000000 -0.007690 
#    y 0.000000 1.653150 0.000000 
#    z -0.007690 0.000000 1.698750 
# 
# From -- ./inp_files/18184.got.cif
#   From: 2010.05.17/outbox.cif.g08.bks.cpg/sg13_10_cif.got.tgz:18184.got - 2010.06.03 16:44:36.
