data_PCOD9228862
_publ_section_title
;
Structure prediction by ZEFSAII (Michael W. Deem and Ramdas Pophale) SiO2 
 PCOD9228862
Probable space group: P 2/C
;
_chemical_formula_sum "Si O2"
_cell_formula_units_Z 18
_cell_length_a 24.372993
_cell_length_b 7.655268
_cell_length_c 5.233967
_cell_angle_alpha 90.000000
_cell_angle_beta 117.541571
_cell_angle_gamma 90.000000
_cell_volume 865.894517
_symmetry_space_group_name_H-M "P 2/C"
_symmetry_group_IT_number 13
_symmetry_cell_setting 'monoclinic'
loop_
_space_group_symop_operation_xyz
x,y,z
-x,y,1/2-z
-x,-y,-z
x,-y,1/2+z
loop_
_atom_site_type_symbol
_atom_site_label
_atom_site_fract_x
_atom_site_fract_y
_atom_site_fract_z
Si Si1 0.430551 0.930373 0.808373
Si Si2 0.252027 0.119833 0.778268
Si Si3 0.000000 0.378665 0.250000
Si Si4 0.633853 0.612850 0.995407
Si Si5 0.136202 0.623867 0.045658
O O1 0.424780 0.736608 0.689878
O O2 0.400958 0.050468 0.524007
O O3 0.500000 0.000000 0.000000
O O4 0.189115 0.231861 0.655264
O O5 0.254898 0.011995 0.522136
O O6 0.307861 0.258823 0.912254
O O7 0.000000 0.500000 0.500000
O O8 0.067336 0.290119 0.395456
O O9 0.634637 0.466729 0.778395
O O10 0.141901 0.502123 0.310046
#
# Coordination Sequence:
#
# PCOD9228862 Si02
#       5
#     4   4   2   4   4
#     4  10  21  41  63  86 120 156 184 226 289 344
#     4  12  24  39  59  86 119 156 191 239 300 347
#     4   8  16  30  54  80 110 150 192 238 290 336
#     4  12  24  41  64  91 116 151 198 242 280 339
#     4  10  19  36  58  84 114 152 199 243 284 344
#
# _framework density 20.787754
#
# number of rings (size 3 to 8) (size 9 to 14) (size 15 to 20)
#    0.000    1.333    0.000    6.667    0.000    0.000 
#    0.000   14.444    0.000    0.000    0.000    0.000 
#    0.000    0.000    0.000    0.000    0.000    0.000 
#
# Total GULP energy -100537.657821 kJ/mol
# GULP energy per Si atom -5585.425435 kJ/mol
# Density = 2.074044 g / cm^3
# Si number density = 20.787754 Si / 1000 Ang^3
#
#
#
# Elastic Constant Matrix: (Units=GPa)
#
#
# Indices 1 2 3 4 5 6 
#
# 1 90.8518 32.1637 33.2896 0.0000 23.8390 0.0000
# 2 32.1637 73.6022 27.6521 0.0000 13.0527 0.0000
# 3 33.2896 27.6521 123.7226 0.0000 -21.7592 0.0000
# 4 0.0000 0.0000 0.0000 49.7441 0.0000 -7.2061
# 5 23.8390 13.0527 -21.7592 0.0000 54.5866 0.0000
# 6 0.0000 0.0000 0.0000 -7.2061 0.0000 35.9829
#
#
#
# Elastic Compliance Matrix: (Units=1/GPa)
#
#
# Indices 1 2 3 4 5 6 
#
# 1 0.016339 -0.003809 -0.004989 0.000000 -0.008214 0.000000
# 2 -0.003809 0.017255 -0.003511 0.000000 -0.003862 0.000000
# 3 -0.004989 -0.003511 0.011550 0.000000 0.007623 0.000000
# 4 0.000000 0.000000 0.000000 0.020704 0.000000 0.004146
# 5 -0.008214 -0.003862 0.007623 0.000000 0.025869 0.000000
# 6 0.000000 0.000000 0.000000 0.004146 0.000000 0.028621
#
#
# Mechanical properties :
#
#
# Convention : Reuss Voigt Hill
#
# Bulk Modulus (GPa) = 48.71933 52.70972 50.71452
# Shear Modulus (GPa) = 32.93853 41.06745 37.00299
#
# Velocity S-wave (km/s) = 3.98492 4.44955 4.22363
# Velocity P-wave (km/s) = 6.68283 7.19786 6.94512
#
# Compressibility (1/GPa) = 0.02052573
#
# Stress axis : x y z
#
# Youngs Moduli (GPa) = 61.20409 57.95440 86.57699
#
# Poissons Ratio (x) = 0.22074 0.43197
# Poissons Ratio (y) = 0.23311 0.30396
# Poissons Ratio (z) = 0.30538 0.20347
#
# Static dielectric constant tensor:
#      x y z
#    x 1.880130 0.000000 0.004340 
#    y 0.000000 1.716610 0.000000 
#    z 0.004340 0.000000 1.768830 
# 
# From -- ./inp_files/7217.got.cif
#   From: 2010.05.17/outbox.cif.g08.bks.cpg/sg13_4_cif.got.tgz:7217.got - 2010.06.03 16:44:36.
