data_PCOD9228738
_publ_section_title
;
Structure prediction by ZEFSAII (Michael W. Deem and Ramdas Pophale) SiO2 
 PCOD9228738
Probable space group: P 2/C
;
_chemical_formula_sum "Si O2"
_cell_formula_units_Z 18
_cell_length_a 17.356362
_cell_length_b 7.774743
_cell_length_c 5.493661
_cell_angle_alpha 90.000000
_cell_angle_beta 99.105975
_cell_angle_gamma 90.000000
_cell_volume 731.978858
_symmetry_space_group_name_H-M "P 2/C"
_symmetry_group_IT_number 13
_symmetry_cell_setting 'monoclinic'
loop_
_space_group_symop_operation_xyz
x,y,z
-x,y,1/2-z
-x,-y,-z
x,-y,1/2+z
loop_
_atom_site_type_symbol
_atom_site_label
_atom_site_fract_x
_atom_site_fract_y
_atom_site_fract_z
Si Si1 0.836361 0.465769 0.168181
Si Si2 0.823411 0.105608 0.161706
Si Si3 0.467805 0.804566 0.483902
Si Si4 0.000000 0.893575 0.750000
Si Si5 0.673823 0.600095 0.086913
O O1 0.880635 0.500000 0.440318
O O2 0.784224 0.291092 0.142113
O O3 0.767787 0.611046 0.133895
O O4 0.812298 0.000000 0.406150
O O5 0.913209 0.182279 0.206605
O O6 0.500000 0.726382 0.250000
O O7 0.374807 0.777263 0.437403
O O8 0.500000 0.000000 0.500000
O O9 0.500000 0.726382 0.750000
O O10 0.000000 0.000000 0.500000
O O11 0.653099 0.500000 0.326550
#
# Coordination Sequence:
#
# PCOD9228738 Si02
#       5
#     4   4   4   2   4
#     4  10  21  38  60  83 119 161 195 239 301 350
#     4  10  19  35  61  87 120 157 205 245 287 344
#     4  10  21  37  60  87 112 140 187 233 284 343
#     4   8  16  30  52  86 118 156 194 244 292 336
#     4  10  21  37  61  81 111 153 184 226 292 351
#
# _framework density 24.590872999999998
#
# number of rings (size 3 to 8) (size 9 to 14) (size 15 to 20)
#    0.000    2.222    0.000    2.667    0.000    2.667 
#    0.000    1.111  117.333    0.000    0.000    0.000 
#    0.000    0.000    0.000    0.000    0.000    0.000 
#
# Total GULP energy -100219.512418 kJ/mol
# GULP energy per Si atom -5567.750690 kJ/mol
# Density = 2.453490 g / cm^3
# Si number density = 24.590873 Si / 1000 Ang^3
#
#
#
# Elastic Constant Matrix: (Units=GPa)
#
#
# Indices 1 2 3 4 5 6 
#
# 1 26.2254 -18.7541 -10.9866 0.0000 1.9567 0.0000
# 2 -18.7541 84.6026 55.3090 0.0000 -13.1899 0.0000
# 3 -10.9866 55.3090 274.1905 0.0000 -46.1169 0.0000
# 4 0.0000 0.0000 0.0000 29.3853 0.0000 -5.3142
# 5 1.9567 -13.1899 -46.1169 0.0000 21.6737 0.0000
# 6 0.0000 0.0000 0.0000 -5.3142 0.0000 -0.4549
#
#
#
# Elastic Compliance Matrix: (Units=1/GPa)
#
#
# Indices 1 2 3 4 5 6 
#
# 1 0.045416 0.010361 0.000157 0.000000 0.002539 0.000000
# 2 0.010361 0.016183 -0.002103 0.000000 0.004439 0.000000
# 3 0.000157 -0.002103 0.006011 0.000000 0.011497 0.000000
# 4 0.000000 0.000000 0.000000 0.010934 0.000000 -0.127716
# 5 0.002539 0.004439 0.011497 0.000000 0.073074 0.000000
# 6 0.000000 0.000000 0.000000 -0.127716 0.000000 -0.706221
#
#
# Mechanical properties :
#
#
# Convention : Reuss Voigt Hill
#
# Bulk Modulus (GPa) = 11.84256 48.46169 30.15212
# Shear Modulus (GPa) = -9.20326 34.08416 12.44045
#
# Velocity S-wave (km/s) = -1.93667 3.72701 2.25166
# Velocity P-wave (km/s) = 0.41787 6.18634 4.36441
#
# Compressibility (1/GPa) = 0.08444122
#
# Stress axis : x y z
#
# Youngs Moduli (GPa) = 22.01844 61.79166 166.35620
#
# Poissons Ratio (x) = -0.64022 -0.02609
# Poissons Ratio (y) = -0.22813 0.34979
# Poissons Ratio (z) = -0.00345 0.12993
#
# Static dielectric constant tensor:
#      x y z
#    x 2.282200 0.000000 0.039310 
#    y 0.000000 2.137050 0.000000 
#    z 0.039310 0.000000 2.061470 
# 
# From -- ./inp_files/5800.got.cif
#   From: 2010.05.17/outbox.cif.g08.bks.cpg/sg13_3_cif.got.tgz:5800.got - 2010.06.03 16:44:36.
