data_PCOD9228830
_publ_section_title
;
Structure prediction by ZEFSAII (Michael W. Deem and Ramdas Pophale) SiO2 
 PCOD9228830
Probable space group: P 2/C
;
_chemical_formula_sum "Si O2"
_cell_formula_units_Z 24
_cell_length_a 19.462172
_cell_length_b 7.988864
_cell_length_c 9.116222
_cell_angle_alpha 90.000000
_cell_angle_beta 50.902452
_cell_angle_gamma 90.000000
_cell_volume 1100.003389
_symmetry_space_group_name_H-M "P 2/C"
_symmetry_group_IT_number 13
_symmetry_cell_setting 'monoclinic'
loop_
_space_group_symop_operation_xyz
x,y,z
-x,y,1/2-z
-x,-y,-z
x,-y,1/2+z
loop_
_atom_site_type_symbol
_atom_site_label
_atom_site_fract_x
_atom_site_fract_y
_atom_site_fract_z
Si Si1 0.688355 0.672671 0.850654
Si Si2 0.586126 0.476793 0.229831
Si Si3 0.359933 0.219540 0.665949
Si Si4 0.395396 0.982910 0.379384
Si Si5 0.063169 0.432098 0.785365
Si Si6 0.821846 0.411456 0.609187
O O1 0.626996 0.650709 0.790664
O O2 0.785101 0.602986 0.679309
O O3 0.657438 0.536096 0.013434
O O4 0.667397 0.847387 0.954677
O O5 0.500000 0.443408 0.250000
O O6 0.574642 0.644803 0.347410
O O7 0.371647 0.050870 0.743835
O O8 0.262865 0.298186 0.812731
O O9 0.379651 0.161267 0.475351
O O10 0.500000 0.945147 0.250000
O O11 0.137167 0.350293 0.791121
O O12 0.111418 0.571906 0.618140
O O13 0.000000 0.341291 0.750000
O O14 0.000000 0.500000 0.000000
#
# Coordination Sequence:
#
# PCOD9228830 Si02
#       6
#     4   4   4   4   4   4
#     4  10  20  34  55  79 109 145 186 240 279 319
#     4  10  20  35  51  76 106 142 189 242 291 324
#     4  10  22  37  55  76 111 154 190 239 278 319
#     4  11  23  39  52  77 113 156 205 238 270 317
#     4   9  18  33  59  92 118 138 164 221 288 344
#     4  10  19  36  56  88 117 139 184 228 278 347
#
# _framework density 21.818113
#
# number of rings (size 3 to 8) (size 9 to 14) (size 15 to 20)
#    0.000    2.000    0.000    6.000    0.000    5.333 
#    0.000    8.333    0.000    0.000    0.000   73.500 
#    0.000    0.000    0.000    0.000    0.000    0.000 
#
# Total GULP energy -133839.254056 kJ/mol
# GULP energy per Si atom -5576.635586 kJ/mol
# Density = 2.176845 g / cm^3
# Si number density = 21.818113 Si / 1000 Ang^3
#
#
#
# Elastic Constant Matrix: (Units=GPa)
#
#
# Indices 1 2 3 4 5 6 
#
# 1 144.6183 7.9954 25.5246 0.0000 20.2196 0.0000
# 2 7.9954 54.4830 11.9011 0.0000 -0.6492 0.0000
# 3 25.5246 11.9011 94.4009 0.0000 11.1012 0.0000
# 4 0.0000 0.0000 0.0000 28.1823 0.0000 16.6842
# 5 20.2196 -0.6492 11.1012 0.0000 46.6107 0.0000
# 6 0.0000 0.0000 0.0000 16.6842 0.0000 17.1954
#
#
#
# Elastic Compliance Matrix: (Units=1/GPa)
#
#
# Indices 1 2 3 4 5 6 
#
# 1 0.007658 -0.000804 -0.001623 0.000000 -0.002947 0.000000
# 2 -0.000804 0.018992 -0.002314 0.000000 0.001165 0.000000
# 3 -0.001623 -0.002314 0.011569 0.000000 -0.002084 0.000000
# 4 0.000000 0.000000 0.000000 0.083375 0.000000 -0.080896
# 5 -0.002947 0.001165 -0.002084 0.000000 0.023245 0.000000
# 6 0.000000 0.000000 0.000000 -0.080896 0.000000 0.136646
#
#
# Mechanical properties :
#
#
# Convention : Reuss Voigt Hill
#
# Bulk Modulus (GPa) = 34.79910 42.70495 38.75202
# Shear Modulus (GPa) = 16.63651 34.93641 25.78646
#
# Velocity S-wave (km/s) = 2.76435 4.00591 3.44158
# Velocity P-wave (km/s) = 5.11597 6.40407 5.79591
#
# Compressibility (1/GPa) = 0.02873638
#
# Stress axis : x y z
#
# Youngs Moduli (GPa) = 130.58950 52.65464 86.44121
#
# Poissons Ratio (x) = 0.04236 0.14026
# Poissons Ratio (y) = 0.10505 0.20000
# Poissons Ratio (z) = 0.21189 0.12183
#
# Static dielectric constant tensor:
#      x y z
#    x 1.884180 0.000000 -0.010890 
#    y 0.000000 1.850530 0.000000 
#    z -0.010890 0.000000 1.886580 
# 
# From -- ./inp_files/22708.got.cif
#   From: 2010.05.17/outbox.cif.g08.bks.cpg/sg13_12_cif.got.tgz:22708.got - 2010.06.03 16:44:36.
