data_PCOD9228779
_publ_section_title
;
Structure prediction by ZEFSAII (Michael W. Deem and Ramdas Pophale) SiO2 
 PCOD9228779
Probable space group: P 2/C
;
_chemical_formula_sum "Si O2"
_cell_formula_units_Z 32
_cell_length_a 16.138312
_cell_length_b 6.204419
_cell_length_c 13.099746
_cell_angle_alpha 90.000000
_cell_angle_beta 92.631163
_cell_angle_gamma 90.000000
_cell_volume 1310.279676
_symmetry_space_group_name_H-M "P 2/C"
_symmetry_group_IT_number 13
_symmetry_cell_setting 'monoclinic'
loop_
_space_group_symop_operation_xyz
x,y,z
-x,y,1/2-z
-x,-y,-z
x,-y,1/2+z
loop_
_atom_site_type_symbol
_atom_site_label
_atom_site_fract_x
_atom_site_fract_y
_atom_site_fract_z
Si Si1 0.425471 0.948497 0.324966
Si Si2 0.736937 0.711143 0.239882
Si Si3 0.120831 0.066422 0.493682
Si Si4 0.914443 0.689435 0.293752
Si Si5 0.546550 0.677660 0.439179
Si Si6 0.300499 0.954810 0.049772
Si Si7 0.974743 0.683855 0.919444
Si Si8 0.360826 0.336683 0.191606
O O1 0.500000 0.884764 0.250000
O O2 0.338671 0.817322 0.326802
O O3 0.477776 0.861426 0.421248
O O4 0.402700 0.182622 0.278507
O O5 0.833840 0.723782 0.218492
O O6 0.725745 0.838203 0.345938
O O7 0.715264 0.462388 0.261010
O O8 0.104950 0.196258 0.599414
O O9 0.218226 0.053545 0.477211
O O10 0.058657 0.176046 0.409170
O O11 0.088970 0.832701 0.523445
O O12 0.000000 0.770484 0.250000
O O13 0.931717 0.439111 0.323647
O O14 0.500000 0.500000 0.500000
O O15 0.626496 0.802940 0.488060
O O16 0.581912 0.530243 0.347415
O O17 0.332657 0.184618 0.095019
O O18 0.000000 0.500000 0.000000
#
# Coordination Sequence:
#
# PCOD9228779 Si02
#       8
#     4   4   4   4   4   4   4   4
#     4  11  20  37  61  87 112 157 214 233 293 382
#     4   9  19  34  58  87 110 156 206 246 278 358
#     4   9  18  35  59  82 112 154 202 243 281 363
#     4  10  20  35  56  86 120 151 192 247 304 346
#     4  11  24  39  58  91 129 154 192 268 315 348
#     4   9  18  34  56  86 113 152 209 233 292 369
#     4   9  18  34  57  81 109 152 196 239 291 348
#     4  10  19  35  64  81 113 160 203 245 290 364
#
# _framework density 24.422267999999999
#
# number of rings (size 3 to 8) (size 9 to 14) (size 15 to 20)
#    0.000    2.250    3.750    0.750    1.750    2.000 
#    2.250    0.000    0.000    0.000    0.000    0.000 
#    0.000    0.000    0.000    0.000    0.000    0.000 
#
# Total GULP energy -178407.959246 kJ/mol
# GULP energy per Si atom -5575.248726 kJ/mol
# Density = 2.436668 g / cm^3
# Si number density = 24.422268 Si / 1000 Ang^3
#
#
#
# Elastic Constant Matrix: (Units=GPa)
#
#
# Indices 1 2 3 4 5 6 
#
# 1 230.2032 67.7022 38.3566 0.0000 16.8837 0.0000
# 2 67.7022 129.3300 24.1206 0.0000 9.2243 0.0000
# 3 38.3566 24.1206 34.0001 0.0000 3.6491 0.0000
# 4 0.0000 0.0000 0.0000 19.3447 0.0000 -6.1063
# 5 16.8837 9.2243 3.6491 0.0000 29.5845 0.0000
# 6 0.0000 0.0000 0.0000 -6.1063 0.0000 8.3108
#
#
#
# Elastic Compliance Matrix: (Units=1/GPa)
#
#
# Indices 1 2 3 4 5 6 
#
# 1 0.005932 -0.002014 -0.005034 0.000000 -0.002136 0.000000
# 2 -0.002014 0.009716 -0.004479 0.000000 -0.001328 0.000000
# 3 -0.005034 -0.004479 0.038317 0.000000 -0.000457 0.000000
# 4 0.000000 0.000000 0.000000 0.067303 0.000000 0.049451
# 5 -0.002136 -0.001328 -0.000457 0.000000 0.035491 0.000000
# 6 0.000000 0.000000 0.000000 0.049451 0.000000 0.156658
#
#
# Mechanical properties :
#
#
# Convention : Reuss Voigt Hill
#
# Bulk Modulus (GPa) = 32.34958 72.65467 52.50212
# Shear Modulus (GPa) = 14.41863 29.00494 21.71178
#
# Velocity S-wave (km/s) = 2.43243 3.44996 2.98487
# Velocity P-wave (km/s) = 4.60039 6.75896 5.78131
#
# Compressibility (1/GPa) = 0.03091231
#
# Stress axis : x y z
#
# Youngs Moduli (GPa) = 168.58593 102.91871 26.09836
#
# Poissons Ratio (x) = 0.20728 0.13137
# Poissons Ratio (y) = 0.33953 0.11688
# Poissons Ratio (z) = 0.84861 0.46093
#
# Static dielectric constant tensor:
#      x y z
#    x 2.058550 0.000000 0.022790 
#    y 0.000000 1.935900 0.000000 
#    z 0.022790 0.000000 2.085920 
# 
# From -- ./inp_files/67564.got.cif
#   From: 2010.05.17/outbox.cif.g08.bks.cpg/sg13_34_cif.got.tgz:67564.got - 2010.06.03 16:44:36.
