data_PCOD9228982
_publ_section_title
;
Structure prediction by ZEFSAII (Michael W. Deem and Ramdas Pophale) SiO2 
 PCOD9228982
Probable space group: P 2/C
;
_chemical_formula_sum "Si O2"
_cell_formula_units_Z 32
_cell_length_a 21.148856
_cell_length_b 9.069616
_cell_length_c 20.777205
_cell_angle_alpha 90.000000
_cell_angle_beta 158.978891
_cell_angle_gamma 90.000000
_cell_volume 1429.580648
_symmetry_space_group_name_H-M "P 2/C"
_symmetry_group_IT_number 13
_symmetry_cell_setting 'monoclinic'
loop_
_space_group_symop_operation_xyz
x,y,z
-x,y,1/2-z
-x,-y,-z
x,-y,1/2+z
loop_
_atom_site_type_symbol
_atom_site_label
_atom_site_fract_x
_atom_site_fract_y
_atom_site_fract_z
Si Si1 0.870283 0.640374 0.868455
Si Si2 0.213797 0.408933 0.885571
Si Si3 0.017905 0.860045 0.631316
Si Si4 0.354479 0.751613 0.202650
Si Si5 0.576882 0.431160 0.176352
Si Si6 0.328037 0.788209 0.615807
Si Si7 0.250261 0.745863 0.954226
Si Si8 0.976213 0.173200 0.591308
O O1 0.672496 0.596130 0.700108
O O2 0.894344 0.726146 0.825114
O O3 0.915243 0.758649 0.966570
O O4 0.000000 0.500000 0.000000
O O5 0.190882 0.576436 0.885427
O O6 0.063877 0.310938 0.711249
O O7 0.367538 0.420931 0.978424
O O8 0.270662 0.318765 0.003340
O O9 0.807766 0.839065 0.419292
O O10 0.093902 0.839545 0.775211
O O11 0.078565 0.024529 0.671037
O O12 0.354832 0.586099 0.231022
O O13 0.562955 0.790392 0.402940
O O14 0.297490 0.752723 0.073920
O O15 0.625136 0.312157 0.277862
O O16 0.500000 0.868656 0.750000
O O17 0.169635 0.881122 0.494773
#
# Coordination Sequence:
#
# PCOD9228982 Si02
#       8
#     4   4   4   4   4   4   4   4
#     4  11  22  43  69  89 117 169 228 273 317 371
#     4  10  19  36  63  95 125 159 212 272 317 380
#     4  12  25  43  61  91 134 176 211 259 330 398
#     4  10  20  40  65  95 130 162 213 271 327 377
#     4   9  18  37  62  97 120 157 216 275 316 363
#     4   9  18  35  62  90 123 161 205 259 315 376
#     4  10  22  39  66  98 127 165 214 270 323 384
#     4  11  25  40  59  94 132 170 212 262 329 394
#
# _framework density 22.384187000000001
#
# number of rings (size 3 to 8) (size 9 to 14) (size 15 to 20)
#    0.000    1.750    2.500    1.875    1.750    3.000 
#   11.250    2.500    0.000    0.000    0.000    0.000 
#    0.000    0.000    0.000    0.000    0.000    0.000 
#
# Total GULP energy -178465.640091 kJ/mol
# GULP energy per Si atom -5577.051253 kJ/mol
# Density = 2.233324 g / cm^3
# Si number density = 22.384187 Si / 1000 Ang^3
#
#
#
# Elastic Constant Matrix: (Units=GPa)
#
#
# Indices 1 2 3 4 5 6 
#
# 1 90.1553 5.9067 12.6268 0.0000 6.6138 0.0000
# 2 5.9067 59.0471 14.5336 0.0000 -4.6443 0.0000
# 3 12.6268 14.5336 65.6009 0.0000 6.8056 0.0000
# 4 0.0000 0.0000 0.0000 10.3074 0.0000 -3.3193
# 5 6.6138 -4.6443 6.8056 0.0000 25.6062 0.0000
# 6 0.0000 0.0000 0.0000 -3.3193 0.0000 20.8602
#
#
#
# Elastic Compliance Matrix: (Units=1/GPa)
#
#
# Indices 1 2 3 4 5 6 
#
# 1 0.011596 -0.000944 -0.001742 0.000000 -0.002703 0.000000
# 2 -0.000944 0.018491 -0.004410 0.000000 0.004769 0.000000
# 3 -0.001742 -0.004410 0.017063 0.000000 -0.004885 0.000000
# 4 0.000000 0.000000 0.000000 0.102258 0.000000 0.016272
# 5 -0.002703 0.004769 -0.004885 0.000000 0.041914 0.000000
# 6 0.000000 0.000000 0.000000 0.016272 0.000000 0.050527
#
#
# Mechanical properties :
#
#
# Convention : Reuss Voigt Hill
#
# Bulk Modulus (GPa) = 30.34189 31.21526 30.77857
# Shear Modulus (GPa) = 18.72473 23.47052 21.09762
#
# Velocity S-wave (km/s) = 2.89540 3.24162 3.07339
# Velocity P-wave (km/s) = 4.97617 5.29020 5.13559
#
# Compressibility (1/GPa) = 0.03295774
#
# Stress axis : x y z
#
# Youngs Moduli (GPa) = 86.23544 54.08164 58.60710
#
# Poissons Ratio (x) = 0.05104 0.10212
# Poissons Ratio (y) = 0.08138 0.25844
# Poissons Ratio (z) = 0.15026 0.23848
#
# Static dielectric constant tensor:
#      x y z
#    x 1.876900 0.000000 0.106090 
#    y 0.000000 1.849800 0.000000 
#    z 0.106090 0.000000 1.894830 
# 
# From -- ./inp_files/88958.got.cif
#   From: 2010.05.17/outbox.cif.g08.bks.cpg/sg13_45_cif.got.tgz:88958.got - 2010.06.03 16:44:36.
