data_PCOD9228048
_publ_section_title
;
Structure prediction by ZEFSAII (Michael W. Deem and Ramdas Pophale) SiO2 
 PCOD9228048
Probable space group: P 2/C
;
_chemical_formula_sum "Si O2"
_cell_formula_units_Z 32
_cell_length_a 8.900531
_cell_length_b 12.279105
_cell_length_c 17.158174
_cell_angle_alpha 90.000000
_cell_angle_beta 47.110885
_cell_angle_gamma 90.000000
_cell_volume 1373.926234
_symmetry_space_group_name_H-M "P 2/C"
_symmetry_group_IT_number 13
_symmetry_cell_setting 'monoclinic'
loop_
_space_group_symop_operation_xyz
x,y,z
-x,y,1/2-z
-x,-y,-z
x,-y,1/2+z
loop_
_atom_site_type_symbol
_atom_site_label
_atom_site_fract_x
_atom_site_fract_y
_atom_site_fract_z
Si Si1 0.383655 0.940389 0.449899
Si Si2 0.126957 0.168248 0.285769
Si Si3 0.471549 0.171718 0.448635
Si Si4 0.271516 0.457923 0.869759
Si Si5 0.859211 0.068122 0.724293
Si Si6 0.441433 0.416926 0.450549
Si Si7 0.122704 0.405622 0.286289
Si Si8 0.261830 0.212864 0.862433
O O1 0.395204 0.869598 0.524455
O O2 0.622077 0.940132 0.336877
O O3 0.254183 0.876189 0.432672
O O4 0.328110 0.066649 0.484207
O O5 0.368684 0.176042 0.179413
O O6 0.067591 0.285977 0.339352
O O7 0.000000 0.164274 0.250000
O O8 0.095517 0.048842 0.332161
O O9 0.384301 0.292562 0.494862
O O10 0.500000 0.455998 0.750000
O O11 0.290390 0.527064 0.942045
O O12 0.128381 0.510041 0.854315
O O13 0.211758 0.333838 0.906322
O O14 0.869273 0.169367 0.663248
O O15 0.000000 0.081023 0.750000
O O16 0.500000 0.500000 0.500000
O O17 0.648751 0.401508 0.328389
O O18 0.000000 0.430903 0.250000
O O19 0.500000 0.214561 0.750000
#
# Coordination Sequence:
#
# PCOD9228048 Si02
#       8
#     4   4   4   4   4   4   4   4
#     4   9  17  30  48  70  96 120 154 193 229 279
#     4   8  15  29  49  71  93 119 153 192 234 278
#     4   9  17  29  49  71  92 124 156 189 233 275
#     4   9  18  31  47  69  96 126 160 195 233 280
#     4   9  17  29  48  71  94 122 154 190 232 276
#     4  10  19  32  51  72  96 127 160 194 235 281
#     4   9  18  33  52  72  96 126 158 195 237 280
#     4   9  17  29  45  67  94 125 156 190 229 270
#
# _framework density 23.290914000000001
#
# number of rings (size 3 to 8) (size 9 to 14) (size 15 to 20)
#    0.000    3.000    0.000    0.750    0.000    2.500 
#    0.000    5.625    0.000   16.500    0.000    0.000 
#    0.000    0.000    0.000    0.000    0.000    0.000 
#
# Total GULP energy -178576.568902 kJ/mol
# GULP energy per Si atom -5580.517778 kJ/mol
# Density = 2.323790 g / cm^3
# Si number density = 23.290914 Si / 1000 Ang^3
#
#
#
# Elastic Constant Matrix: (Units=GPa)
#
#
# Indices 1 2 3 4 5 6 
#
# 1 106.5064 87.8321 24.5879 0.0000 23.1823 0.0000
# 2 87.8321 233.0799 37.7548 0.0000 34.0541 0.0000
# 3 24.5879 37.7548 59.3111 0.0000 -1.8735 0.0000
# 4 0.0000 0.0000 0.0000 17.3936 0.0000 3.4104
# 5 23.1823 34.0541 -1.8735 0.0000 33.5365 0.0000
# 6 0.0000 0.0000 0.0000 3.4104 0.0000 25.4179
#
#
#
# Elastic Compliance Matrix: (Units=1/GPa)
#
#
# Indices 1 2 3 4 5 6 
#
# 1 0.015073 -0.004116 -0.003832 0.000000 -0.006454 0.000000
# 2 -0.004116 0.006940 -0.002849 0.000000 -0.004361 0.000000
# 3 -0.003832 -0.002849 0.020474 0.000000 0.006686 0.000000
# 4 0.000000 0.000000 0.000000 0.059046 0.000000 -0.007922
# 5 -0.006454 -0.004361 0.006686 0.000000 0.039081 0.000000
# 6 0.000000 0.000000 0.000000 -0.007922 0.000000 0.040405
#
#
# Mechanical properties :
#
#
# Convention : Reuss Voigt Hill
#
# Bulk Modulus (GPa) = 47.86605 77.69412 62.78009
# Shear Modulus (GPa) = 23.85737 31.85111 27.85424
#
# Velocity S-wave (km/s) = 3.20397 3.70203 3.46197
# Velocity P-wave (km/s) = 5.85519 7.19054 6.55695
#
# Compressibility (1/GPa) = 0.02089163
#
# Stress axis : x y z
#
# Youngs Moduli (GPa) = 66.34313 144.08715 48.84309
#
# Poissons Ratio (x) = 0.59312 0.18718
# Poissons Ratio (y) = 0.27310 0.13916
# Poissons Ratio (z) = 0.25424 0.41052
#
# Static dielectric constant tensor:
#      x y z
#    x 1.870080 0.000000 -0.063270 
#    y 0.000000 1.906560 0.000000 
#    z -0.063270 0.000000 1.942270 
# 
# From -- ./inp_files/76252.got.cif
#   From: 2010.05.17/outbox.cif.g08.bks.cpg/sg13_39_cif.got.tgz:76252.got - 2010.06.03 16:44:36.
