data_PCOD9228441
_publ_section_title
;
Structure prediction by ZEFSAII (Michael W. Deem and Ramdas Pophale) SiO2 
 PCOD9228441
Probable space group: P 2/C
;
_chemical_formula_sum "Si O2"
_cell_formula_units_Z 28
_cell_length_a 18.148348
_cell_length_b 5.150572
_cell_length_c 19.449338
_cell_angle_alpha 90.000000
_cell_angle_beta 145.005944
_cell_angle_gamma 90.000000
_cell_volume 1042.615877
_symmetry_space_group_name_H-M "P 2/C"
_symmetry_group_IT_number 13
_symmetry_cell_setting 'monoclinic'
loop_
_space_group_symop_operation_xyz
x,y,z
-x,y,1/2-z
-x,-y,-z
x,-y,1/2+z
loop_
_atom_site_type_symbol
_atom_site_label
_atom_site_fract_x
_atom_site_fract_y
_atom_site_fract_z
Si Si1 0.834368 0.486357 0.436395
Si Si2 0.531784 0.200099 0.365071
Si Si3 0.408588 0.754275 0.439535
Si Si4 0.044268 0.742011 0.202156
Si Si5 0.132981 0.255188 0.309345
Si Si6 0.649507 0.702320 0.410027
Si Si7 0.748059 0.984800 0.302234
O O1 0.935452 0.354007 0.566712
O O2 0.717500 0.559670 0.398818
O O3 0.845268 0.776313 0.412695
O O4 0.813567 0.268909 0.361522
O O5 0.618516 0.215609 0.500386
O O6 0.539361 0.501974 0.349547
O O7 0.602691 0.998366 0.368873
O O8 0.392944 0.075643 0.274703
O O9 0.500000 0.500000 0.500000
O O10 0.302420 0.815273 0.301026
O O11 0.500000 0.000000 0.500000
O O12 0.000000 0.764013 0.250000
O O13 0.147493 0.514955 0.277957
O O14 0.107334 0.019188 0.238934
O O15 0.243871 0.259355 0.449432
O O16 0.000000 0.275926 0.250000
#
# Coordination Sequence:
#
# PCOD9228441 Si02
#       7
#     4   4   4   4   4   4   4
#     4  12  23  36  58  92 127 157 201 243 316 387
#     4  11  24  39  59  87 122 166 204 249 305 360
#     4  10  20  42  66  82 112 164 230 268 286 354
#     4  10  19  34  56  79 114 152 206 247 285 357
#     4  10  19  34  56  79 114 152 206 247 285 357
#     4  12  23  36  58  92 127 157 201 243 316 387
#     4  11  24  39  59  87 122 166 204 249 305 360
#
# _framework density 26.855526999999999
#
# number of rings (size 3 to 8) (size 9 to 14) (size 15 to 20)
#    0.000    1.143    2.857    6.857    4.000    3.429 
#    0.000    0.000    0.000    0.000    0.000   20.000 
#    0.000    0.000    0.000    0.000    0.000    0.000 
#
# Total GULP energy -156142.971821 kJ/mol
# GULP energy per Si atom -5576.534708 kJ/mol
# Density = 2.679440 g / cm^3
# Si number density = 26.855527 Si / 1000 Ang^3
#
#
#
# Elastic Constant Matrix: (Units=GPa)
#
#
# Indices 1 2 3 4 5 6 
#
# 1 55.1226 21.9542 21.5204 0.0000 -8.8391 0.0000
# 2 21.9542 231.8805 26.4061 0.0000 1.7569 0.0000
# 3 21.5204 26.4061 163.9574 0.0000 -3.7504 0.0000
# 4 0.0000 0.0000 0.0000 -47.5544 0.0000 38.1680
# 5 -8.8391 1.7569 -3.7504 0.0000 33.5942 0.0000
# 6 0.0000 0.0000 0.0000 38.1680 0.0000 14.0423
#
#
#
# Elastic Compliance Matrix: (Units=1/GPa)
#
#
# Indices 1 2 3 4 5 6 
#
# 1 0.020568 -0.001725 -0.002302 0.000000 0.005245 0.000000
# 2 -0.001725 0.004541 -0.000522 0.000000 -0.000750 0.000000
# 3 -0.002302 -0.000522 0.006489 0.000000 0.000146 0.000000
# 4 0.000000 0.000000 0.000000 -0.006609 0.000000 0.017965
# 5 0.005245 -0.000750 0.000146 0.000000 0.031203 0.000000
# 6 0.000000 0.000000 0.000000 0.017965 0.000000 0.022383
#
#
# Mechanical properties :
#
#
# Convention : Reuss Voigt Hill
#
# Bulk Modulus (GPa) = 44.44457 65.63578 55.04017
# Shear Modulus (GPa) = 52.53647 25.42173 38.97910
#
# Velocity S-wave (km/s) = 4.42776 3.08004 3.81391
# Velocity P-wave (km/s) = 6.53648 6.09445 6.31933
#
# Compressibility (1/GPa) = 0.02249994
#
# Stress axis : x y z
#
# Youngs Moduli (GPa) = 48.61888 220.21488 154.11388
#
# Poissons Ratio (x) = 0.37986 0.35476
# Poissons Ratio (y) = 0.08387 0.08046
# Poissons Ratio (z) = 0.11192 0.11497
#
# Static dielectric constant tensor:
#      x y z
#    x 2.144240 0.000000 0.023390 
#    y 0.000000 2.136000 0.000000 
#    z 0.023390 0.000000 2.064410 
# 
# From -- ./inp_files/81954.got.cif
#   From: 2010.05.17/outbox.cif.g08.bks.cpg/sg13_41_cif.got.tgz:81954.got - 2010.06.03 16:44:36.
