data_PCOD9228709
_publ_section_title
;
Structure prediction by ZEFSAII (Michael W. Deem and Ramdas Pophale) SiO2 
 PCOD9228709
Probable space group: P 2/C
;
_chemical_formula_sum "Si O2"
_cell_formula_units_Z 32
_cell_length_a 5.198863
_cell_length_b 19.596702
_cell_length_c 18.023454
_cell_angle_alpha 90.000000
_cell_angle_beta 124.314914
_cell_angle_gamma 90.000000
_cell_volume 1516.645124
_symmetry_space_group_name_H-M "P 2/C"
_symmetry_group_IT_number 13
_symmetry_cell_setting 'monoclinic'
loop_
_space_group_symop_operation_xyz
x,y,z
-x,y,1/2-z
-x,-y,-z
x,-y,1/2+z
loop_
_atom_site_type_symbol
_atom_site_label
_atom_site_fract_x
_atom_site_fract_y
_atom_site_fract_z
Si Si1 0.091813 0.139914 0.575826
Si Si2 0.669326 0.436875 0.486787
Si Si3 0.202515 0.194563 0.354705
Si Si4 0.400034 0.344115 0.551748
Si Si5 0.464687 0.919899 0.005463
Si Si6 0.369106 0.532530 0.146425
Si Si7 0.368560 0.767553 0.303588
Si Si8 0.158473 0.740559 0.564624
O O1 0.206788 0.093097 0.526706
O O2 0.415785 0.165533 0.662117
O O3 0.816347 0.107414 0.579103
O O4 0.945287 0.208761 0.518285
O O5 0.500000 0.500000 0.500000
O O6 0.514924 0.368026 0.490530
O O7 0.620580 0.459735 0.393884
O O8 0.013254 0.444947 0.575934
O O9 0.353009 0.126679 0.417299
O O10 0.473776 0.247080 0.373430
O O11 0.000000 0.176572 0.250000
O O12 0.995834 0.230009 0.385102
O O13 0.519789 0.404438 0.625533
O O14 0.545490 0.276122 0.609396
O O15 0.030260 0.329234 0.483221
O O16 0.500000 0.000000 0.000000
O O17 0.500000 0.529169 0.250000
O O18 0.500000 0.730096 0.250000
O O19 0.000000 0.778356 0.250000
#
# Coordination Sequence:
#
# PCOD9228709 Si02
#       8
#     4   4   4   4   4   4   4   4
#     4   9  19  36  53  80 119 162 195 247 309 375
#     4   9  21  39  59  88 122 167 203 257 320 381
#     4  10  20  37  60  85 117 157 203 255 308 365
#     4  10  22  34  60  88 120 158 208 258 312 382
#     4  10  19  35  60  86 114 160 211 248 305 372
#     4  10  21  38  64  90 123 162 213 260 321 384
#     4  11  23  36  56  90 127 162 207 258 320 385
#     4   9  20  35  59  82 117 155 195 249 314 366
#
# _framework density 21.099201000000001
#
# number of rings (size 3 to 8) (size 9 to 14) (size 15 to 20)
#    0.000    2.250    0.000    1.875    5.250    3.500 
#    0.000    1.875    8.250    1.500    0.000    0.000 
#    0.000    0.000    0.000    0.000    0.000    0.000 
#
# Total GULP energy -178290.426018 kJ/mol
# GULP energy per Si atom -5571.575813 kJ/mol
# Density = 2.105118 g / cm^3
# Si number density = 21.099201 Si / 1000 Ang^3
#
#
#
# Elastic Constant Matrix: (Units=GPa)
#
#
# Indices 1 2 3 4 5 6 
#
# 1 102.6101 17.0217 24.7550 0.0000 4.5881 0.0000
# 2 17.0217 69.7287 47.2915 0.0000 -10.1720 0.0000
# 3 24.7550 47.2915 114.6154 0.0000 -2.2108 0.0000
# 4 0.0000 0.0000 0.0000 13.9762 0.0000 2.6183
# 5 4.5881 -10.1720 -2.2108 0.0000 25.9240 0.0000
# 6 0.0000 0.0000 0.0000 2.6183 0.0000 22.4749
#
#
#
# Elastic Compliance Matrix: (Units=1/GPa)
#
#
# Indices 1 2 3 4 5 6 
#
# 1 0.010561 -0.001941 -0.001533 0.000000 -0.002761 0.000000
# 2 -0.001941 0.021677 -0.008368 0.000000 0.008136 0.000000
# 3 -0.001533 -0.008368 0.012471 0.000000 -0.001949 0.000000
# 4 0.000000 0.000000 0.000000 0.073147 0.000000 -0.008522
# 5 -0.002761 0.008136 -0.001949 0.000000 0.042089 0.000000
# 6 0.000000 0.000000 0.000000 -0.008522 0.000000 0.045487
#
#
# Mechanical properties :
#
#
# Convention : Reuss Voigt Hill
#
# Bulk Modulus (GPa) = 47.56334 51.67674 49.62004
# Shear Modulus (GPa) = 21.17516 25.66742 23.42129
#
# Velocity S-wave (km/s) = 3.17140 3.49164 3.33536
# Velocity P-wave (km/s) = 6.00017 6.38755 6.19689
#
# Compressibility (1/GPa) = 0.02102459
#
# Stress axis : x y z
#
# Youngs Moduli (GPa) = 94.68784 46.13093 80.18444
#
# Poissons Ratio (x) = 0.08954 0.12296
# Poissons Ratio (y) = 0.18378 0.67100
# Poissons Ratio (z) = 0.14520 0.38603
#
# Static dielectric constant tensor:
#      x y z
#    x 1.899020 0.000000 -0.053580 
#    y 0.000000 1.822020 0.000000 
#    z -0.053580 0.000000 1.813500 
# 
# From -- ./inp_files/61858.got.cif
#   From: 2010.05.17/outbox.cif.g08.bks.cpg/sg13_31_cif.got.tgz:61858.got - 2010.06.03 16:44:36.
