data_PCOD9228365
_publ_section_title
;
Structure prediction by ZEFSAII (Michael W. Deem and Ramdas Pophale) SiO2 
 PCOD9228365
Probable space group: P 2/C
;
_chemical_formula_sum "Si O2"
_cell_formula_units_Z 32
_cell_length_a 26.446708
_cell_length_b 5.105816
_cell_length_c 25.239789
_cell_angle_alpha 90.000000
_cell_angle_beta 146.205650
_cell_angle_gamma 90.000000
_cell_volume 1895.676198
_symmetry_space_group_name_H-M "P 2/C"
_symmetry_group_IT_number 13
_symmetry_cell_setting 'monoclinic'
loop_
_space_group_symop_operation_xyz
x,y,z
-x,y,1/2-z
-x,-y,-z
x,-y,1/2+z
loop_
_atom_site_type_symbol
_atom_site_label
_atom_site_fract_x
_atom_site_fract_y
_atom_site_fract_z
Si Si1 0.770728 0.229331 0.130100
Si Si2 0.869218 0.335307 0.328051
Si Si3 0.857571 0.724541 0.157488
Si Si4 0.595102 0.224433 0.038870
Si Si5 0.056208 0.801401 0.380356
Si Si6 0.390086 0.722716 0.375403
Si Si7 0.196599 0.164780 0.668298
Si Si8 0.929100 0.693861 0.536238
O O1 0.822706 0.272382 0.231276
O O2 0.810582 0.446753 0.125660
O O3 0.664883 0.258811 0.051835
O O4 0.794613 0.947033 0.127905
O O5 0.844364 0.626360 0.325276
O O6 0.977133 0.308293 0.415279
O O7 0.831011 0.124012 0.336381
O O8 0.881864 0.778620 0.117758
O O9 0.953444 0.735894 0.272406
O O10 0.618449 0.440484 0.104172
O O11 0.608969 0.939698 0.077031
O O12 0.488652 0.260626 0.933917
O O13 0.083003 0.587981 0.447487
O O14 0.059970 0.088885 0.408592
O O15 0.304465 0.789777 0.264619
O O16 0.151744 0.229378 0.573273
#
# Coordination Sequence:
#
# PCOD9228365 Si02
#       8
#     4   4   4   4   4   4   4   4
#     4  12  19  34  55  79 101 139 163 209 263 306
#     4  12  21  34  49  78 109 138 176 196 238 310
#     4  11  22  35  56  73 103 131 173 217 265 297
#     4  10  20  31  53  73 106 130 169 206 252 297
#     4  11  22  38  51  76  99 135 176 220 251 296
#     4  10  19  34  48  76 102 139 166 205 242 299
#     4  12  22  35  51  74 108 146 171 199 242 302
#     4  12  23  35  52  73 106 142 176 205 246 295
#
# _framework density 16.880517999999999
#
# number of rings (size 3 to 8) (size 9 to 14) (size 15 to 20)
#    0.000    0.750    5.000    4.500    0.000    2.000 
#    0.000    0.000    0.000    0.000    0.000    5.250 
#    0.000    0.000    0.000    0.000    0.000    0.000 
#
# Total GULP energy -178897.279965 kJ/mol
# GULP energy per Si atom -5590.539999 kJ/mol
# Density = 1.684210 g / cm^3
# Si number density = 16.880518 Si / 1000 Ang^3
#
#
#
# Elastic Constant Matrix: (Units=GPa)
#
#
# Indices 1 2 3 4 5 6 
#
# 1 63.5660 -15.5819 28.4317 0.0000 18.2040 0.0000
# 2 -15.5819 39.3958 -19.2822 0.0000 -3.0912 0.0000
# 3 28.4317 -19.2822 61.7560 0.0000 17.2960 0.0000
# 4 0.0000 0.0000 0.0000 12.1430 0.0000 -2.1929
# 5 18.2040 -3.0912 17.2960 0.0000 19.5722 0.0000
# 6 0.0000 0.0000 0.0000 -2.1929 0.0000 20.1800
#
#
#
# Elastic Compliance Matrix: (Units=1/GPa)
#
#
# Indices 1 2 3 4 5 6 
#
# 1 0.024235 0.006101 -0.004265 0.000000 -0.017808 0.000000
# 2 0.006101 0.031827 0.009714 0.000000 -0.009232 0.000000
# 3 -0.004265 0.009714 0.026111 0.000000 -0.017573 0.000000
# 4 0.000000 0.000000 0.000000 0.084000 0.000000 0.009128
# 5 -0.017808 -0.009232 -0.017573 0.000000 0.081728 0.000000
# 6 0.000000 0.000000 0.000000 0.009128 0.000000 0.050546
#
#
# Mechanical properties :
#
#
# Convention : Reuss Voigt Hill
#
# Bulk Modulus (GPa) = 9.49922 16.87254 13.18588
# Shear Modulus (GPa) = 16.10631 21.78906 18.94769
#
# Velocity S-wave (km/s) = 3.09226 3.59664 3.35395
# Velocity P-wave (km/s) = 4.28824 5.22157 4.77775
#
# Compressibility (1/GPa) = 0.10527182
#
# Stress axis : x y z
#
# Youngs Moduli (GPa) = 41.26331 31.42030 38.29772
#
# Poissons Ratio (x) = -0.19168 0.16334
# Poissons Ratio (y) = -0.25173 -0.37203
# Poissons Ratio (z) = 0.17599 -0.30522
#
# Static dielectric constant tensor:
#      x y z
#    x 1.559300 0.000000 0.018290 
#    y 0.000000 1.566810 0.000000 
#    z 0.018290 0.000000 1.560730 
# 
# From -- ./inp_files/81903.got.cif
#   From: 2010.05.17/outbox.cif.g08.bks.cpg/sg13_41_cif.got.tgz:81903.got - 2010.06.03 16:44:36.
