data_PCOD9228623
_publ_section_title
;
Structure prediction by ZEFSAII (Michael W. Deem and Ramdas Pophale) SiO2 
 PCOD9228623
Probable space group: P 2/C
;
_chemical_formula_sum "Si O2"
_cell_formula_units_Z 28
_cell_length_a 10.614649
_cell_length_b 11.419197
_cell_length_c 11.859519
_cell_angle_alpha 90.000000
_cell_angle_beta 80.916811
_cell_angle_gamma 90.000000
_cell_volume 1419.475382
_symmetry_space_group_name_H-M "P 2/C"
_symmetry_group_IT_number 13
_symmetry_cell_setting 'monoclinic'
loop_
_space_group_symop_operation_xyz
x,y,z
-x,y,1/2-z
-x,-y,-z
x,-y,1/2+z
loop_
_atom_site_type_symbol
_atom_site_label
_atom_site_fract_x
_atom_site_fract_y
_atom_site_fract_z
Si Si1 0.327634 0.798156 0.587866
Si Si2 0.967773 0.047186 0.877865
Si Si3 0.793093 0.814393 0.131028
Si Si4 0.347174 0.669170 0.794602
Si Si5 0.591676 0.278935 0.975142
Si Si6 0.318296 0.946054 0.157576
Si Si7 0.648070 0.401969 0.756968
O O1 0.233140 0.815804 0.497721
O O2 0.274112 0.736647 0.706648
O O3 0.442357 0.715953 0.526915
O O4 0.373399 0.926367 0.623447
O O5 0.817419 0.065164 0.887510
O O6 0.000000 0.984838 0.750000
O O7 0.060461 0.160012 0.861022
O O8 0.000000 0.000000 0.000000
O O9 0.713381 0.916998 0.207425
O O10 0.739557 0.694315 0.189629
O O11 0.500000 0.683455 0.750000
O O12 0.330210 0.722359 0.920210
O O13 0.321640 0.531407 0.789462
O O14 0.600050 0.160138 0.902264
O O15 0.646039 0.383756 0.891825
O O16 0.500000 0.375597 0.750000
#
# Coordination Sequence:
#
# PCOD9228623 Si02
#       7
#     4   4   4   4   4   4   4
#     4  11  20  34  54  83 114 142 183 222 280 334
#     4  10  20  37  56  82 108 146 187 225 274 332
#     4  10  21  35  57  83 106 147 186 227 275 334
#     4   9  22  33  53  81 114 150 184 227 273 333
#     4  10  21  36  51  82 113 146 181 227 280 329
#     4  10  22  35  56  79 113 149 177 227 279 338
#     4  10  19  35  57  80 109 147 189 228 278 328
#
# _framework density 19.725598000000002
#
# number of rings (size 3 to 8) (size 9 to 14) (size 15 to 20)
#    0.000    2.000    2.857    0.429    4.000    1.714 
#    2.571    0.000    0.000    0.857    7.429    0.000 
#    0.000    0.000    0.000    0.000    0.000    0.000 
#
# Total GULP energy -155953.529894 kJ/mol
# GULP energy per Si atom -5569.768925 kJ/mol
# Density = 1.968070 g / cm^3
# Si number density = 19.725598 Si / 1000 Ang^3
#
#
#
# Elastic Constant Matrix: (Units=GPa)
#
#
# Indices 1 2 3 4 5 6 
#
# 1 25.0235 -0.6113 20.7035 0.0000 10.4185 0.0000
# 2 -0.6113 63.7535 18.2127 0.0000 3.1668 0.0000
# 3 20.7035 18.2127 107.4835 0.0000 31.0340 0.0000
# 4 0.0000 0.0000 0.0000 18.0230 0.0000 6.7443
# 5 10.4185 3.1668 31.0340 0.0000 24.3065 0.0000
# 6 0.0000 0.0000 0.0000 6.7443 0.0000 16.9232
#
#
#
# Elastic Compliance Matrix: (Units=1/GPa)
#
#
# Indices 1 2 3 4 5 6 
#
# 1 0.051161 0.002978 -0.006202 0.000000 -0.014399 0.000000
# 2 0.002978 0.016734 -0.003819 0.000000 0.001419 0.000000
# 3 -0.006202 -0.003819 0.016210 0.000000 -0.017541 0.000000
# 4 0.000000 0.000000 0.000000 0.065209 0.000000 -0.025987
# 5 -0.014399 0.001419 -0.017541 0.000000 0.069524 0.000000
# 6 0.000000 0.000000 0.000000 -0.025987 0.000000 0.069447
#
#
# Mechanical properties :
#
#
# Convention : Reuss Voigt Hill
#
# Bulk Modulus (GPa) = 14.28179 30.31891 22.30035
# Shear Modulus (GPa) = 15.35097 22.38090 18.86593
#
# Velocity S-wave (km/s) = 2.79270 3.37205 3.09596
# Velocity P-wave (km/s) = 4.20176 5.52854 4.91017
#
# Compressibility (1/GPa) = 0.07001922
#
# Stress axis : x y z
#
# Youngs Moduli (GPa) = 19.54607 59.75700 61.68998
#
# Poissons Ratio (x) = -0.17793 0.38259
# Poissons Ratio (y) = -0.05820 0.23559
# Poissons Ratio (z) = 0.12122 0.22821
#
# Static dielectric constant tensor:
#      x y z
#    x 1.703320 0.000000 0.000750 
#    y 0.000000 1.692710 0.000000 
#    z 0.000750 0.000000 1.797810 
# 
# From -- ./inp_files/33206.got.cif
#   From: 2010.05.17/outbox.cif.g08.bks.cpg/sg13_17_cif.got.tgz:33206.got - 2010.06.03 16:44:36.
