data_PCOD9228083
_publ_section_title
;
Structure prediction by ZEFSAII (Michael W. Deem and Ramdas Pophale) SiO2 
 PCOD9228083
Probable space group: P 2/C
;
_chemical_formula_sum "Si O2"
_cell_formula_units_Z 22
_cell_length_a 7.205941
_cell_length_b 18.636634
_cell_length_c 9.041094
_cell_angle_alpha 90.000000
_cell_angle_beta 123.020866
_cell_angle_gamma 90.000000
_cell_volume 1018.046963
_symmetry_space_group_name_H-M "P 2/C"
_symmetry_group_IT_number 13
_symmetry_cell_setting 'monoclinic'
loop_
_space_group_symop_operation_xyz
x,y,z
-x,y,1/2-z
-x,-y,-z
x,-y,1/2+z
loop_
_atom_site_type_symbol
_atom_site_label
_atom_site_fract_x
_atom_site_fract_y
_atom_site_fract_z
Si Si1 0.674512 0.132896 0.956041
Si Si2 0.824314 0.978690 0.046396
Si Si3 0.752694 0.254930 0.213954
Si Si4 0.734714 0.587311 0.628727
Si Si5 0.500000 0.478409 0.750000
Si Si6 0.110770 0.826685 0.458359
O O1 0.500000 0.142704 0.750000
O O2 0.909882 0.149978 0.980531
O O3 0.645443 0.189640 0.074911
O O4 0.674651 0.048861 0.002535
O O5 0.736772 0.898449 0.984479
O O6 0.000000 0.967711 0.250000
O O7 0.000000 0.000000 0.000000
O O8 0.655350 0.333083 0.140010
O O9 0.771782 0.235314 0.395747
O O10 0.000000 0.259013 0.250000
O O11 0.643830 0.529330 0.705636
O O12 0.647428 0.568290 0.426863
O O13 0.000000 0.584932 0.750000
O O14 0.000000 0.808788 0.250000
#
# Coordination Sequence:
#
# PCOD9228083 Si02
#       6
#     4   4   4   4   2   4
#     4  10  19  32  52  79 105 143 192 238 288 344
#     4   9  16  30  51  68  99 144 186 231 281 338
#     4   9  19  37  58  79 113 154 193 228 296 363
#     4  10  21  41  66  95 128 168 199 249 311 367
#     4  10  22  40  66 100 130 154 210 248 298 378
#     4   9  18  36  53  75 105 147 192 237 288 345
#
# _framework density 21.610005999999998
#
# number of rings (size 3 to 8) (size 9 to 14) (size 15 to 20)
#    0.000    2.545    0.000    3.273    1.273    0.000 
#    3.273   19.091    0.000    0.000    0.000    0.000 
#    0.000    0.000    0.000    0.000    0.000    0.000 
#
# Total GULP energy -122735.141155 kJ/mol
# GULP energy per Si atom -5578.870052 kJ/mol
# Density = 2.156082 g / cm^3
# Si number density = 21.610006 Si / 1000 Ang^3
#
#
#
# Elastic Constant Matrix: (Units=GPa)
#
#
# Indices 1 2 3 4 5 6 
#
# 1 58.8794 32.3252 22.9803 0.0000 -2.2942 0.0000
# 2 32.3252 170.1404 103.5503 0.0000 -7.2370 0.0000
# 3 22.9803 103.5503 153.9292 0.0000 -16.0742 0.0000
# 4 0.0000 0.0000 0.0000 16.1524 0.0000 -8.5272
# 5 -2.2942 -7.2370 -16.0742 0.0000 32.7669 0.0000
# 6 0.0000 0.0000 0.0000 -8.5272 0.0000 28.6933
#
#
#
# Elastic Compliance Matrix: (Units=1/GPa)
#
#
# Indices 1 2 3 4 5 6 
#
# 1 0.019008 -0.003201 -0.000652 0.000000 0.000304 0.000000
# 2 -0.003201 0.010532 -0.006733 0.000000 -0.001201 0.000000
# 3 -0.000652 -0.006733 0.011555 0.000000 0.004136 0.000000
# 4 0.000000 0.000000 0.000000 0.073431 0.000000 0.021822
# 5 0.000304 -0.001201 0.004136 0.000000 0.032303 0.000000
# 6 0.000000 0.000000 0.000000 0.021822 0.000000 0.041337
#
#
# Mechanical properties :
#
#
# Convention : Reuss Voigt Hill
#
# Bulk Modulus (GPa) = 50.19511 77.85118 64.02314
# Shear Modulus (GPa) = 23.15038 30.46209 26.80623
#
# Velocity S-wave (km/s) = 3.27659 3.75858 3.52583
# Velocity P-wave (km/s) = 6.13130 7.41212 6.80193
#
# Compressibility (1/GPa) = 0.01992226
#
# Stress axis : x y z
#
# Youngs Moduli (GPa) = 52.60974 94.94643 86.54333
#
# Poissons Ratio (x) = 0.30396 0.05646
# Poissons Ratio (y) = 0.16842 0.58267
# Poissons Ratio (z) = 0.03432 0.63924
#
# Static dielectric constant tensor:
#      x y z
#    x 1.852680 0.000000 0.015700 
#    y 0.000000 1.650270 0.000000 
#    z 0.015700 0.000000 1.746190 
# 
# From -- ./inp_files/13185.got.cif
#   From: 2010.05.17/outbox.cif.g08.bks.cpg/sg13_7_cif.got.tgz:13185.got - 2010.06.03 16:44:36.
