data_PCOD9228195
_publ_section_title
;
Structure prediction by ZEFSAII (Michael W. Deem and Ramdas Pophale) SiO2 
 PCOD9228195
Probable space group: P 2/C
;
_chemical_formula_sum "Si O2"
_cell_formula_units_Z 24
_cell_length_a 22.150693
_cell_length_b 11.993281
_cell_length_c 21.621816
_cell_angle_alpha 90.000000
_cell_angle_beta 13.422776
_cell_angle_gamma 90.000000
_cell_volume 1333.390428
_symmetry_space_group_name_H-M "P 2/C"
_symmetry_group_IT_number 13
_symmetry_cell_setting 'monoclinic'
loop_
_space_group_symop_operation_xyz
x,y,z
-x,y,1/2-z
-x,-y,-z
x,-y,1/2+z
loop_
_atom_site_type_symbol
_atom_site_label
_atom_site_fract_x
_atom_site_fract_y
_atom_site_fract_z
Si Si1 0.754887 0.510542 0.036125
Si Si2 0.749440 0.557116 0.305451
Si Si3 0.783689 0.865098 0.183311
Si Si4 0.291985 0.890329 0.761943
Si Si5 0.134530 0.376562 0.945345
Si Si6 0.252639 0.670009 0.864418
O O1 0.500000 0.526541 0.250000
O O2 0.760322 0.581172 0.094047
O O3 0.775752 0.383070 0.039771
O O4 0.000000 0.538669 0.750000
O O5 0.273410 0.427013 0.745462
O O6 0.508869 0.611678 0.580287
O O7 0.844265 0.431566 0.228217
O O8 0.002487 0.629020 0.074582
O O9 0.547807 0.858377 0.467583
O O10 0.826406 0.754744 0.100614
O O11 0.718125 0.978806 0.211742
O O12 0.047353 0.875953 0.959976
O O13 0.272326 0.801950 0.836662
#
# Coordination Sequence:
#
# PCOD9228195 Si02
#       6
#     4   4   4   4   4   4
#     4  11  25  38  52  76 106 149 186 221 262 311
#     4  10  21  30  56  88 103 140 173 219 294 326
#     4  10  20  32  52  82 114 139 166 214 282 339
#     4  10  19  33  52  82 113 137 170 214 277 343
#     4  10  20  36  55  79 116 138 179 226 272 341
#     4  11  19  37  56  78 113 138 179 226 269 334
#
# _framework density 17.999229
#
# number of rings (size 3 to 8) (size 9 to 14) (size 15 to 20)
#    0.000    1.667    3.333    2.000    0.000   11.333 
#    0.000    0.000    0.000    2.000    0.000    0.000 
#    0.000    0.000    0.000    0.000    0.000    0.000 
#
# Total GULP energy -133887.348452 kJ/mol
# GULP energy per Si atom -5578.639519 kJ/mol
# Density = 1.795826 g / cm^3
# Si number density = 17.999229 Si / 1000 Ang^3
#
#
#
# Elastic Constant Matrix: (Units=GPa)
#
#
# Indices 1 2 3 4 5 6 
#
# 1 105.4078 38.6224 32.9254 0.0000 -10.8129 0.0000
# 2 38.6224 158.1873 18.1783 0.0000 -1.1264 0.0000
# 3 32.9254 18.1783 123.3024 0.0000 -10.1768 0.0000
# 4 0.0000 0.0000 0.0000 21.9367 0.0000 -0.1810
# 5 -10.8129 -1.1264 -10.1768 0.0000 21.5237 0.0000
# 6 0.0000 0.0000 0.0000 -0.1810 0.0000 31.1901
#
#
#
# Elastic Compliance Matrix: (Units=1/GPa)
#
#
# Indices 1 2 3 4 5 6 
#
# 1 0.011621 -0.002535 -0.002350 0.000000 0.004594 0.000000
# 2 -0.002535 0.006984 -0.000445 0.000000 -0.001118 0.000000
# 3 -0.002350 -0.000445 0.009057 0.000000 0.003078 0.000000
# 4 0.000000 0.000000 0.000000 0.045588 0.000000 0.000264
# 5 0.004594 -0.001118 0.003078 0.000000 0.050165 0.000000
# 6 0.000000 0.000000 0.000000 0.000264 0.000000 0.032063
#
#
# Mechanical properties :
#
#
# Convention : Reuss Voigt Hill
#
# Bulk Modulus (GPa) = 58.81578 62.92774 60.87176
# Shear Modulus (GPa) = 29.10265 34.74155 31.92210
#
# Velocity S-wave (km/s) = 4.02541 4.39813 4.21589
# Velocity P-wave (km/s) = 7.37245 7.79928 7.58886
#
# Compressibility (1/GPa) = 0.01700224
#
# Stress axis : x y z
#
# Youngs Moduli (GPa) = 86.05050 143.19202 110.40639
#
# Poissons Ratio (x) = 0.36293 0.25949
# Poissons Ratio (y) = 0.21810 0.04914
# Poissons Ratio (z) = 0.20225 0.06373
#
# Static dielectric constant tensor:
#      x y z
#    x 1.584500 0.000000 -0.005350 
#    y 0.000000 1.711990 0.000000 
#    z -0.005350 0.000000 1.674620 
# 
# From -- ./inp_files/94087.got.cif
#   From: 2010.05.17/outbox.cif.g08.bks.cpg/sg13_48_cif.got.tgz:94087.got - 2010.06.03 16:44:36.
