data_PCOD9228704
_publ_section_title
;
Structure prediction by ZEFSAII (Michael W. Deem and Ramdas Pophale) SiO2 
 PCOD9228704
Probable space group: P 2/C
;
_chemical_formula_sum "Si O2"
_cell_formula_units_Z 30
_cell_length_a 6.092656
_cell_length_b 8.275493
_cell_length_c 26.167003
_cell_angle_alpha 90.000000
_cell_angle_beta 91.425119
_cell_angle_gamma 90.000000
_cell_volume 1318.925188
_symmetry_space_group_name_H-M "P 2/C"
_symmetry_group_IT_number 13
_symmetry_cell_setting 'monoclinic'
loop_
_space_group_symop_operation_xyz
x,y,z
-x,y,1/2-z
-x,-y,-z
x,-y,1/2+z
loop_
_atom_site_type_symbol
_atom_site_label
_atom_site_fract_x
_atom_site_fract_y
_atom_site_fract_z
Si Si1 0.139036 0.434154 0.430127
Si Si2 0.621737 0.482679 0.303482
Si Si3 0.685591 0.227886 0.165242
Si Si4 0.906146 0.057088 0.618131
Si Si5 0.000000 0.632573 0.750000
Si Si6 0.228001 0.680251 0.110863
Si Si7 0.403083 0.259624 0.960504
Si Si8 0.105098 0.859788 0.535017
O O1 0.932304 0.539437 0.409705
O O2 0.041543 0.301962 0.468303
O O3 0.239335 0.337245 0.382665
O O4 0.316276 0.556256 0.455296
O O5 0.500000 0.524165 0.250000
O O6 0.548450 0.304149 0.321418
O O7 0.593561 0.606833 0.349262
O O8 0.874392 0.475876 0.290087
O O9 0.830593 0.265424 0.216031
O O10 0.736696 0.044259 0.151054
O O11 0.075817 0.190262 0.638928
O O12 0.758519 0.154561 0.576537
O O13 0.067423 0.927100 0.591480
O O14 0.358496 0.752843 0.063183
O O15 0.347064 0.188385 0.016252
O O16 0.000000 0.000000 0.500000
#
# Coordination Sequence:
#
# PCOD9228704 Si02
#       8
#     4   4   4   4   2   4   4   4
#     4  10  19  35  60  84 116 153 199 240 287 346
#     4  10  21  36  62  90 114 152 199 240 295 357
#     4  10  19  38  59  85 112 153 196 235 299 350
#     4   9  22  37  57  83 121 152 193 243 295 346
#     4  10  20  36  62  88 114 142 196 250 278 354
#     4  11  21  37  58  90 116 153 198 245 291 348
#     4  10  20  36  57  83 119 157 195 243 290 350
#     4   9  19  38  56  83 118 162 192 241 296 343
#
# _framework density 22.745794
#
# number of rings (size 3 to 8) (size 9 to 14) (size 15 to 20)
#    0.000    2.133    2.667    0.400    0.000    2.133 
#    0.000    2.000    0.000    0.000    0.000    0.000 
#    0.000    0.000    0.000    0.000    0.000    0.000 
#
# Total GULP energy -167452.693799 kJ/mol
# GULP energy per Si atom -5581.756460 kJ/mol
# Density = 2.269402 g / cm^3
# Si number density = 22.745794 Si / 1000 Ang^3
#
#
#
# Elastic Constant Matrix: (Units=GPa)
#
#
# Indices 1 2 3 4 5 6 
#
# 1 49.4881 21.6335 19.1690 0.0000 -13.8197 0.0000
# 2 21.6335 102.7844 24.0254 0.0000 -1.5388 0.0000
# 3 19.1690 24.0254 71.3007 0.0000 -13.5598 0.0000
# 4 0.0000 0.0000 0.0000 27.4587 0.0000 -12.8395
# 5 -13.8197 -1.5388 -13.5598 0.0000 36.3893 0.0000
# 6 0.0000 0.0000 0.0000 -12.8395 0.0000 25.1614
#
#
#
# Elastic Compliance Matrix: (Units=1/GPa)
#
#
# Indices 1 2 3 4 5 6 
#
# 1 0.025952 -0.004422 -0.003927 0.000000 0.008206 0.000000
# 2 -0.004422 0.011345 -0.003080 0.000000 -0.002347 0.000000
# 3 -0.003927 -0.003080 0.017016 0.000000 0.004719 0.000000
# 4 0.000000 0.000000 0.000000 0.047831 0.000000 0.024408
# 5 0.008206 -0.002347 0.004719 0.000000 0.032256 0.000000
# 6 0.000000 0.000000 0.000000 0.024408 0.000000 0.052198
#
#
# Mechanical properties :
#
#
# Convention : Reuss Voigt Hill
#
# Bulk Modulus (GPa) = 31.79069 39.24766 35.51917
# Shear Modulus (GPa) = 22.73332 28.38489 25.55911
#
# Velocity S-wave (km/s) = 3.16484 3.53642 3.35578
# Velocity P-wave (km/s) = 5.23085 5.82816 5.53756
#
# Compressibility (1/GPa) = 0.03145575
#
# Stress axis : x y z
#
# Youngs Moduli (GPa) = 38.53230 88.14762 58.76740
#
# Poissons Ratio (x) = 0.38975 0.23077
# Poissons Ratio (y) = 0.17037 0.18102
# Poissons Ratio (z) = 0.15131 0.27152
#
# Static dielectric constant tensor:
#      x y z
#    x 1.879730 0.000000 -0.037190 
#    y 0.000000 1.871210 0.000000 
#    z -0.037190 0.000000 1.904090 
# 
# From -- ./inp_files/95010.got.cif
#   From: 2010.05.17/outbox.cif.g08.bks.cpg/sg13_48_cif.got.tgz:95010.got - 2010.06.03 16:44:36.
