data_PCOD9228790
_publ_section_title
;
Structure prediction by ZEFSAII (Michael W. Deem and Ramdas Pophale) SiO2 
 PCOD9228790
Probable space group: P 2/C
;
_chemical_formula_sum "Si O2"
_cell_formula_units_Z 20
_cell_length_a 7.449999
_cell_length_b 11.392733
_cell_length_c 16.758863
_cell_angle_alpha 90.000000
_cell_angle_beta 37.164458
_cell_angle_gamma 90.000000
_cell_volume 859.292530
_symmetry_space_group_name_H-M "P 2/C"
_symmetry_group_IT_number 13
_symmetry_cell_setting 'monoclinic'
loop_
_space_group_symop_operation_xyz
x,y,z
-x,y,1/2-z
-x,-y,-z
x,-y,1/2+z
loop_
_atom_site_type_symbol
_atom_site_label
_atom_site_fract_x
_atom_site_fract_y
_atom_site_fract_z
Si Si1 0.629789 0.535049 0.539804
Si Si2 0.747638 0.224967 0.946259
Si Si3 0.189199 0.083998 0.878044
Si Si4 0.704334 0.725666 0.027971
Si Si5 0.321147 0.732757 0.731512
O O1 0.500000 0.500000 0.500000
O O2 0.845200 0.645294 0.444126
O O3 0.735775 0.412334 0.536852
O O4 0.375952 0.598450 0.682278
O O5 0.000044 0.129615 0.870045
O O6 0.595487 0.244771 0.914884
O O7 0.483503 0.195508 0.103726
O O8 0.500000 0.023938 0.750000
O O9 0.267570 0.196706 0.904094
O O10 0.000000 0.000000 0.000000
O O11 0.979901 0.754706 0.871406
O O12 0.500000 0.746476 0.750000
#
# Coordination Sequence:
#
# PCOD9228790 Si02
#       5
#     4   4   4   4   4
#     4   8  19  34  60 105 145 178 219 266 337 415
#     4   9  22  43  67 104 134 181 225 274 346 412
#     4  12  30  49  71  99 134 179 236 296 342 405
#     4  11  21  43  71  99 142 184 223 285 343 408
#     4  10  19  35  67 102 140 180 228 273 340 403
#
# _framework density 23.274961000000001
#
# number of rings (size 3 to 8) (size 9 to 14) (size 15 to 20)
#    1.200    0.800    2.000    0.600    2.800    7.200 
#    0.000    4.000    0.000    0.000    0.000    0.000 
#    0.000    0.000    0.000    0.000    0.000    0.000 
#
# Total GULP energy -111632.331319 kJ/mol
# GULP energy per Si atom -5581.616566 kJ/mol
# Density = 2.322199 g / cm^3
# Si number density = 23.274961 Si / 1000 Ang^3
#
#
#
# Elastic Constant Matrix: (Units=GPa)
#
#
# Indices 1 2 3 4 5 6 
#
# 1 109.3912 35.9672 5.9698 0.0000 -9.4790 0.0000
# 2 35.9672 62.5285 10.6738 0.0000 -8.7539 0.0000
# 3 5.9698 10.6738 82.9790 0.0000 -15.4064 0.0000
# 4 0.0000 0.0000 0.0000 53.9676 0.0000 -20.6111
# 5 -9.4790 -8.7539 -15.4064 0.0000 31.2116 0.0000
# 6 0.0000 0.0000 0.0000 -20.6111 0.0000 37.8429
#
#
#
# Elastic Compliance Matrix: (Units=1/GPa)
#
#
# Indices 1 2 3 4 5 6 
#
# 1 0.011367 -0.006338 0.000340 0.000000 0.001842 0.000000
# 2 -0.006338 0.020330 -0.001605 0.000000 0.002985 0.000000
# 3 0.000340 -0.001605 0.013397 0.000000 0.006266 0.000000
# 4 0.000000 0.000000 0.000000 0.023396 0.000000 0.012743
# 5 0.001842 0.002985 0.006266 0.000000 0.036529 0.000000
# 6 0.000000 0.000000 0.000000 0.012743 0.000000 0.033365
#
#
# Mechanical properties :
#
#
# Convention : Reuss Voigt Hill
#
# Bulk Modulus (GPa) = 33.46031 40.01338 36.73684
# Shear Modulus (GPa) = 30.57101 38.09028 34.33065
#
# Velocity S-wave (km/s) = 3.62812 4.04980 3.84474
# Velocity P-wave (km/s) = 5.65317 6.25274 5.96050
#
# Compressibility (1/GPa) = 0.02988616
#
# Stress axis : x y z
#
# Youngs Moduli (GPa) = 87.97718 49.18739 74.64589
#
# Poissons Ratio (x) = 0.31176 -0.02535
# Poissons Ratio (y) = 0.55763 0.11980
# Poissons Ratio (z) = -0.02987 0.07894
#
# Static dielectric constant tensor:
#      x y z
#    x 1.840250 0.000000 -0.046560 
#    y 0.000000 1.903700 0.000000 
#    z -0.046560 0.000000 1.916740 
# 
# From -- ./inp_files/64179.got.cif
#   From: 2010.05.17/outbox.cif.g08.bks.cpg/sg13_33_cif.got.tgz:64179.got - 2010.06.03 16:44:36.
