data_PCOD9228890
_publ_section_title
;
Structure prediction by ZEFSAII (Michael W. Deem and Ramdas Pophale) SiO2 
 PCOD9228890
Probable space group: P 2/C
;
_chemical_formula_sum "Si O2"
_cell_formula_units_Z 28
_cell_length_a 11.334525
_cell_length_b 12.727155
_cell_length_c 9.847101
_cell_angle_alpha 90.000000
_cell_angle_beta 65.073215
_cell_angle_gamma 90.000000
_cell_volume 1288.181662
_symmetry_space_group_name_H-M "P 2/C"
_symmetry_group_IT_number 13
_symmetry_cell_setting 'monoclinic'
loop_
_space_group_symop_operation_xyz
x,y,z
-x,y,1/2-z
-x,-y,-z
x,-y,1/2+z
loop_
_atom_site_type_symbol
_atom_site_label
_atom_site_fract_x
_atom_site_fract_y
_atom_site_fract_z
Si Si1 0.375061 0.108292 0.730150
Si Si2 0.791291 0.853000 0.429429
Si Si3 0.883700 0.942997 0.968615
Si Si4 0.194630 0.250216 0.156183
Si Si5 0.617071 0.871106 0.775890
Si Si6 0.889259 0.552341 0.925025
Si Si7 0.908075 0.335226 0.005000
O O1 0.500000 0.152010 0.750000
O O2 0.320871 0.168631 0.625171
O O3 0.417840 0.989764 0.667991
O O4 0.243668 0.088041 0.880939
O O5 0.728209 0.873407 0.607245
O O6 0.891460 0.758735 0.406382
O O7 0.851943 0.967539 0.371587
O O8 0.895493 0.831561 0.884260
O O9 0.000000 0.000000 0.000000
O O10 0.327189 0.189895 0.124265
O O11 0.211211 0.359474 0.071834
O O12 0.138905 0.288030 0.328907
O O13 0.500000 0.820165 0.750000
O O14 0.000000 0.542981 0.750000
O O15 0.956191 0.608176 0.023797
O O16 0.833449 0.438398 0.986774
#
# Coordination Sequence:
#
# PCOD9228890 Si02
#       7
#     4   4   4   4   4   4   4
#     4  10  22  37  56  85 124 168 204 243 293 365
#     4  10  20  37  55  83 124 152 196 250 292 367
#     4  11  23  37  57  92 124 159 196 248 315 365
#     4  10  19  36  59  85 118 153 195 253 303 365
#     4   9  19  33  60  85 111 160 205 240 290 357
#     4   9  18  36  60  82 112 150 203 249 299 374
#     4   9  19  36  58  82 110 156 197 244 303 358
#
# _framework density 21.736063000000001
#
# number of rings (size 3 to 8) (size 9 to 14) (size 15 to 20)
#    0.000    2.286    1.429    0.857    2.000    5.714 
#   10.286    0.000    0.000    4.286    0.000    0.000 
#    0.000    0.000    0.000    0.000    0.000    0.000 
#
# Total GULP energy -155879.562828 kJ/mol
# GULP energy per Si atom -5567.127244 kJ/mol
# Density = 2.168659 g / cm^3
# Si number density = 21.736063 Si / 1000 Ang^3
#
#
#
# Elastic Constant Matrix: (Units=GPa)
#
#
# Indices 1 2 3 4 5 6 
#
# 1 66.2109 6.9357 36.2439 0.0000 21.8226 0.0000
# 2 6.9357 123.3329 39.0168 0.0000 17.2619 0.0000
# 3 36.2439 39.0168 75.8475 0.0000 10.7387 0.0000
# 4 0.0000 0.0000 0.0000 23.7316 0.0000 10.5788
# 5 21.8226 17.2619 10.7387 0.0000 32.9739 0.0000
# 6 0.0000 0.0000 0.0000 10.5788 0.0000 20.6943
#
#
#
# Elastic Compliance Matrix: (Units=1/GPa)
#
#
# Indices 1 2 3 4 5 6 
#
# 1 0.027188 0.004932 -0.013226 0.000000 -0.016268 0.000000
# 2 0.004932 0.011008 -0.007067 0.000000 -0.006725 0.000000
# 3 -0.013226 -0.007067 0.022410 0.000000 0.005154 0.000000
# 4 0.000000 0.000000 0.000000 0.054574 0.000000 -0.027898
# 5 -0.016268 -0.006725 0.005154 0.000000 0.042936 0.000000
# 6 0.000000 0.000000 0.000000 -0.027898 0.000000 0.062583
#
#
# Mechanical properties :
#
#
# Convention : Reuss Voigt Hill
#
# Bulk Modulus (GPa) = 33.46247 47.75379 40.60813
# Shear Modulus (GPa) = 19.12910 27.69295 23.41102
#
# Velocity S-wave (km/s) = 2.96980 3.57326 3.28542
# Velocity P-wave (km/s) = 5.21421 6.24835 5.75455
#
# Compressibility (1/GPa) = 0.02988423
#
# Stress axis : x y z
#
# Youngs Moduli (GPa) = 36.78049 90.84516 44.62300
#
# Poissons Ratio (x) = -0.44805 0.59017
# Poissons Ratio (y) = -0.18140 0.31536
# Poissons Ratio (z) = 0.48645 0.64201
#
# Static dielectric constant tensor:
#      x y z
#    x 1.957650 0.000000 -0.032020 
#    y 0.000000 1.849390 0.000000 
#    z -0.032020 0.000000 1.917070 
# 
# From -- ./inp_files/33201.got.cif
#   From: 2010.05.17/outbox.cif.g08.bks.cpg/sg13_17_cif.got.tgz:33201.got - 2010.06.03 16:44:36.
