data_PCOD9228754
_publ_section_title
;
Structure prediction by ZEFSAII (Michael W. Deem and Ramdas Pophale) SiO2 
 PCOD9228754
Probable space group: P 2/C
;
_chemical_formula_sum "Si O2"
_cell_formula_units_Z 24
_cell_length_a 19.528023
_cell_length_b 9.345573
_cell_length_c 19.882087
_cell_angle_alpha 90.000000
_cell_angle_beta 20.850272
_cell_angle_gamma 90.000000
_cell_volume 1291.478500
_symmetry_space_group_name_H-M "P 2/C"
_symmetry_group_IT_number 13
_symmetry_cell_setting 'monoclinic'
loop_
_space_group_symop_operation_xyz
x,y,z
-x,y,1/2-z
-x,-y,-z
x,-y,1/2+z
loop_
_atom_site_type_symbol
_atom_site_label
_atom_site_fract_x
_atom_site_fract_y
_atom_site_fract_z
Si Si1 0.319896 0.485792 0.082941
Si Si2 0.851565 0.837482 0.576821
Si Si3 0.066146 0.617140 0.116967
Si Si4 0.626339 0.616691 0.193786
Si Si5 0.807098 0.162739 0.632239
Si Si6 0.521367 0.256131 0.473430
O O1 0.387334 0.617822 0.067148
O O2 0.113277 0.525462 0.245344
O O3 0.479373 0.461265 0.879423
O O4 0.327663 0.339500 0.117746
O O5 0.882261 0.740332 0.483426
O O6 0.016878 0.797585 0.479655
O O7 0.861004 0.006875 0.554470
O O8 0.644382 0.810961 0.801010
O O9 0.000000 0.674791 0.250000
O O10 0.240763 0.505333 0.960660
O O11 0.500000 0.686456 0.250000
O O12 0.751496 0.725522 0.124586
O O13 0.617345 0.157610 0.854532
#
# Coordination Sequence:
#
# PCOD9228754 Si02
#       6
#     4   4   4   4   4   4
#     4  10  20  34  58  93 113 148 194 251 292 346
#     4  11  22  39  61  88 120 157 195 243 298 351
#     4  12  23  37  60  87 118 155 198 246 297 351
#     4  11  22  40  60  85 119 156 200 243 299 351
#     4  10  23  39  61  88 120 155 197 244 294 356
#     4  10  19  35  62  88 116 147 197 245 296 343
#
# _framework density 18.583352000000001
#
# number of rings (size 3 to 8) (size 9 to 14) (size 15 to 20)
#    0.000    1.333    5.000    1.500    0.000    1.333 
#    0.000    3.333    3.667    0.000    0.000    0.000 
#    0.000    0.000    0.000    0.000    0.000    0.000 
#
# Total GULP energy -133900.125996 kJ/mol
# GULP energy per Si atom -5579.171917 kJ/mol
# Density = 1.854106 g / cm^3
# Si number density = 18.583352 Si / 1000 Ang^3
#
#
#
# Elastic Constant Matrix: (Units=GPa)
#
#
# Indices 1 2 3 4 5 6 
#
# 1 94.3858 42.2873 26.9597 0.0000 5.2144 0.0000
# 2 42.2873 61.6193 36.2304 0.0000 3.6943 0.0000
# 3 26.9597 36.2304 73.0146 0.0000 14.0579 0.0000
# 4 0.0000 0.0000 0.0000 13.2873 0.0000 1.0069
# 5 5.2144 3.6943 14.0579 0.0000 29.1091 0.0000
# 6 0.0000 0.0000 0.0000 1.0069 0.0000 10.5380
#
#
#
# Elastic Compliance Matrix: (Units=1/GPa)
#
#
# Indices 1 2 3 4 5 6 
#
# 1 0.015362 -0.010273 -0.000326 0.000000 -0.001291 0.000000
# 2 -0.010273 0.030000 -0.011813 0.000000 0.003738 0.000000
# 3 -0.000326 -0.011813 0.021364 0.000000 -0.008760 0.000000
# 4 0.000000 0.000000 0.000000 0.075809 0.000000 -0.007244
# 5 -0.001291 0.003738 -0.008760 0.000000 0.038341 0.000000
# 6 0.000000 0.000000 0.000000 -0.007244 0.000000 0.095587
#
#
# Mechanical properties :
#
#
# Convention : Reuss Voigt Hill
#
# Bulk Modulus (GPa) = 45.65668 48.88607 47.27137
# Shear Modulus (GPa) = 15.21659 18.82303 17.01981
#
# Velocity S-wave (km/s) = 2.86462 3.18606 3.02961
# Velocity P-wave (km/s) = 5.96350 6.31649 6.14253
#
# Compressibility (1/GPa) = 0.02190260
#
# Stress axis : x y z
#
# Youngs Moduli (GPa) = 65.09580 33.33285 46.80666
#
# Poissons Ratio (x) = 0.34244 0.01526
# Poissons Ratio (y) = 0.66875 0.55292
# Poissons Ratio (z) = 0.02122 0.39375
#
# Static dielectric constant tensor:
#      x y z
#    x 1.659010 0.000000 -0.007160 
#    y 0.000000 1.629990 0.000000 
#    z -0.007160 0.000000 1.648630 
# 
# From -- ./inp_files/81643.got.cif
#   From: 2010.05.17/outbox.cif.g08.bks.cpg/sg13_41_cif.got.tgz:81643.got - 2010.06.03 16:44:36.
