data_PCOD9228992
_publ_section_title
;
Structure prediction by ZEFSAII (Michael W. Deem and Ramdas Pophale) SiO2 
 PCOD9228992
Probable space group: P 2/C
;
_chemical_formula_sum "Si O2"
_cell_formula_units_Z 26
_cell_length_a 30.755694
_cell_length_b 6.770604
_cell_length_c 5.419289
_cell_angle_alpha 90.000000
_cell_angle_beta 109.204761
_cell_angle_gamma 90.000000
_cell_volume 1065.682415
_symmetry_space_group_name_H-M "P 2/C"
_symmetry_group_IT_number 13
_symmetry_cell_setting 'monoclinic'
loop_
_space_group_symop_operation_xyz
x,y,z
-x,y,1/2-z
-x,-y,-z
x,-y,1/2+z
loop_
_atom_site_type_symbol
_atom_site_label
_atom_site_fract_x
_atom_site_fract_y
_atom_site_fract_z
Si Si1 0.548370 0.628162 0.288743
Si Si2 0.000000 0.637976 0.250000
Si Si3 0.352173 0.370292 0.448848
Si Si4 0.134214 0.749742 0.090082
Si Si5 0.902556 0.197872 0.480786
Si Si6 0.222332 0.473163 0.198079
Si Si7 0.737880 0.891752 0.638240
O O1 0.500000 0.737416 0.250000
O O2 0.547975 0.460703 0.508794
O O3 0.597504 0.730885 0.424731
O O4 0.955811 0.783383 0.153948
O O5 0.000000 0.500000 0.500000
O O6 0.350957 0.524931 0.677386
O O7 0.309863 0.220317 0.398525
O O8 0.102424 0.706539 0.796339
O O9 0.121879 0.688661 0.343145
O O10 0.181872 0.633542 0.128703
O O11 0.123194 0.986103 0.089559
O O12 0.783476 0.238849 0.286020
O O13 0.249333 0.510724 0.497641
O O14 0.739867 0.943776 0.354261
#
# Coordination Sequence:
#
# PCOD9228992 Si02
#       7
#     4   2   4   4   4   4   4
#     4   8  14  25  47  85 123 158 216 282 340 403
#     4  12  26  42  72 104 150 192 224 262 320 392
#     4  10  19  36  65  91 124 179 226 284 349 414
#     4  10  23  44  72 101 135 179 225 279 330 387
#     4  10  23  45  70 107 143 179 225 271 321 386
#     4  12  26  48  73  98 133 177 228 287 341 411
#     4  12  26  46  66  97 136 175 228 289 354 423
#
# _framework density 24.397514000000001
#
# number of rings (size 3 to 8) (size 9 to 14) (size 15 to 20)
#    0.000    1.538    0.000    4.615    0.000    6.154 
#   16.615    0.000    0.000    0.923    0.000    0.000 
#    0.000    0.000    0.000    0.000    0.000    0.000 
#
# Total GULP energy -144771.342202 kJ/mol
# GULP energy per Si atom -5568.128546 kJ/mol
# Density = 2.434198 g / cm^3
# Si number density = 24.397514 Si / 1000 Ang^3
#
#
#
# Elastic Constant Matrix: (Units=GPa)
#
#
# Indices 1 2 3 4 5 6 
#
# 1 127.5452 20.4938 33.6659 0.0000 36.5640 0.0000
# 2 20.4938 85.2121 -2.8716 0.0000 23.8004 0.0000
# 3 33.6659 -2.8716 116.9796 0.0000 -25.1742 0.0000
# 4 0.0000 0.0000 0.0000 -44.0064 0.0000 -78.8184
# 5 36.5640 23.8004 -25.1742 0.0000 65.0421 0.0000
# 6 0.0000 0.0000 0.0000 -78.8184 0.0000 -93.0632
#
#
#
# Elastic Compliance Matrix: (Units=1/GPa)
#
#
# Indices 1 2 3 4 5 6 
#
# 1 0.011706 -0.000659 -0.005181 0.000000 -0.008345 0.000000
# 2 -0.000659 0.013173 -0.000485 0.000000 -0.004637 0.000000
# 3 -0.005181 -0.000485 0.011664 0.000000 0.007604 0.000000
# 4 0.000000 0.000000 0.000000 0.043961 0.000000 -0.037232
# 5 -0.008345 -0.004637 0.007604 0.000000 0.024706 0.000000
# 6 0.000000 0.000000 0.000000 -0.037232 0.000000 0.020787
#
#
# Mechanical properties :
#
#
# Convention : Reuss Voigt Hill
#
# Bulk Modulus (GPa) = 41.85317 48.03480 44.94398
# Shear Modulus (GPa) = 34.10385 4.15775 19.13080
#
# Velocity S-wave (km/s) = 3.74283 1.30685 2.80327
# Velocity P-wave (km/s) = 5.98918 4.69130 5.37952
#
# Compressibility (1/GPa) = 0.02389305
#
# Stress axis : x y z
#
# Youngs Moduli (GPa) = 85.42654 75.91359 85.73327
#
# Poissons Ratio (x) = 0.05004 0.44417
# Poissons Ratio (y) = 0.05631 0.04157
# Poissons Ratio (z) = 0.44258 0.03681
#
# Static dielectric constant tensor:
#      x y z
#    x 2.009760 0.000000 -0.011230 
#    y 0.000000 2.695700 0.000000 
#    z -0.011230 0.000000 1.997160 
# 
# From -- ./inp_files/7844.got.cif
#   From: 2010.05.17/outbox.cif.g08.bks.cpg/sg13_4_cif.got.tgz:7844.got - 2010.06.03 16:44:36.
