data_PCOD9228869
_publ_section_title
;
Structure prediction by ZEFSAII (Michael W. Deem and Ramdas Pophale) SiO2 
 PCOD9228869
Probable space group: P 2/C
;
_chemical_formula_sum "Si O2"
_cell_formula_units_Z 14
_cell_length_a 7.226218
_cell_length_b 4.753908
_cell_length_c 20.091806
_cell_angle_alpha 90.000000
_cell_angle_beta 131.340272
_cell_angle_gamma 90.000000
_cell_volume 518.209176
_symmetry_space_group_name_H-M "P 2/C"
_symmetry_group_IT_number 13
_symmetry_cell_setting 'monoclinic'
loop_
_space_group_symop_operation_xyz
x,y,z
-x,y,1/2-z
-x,-y,-z
x,-y,1/2+z
loop_
_atom_site_type_symbol
_atom_site_label
_atom_site_fract_x
_atom_site_fract_y
_atom_site_fract_z
Si Si1 0.851560 0.021456 0.817348
Si Si2 0.654003 0.217265 0.582178
Si Si3 0.500000 0.455423 0.250000
Si Si4 0.163456 0.346979 0.485732
O O1 0.656617 0.787248 0.746008
O O2 0.985507 0.896248 0.915695
O O3 0.719140 0.312069 0.804702
O O4 0.099079 0.076873 0.833981
O O5 0.437515 0.294295 0.581873
O O6 0.753885 0.466463 0.558638
O O7 0.500000 0.000000 0.500000
O O8 0.000000 0.500000 0.500000
#
# Coordination Sequence:
#
# PCOD9228869 Si02
#       4
#     4   4   2   4
#     4  10  19  36  58  90 115 160 206 242 298 353
#     4   9  19  35  58  91 118 155 191 241 312 346
#     4  10  20  34  60  84 116 162 214 240 276 372
#     4  10  20  36  61  97 122 149 192 256 310 356
#
# _framework density 27.016114000000002
#
# number of rings (size 3 to 8) (size 9 to 14) (size 15 to 20)
#    0.000    2.286    2.857    0.000    0.000    4.571 
#    0.000    0.000    0.000    1.714   22.286    0.000 
#    0.000    0.000    0.000    0.000    0.000    0.000 
#
# Total GULP energy -77943.569300 kJ/mol
# GULP energy per Si atom -5567.397807 kJ/mol
# Density = 2.695462 g / cm^3
# Si number density = 27.016114 Si / 1000 Ang^3
#
#
#
# Elastic Constant Matrix: (Units=GPa)
#
#
# Indices 1 2 3 4 5 6 
#
# 1 147.5105 55.0025 86.5428 0.0000 74.4625 0.0000
# 2 55.0025 179.5143 50.8881 0.0000 25.9286 0.0000
# 3 86.5428 50.8881 136.3669 0.0000 53.3345 0.0000
# 4 0.0000 0.0000 0.0000 69.7551 0.0000 34.0358
# 5 74.4625 25.9286 53.3345 0.0000 78.3290 0.0000
# 6 0.0000 0.0000 0.0000 34.0358 0.0000 27.3742
#
#
#
# Elastic Compliance Matrix: (Units=1/GPa)
#
#
# Indices 1 2 3 4 5 6 
#
# 1 0.016193 -0.001868 -0.005180 0.000000 -0.011248 0.000000
# 2 -0.001868 0.006470 -0.001480 0.000000 0.000642 0.000000
# 3 -0.005180 -0.001480 0.012342 0.000000 -0.002990 0.000000
# 4 0.000000 0.000000 0.000000 0.036448 0.000000 -0.045317
# 5 -0.011248 0.000642 -0.002990 0.000000 0.025282 0.000000
# 6 0.000000 0.000000 0.000000 -0.045317 0.000000 0.092876
#
#
# Mechanical properties :
#
#
# Convention : Reuss Voigt Hill
#
# Bulk Modulus (GPa) = 55.71568 94.25095 74.98332
# Shear Modulus (GPa) = 23.51287 53.15555 38.33421
#
# Velocity S-wave (km/s) = 2.95333 4.44052 3.77097
# Velocity P-wave (km/s) = 5.68309 7.82647 6.83926
#
# Compressibility (1/GPa) = 0.01794827
#
# Stress axis : x y z
#
# Youngs Moduli (GPa) = 61.75573 154.56485 81.02393
#
# Poissons Ratio (x) = 0.28878 0.41971
# Poissons Ratio (y) = 0.11538 0.11989
# Poissons Ratio (z) = 0.31990 0.22871
#
# Static dielectric constant tensor:
#      x y z
#    x 2.233820 0.000000 0.012420 
#    y 0.000000 2.227780 0.000000 
#    z 0.012420 0.000000 2.283820 
# 
# From -- ./inp_files/72511.got.cif
#   From: 2010.05.17/outbox.cif.g08.bks.cpg/sg13_37_cif.got.tgz:72511.got - 2010.06.03 16:44:36.
