data_PCOD9228464
_publ_section_title
;
Structure prediction by ZEFSAII (Michael W. Deem and Ramdas Pophale) SiO2 
 PCOD9228464
Probable space group: P 2/C
;
_chemical_formula_sum "Si O2"
_cell_formula_units_Z 28
_cell_length_a 9.603924
_cell_length_b 5.120487
_cell_length_c 30.434773
_cell_angle_alpha 90.000000
_cell_angle_beta 47.087167
_cell_angle_gamma 90.000000
_cell_volume 1096.156846
_symmetry_space_group_name_H-M "P 2/C"
_symmetry_group_IT_number 13
_symmetry_cell_setting 'monoclinic'
loop_
_space_group_symop_operation_xyz
x,y,z
-x,y,1/2-z
-x,-y,-z
x,-y,1/2+z
loop_
_atom_site_type_symbol
_atom_site_label
_atom_site_fract_x
_atom_site_fract_y
_atom_site_fract_z
Si Si1 0.577992 0.297194 0.518429
Si Si2 0.175466 0.355838 0.639808
Si Si3 0.317924 0.574895 0.696641
Si Si4 0.175700 0.080941 0.913654
Si Si5 0.097875 0.115565 0.103038
Si Si6 0.582165 0.923338 0.280483
Si Si7 0.741616 0.415465 0.062207
O O1 0.500000 0.500000 0.500000
O O2 0.392299 0.241567 0.587236
O O3 0.701266 0.082044 0.466669
O O4 0.718461 0.454592 0.520104
O O5 0.181870 0.477803 0.686843
O O6 0.116806 0.596392 0.620256
O O7 0.065236 0.099995 0.647698
O O8 0.288682 0.851309 0.726207
O O9 0.528086 0.595557 0.628900
O O10 0.322494 0.357644 0.733778
O O11 0.391903 0.092200 0.850383
O O12 0.182177 0.877750 0.952665
O O13 0.057144 0.946130 0.900573
O O14 0.137030 0.379468 0.934982
O O15 0.500000 0.980823 0.250000
#
# Coordination Sequence:
#
# PCOD9228464 Si02
#       7
#     4   4   4   4   4   4   4
#     4   9  20  34  52  76 101 135 179 212 241 285
#     4  10  20  35  53  74 103 138 172 205 244 293
#     4   9  18  33  54  78 100 129 168 207 251 296
#     4  10  21  35  51  76 103 134 166 202 263 306
#     4  11  21  33  52  74 104 138 170 209 246 293
#     4  10  19  34  57  79 100 127 165 212 253 303
#     4   9  19  34  51  72 104 134 166 210 249 298
#
# _framework density 25.543789
#
# number of rings (size 3 to 8) (size 9 to 14) (size 15 to 20)
#    0.000    2.286    0.000    2.571    0.000   10.286 
#    0.000    0.000    0.000    5.143    0.000    0.000 
#    0.000    0.000    0.000    0.000    0.000    0.000 
#
# Total GULP energy -156566.804750 kJ/mol
# GULP energy per Si atom -5591.671598 kJ/mol
# Density = 2.548565 g / cm^3
# Si number density = 25.543789 Si / 1000 Ang^3
#
#
#
# Elastic Constant Matrix: (Units=GPa)
#
#
# Indices 1 2 3 4 5 6 
#
# 1 96.2039 36.3519 14.3767 0.0000 21.0217 0.0000
# 2 36.3519 141.1039 21.3855 0.0000 6.7950 0.0000
# 3 14.3767 21.3855 63.0566 0.0000 -6.5809 0.0000
# 4 0.0000 0.0000 0.0000 24.1770 0.0000 13.0858
# 5 21.0217 6.7950 -6.5809 0.0000 41.0109 0.0000
# 6 0.0000 0.0000 0.0000 13.0858 0.0000 35.4046
#
#
#
# Elastic Compliance Matrix: (Units=1/GPa)
#
#
# Indices 1 2 3 4 5 6 
#
# 1 0.013325 -0.002672 -0.002846 0.000000 -0.006844 0.000000
# 2 -0.002672 0.008121 -0.002179 0.000000 -0.000326 0.000000
# 3 -0.002846 -0.002179 0.017734 0.000000 0.004666 0.000000
# 4 0.000000 0.000000 0.000000 0.051705 0.000000 -0.019111
# 5 -0.006844 -0.000326 0.004666 0.000000 0.028695 0.000000
# 6 0.000000 0.000000 0.000000 -0.019111 0.000000 0.035308
#
#
# Mechanical properties :
#
#
# Convention : Reuss Voigt Hill
#
# Bulk Modulus (GPa) = 42.04234 49.39919 45.72076
# Shear Modulus (GPa) = 28.05658 35.33520 31.69589
#
# Velocity S-wave (km/s) = 3.31776 3.72333 3.52638
# Velocity P-wave (km/s) = 5.58314 6.15348 5.87523
#
# Compressibility (1/GPa) = 0.02378555
#
# Stress axis : x y z
#
# Youngs Moduli (GPa) = 75.04632 123.13332 56.38990
#
# Poissons Ratio (x) = 0.32900 0.16050
# Poissons Ratio (y) = 0.20052 0.12288
# Poissons Ratio (z) = 0.21360 0.26832
#
# Static dielectric constant tensor:
#      x y z
#    x 2.024270 0.000000 -0.074540 
#    y 0.000000 1.952430 0.000000 
#    z -0.074540 0.000000 2.108840 
# 
# From -- ./inp_files/95451.got.cif
#   From: 2010.05.17/outbox.cif.g08.bks.cpg/sg13_48_cif.got.tgz:95451.got - 2010.06.03 16:44:36.
