data_PCOD9228994
_publ_section_title
;
Structure prediction by ZEFSAII (Michael W. Deem and Ramdas Pophale) SiO2 
 PCOD9228994
Probable space group: P 2/C
;
_chemical_formula_sum "Si O2"
_cell_formula_units_Z 28
_cell_length_a 8.464143
_cell_length_b 16.353561
_cell_length_c 13.932872
_cell_angle_alpha 90.000000
_cell_angle_beta 130.964339
_cell_angle_gamma 90.000000
_cell_volume 1456.299375
_symmetry_space_group_name_H-M "P 2/C"
_symmetry_group_IT_number 13
_symmetry_cell_setting 'monoclinic'
loop_
_space_group_symop_operation_xyz
x,y,z
-x,y,1/2-z
-x,-y,-z
x,-y,1/2+z
loop_
_atom_site_type_symbol
_atom_site_label
_atom_site_fract_x
_atom_site_fract_y
_atom_site_fract_z
Si Si1 0.438242 0.751138 0.614923
Si Si2 0.000000 0.153332 0.750000
Si Si3 0.053065 0.268813 0.600578
Si Si4 0.000000 0.457956 0.250000
Si Si5 0.389376 0.639047 0.973563
Si Si6 0.635633 0.205193 0.900491
Si Si7 0.314824 0.568221 0.255802
Si Si8 0.439524 0.905598 0.476933
O O1 0.500000 0.756409 0.750000
O O2 0.195757 0.725244 0.504316
O O3 0.558247 0.678236 0.608313
O O4 0.480342 0.838846 0.578581
O O5 0.900834 0.214579 0.787650
O O6 0.189430 0.100923 0.865297
O O7 0.128192 0.213657 0.541584
O O8 0.186666 0.352315 0.664329
O O9 0.168913 0.404830 0.375393
O O10 0.133208 0.507305 0.221744
O O11 0.393172 0.715778 0.046091
O O12 0.562271 0.583727 0.094748
O O13 0.500000 0.209843 0.750000
O O14 0.562392 0.130347 0.934328
O O15 0.500000 0.548021 0.250000
O O16 0.500000 0.000000 0.500000
#
# Coordination Sequence:
#
# PCOD9228994 Si02
#       8
#     4   2   4   2   4   4   4   4
#     4  10  24  41  64  93 127 171 215 262 323 397
#     4  10  19  36  65  94 118 168 210 264 307 380
#     4  11  19  39  71  92 115 163 230 259 311 380
#     4  12  29  40  59  96 140 174 204 276 349 388
#     4  11  23  44  61  89 128 166 219 263 319 392
#     4  11  19  40  71  92 115 165 217 263 301 383
#     4  12  23  43  69  96 126 167 222 279 329 381
#     4  10  22  41  61  96 135 161 206 268 325 382
#
# _framework density 19.226814999999998
#
# number of rings (size 3 to 8) (size 9 to 14) (size 15 to 20)
#    0.000    1.143    4.286    3.429    2.000    1.714 
#    2.571    1.429    0.000    0.000    0.000    0.000 
#    0.000    0.000    0.000    0.000    0.000    0.000 
#
# Total GULP energy -156009.797046 kJ/mol
# GULP energy per Si atom -5571.778466 kJ/mol
# Density = 1.918305 g / cm^3
# Si number density = 19.226815 Si / 1000 Ang^3
#
#
#
# Elastic Constant Matrix: (Units=GPa)
#
#
# Indices 1 2 3 4 5 6 
#
# 1 126.2306 71.7504 37.3596 0.0000 -0.9750 0.0000
# 2 71.7504 104.7101 63.2838 0.0000 13.1544 0.0000
# 3 37.3596 63.2838 104.6872 0.0000 -5.5627 0.0000
# 4 0.0000 0.0000 0.0000 10.0474 0.0000 8.1705
# 5 -0.9750 13.1544 -5.5627 0.0000 34.9612 0.0000
# 6 0.0000 0.0000 0.0000 8.1705 0.0000 26.0679
#
#
#
# Elastic Compliance Matrix: (Units=1/GPa)
#
#
# Indices 1 2 3 4 5 6 
#
# 1 0.013810 -0.011476 0.002278 0.000000 0.005066 0.000000
# 2 -0.011476 0.026606 -0.012644 0.000000 -0.012343 0.000000
# 3 0.002278 -0.012644 0.016781 0.000000 0.007491 0.000000
# 4 0.000000 0.000000 0.000000 0.133572 0.000000 -0.041866
# 5 0.005066 -0.012343 0.007491 0.000000 0.034580 0.000000
# 6 0.000000 0.000000 0.000000 -0.041866 0.000000 0.051483
#
#
# Mechanical properties :
#
#
# Convention : Reuss Voigt Hill
#
# Bulk Modulus (GPa) = 74.00297 75.60170 74.80234
# Shear Modulus (GPa) = 15.38360 25.09759 20.24060
#
# Velocity S-wave (km/s) = 2.83169 3.61687 3.24810
# Velocity P-wave (km/s) = 7.01886 7.53981 7.28399
#
# Compressibility (1/GPa) = 0.01351297
#
# Stress axis : x y z
#
# Youngs Moduli (GPa) = 72.41062 37.58503 59.59290
#
# Poissons Ratio (x) = 0.43134 -0.13577
# Poissons Ratio (y) = 0.83102 0.75349
# Poissons Ratio (z) = -0.16498 0.47522
#
# Static dielectric constant tensor:
#      x y z
#    x 1.770640 0.000000 0.005730 
#    y 0.000000 1.685880 0.000000 
#    z 0.005730 0.000000 1.680700 
# 
# From -- ./inp_files/47766.got.cif
#   From: 2010.05.17/outbox.cif.g08.bks.cpg/sg13_24_cif.got.tgz:47766.got - 2010.06.03 16:44:36.
