data_PCOD9228397
_publ_section_title
;
Structure prediction by ZEFSAII (Michael W. Deem and Ramdas Pophale) SiO2 
 PCOD9228397
Probable space group: P 2/C
;
_chemical_formula_sum "Si O2"
_cell_formula_units_Z 32
_cell_length_a 10.147579
_cell_length_b 9.545585
_cell_length_c 20.182451
_cell_angle_alpha 90.000000
_cell_angle_beta 142.758749
_cell_angle_gamma 90.000000
_cell_volume 1183.090680
_symmetry_space_group_name_H-M "P 2/C"
_symmetry_group_IT_number 13
_symmetry_cell_setting 'monoclinic'
loop_
_space_group_symop_operation_xyz
x,y,z
-x,y,1/2-z
-x,-y,-z
x,-y,1/2+z
loop_
_atom_site_type_symbol
_atom_site_label
_atom_site_fract_x
_atom_site_fract_y
_atom_site_fract_z
Si Si1 0.969429 0.240788 0.604000
Si Si2 0.793288 0.979866 0.210308
Si Si3 0.835467 0.832529 0.449299
Si Si4 0.277393 0.100095 0.186745
Si Si5 0.110364 0.533254 0.650358
Si Si6 0.698038 0.438229 0.151603
Si Si7 0.599328 0.732041 0.047756
Si Si8 0.335438 0.451556 0.607464
O O1 0.999379 0.231686 0.538733
O O2 0.726495 0.238346 0.531046
O O3 0.086902 0.118519 0.688718
O O4 0.099770 0.377727 0.675890
O O5 0.675624 0.078733 0.215924
O O6 0.636846 0.872306 0.106150
O O7 0.000000 0.033073 0.250000
O O8 0.741230 0.969847 0.374486
O O9 0.641608 0.718659 0.378535
O O10 0.018517 0.852720 0.579717
O O11 0.500000 0.175675 0.250000
O O12 0.127489 0.617599 0.725691
O O13 0.278214 0.519549 0.655852
O O14 0.882977 0.547895 0.523184
O O15 0.714030 0.590396 0.122340
O O16 0.511354 0.472746 0.132659
O O17 0.631395 0.326410 0.069019
#
# Coordination Sequence:
#
# PCOD9228397 Si02
#       8
#     4   4   4   4   4   4   4   4
#     4   9  16  34  55  77 116 154 192 234 295 360
#     4   9  18  34  63  86 114 155 197 249 307 364
#     4   9  21  38  59  86 117 147 199 263 317 354
#     4  10  21  39  65  90 112 151 208 272 315 368
#     4  10  19  34  53  83 118 161 194 244 287 361
#     4  11  21  32  53  85 125 161 201 238 284 367
#     4  10  20  32  51  86 119 157 196 238 285 370
#     4  10  21  35  54  82 122 159 198 247 307 356
#
# _framework density 27.047799000000001
#
# number of rings (size 3 to 8) (size 9 to 14) (size 15 to 20)
#    0.000    2.250    2.500    0.375    1.750    0.000 
#    2.250    0.000    2.750    3.000    0.000    0.000 
#    0.000    0.000    0.000    0.000    0.000    0.000 
#
# Total GULP energy -178332.462647 kJ/mol
# GULP energy per Si atom -5572.889458 kJ/mol
# Density = 2.698624 g / cm^3
# Si number density = 27.047799 Si / 1000 Ang^3
#
#
#
# Elastic Constant Matrix: (Units=GPa)
#
#
# Indices 1 2 3 4 5 6 
#
# 1 107.6674 10.0938 23.8372 0.0000 -11.9121 0.0000
# 2 10.0938 43.0341 25.8705 0.0000 -9.1957 0.0000
# 3 23.8372 25.8705 136.4277 0.0000 -18.2553 0.0000
# 4 0.0000 0.0000 0.0000 28.1000 0.0000 -5.0746
# 5 -11.9121 -9.1957 -18.2553 0.0000 34.2972 0.0000
# 6 0.0000 0.0000 0.0000 -5.0746 0.0000 11.0895
#
#
#
# Elastic Compliance Matrix: (Units=1/GPa)
#
#
# Indices 1 2 3 4 5 6 
#
# 1 0.009932 -0.001072 -0.001194 0.000000 0.002527 0.000000
# 2 -0.001072 0.027073 -0.004334 0.000000 0.004580 0.000000
# 3 -0.001194 -0.004334 0.008774 0.000000 0.003094 0.000000
# 4 0.000000 0.000000 0.000000 0.038793 0.000000 0.017752
# 5 0.002527 0.004580 0.003094 0.000000 0.032909 0.000000
# 6 0.000000 0.000000 0.000000 0.017752 0.000000 0.098299
#
#
# Mechanical properties :
#
#
# Convention : Reuss Voigt Hill
#
# Bulk Modulus (GPa) = 30.69374 45.19248 37.94311
# Shear Modulus (GPa) = 20.84732 29.85252 25.34992
#
# Velocity S-wave (km/s) = 2.77927 3.32579 3.06474
# Velocity P-wave (km/s) = 4.65529 5.61182 5.15578
#
# Compressibility (1/GPa) = 0.03257994
#
# Stress axis : x y z
#
# Youngs Moduli (GPa) = 100.68195 36.93772 113.96989
#
# Poissons Ratio (x) = 0.03959 0.13608
# Poissons Ratio (y) = 0.10792 0.49390
# Poissons Ratio (z) = 0.12022 0.16007
#
# Static dielectric constant tensor:
#      x y z
#    x 2.184850 0.000000 0.128460 
#    y 0.000000 2.464750 0.000000 
#    z 0.128460 0.000000 2.449930 
# 
# From -- ./inp_files/78490.got.cif
#   From: 2010.05.17/outbox.cif.g08.bks.cpg/sg13_40_cif.got.tgz:78490.got - 2010.06.03 16:44:36.
