data_PCOD9228848
_publ_section_title
;
Structure prediction by ZEFSAII (Michael W. Deem and Ramdas Pophale) SiO2 
 PCOD9228848
Probable space group: P 2/C
;
_chemical_formula_sum "Si O2"
_cell_formula_units_Z 12
_cell_length_a 7.899155
_cell_length_b 5.095728
_cell_length_c 14.292131
_cell_angle_alpha 90.000000
_cell_angle_beta 125.238500
_cell_angle_gamma 90.000000
_cell_volume 469.869147
_symmetry_space_group_name_H-M "P 2/C"
_symmetry_group_IT_number 13
_symmetry_cell_setting 'monoclinic'
loop_
_space_group_symop_operation_xyz
x,y,z
-x,y,1/2-z
-x,-y,-z
x,-y,1/2+z
loop_
_atom_site_type_symbol
_atom_site_label
_atom_site_fract_x
_atom_site_fract_y
_atom_site_fract_z
Si Si1 0.700478 0.693905 0.904245
Si Si2 0.626127 0.184406 0.970117
Si Si3 0.007039 0.503263 0.646516
O O1 0.776353 0.592069 0.828714
O O2 0.561536 0.474074 0.913435
O O3 0.904440 0.690746 0.037513
O O4 0.635202 0.992573 0.884189
O O5 0.846574 0.252681 0.087909
O O6 0.500000 0.000000 0.000000
O O7 0.000000 0.405593 0.750000
#
# Coordination Sequence:
#
# PCOD9228848 Si02
#       3
#     4   4   4
#     4   9  20  36  56  79 110 148 181 230 274 328
#     4  10  19  36  58  78 112 148 180 227 290 319
#     4   9  20  35  59  82 108 147 194 224 268 335
#
# _framework density 25.539027000000001
#
# number of rings (size 3 to 8) (size 9 to 14) (size 15 to 20)
#    2.000    0.667    0.000    2.000    0.000    1.333 
#    0.000    1.667    0.000    0.000    0.000    0.000 
#    0.000    0.000    0.000    0.000    0.000    0.000 
#
# Total GULP energy -66842.727465 kJ/mol
# GULP energy per Si atom -5570.227289 kJ/mol
# Density = 2.548090 g / cm^3
# Si number density = 25.539027 Si / 1000 Ang^3
#
#
#
# Elastic Constant Matrix: (Units=GPa)
#
#
# Indices 1 2 3 4 5 6 
#
# 1 58.8607 5.6350 16.9898 0.0000 -21.1079 0.0000
# 2 5.6350 106.8290 -14.0300 0.0000 17.1844 0.0000
# 3 16.9898 -14.0300 135.8956 0.0000 -11.4795 0.0000
# 4 0.0000 0.0000 0.0000 -15.5762 0.0000 5.7282
# 5 -21.1079 17.1844 -11.4795 0.0000 31.0043 0.0000
# 6 0.0000 0.0000 0.0000 5.7282 0.0000 33.5226
#
#
#
# Elastic Compliance Matrix: (Units=1/GPa)
#
#
# Indices 1 2 3 4 5 6 
#
# 1 0.024658 -0.004549 -0.001983 0.000000 0.018574 0.000000
# 2 -0.004549 0.011164 0.000967 0.000000 -0.008926 0.000000
# 3 -0.001983 0.000967 0.007791 0.000000 0.000998 0.000000
# 4 0.000000 0.000000 0.000000 -0.060405 0.000000 0.010322
# 5 0.018574 -0.008926 0.000998 0.000000 0.050216 0.000000
# 6 0.000000 0.000000 0.000000 0.010322 0.000000 0.028067
#
#
# Mechanical properties :
#
#
# Convention : Reuss Voigt Hill
#
# Bulk Modulus (GPa) = 30.78610 35.41941 33.10275
# Shear Modulus (GPa) = 59.91715 29.32285 44.62000
#
# Velocity S-wave (km/s) = 4.84891 3.39212 4.18440
# Velocity P-wave (km/s) = 6.59014 5.40748 6.02789
#
# Compressibility (1/GPa) = 0.03248219
#
# Stress axis : x y z
#
# Youngs Moduli (GPa) = 40.55450 89.57665 128.35762
#
# Poissons Ratio (x) = 0.40748 0.25458
# Poissons Ratio (y) = 0.18448 -0.12415
# Poissons Ratio (z) = 0.08044 -0.08664
#
# Static dielectric constant tensor:
#      x y z
#    x 2.181010 0.000000 -0.025740 
#    y 0.000000 1.994470 0.000000 
#    z -0.025740 0.000000 2.072170 
# 
# From -- ./inp_files/27059.got.cif
#   From: 2010.05.17/outbox.cif.g08.bks.cpg/sg13_14_cif.got.tgz:27059.got - 2010.06.03 16:44:36.
