data_PCOD9228871
_publ_section_title
;
Structure prediction by ZEFSAII (Michael W. Deem and Ramdas Pophale) SiO2 
 PCOD9228871
Probable space group: P 2/C
;
_chemical_formula_sum "Si O2"
_cell_formula_units_Z 26
_cell_length_a 22.210235
_cell_length_b 12.649303
_cell_length_c 5.552483
_cell_angle_alpha 90.000000
_cell_angle_beta 56.518651
_cell_angle_gamma 90.000000
_cell_volume 1301.089332
_symmetry_space_group_name_H-M "P 2/C"
_symmetry_group_IT_number 13
_symmetry_cell_setting 'monoclinic'
loop_
_space_group_symop_operation_xyz
x,y,z
-x,y,1/2-z
-x,-y,-z
x,-y,1/2+z
loop_
_atom_site_type_symbol
_atom_site_label
_atom_site_fract_x
_atom_site_fract_y
_atom_site_fract_z
Si Si1 0.858782 0.407088 0.306921
Si Si2 0.660057 0.932452 0.387150
Si Si3 0.000000 0.935910 0.250000
Si Si4 0.719406 0.454617 0.082877
Si Si5 0.898855 0.237619 0.834692
Si Si6 0.000000 0.359973 0.250000
Si Si7 0.233857 0.243075 0.676192
Si Si8 0.500000 0.933651 0.750000
O O1 0.803197 0.502411 0.386569
O O2 0.810668 0.319534 0.549600
O O3 0.934265 0.426696 0.278958
O O4 0.879860 0.341752 0.025391
O O5 0.719512 0.842397 0.289365
O O6 0.579223 0.881842 0.573559
O O7 0.666632 0.006540 0.614915
O O8 0.068552 0.858068 0.088487
O O9 0.000000 0.000000 0.500000
O O10 0.688411 0.499830 0.900250
O O11 0.718958 0.328056 0.078242
O O12 0.827769 0.196456 0.857936
O O13 0.960507 0.281052 0.520971
O O14 0.500000 0.000000 0.500000
#
# Coordination Sequence:
#
# PCOD9228871 Si02
#       8
#     4   4   2   4   4   2   4   2
#     4  10  20  36  59  79 109 146 189 249 302 353
#     4  10  22  38  62  93 125 159 194 231 284 335
#     4  12  27  40  55  72  96 144 192 232 290 340
#     4  10  20  37  56  83 110 147 182 235 298 347
#     4  11  21  39  57  73 110 141 193 246 294 353
#     4  10  19  36  59  76 100 146 192 246 308 352
#     4  10  23  36  59  85 118 146 193 239 286 353
#     4   8  16  36  60  88 124 156 190 234 274 334
#
# _framework density 19.983256000000001
#
# number of rings (size 3 to 8) (size 9 to 14) (size 15 to 20)
#    0.000    1.846    3.077    0.462    4.308    1.231 
#    0.000    7.692    0.000    0.000    0.000    4.308 
#    0.000    0.000    0.000    0.000    0.000    0.000 
#
# Total GULP energy -144991.733836 kJ/mol
# GULP energy per Si atom -5576.605148 kJ/mol
# Density = 1.993777 g / cm^3
# Si number density = 19.983256 Si / 1000 Ang^3
#
#
#
# Elastic Constant Matrix: (Units=GPa)
#
#
# Indices 1 2 3 4 5 6 
#
# 1 104.2066 45.3484 24.4109 0.0000 7.6923 0.0000
# 2 45.3484 70.7712 10.9653 0.0000 5.6986 0.0000
# 3 24.4109 10.9653 64.7978 0.0000 23.8436 0.0000
# 4 0.0000 0.0000 0.0000 15.2810 0.0000 3.1003
# 5 7.6923 5.6986 23.8436 0.0000 33.6791 0.0000
# 6 0.0000 0.0000 0.0000 3.1003 0.0000 9.9908
#
#
#
# Elastic Compliance Matrix: (Units=1/GPa)
#
#
# Indices 1 2 3 4 5 6 
#
# 1 0.014255 -0.008558 -0.004404 0.000000 0.001310 0.000000
# 2 -0.008558 0.019671 0.000542 0.000000 -0.001757 0.000000
# 3 -0.004404 0.000542 0.022534 0.000000 -0.015039 0.000000
# 4 0.000000 0.000000 0.000000 0.069838 0.000000 -0.021671
# 5 0.001310 -0.001757 -0.015039 0.000000 0.040337 0.000000
# 6 0.000000 0.000000 0.000000 -0.021671 0.000000 0.106817
#
#
# Mechanical properties :
#
#
# Convention : Reuss Voigt Hill
#
# Bulk Modulus (GPa) = 31.62541 44.58053 38.10297
# Shear Modulus (GPa) = 16.19001 22.39358 19.29180
#
# Velocity S-wave (km/s) = 2.84945 3.35119 3.11046
# Velocity P-wave (km/s) = 5.16586 6.10994 5.65763
#
# Compressibility (1/GPa) = 0.03162014
#
# Stress axis : x y z
#
# Youngs Moduli (GPa) = 70.14878 50.83600 44.37733
#
# Poissons Ratio (x) = 0.43503 0.19545
# Poissons Ratio (y) = 0.60030 -0.02404
# Poissons Ratio (z) = 0.30896 -0.02754
#
# Static dielectric constant tensor:
#      x y z
#    x 1.761400 0.000000 0.079960 
#    y 0.000000 1.698020 0.000000 
#    z 0.079960 0.000000 1.818590 
# 
# From -- ./inp_files/6839.got.cif
#   From: 2010.05.17/outbox.cif.g08.bks.cpg/sg13_4_cif.got.tgz:6839.got - 2010.06.03 16:44:36.
