data_PCOD9228379
_publ_section_title
;
Structure prediction by ZEFSAII (Michael W. Deem and Ramdas Pophale) SiO2 
 PCOD9228379
Probable space group: P 2/C
;
_chemical_formula_sum "Si O2"
_cell_formula_units_Z 20
_cell_length_a 27.982193
_cell_length_b 5.267478
_cell_length_c 4.990114
_cell_angle_alpha 90.000000
_cell_angle_beta 89.525283
_cell_angle_gamma 90.000000
_cell_volume 735.495532
_symmetry_space_group_name_H-M "P 2/C"
_symmetry_group_IT_number 13
_symmetry_cell_setting 'monoclinic'
loop_
_space_group_symop_operation_xyz
x,y,z
-x,y,1/2-z
-x,-y,-z
x,-y,1/2+z
loop_
_atom_site_type_symbol
_atom_site_label
_atom_site_fract_x
_atom_site_fract_y
_atom_site_fract_z
Si Si1 0.752932 0.662210 0.680426
Si Si2 0.650105 0.878663 0.638478
Si Si3 0.148955 0.681439 0.673316
Si Si4 0.549213 0.661040 0.827485
Si Si5 0.049815 0.681055 0.815322
O O1 0.755833 0.583762 0.372212
O O2 0.700564 0.770170 0.734665
O O3 0.800527 0.813640 0.765116
O O4 0.600088 0.773788 0.748100
O O5 0.650272 0.863121 0.317381
O O6 0.148373 0.558771 0.380550
O O7 0.099422 0.820042 0.744482
O O8 0.500000 0.802138 0.750000
O O9 0.547502 0.412612 0.636511
O O10 0.049828 0.439058 0.609958
O O11 0.000000 0.817523 0.750000
#
# Coordination Sequence:
#
# PCOD9228379 Si02
#       5
#     4   4   4   4   4
#     4  10  19  34  53  70  95 132 171 204 239 292
#     4  12  24  36  53  79 108 133 163 206 252 290
#     4   8  14  23  38  59  81 113 154 191 230 280
#     4  10  21  39  61  81 103 135 171 201 237 292
#     4   8  12  18  29  49  79 109 137 178 234 284
#
# _framework density 27.192553
#
# number of rings (size 3 to 8) (size 9 to 14) (size 15 to 20)
#    0.000    2.400    0.000    3.600    0.000    0.800 
#    0.000    0.000    0.000    0.000    0.000    0.000 
#    0.000    1.600    0.000    0.000    0.000   12.800 
#
# Total GULP energy -111702.544086 kJ/mol
# GULP energy per Si atom -5585.127204 kJ/mol
# Density = 2.713066 g / cm^3
# Si number density = 27.192553 Si / 1000 Ang^3
#
#
#
# Elastic Constant Matrix: (Units=GPa)
#
#
# Indices 1 2 3 4 5 6 
#
# 1 296.8178 19.3389 11.9239 0.0000 -19.1443 0.0000
# 2 19.3389 29.7826 16.1007 0.0000 1.6082 0.0000
# 3 11.9239 16.1007 130.2921 0.0000 -6.9064 0.0000
# 4 0.0000 0.0000 0.0000 35.3912 0.0000 22.2262
# 5 -19.1443 1.6082 -6.9064 0.0000 48.9088 0.0000
# 6 0.0000 0.0000 0.0000 22.2262 0.0000 -112.1862
#
#
#
# Elastic Compliance Matrix: (Units=1/GPa)
#
#
# Indices 1 2 3 4 5 6 
#
# 1 0.003625 -0.002463 0.000053 0.000000 0.001507 0.000000
# 2 -0.002463 0.037817 -0.004599 0.000000 -0.002857 0.000000
# 3 0.000053 -0.004599 0.008310 0.000000 0.001345 0.000000
# 4 0.000000 0.000000 0.000000 0.025129 0.000000 0.004979
# 5 0.001507 -0.002857 0.001345 0.000000 0.021320 0.000000
# 6 0.000000 0.000000 0.000000 0.004979 0.000000 -0.007927
#
#
# Mechanical properties :
#
#
# Convention : Reuss Voigt Hill
#
# Bulk Modulus (GPa) = 27.98661 61.29104 44.63882
# Shear Modulus (GPa) = 43.78142 21.72468 32.75305
#
# Velocity S-wave (km/s) = 4.01690 2.82958 3.47434
# Velocity P-wave (km/s) = 5.64166 5.76749 5.70492
#
# Compressibility (1/GPa) = 0.03573137
#
# Stress axis : x y z
#
# Youngs Moduli (GPa) = 275.88673 26.44323 120.33844
#
# Poissons Ratio (x) = 0.06514 -0.00633
# Poissons Ratio (y) = 0.67963 0.55346
# Poissons Ratio (z) = -0.01451 0.12162
#
# Static dielectric constant tensor:
#      x y z
#    x 2.244670 0.000000 0.004640 
#    y 0.000000 2.146730 0.000000 
#    z 0.004640 0.000000 2.074890 
# 
# From -- ./inp_files/7629.got.cif
#   From: 2010.05.17/outbox.cif.g08.bks.cpg/sg13_4_cif.got.tgz:7629.got - 2010.06.03 16:44:36.
