data_PCOD9228136
_publ_section_title
;
Structure prediction by ZEFSAII (Michael W. Deem and Ramdas Pophale) SiO2 
 PCOD9228136
Probable space group: P 2/C
;
_chemical_formula_sum "Si O2"
_cell_formula_units_Z 20
_cell_length_a 25.009992
_cell_length_b 6.841754
_cell_length_c 5.294346
_cell_angle_alpha 90.000000
_cell_angle_beta 101.768740
_cell_angle_gamma 90.000000
_cell_volume 886.883594
_symmetry_space_group_name_H-M "P 2/C"
_symmetry_group_IT_number 13
_symmetry_cell_setting 'monoclinic'
loop_
_space_group_symop_operation_xyz
x,y,z
-x,y,1/2-z
-x,-y,-z
x,-y,1/2+z
loop_
_atom_site_type_symbol
_atom_site_label
_atom_site_fract_x
_atom_site_fract_y
_atom_site_fract_z
Si Si1 0.338153 0.205716 0.698629
Si Si2 0.119041 0.134417 0.383832
Si Si3 0.228963 0.374171 0.443317
Si Si4 0.500000 0.134119 0.250000
Si Si5 0.000000 0.134814 0.250000
Si Si6 0.618123 0.237786 0.258081
O O1 0.276559 0.214951 0.539179
O O2 0.374157 0.310179 0.518568
O O3 0.363962 0.991144 0.759348
O O4 0.342375 0.300982 0.977975
O O5 0.169586 0.279122 0.412725
O O6 0.059166 0.236668 0.311215
O O7 0.122370 0.015093 0.650070
O O8 0.234951 0.532640 0.672753
O O9 0.556212 0.252131 0.290497
O O10 0.500000 0.000000 0.500000
O O11 0.000000 0.000000 0.500000
#
# Coordination Sequence:
#
# PCOD9228136 Si02
#       6
#     4   4   4   2   2   4
#     4  10  20  33  52  75 113 144 188 225 282 342
#     4  10  21  38  65  90 115 157 199 248 288 348
#     4  12  26  41  56  85 125 161 197 242 296 347
#     4  12  16  30  48  88 124 128 164 260 310 318
#     4   8  16  34  58  90 118 142 194 246 298 336
#     4  10  19  32  55  88 105 142 187 241 284 347
#
# _framework density 22.550875999999999
#
# number of rings (size 3 to 8) (size 9 to 14) (size 15 to 20)
#    0.000    1.600    4.000    2.400    5.600    0.000 
#    0.000    1.000    0.000    0.000    0.000   23.800 
#    0.000    0.000    0.000    0.000    0.000    0.000 
#
# Total GULP energy -111649.607114 kJ/mol
# GULP energy per Si atom -5582.480356 kJ/mol
# Density = 2.249955 g / cm^3
# Si number density = 22.550876 Si / 1000 Ang^3
#
#
#
# Elastic Constant Matrix: (Units=GPa)
#
#
# Indices 1 2 3 4 5 6 
#
# 1 159.2546 2.2167 11.3138 0.0000 23.6919 0.0000
# 2 2.2167 48.9294 -15.1355 0.0000 7.2735 0.0000
# 3 11.3138 -15.1355 139.2568 0.0000 -21.0653 0.0000
# 4 0.0000 0.0000 0.0000 17.6840 0.0000 -8.4371
# 5 23.6919 7.2735 -21.0653 0.0000 53.3112 0.0000
# 6 0.0000 0.0000 0.0000 -8.4371 0.0000 21.4335
#
#
#
# Elastic Compliance Matrix: (Units=1/GPa)
#
#
# Indices 1 2 3 4 5 6 
#
# 1 0.006876 -0.000135 -0.001098 0.000000 -0.003471 0.000000
# 2 -0.000135 0.021375 0.002023 0.000000 -0.002057 0.000000
# 3 -0.001098 0.002023 0.008000 0.000000 0.003373 0.000000
# 4 0.000000 0.000000 0.000000 0.069625 0.000000 0.027407
# 5 -0.003471 -0.002057 0.003373 0.000000 0.021914 0.000000
# 6 0.000000 0.000000 0.000000 0.027407 0.000000 0.057445
#
#
# Mechanical properties :
#
#
# Convention : Reuss Voigt Hill
#
# Bulk Modulus (GPa) = 26.43394 38.24786 32.34090
# Shear Modulus (GPa) = 25.47569 41.75544 33.61557
#
# Velocity S-wave (km/s) = 3.36475 4.30770 3.86509
# Velocity P-wave (km/s) = 5.18099 6.46059 5.85585
#
# Compressibility (1/GPa) = 0.03783015
#
# Stress axis : x y z
#
# Youngs Moduli (GPa) = 145.44285 46.78293 124.99398
#
# Poissons Ratio (x) = 0.00633 0.13729
# Poissons Ratio (y) = 0.01967 -0.25287
# Poissons Ratio (z) = 0.15975 -0.09465
#
# Static dielectric constant tensor:
#      x y z
#    x 1.849990 0.000000 -0.014050 
#    y 0.000000 1.507140 0.000000 
#    z -0.014050 0.000000 1.896440 
# 
# From -- ./inp_files/7306.got.cif
#   From: 2010.05.17/outbox.cif.g08.bks.cpg/sg13_4_cif.got.tgz:7306.got - 2010.06.03 16:44:36.
