data_PCOD9228198
_publ_section_title
;
Structure prediction by ZEFSAII (Michael W. Deem and Ramdas Pophale) SiO2 
 PCOD9228198
Probable space group: P 2/C
;
_chemical_formula_sum "Si O2"
_cell_formula_units_Z 30
_cell_length_a 5.127796
_cell_length_b 8.999661
_cell_length_c 25.866340
_cell_angle_alpha 90.000000
_cell_angle_beta 73.250039
_cell_angle_gamma 90.000000
_cell_volume 1143.044424
_symmetry_space_group_name_H-M "P 2/C"
_symmetry_group_IT_number 13
_symmetry_cell_setting 'monoclinic'
loop_
_space_group_symop_operation_xyz
x,y,z
-x,y,1/2-z
-x,-y,-z
x,-y,1/2+z
loop_
_atom_site_type_symbol
_atom_site_label
_atom_site_fract_x
_atom_site_fract_y
_atom_site_fract_z
Si Si1 0.616220 0.192278 0.962072
Si Si2 0.624277 0.095542 0.793483
Si Si3 0.390033 0.057485 0.402451
Si Si4 0.847194 0.656122 0.343797
Si Si5 0.899905 0.335900 0.519102
Si Si6 0.296402 0.476797 0.867047
Si Si7 0.000000 0.827736 0.750000
Si Si8 0.056486 0.763683 0.627528
O O1 0.476705 0.042934 0.947069
O O2 0.757169 0.275632 0.904777
O O3 0.357846 0.283331 0.999187
O O4 0.860391 0.213803 0.989521
O O5 0.500000 0.163002 0.750000
O O6 0.432091 0.056148 0.852127
O O7 0.833218 0.207498 0.806496
O O8 0.747953 0.938850 0.770192
O O9 0.094374 0.116893 0.401644
O O10 0.624175 0.187399 0.388374
O O11 0.622276 0.527489 0.344214
O O12 0.150413 0.595868 0.326730
O O13 0.761358 0.365752 0.582401
O O14 0.000000 0.500000 0.500000
O O15 0.095337 0.617162 0.886251
O O16 0.973301 0.759333 0.693783
#
# Coordination Sequence:
#
# PCOD9228198 Si02
#       8
#     4   4   4   4   4   4   2   4
#     4   9  18  33  55  83 109 130 180 225 262 316
#     4  10  19  33  53  75 103 128 181 228 263 299
#     4  10  20  34  57  79 102 148 180 222 265 306
#     4   9  20  34  53  74 103 136 170 218 268 306
#     4  10  19  34  59  84 109 141 175 226 279 329
#     4  10  21  38  53  78 109 142 177 212 270 341
#     4  10  22  34  52  76 104 136 186 226 256 308
#     4  11  21  36  55  73 108 146 182 213 265 327
#
# _framework density 26.245697
#
# number of rings (size 3 to 8) (size 9 to 14) (size 15 to 20)
#    0.000    2.133    1.333    2.000    1.867    3.200 
#    2.400    0.000    0.000    4.800    0.000    0.000 
#    0.000    0.000    0.000    0.000    0.000    0.000 
#
# Total GULP energy -167264.552667 kJ/mol
# GULP energy per Si atom -5575.485089 kJ/mol
# Density = 2.618596 g / cm^3
# Si number density = 26.245697 Si / 1000 Ang^3
#
#
#
# Elastic Constant Matrix: (Units=GPa)
#
#
# Indices 1 2 3 4 5 6 
#
# 1 108.9549 -8.6312 38.0312 0.0000 16.7342 0.0000
# 2 -8.6312 53.8299 9.0807 0.0000 -2.9012 0.0000
# 3 38.0312 9.0807 87.9295 0.0000 20.6157 0.0000
# 4 0.0000 0.0000 0.0000 39.7500 0.0000 4.8587
# 5 16.7342 -2.9012 20.6157 0.0000 27.0580 0.0000
# 6 0.0000 0.0000 0.0000 4.8587 0.0000 37.8863
#
#
#
# Elastic Compliance Matrix: (Units=1/GPa)
#
#
# Indices 1 2 3 4 5 6 
#
# 1 0.011428 0.002382 -0.004373 0.000000 -0.003481 0.000000
# 2 0.002382 0.019819 -0.003932 0.000000 0.003648 0.000000
# 3 -0.004373 -0.003932 0.015992 0.000000 -0.009901 0.000000
# 4 0.000000 0.000000 0.000000 0.025558 0.000000 -0.003278
# 5 -0.003481 0.003648 -0.009901 0.000000 0.047045 0.000000
# 6 0.000000 0.000000 0.000000 -0.003278 0.000000 0.026815
#
#
# Mechanical properties :
#
#
# Convention : Reuss Voigt Hill
#
# Bulk Modulus (GPa) = 28.25429 36.40840 32.33134
# Shear Modulus (GPa) = 29.36000 35.08776 32.22388
#
# Velocity S-wave (km/s) = 3.34827 3.66033 3.50777
# Velocity P-wave (km/s) = 5.07312 5.63615 5.36203
#
# Compressibility (1/GPa) = 0.03539286
#
# Stress axis : x y z
#
# Youngs Moduli (GPa) = 87.50648 50.45664 62.53285
#
# Poissons Ratio (x) = -0.12021 0.27344
# Poissons Ratio (y) = -0.20848 0.24591
# Poissons Ratio (z) = 0.38264 0.19842
#
# Static dielectric constant tensor:
#      x y z
#    x 2.075600 0.000000 0.009900 
#    y 0.000000 2.148350 0.000000 
#    z 0.009900 0.000000 2.149410 
# 
# From -- ./inp_files/94865.got.cif
#   From: 2010.05.17/outbox.cif.g08.bks.cpg/sg13_48_cif.got.tgz:94865.got - 2010.06.03 16:44:36.
