data_PCOD9228327
_publ_section_title
;
Structure prediction by ZEFSAII (Michael W. Deem and Ramdas Pophale) SiO2 
 PCOD9228327
Probable space group: P 2/C
;
_chemical_formula_sum "Si O2"
_cell_formula_units_Z 32
_cell_length_a 18.580153
_cell_length_b 9.441745
_cell_length_c 25.574188
_cell_angle_alpha 90.000000
_cell_angle_beta 17.470579
_cell_angle_gamma 90.000000
_cell_volume 1346.906000
_symmetry_space_group_name_H-M "P 2/C"
_symmetry_group_IT_number 13
_symmetry_cell_setting 'monoclinic'
loop_
_space_group_symop_operation_xyz
x,y,z
-x,y,1/2-z
-x,-y,-z
x,-y,1/2+z
loop_
_atom_site_type_symbol
_atom_site_label
_atom_site_fract_x
_atom_site_fract_y
_atom_site_fract_z
Si Si1 0.356442 0.590114 0.748753
Si Si2 0.225053 0.033187 0.928918
Si Si3 0.827821 0.071530 0.417080
Si Si4 0.849836 0.355545 0.544832
Si Si5 0.985074 0.651227 0.685003
Si Si6 0.413941 0.853473 0.584817
Si Si7 0.353406 0.426261 0.554805
Si Si8 0.646080 0.106128 0.255818
O O1 0.340728 0.467168 0.801608
O O2 0.501857 0.540356 0.597832
O O3 0.460665 0.743859 0.689894
O O4 0.084244 0.629420 0.919228
O O5 0.500000 0.992211 0.750000
O O6 0.233592 0.194286 0.902126
O O7 0.166262 0.936757 0.919518
O O8 0.102407 0.026350 0.071277
O O9 0.000000 0.025880 0.250000
O O10 0.827683 0.243513 0.417498
O O11 0.564710 0.008633 0.592378
O O12 0.927729 0.392644 0.432501
O O13 0.762012 0.761658 0.830310
O O14 0.895886 0.507469 0.772182
O O15 0.630109 0.742787 0.447686
O O16 0.282725 0.875292 0.732244
O O17 0.500000 0.000000 0.500000
O O18 0.500000 0.500000 0.500000
#
# Coordination Sequence:
#
# PCOD9228327 Si02
#       8
#     4   4   4   4   4   4   4   4
#     4  10  20  35  59  89 121 158 189 253 307 352
#     4   9  21  38  60  83 117 163 202 247 302 365
#     4  10  21  38  63  83 116 161 207 251 298 370
#     4  10  19  36  57  86 120 152 203 247 290 365
#     4  10  19  38  60  90 119 158 204 253 298 367
#     4  10  19  33  57  91 124 158 197 245 311 360
#     4   9  17  33  55  83 122 156 192 241 301 361
#     4  10  20  40  57  87 124 163 199 246 307 364
#
# _framework density 23.758151999999999
#
# number of rings (size 3 to 8) (size 9 to 14) (size 15 to 20)
#    0.000    2.250    3.750    0.750    0.000    4.500 
#    0.000    4.375    0.000   19.500    0.000    0.000 
#    0.000    0.000    0.000    0.000    0.000    0.000 
#
# Total GULP energy -178623.218150 kJ/mol
# GULP energy per Si atom -5581.975567 kJ/mol
# Density = 2.370408 g / cm^3
# Si number density = 23.758152 Si / 1000 Ang^3
#
#
#
# Elastic Constant Matrix: (Units=GPa)
#
#
# Indices 1 2 3 4 5 6 
#
# 1 92.9622 47.7115 25.3977 0.0000 25.2822 0.0000
# 2 47.7115 138.4777 55.5314 0.0000 33.8799 0.0000
# 3 25.3977 55.5314 64.5587 0.0000 37.6730 0.0000
# 4 0.0000 0.0000 0.0000 49.2026 0.0000 7.6182
# 5 25.2822 33.8799 37.6730 0.0000 49.9036 0.0000
# 6 0.0000 0.0000 0.0000 7.6182 0.0000 30.4498
#
#
#
# Elastic Compliance Matrix: (Units=1/GPa)
#
#
# Indices 1 2 3 4 5 6 
#
# 1 0.013893 -0.003880 0.000790 0.000000 -0.005001 0.000000
# 2 -0.003880 0.012117 -0.009371 0.000000 0.000814 0.000000
# 3 0.000790 -0.009371 0.035320 0.000000 -0.020702 0.000000
# 4 0.000000 0.000000 0.000000 0.021143 0.000000 -0.005290
# 5 -0.005001 0.000814 -0.020702 0.000000 0.037648 0.000000
# 6 0.000000 0.000000 0.000000 -0.005290 0.000000 0.034164
#
#
# Mechanical properties :
#
#
# Convention : Reuss Voigt Hill
#
# Bulk Modulus (GPa) = 27.46664 61.47555 44.47110
# Shear Modulus (GPa) = 26.13104 37.06841 31.59973
#
# Velocity S-wave (km/s) = 3.32004 3.95427 3.65095
# Velocity P-wave (km/s) = 5.12668 6.83960 6.04413
#
# Compressibility (1/GPa) = 0.03640780
#
# Stress axis : x y z
#
# Youngs Moduli (GPa) = 71.98128 82.52803 28.31229
#
# Poissons Ratio (x) = 0.32021 -0.02237
# Poissons Ratio (y) = 0.27929 0.26532
# Poissons Ratio (z) = -0.05688 0.77339
#
# Static dielectric constant tensor:
#      x y z
#    x 2.065190 0.000000 -0.068520 
#    y 0.000000 1.942180 0.000000 
#    z -0.068520 0.000000 1.964160 
# 
# From -- ./inp_files/93552.got.cif
#   From: 2010.05.17/outbox.cif.g08.bks.cpg/sg13_47_cif.got.tgz:93552.got - 2010.06.03 16:44:36.
