data_PCOD9228294
_publ_section_title
;
Structure prediction by ZEFSAII (Michael W. Deem and Ramdas Pophale) SiO2 
 PCOD9228294
Probable space group: P 2/C
;
_chemical_formula_sum "Si O2"
_cell_formula_units_Z 20
_cell_length_a 9.270308
_cell_length_b 13.891875
_cell_length_c 7.551823
_cell_angle_alpha 90.000000
_cell_angle_beta 57.535209
_cell_angle_gamma 90.000000
_cell_volume 820.551664
_symmetry_space_group_name_H-M "P 2/C"
_symmetry_group_IT_number 13
_symmetry_cell_setting 'monoclinic'
loop_
_space_group_symop_operation_xyz
x,y,z
-x,y,1/2-z
-x,-y,-z
x,-y,1/2+z
loop_
_atom_site_type_symbol
_atom_site_label
_atom_site_fract_x
_atom_site_fract_y
_atom_site_fract_z
Si Si1 0.160238 0.416721 0.024909
Si Si2 0.303308 0.136958 0.341381
Si Si3 0.696711 0.080465 0.566513
Si Si4 0.031803 0.228023 0.013899
Si Si5 0.618916 0.425343 0.316524
O O1 0.108851 0.332940 0.924234
O O2 0.290502 0.369936 0.084201
O O3 0.000000 0.447086 0.250000
O O4 0.245593 0.508066 0.876762
O O5 0.500000 0.163773 0.250000
O O6 0.143984 0.208414 0.474462
O O7 0.268089 0.033396 0.453252
O O8 0.291478 0.114821 0.141342
O O9 0.500000 0.094449 0.750000
O O10 0.830002 0.142432 0.594656
O O11 0.000000 0.232767 0.250000
O O12 0.500000 0.375090 0.250000
O O13 0.500000 0.500000 0.500000
#
# Coordination Sequence:
#
# PCOD9228294 Si02
#       5
#     4   4   4   4   4
#     4  10  19  36  59  84 116 151 190 239 293 355
#     4  10  19  35  57  82 113 154 197 240 289 346
#     4  10  19  33  56  83 113 153 193 237 290 347
#     4   9  20  35  54  82 117 154 190 240 293 341
#     4   9  19  35  60  87 111 148 191 236 294 359
#
# _framework density 24.373846
#
# number of rings (size 3 to 8) (size 9 to 14) (size 15 to 20)
#    0.000    2.400    0.000    3.600    0.000    2.400 
#    0.000   12.000    0.000   48.000    0.000    0.000 
#    0.000    0.000    0.000    0.000    0.000    0.000 
#
# Total GULP energy -111777.800787 kJ/mol
# GULP energy per Si atom -5588.890039 kJ/mol
# Density = 2.431837 g / cm^3
# Si number density = 24.373846 Si / 1000 Ang^3
#
#
#
# Elastic Constant Matrix: (Units=GPa)
#
#
# Indices 1 2 3 4 5 6 
#
# 1 191.7725 59.7388 1.0634 0.0000 -10.9547 0.0000
# 2 59.7388 119.6990 14.9900 0.0000 -18.3440 0.0000
# 3 1.0634 14.9900 49.6152 0.0000 -8.4946 0.0000
# 4 0.0000 0.0000 0.0000 5.6691 0.0000 7.2222
# 5 -10.9547 -18.3440 -8.4946 0.0000 33.5894 0.0000
# 6 0.0000 0.0000 0.0000 7.2222 0.0000 48.4942
#
#
#
# Elastic Compliance Matrix: (Units=1/GPa)
#
#
# Indices 1 2 3 4 5 6 
#
# 1 0.006216 -0.003132 0.000907 0.000000 0.000546 0.000000
# 2 -0.003132 0.010887 -0.002487 0.000000 0.004295 0.000000
# 3 0.000907 -0.002487 0.021642 0.000000 0.004411 0.000000
# 4 0.000000 0.000000 0.000000 0.217697 0.000000 -0.032421
# 5 0.000546 0.004295 0.004411 0.000000 0.033411 0.000000
# 6 0.000000 0.000000 0.000000 -0.032421 0.000000 0.025450
#
#
# Mechanical properties :
#
#
# Convention : Reuss Voigt Hill
#
# Bulk Modulus (GPa) = 34.10542 56.96347 45.53444
# Shear Modulus (GPa) = 14.94761 36.57017 25.75889
#
# Velocity S-wave (km/s) = 2.47910 3.87768 3.25441
# Velocity P-wave (km/s) = 4.71356 6.59318 5.73095
#
# Compressibility (1/GPa) = 0.02932086
#
# Stress axis : x y z
#
# Youngs Moduli (GPa) = 160.86425 91.85065 46.20608
#
# Poissons Ratio (x) = 0.28771 -0.04189
# Poissons Ratio (y) = 0.50388 0.11490
# Poissons Ratio (z) = -0.14584 0.22841
#
# Static dielectric constant tensor:
#      x y z
#    x 2.047910 0.000000 -0.022490 
#    y 0.000000 1.944190 0.000000 
#    z -0.022490 0.000000 1.969520 
# 
# From -- ./inp_files/12796.got.cif
#   From: 2010.05.17/outbox.cif.g08.bks.cpg/sg13_7_cif.got.tgz:12796.got - 2010.06.03 16:44:36.
