data_PCOD9228801
_publ_section_title
;
Structure prediction by ZEFSAII (Michael W. Deem and Ramdas Pophale) SiO2 
 PCOD9228801
Probable space group: P 2/C
;
_chemical_formula_sum "Si O2"
_cell_formula_units_Z 26
_cell_length_a 13.024131
_cell_length_b 20.480174
_cell_length_c 9.506611
_cell_angle_alpha 90.000000
_cell_angle_beta 147.613240
_cell_angle_gamma 90.000000
_cell_volume 1358.233289
_symmetry_space_group_name_H-M "P 2/C"
_symmetry_group_IT_number 13
_symmetry_cell_setting 'monoclinic'
loop_
_space_group_symop_operation_xyz
x,y,z
-x,y,1/2-z
-x,-y,-z
x,-y,1/2+z
loop_
_atom_site_type_symbol
_atom_site_label
_atom_site_fract_x
_atom_site_fract_y
_atom_site_fract_z
Si Si1 0.288106 0.864090 0.548266
Si Si2 0.000000 0.900323 0.750000
Si Si3 0.064767 0.817994 0.552231
Si Si4 0.012008 0.326924 0.932780
Si Si5 0.276807 0.571003 0.339267
Si Si6 0.267640 0.554334 0.653736
Si Si7 0.637908 0.987499 0.292577
O O1 0.500000 0.842649 0.750000
O O2 0.229782 0.837778 0.633520
O O3 0.292010 0.942671 0.565552
O O4 0.131164 0.839463 0.255286
O O5 0.923789 0.856265 0.789247
O O6 0.826461 0.944480 0.488890
O O7 0.065028 0.740145 0.568040
O O8 0.820799 0.358132 0.779932
O O9 0.000000 0.311700 0.750000
O O10 0.162694 0.386199 0.109569
O O11 0.223285 0.551250 0.437026
O O12 0.505390 0.570067 0.581922
O O13 0.212707 0.513947 0.160808
O O14 0.500000 0.956093 0.250000
O O15 0.500000 0.000000 0.000000
#
# Coordination Sequence:
#
# PCOD9228801 Si02
#       7
#     4   2   4   4   4   4   4
#     4  10  21  39  64  86 113 152 200 250 289 352
#     4  12  24  40  62  86 134 160 188 260 306 358
#     4  11  23  39  56  88 120 161 202 232 302 365
#     4  10  19  36  54  79 110 148 198 233 273 354
#     4   9  18  33  55  81 108 139 184 237 290 335
#     4   9  18  33  55  81 107 141 183 238 288 335
#     4  11  23  40  64  95 118 153 205 249 307 363
#
# _framework density 19.142513000000001
#
# number of rings (size 3 to 8) (size 9 to 14) (size 15 to 20)
#    0.000    1.846    1.538    4.154    0.000    3.077 
#    2.769    0.000    0.000    0.000    0.000    0.000 
#    0.000    0.000    0.000    0.000    0.000    0.000 
#
# Total GULP energy -145080.098815 kJ/mol
# GULP energy per Si atom -5580.003801 kJ/mol
# Density = 1.909894 g / cm^3
# Si number density = 19.142513 Si / 1000 Ang^3
#
#
#
# Elastic Constant Matrix: (Units=GPa)
#
#
# Indices 1 2 3 4 5 6 
#
# 1 101.1785 29.6336 35.8176 0.0000 12.5874 0.0000
# 2 29.6336 86.4743 21.1252 0.0000 3.6053 0.0000
# 3 35.8176 21.1252 56.4663 0.0000 1.3422 0.0000
# 4 0.0000 0.0000 0.0000 9.4804 0.0000 -4.5094
# 5 12.5874 3.6053 1.3422 0.0000 25.9807 0.0000
# 6 0.0000 0.0000 0.0000 -4.5094 0.0000 21.5217
#
#
#
# Elastic Compliance Matrix: (Units=1/GPa)
#
#
# Indices 1 2 3 4 5 6 
#
# 1 0.014217 -0.002696 -0.007864 0.000000 -0.006108 0.000000
# 2 -0.002696 0.013299 -0.003256 0.000000 -0.000371 0.000000
# 3 -0.007864 -0.003256 0.023844 0.000000 0.003030 0.000000
# 4 0.000000 0.000000 0.000000 0.117157 0.000000 0.024548
# 5 -0.006108 -0.000371 0.003030 0.000000 0.041344 0.000000
# 6 0.000000 0.000000 0.000000 0.024548 0.000000 0.051608
#
#
# Mechanical properties :
#
#
# Convention : Reuss Voigt Hill
#
# Bulk Modulus (GPa) = 42.14640 46.36354 44.25497
# Shear Modulus (GPa) = 16.83432 21.89941 19.36686
#
# Velocity S-wave (km/s) = 2.96872 3.38601 3.18421
# Velocity P-wave (km/s) = 5.81516 6.28963 6.05704
#
# Compressibility (1/GPa) = 0.02372682
#
# Stress axis : x y z
#
# Youngs Moduli (GPa) = 70.33853 75.19326 41.93862
#
# Poissons Ratio (x) = 0.20273 0.32981
# Poissons Ratio (y) = 0.18964 0.13657
# Poissons Ratio (z) = 0.55316 0.24486
#
# Static dielectric constant tensor:
#      x y z
#    x 1.669150 0.000000 0.015650 
#    y 0.000000 1.649120 0.000000 
#    z 0.015650 0.000000 1.706370 
# 
# From -- ./inp_files/17318.got.cif
#   From: 2010.05.17/outbox.cif.g08.bks.cpg/sg13_9_cif.got.tgz:17318.got - 2010.06.03 16:44:36.
