data_PCOD9228927
_publ_section_title
;
Structure prediction by ZEFSAII (Michael W. Deem and Ramdas Pophale) SiO2 
 PCOD9228927
Probable space group: P 2/C
;
_chemical_formula_sum "Si O2"
_cell_formula_units_Z 20
_cell_length_a 9.689786
_cell_length_b 6.211442
_cell_length_c 19.822820
_cell_angle_alpha 90.000000
_cell_angle_beta 127.963492
_cell_angle_gamma 90.000000
_cell_volume 940.633110
_symmetry_space_group_name_H-M "P 2/C"
_symmetry_group_IT_number 13
_symmetry_cell_setting 'monoclinic'
loop_
_space_group_symop_operation_xyz
x,y,z
-x,y,1/2-z
-x,-y,-z
x,-y,1/2+z
loop_
_atom_site_type_symbol
_atom_site_label
_atom_site_fract_x
_atom_site_fract_y
_atom_site_fract_z
Si Si1 0.710056 0.448329 0.757002
Si Si2 0.327921 0.339835 0.122345
Si Si3 0.473485 0.943266 0.350590
Si Si4 0.343067 0.407629 0.499545
Si Si5 0.179959 0.751176 0.822193
O O1 0.775760 0.549217 0.847310
O O2 0.520002 0.555811 0.688455
O O3 0.656855 0.198651 0.735518
O O4 0.815794 0.541897 0.725658
O O5 0.376661 0.088311 0.139817
O O6 0.271925 0.415596 0.031130
O O7 0.572737 0.783326 0.431077
O O8 0.346024 0.101290 0.353765
O O9 0.500000 0.500000 0.500000
O O10 0.199730 0.320230 0.404902
O O11 0.000000 0.868143 0.750000
#
# Coordination Sequence:
#
# PCOD9228927 Si02
#       5
#     4   4   4   4   4
#     4   9  19  35  54  84 116 147 188 244 280 332
#     4   9  19  32  58  86 109 146 195 240 282 331
#     4  10  19  36  61  81 115 149 198 231 288 334
#     4  11  19  36  57  88 113 147 196 242 276 333
#     4  11  23  36  54  85 121 153 189 234 288 341
#
# _framework density 21.262277000000001
#
# number of rings (size 3 to 8) (size 9 to 14) (size 15 to 20)
#    0.000    2.000    6.000    0.600    0.000   13.600 
#    0.000    1.000    0.000    2.400    0.000    0.000 
#    0.000    0.000    0.000    0.000    0.000    0.000 
#
# Total GULP energy -111389.762328 kJ/mol
# GULP energy per Si atom -5569.488116 kJ/mol
# Density = 2.121388 g / cm^3
# Si number density = 21.262277 Si / 1000 Ang^3
#
#
#
# Elastic Constant Matrix: (Units=GPa)
#
#
# Indices 1 2 3 4 5 6 
#
# 1 46.8126 26.8954 39.0870 0.0000 -24.2805 0.0000
# 2 26.8954 117.4784 39.2783 0.0000 -31.2439 0.0000
# 3 39.0870 39.2783 94.2425 0.0000 -27.9191 0.0000
# 4 0.0000 0.0000 0.0000 22.9234 0.0000 -11.7085
# 5 -24.2805 -31.2439 -27.9191 0.0000 38.1738 0.0000
# 6 0.0000 0.0000 0.0000 -11.7085 0.0000 15.7702
#
#
#
# Elastic Compliance Matrix: (Units=1/GPa)
#
#
# Indices 1 2 3 4 5 6 
#
# 1 0.039765 -0.001026 -0.011261 0.000000 0.016217 0.000000
# 2 -0.001026 0.011358 -0.002231 0.000000 0.007012 0.000000
# 3 -0.011261 -0.002231 0.017296 0.000000 0.003661 0.000000
# 4 0.000000 0.000000 0.000000 0.070272 0.000000 0.052173
# 5 0.016217 0.007012 0.003661 0.000000 0.044928 0.000000
# 6 0.000000 0.000000 0.000000 0.052173 0.000000 0.102146
#
#
# Mechanical properties :
#
#
# Convention : Reuss Voigt Hill
#
# Bulk Modulus (GPa) = 25.39129 52.11722 38.75426
# Shear Modulus (GPa) = 15.24735 25.59166 20.41951
#
# Velocity S-wave (km/s) = 2.68079 3.47308 3.10233
# Velocity P-wave (km/s) = 4.64220 6.37557 5.57665
#
# Compressibility (1/GPa) = 0.03938358
#
# Stress axis : x y z
#
# Youngs Moduli (GPa) = 25.14787 88.04527 57.81781
#
# Poissons Ratio (x) = 0.09031 0.65106
# Poissons Ratio (y) = 0.02580 0.12899
# Poissons Ratio (z) = 0.28318 0.19643
#
# Static dielectric constant tensor:
#      x y z
#    x 1.872710 0.000000 -0.049300 
#    y 0.000000 1.862930 0.000000 
#    z -0.049300 0.000000 1.840060 
# 
# From -- ./inp_files/65036.got.cif
#   From: 2010.05.17/outbox.cif.g08.bks.cpg/sg13_33_cif.got.tgz:65036.got - 2010.06.03 16:44:36.
