data_PCOD9228575
_publ_section_title
;
Structure prediction by ZEFSAII (Michael W. Deem and Ramdas Pophale) SiO2 
 PCOD9228575
Probable space group: P 2/C
;
_chemical_formula_sum "Si O2"
_cell_formula_units_Z 30
_cell_length_a 12.257856
_cell_length_b 5.379901
_cell_length_c 20.122866
_cell_angle_alpha 90.000000
_cell_angle_beta 59.195823
_cell_angle_gamma 90.000000
_cell_volume 1139.810483
_symmetry_space_group_name_H-M "P 2/C"
_symmetry_group_IT_number 13
_symmetry_cell_setting 'monoclinic'
loop_
_space_group_symop_operation_xyz
x,y,z
-x,y,1/2-z
-x,-y,-z
x,-y,1/2+z
loop_
_atom_site_type_symbol
_atom_site_label
_atom_site_fract_x
_atom_site_fract_y
_atom_site_fract_z
Si Si1 0.854231 0.815392 0.818268
Si Si2 0.500000 0.880039 0.750000
Si Si3 0.308312 0.863166 0.219279
Si Si4 0.915474 0.314428 0.847337
Si Si5 0.869314 0.293247 0.612906
Si Si6 0.757341 0.220475 0.090952
Si Si7 0.480471 0.547721 0.083125
Si Si8 0.572913 0.955249 0.548615
O O1 0.772582 0.900965 0.780461
O O2 0.843081 0.054365 0.868192
O O3 0.000000 0.798492 0.750000
O O4 0.834088 0.563814 0.864505
O O5 0.566883 0.061138 0.781002
O O6 0.373298 0.755944 0.822614
O O7 0.225737 0.701657 0.294540
O O8 0.355961 0.691500 0.144847
O O9 0.000000 0.303887 0.750000
O O10 0.998772 0.317242 0.888143
O O11 0.837856 0.530212 0.577223
O O12 0.836717 0.024478 0.590019
O O13 0.703531 0.170360 0.033546
O O14 0.482909 0.265476 0.107015
O O15 0.584218 0.758254 0.069604
O O16 0.500000 0.500000 0.000000
O O17 0.500000 0.000000 0.500000
#
# Coordination Sequence:
#
# PCOD9228575 Si02
#       8
#     4   2   4   4   4   4   4   4
#     4  10  20  34  55  77 112 158 201 241 285 356
#     4  10  24  32  54  80 130 154 188 226 296 384
#     4  11  22  38  56  86 123 169 193 244 304 367
#     4  10  19  35  51  78 114 156 199 240 286 354
#     4  11  23  34  56  82 125 159 195 242 304 374
#     4  11  23  36  52  85 117 164 196 233 305 368
#     4  10  22  38  57  79 114 158 204 252 283 342
#     4  10  21  40  58  77 115 158 205 252 283 349
#
# _framework density 26.320167000000001
#
# number of rings (size 3 to 8) (size 9 to 14) (size 15 to 20)
#    0.000    1.600    4.000    1.600    9.333    1.600 
#    0.000    0.000    0.000    0.000    0.000    0.000 
#    0.000   99.200    0.000    0.000    0.000    0.000 
#
# Total GULP energy -167174.526994 kJ/mol
# GULP energy per Si atom -5572.484233 kJ/mol
# Density = 2.626026 g / cm^3
# Si number density = 26.320167 Si / 1000 Ang^3
#
#
#
# Elastic Constant Matrix: (Units=GPa)
#
#
# Indices 1 2 3 4 5 6 
#
# 1 190.2544 65.8803 8.1303 0.0000 45.3240 0.0000
# 2 65.8803 193.9929 -7.1008 0.0000 14.4228 0.0000
# 3 8.1303 -7.1008 58.8243 0.0000 10.5818 0.0000
# 4 0.0000 0.0000 0.0000 17.0391 0.0000 6.1616
# 5 45.3240 14.4228 10.5818 0.0000 24.7990 0.0000
# 6 0.0000 0.0000 0.0000 6.1616 0.0000 53.8456
#
#
#
# Elastic Compliance Matrix: (Units=1/GPa)
#
#
# Indices 1 2 3 4 5 6 
#
# 1 0.010237 -0.002065 0.001609 0.000000 -0.018195 0.000000
# 2 -0.002065 0.005900 0.001014 0.000000 -0.000090 0.000000
# 3 0.001609 0.001014 0.018993 0.000000 -0.011634 0.000000
# 4 0.000000 0.000000 0.000000 0.061222 0.000000 -0.007006
# 5 -0.018195 -0.000090 -0.011634 0.000000 0.078596 0.000000
# 6 0.000000 0.000000 0.000000 -0.007006 0.000000 0.019373
#
#
# Mechanical properties :
#
#
# Convention : Reuss Voigt Hill
#
# Bulk Modulus (GPa) = 27.58974 64.09904 45.84439
# Shear Modulus (GPa) = 24.35619 44.21418 34.28519
#
# Velocity S-wave (km/s) = 3.04531 4.10306 3.61310
# Velocity P-wave (km/s) = 4.78229 6.84494 5.90438
#
# Compressibility (1/GPa) = 0.03624535
#
# Stress axis : x y z
#
# Youngs Moduli (GPa) = 97.68466 169.49570 52.65192
#
# Poissons Ratio (x) = 0.34998 -0.08472
# Poissons Ratio (y) = 0.20170 -0.05338
# Poissons Ratio (z) = -0.15717 -0.17183
#
# Static dielectric constant tensor:
#      x y z
#    x 2.024030 0.000000 0.012960 
#    y 0.000000 2.231610 0.000000 
#    z 0.012960 0.000000 1.852390 
# 
# From -- ./inp_files/85807.got.cif
#   From: 2010.05.17/outbox.cif.g08.bks.cpg/sg13_43_cif.got.tgz:85807.got - 2010.06.03 16:44:36.
