data_PCOD9228089
_publ_section_title
;
Structure prediction by ZEFSAII (Michael W. Deem and Ramdas Pophale) SiO2 
 PCOD9228089
Probable space group: P 2/C
;
_chemical_formula_sum "Si O2"
_cell_formula_units_Z 22
_cell_length_a 9.529334
_cell_length_b 6.094801
_cell_length_c 22.409366
_cell_angle_alpha 90.000000
_cell_angle_beta 42.909575
_cell_angle_gamma 90.000000
_cell_volume 886.132782
_symmetry_space_group_name_H-M "P 2/C"
_symmetry_group_IT_number 13
_symmetry_cell_setting 'monoclinic'
loop_
_space_group_symop_operation_xyz
x,y,z
-x,y,1/2-z
-x,-y,-z
x,-y,1/2+z
loop_
_atom_site_type_symbol
_atom_site_label
_atom_site_fract_x
_atom_site_fract_y
_atom_site_fract_z
Si Si1 0.851653 0.713996 0.677560
Si Si2 0.571729 0.721155 0.052589
Si Si3 0.500000 0.987433 0.750000
Si Si4 0.803771 0.665614 0.095021
Si Si5 0.799411 0.524178 0.380078
Si Si6 0.153784 0.902694 0.036893
O O1 0.634303 0.835570 0.752540
O O2 0.813484 0.530424 0.638997
O O3 0.978364 0.595041 0.691020
O O4 0.004872 0.901042 0.605128
O O5 0.709219 0.607515 0.060760
O O6 0.339558 0.631521 0.128452
O O7 0.656588 0.648212 0.961286
O O8 0.628796 0.977516 0.042288
O O9 0.347853 0.148526 0.832157
O O10 0.028693 0.779907 0.023486
O O11 0.829246 0.729378 0.415417
#
# Coordination Sequence:
#
# PCOD9228089 Si02
#       6
#     4   4   2   4   4   4
#     4   9  19  35  54  75 101 135 176 219 263 308
#     4  10  19  32  52  82 113 140 168 209 265 324
#     4  10  20  36  56  70  92 136 186 232 260 296
#     4  10  20  33  54  77 102 136 182 224 259 306
#     4   9  19  33  52  79 114 141 164 207 267 327
#     4   9  18  32  52  79 110 140 168 207 260 319
#
# _framework density 24.826981
#
# number of rings (size 3 to 8) (size 9 to 14) (size 15 to 20)
#    0.000    2.545    0.000    1.636    0.000    9.455 
#    0.000    0.000    0.000   26.182    0.000    0.000 
#    0.000    0.000    0.000    0.000    0.000    0.000 
#
# Total GULP energy -122824.876578 kJ/mol
# GULP energy per Si atom -5582.948935 kJ/mol
# Density = 2.477047 g / cm^3
# Si number density = 24.826981 Si / 1000 Ang^3
#
#
#
# Elastic Constant Matrix: (Units=GPa)
#
#
# Indices 1 2 3 4 5 6 
#
# 1 174.7755 49.3333 25.9631 0.0000 -32.1729 0.0000
# 2 49.3333 100.1935 35.2380 0.0000 -20.3479 0.0000
# 3 25.9631 35.2380 53.5266 0.0000 -23.9772 0.0000
# 4 0.0000 0.0000 0.0000 37.4832 0.0000 -29.7925
# 5 -32.1729 -20.3479 -23.9772 0.0000 35.1466 0.0000
# 6 0.0000 0.0000 0.0000 -29.7925 0.0000 43.2882
#
#
#
# Elastic Compliance Matrix: (Units=1/GPa)
#
#
# Indices 1 2 3 4 5 6 
#
# 1 0.007446 -0.002777 0.000792 0.000000 0.005748 0.000000
# 2 -0.002777 0.014169 -0.007841 0.000000 0.000311 0.000000
# 3 0.000792 -0.007841 0.031324 0.000000 0.017554 0.000000
# 4 0.000000 0.000000 0.000000 0.058896 0.000000 0.040535
# 5 0.005748 0.000311 0.017554 0.000000 0.045870 0.000000
# 6 0.000000 0.000000 0.000000 0.040535 0.000000 0.050998
#
#
# Mechanical properties :
#
#
# Convention : Reuss Voigt Hill
#
# Bulk Modulus (GPa) = 30.04355 61.06273 45.55314
# Shear Modulus (GPa) = 20.88090 37.71433 29.29762
#
# Velocity S-wave (km/s) = 2.90324 3.90177 3.43894
# Velocity P-wave (km/s) = 4.83383 6.70426 5.84436
#
# Compressibility (1/GPa) = 0.03328501
#
# Stress axis : x y z
#
# Youngs Moduli (GPa) = 134.29805 70.57544 31.92451
#
# Poissons Ratio (x) = 0.19601 -0.02527
# Poissons Ratio (y) = 0.37299 0.25033
# Poissons Ratio (z) = -0.10630 0.55340
#
# Static dielectric constant tensor:
#      x y z
#    x 2.014360 0.000000 -0.040140 
#    y 0.000000 1.969560 0.000000 
#    z -0.040140 0.000000 2.017820 
# 
# From -- ./inp_files/74497.got.cif
#   From: 2010.05.17/outbox.cif.g08.bks.cpg/sg13_38_cif.got.tgz:74497.got - 2010.06.03 16:44:36.
