data_PCOD9228627
_publ_section_title
;
Structure prediction by ZEFSAII (Michael W. Deem and Ramdas Pophale) SiO2 
 PCOD9228627
Probable space group: P 2/C
;
_chemical_formula_sum "Si O2"
_cell_formula_units_Z 32
_cell_length_a 21.452349
_cell_length_b 14.757533
_cell_length_c 9.458041
_cell_angle_alpha 90.000000
_cell_angle_beta 36.048389
_cell_angle_gamma 90.000000
_cell_volume 1762.028298
_symmetry_space_group_name_H-M "P 2/C"
_symmetry_group_IT_number 13
_symmetry_cell_setting 'monoclinic'
loop_
_space_group_symop_operation_xyz
x,y,z
-x,y,1/2-z
-x,-y,-z
x,-y,1/2+z
loop_
_atom_site_type_symbol
_atom_site_label
_atom_site_fract_x
_atom_site_fract_y
_atom_site_fract_z
Si Si1 0.387388 0.026905 0.008720
Si Si2 0.340221 0.105501 0.378504
Si Si3 0.067330 0.886576 0.761502
Si Si4 0.419810 0.525650 0.769723
Si Si5 0.460477 0.284574 0.164161
Si Si6 0.885670 0.094423 0.826750
Si Si7 0.219969 0.826222 0.713340
Si Si8 0.609673 0.671497 0.140627
O O1 0.378258 0.032453 0.192896
O O2 0.297043 0.088859 0.104622
O O3 0.500000 0.062301 0.750000
O O4 0.372057 0.927393 0.974247
O O5 0.396123 0.197775 0.232932
O O6 0.215612 0.110304 0.586850
O O7 0.164707 0.835158 0.660665
O O8 0.000000 0.850590 0.750000
O O9 0.107480 0.987681 0.643903
O O10 0.985702 0.892501 0.042404
O O11 0.500000 0.540712 0.750000
O O12 0.500000 0.500000 0.500000
O O13 0.382797 0.626951 0.801662
O O14 0.354475 0.434597 0.921078
O O15 0.500000 0.268742 0.250000
O O16 0.563401 0.301149 0.878561
O O17 0.864610 0.158297 0.002207
O O18 0.296432 0.738260 0.579042
O O19 0.500000 0.675723 0.250000
#
# Coordination Sequence:
#
# PCOD9228627 Si02
#       8
#     4   4   4   4   4   4   4   4
#     4  11  22  34  48  73 109 150 182 212 258 324
#     4  11  22  34  51  73 106 148 185 218 264 317
#     4  11  22  36  56  73 102 143 188 238 285 318
#     4   8  16  31  54  78 107 142 182 224 269 310
#     4  10  20  35  52  79 114 150 185 227 267 321
#     4  10  21  37  53  75 101 142 187 239 277 318
#     4  11  21  35  53  78 108 144 185 226 275 333
#     4  10  19  35  57  83 112 147 184 225 269 328
#
# _framework density 18.160889000000001
#
# number of rings (size 3 to 8) (size 9 to 14) (size 15 to 20)
#    0.000    1.750    1.250    5.250    1.750    2.000 
#    0.000    0.000    0.000    0.000    0.000    0.875 
#    0.000    1.000    0.000    0.000    0.000    0.000 
#
# Total GULP energy -178231.873392 kJ/mol
# GULP energy per Si atom -5569.746044 kJ/mol
# Density = 1.811955 g / cm^3
# Si number density = 18.160889 Si / 1000 Ang^3
#
#
#
# Elastic Constant Matrix: (Units=GPa)
#
#
# Indices 1 2 3 4 5 6 
#
# 1 77.4949 16.4190 15.9595 0.0000 5.4560 0.0000
# 2 16.4190 100.0876 25.0193 0.0000 0.9673 0.0000
# 3 15.9595 25.0193 59.8454 0.0000 3.4765 0.0000
# 4 0.0000 0.0000 0.0000 17.2047 0.0000 4.6284
# 5 5.4560 0.9673 3.4765 0.0000 29.6069 0.0000
# 6 0.0000 0.0000 0.0000 4.6284 0.0000 10.6518
#
#
#
# Elastic Compliance Matrix: (Units=1/GPa)
#
#
# Indices 1 2 3 4 5 6 
#
# 1 0.013993 -0.001534 -0.002964 0.000000 -0.002181 0.000000
# 2 -0.001534 0.011326 -0.004351 0.000000 0.000423 0.000000
# 3 -0.002964 -0.004351 0.019411 0.000000 -0.001591 0.000000
# 4 0.000000 0.000000 0.000000 0.065817 0.000000 -0.028599
# 5 -0.002181 0.000423 -0.001591 0.000000 0.034351 0.000000
# 6 0.000000 0.000000 0.000000 -0.028599 0.000000 0.106307
#
#
# Mechanical properties :
#
#
# Convention : Reuss Voigt Hill
#
# Bulk Modulus (GPa) = 36.98992 39.13593 38.06293
# Shear Modulus (GPa) = 17.99120 23.49470 20.74295
#
# Velocity S-wave (km/s) = 3.15088 3.60070 3.38328
# Velocity P-wave (km/s) = 5.80082 6.23563 6.02215
#
# Compressibility (1/GPa) = 0.02703439
#
# Stress axis : x y z
#
# Youngs Moduli (GPa) = 71.46495 88.29008 51.51605
#
# Poissons Ratio (x) = 0.13539 0.15268
# Poissons Ratio (y) = 0.10959 0.22413
# Poissons Ratio (z) = 0.21181 0.38413
#
# Static dielectric constant tensor:
#      x y z
#    x 1.672040 0.000000 0.012330 
#    y 0.000000 1.675140 0.000000 
#    z 0.012330 0.000000 1.654140 
# 
# From -- ./inp_files/23552.got.cif
#   From: 2010.05.17/outbox.cif.g08.bks.cpg/sg13_12_cif.got.tgz:23552.got - 2010.06.03 16:44:36.
