data_PCOD9228584
_publ_section_title
;
Structure prediction by ZEFSAII (Michael W. Deem and Ramdas Pophale) SiO2 
 PCOD9228584
Probable space group: P 2/C
;
_chemical_formula_sum "Si O2"
_cell_formula_units_Z 20
_cell_length_a 13.181585
_cell_length_b 15.995810
_cell_length_c 14.528100
_cell_angle_alpha 90.000000
_cell_angle_beta 19.690111
_cell_angle_gamma 90.000000
_cell_volume 1032.109870
_symmetry_space_group_name_H-M "P 2/C"
_symmetry_group_IT_number 13
_symmetry_cell_setting 'monoclinic'
loop_
_space_group_symop_operation_xyz
x,y,z
-x,y,1/2-z
-x,-y,-z
x,-y,1/2+z
loop_
_atom_site_type_symbol
_atom_site_label
_atom_site_fract_x
_atom_site_fract_y
_atom_site_fract_z
Si Si1 0.099662 0.507851 0.765242
Si Si2 0.695657 0.918878 0.723014
Si Si3 0.695494 0.593701 0.739654
Si Si4 0.875844 0.973438 0.758839
Si Si5 0.643853 0.252130 0.032328
O O1 0.103055 0.577457 0.842028
O O2 0.437069 0.476033 0.461695
O O3 0.000000 0.535836 0.750000
O O4 0.900992 0.430539 0.975852
O O5 0.503589 0.837077 0.865371
O O6 0.926098 0.947032 0.446324
O O7 0.860727 0.914792 0.681337
O O8 0.458847 0.994361 0.934505
O O9 0.506322 0.679435 0.906354
O O10 0.000000 0.941089 0.750000
O O11 0.500000 0.280970 0.250000
O O12 0.000000 0.248381 0.750000
#
# Coordination Sequence:
#
# PCOD9228584 Si02
#       5
#     4   4   4   4   4
#     4  10  19  35  54  74 103 138 174 213 251 302
#     4  10  21  33  52  79 103 134 176 210 255 311
#     4  10  21  33  52  79 103 134 176 210 255 311
#     4  10  19  35  54  74 103 138 174 213 251 302
#     4  12  22  34  53  78 109 136 166 218 267 304
#
# _framework density 19.377780999999999
#
# number of rings (size 3 to 8) (size 9 to 14) (size 15 to 20)
#    0.000    1.600    0.000    7.200    0.000    0.000 
#    0.000    1.000    0.000    0.000    0.000   19.600 
#    0.000    0.000    0.000    0.000    0.000    0.000 
#
# Total GULP energy -111406.174562 kJ/mol
# GULP energy per Si atom -5570.308728 kJ/mol
# Density = 1.933368 g / cm^3
# Si number density = 19.377781 Si / 1000 Ang^3
#
#
#
# Elastic Constant Matrix: (Units=GPa)
#
#
# Indices 1 2 3 4 5 6 
#
# 1 124.1714 17.9117 26.1707 0.0000 -19.9279 0.0000
# 2 17.9117 47.0279 9.3974 0.0000 -20.0114 0.0000
# 3 26.1707 9.3974 109.9842 0.0000 0.5200 0.0000
# 4 0.0000 0.0000 0.0000 34.7143 0.0000 -3.8956
# 5 -19.9279 -20.0114 0.5200 0.0000 32.4596 0.0000
# 6 0.0000 0.0000 0.0000 -3.8956 0.0000 27.4709
#
#
#
# Elastic Compliance Matrix: (Units=1/GPa)
#
#
# Indices 1 2 3 4 5 6 
#
# 1 0.009502 -0.000923 -0.002207 0.000000 0.005300 0.000000
# 2 -0.000923 0.029647 -0.002398 0.000000 0.017750 0.000000
# 3 -0.002207 -0.002398 0.009836 0.000000 -0.002991 0.000000
# 4 0.000000 0.000000 0.000000 0.029272 0.000000 0.004151
# 5 0.005300 0.017750 -0.002991 0.000000 0.045052 0.000000
# 6 0.000000 0.000000 0.000000 0.004151 0.000000 0.036991
#
#
# Mechanical properties :
#
#
# Convention : Reuss Voigt Hill
#
# Bulk Modulus (GPa) = 26.36368 43.12701 34.74535
# Shear Modulus (GPa) = 27.17390 34.10921 30.64155
#
# Velocity S-wave (km/s) = 3.74882 4.20005 3.98084
# Velocity P-wave (km/s) = 5.68972 6.76940 6.25291
#
# Compressibility (1/GPa) = 0.03793097
#
# Stress axis : x y z
#
# Youngs Moduli (GPa) = 105.23745 33.72982 101.66282
#
# Poissons Ratio (x) = 0.03112 0.22440
# Poissons Ratio (y) = 0.09711 0.24374
# Poissons Ratio (z) = 0.23229 0.08087
#
# Static dielectric constant tensor:
#      x y z
#    x 2.283790 0.000000 -0.288790 
#    y 0.000000 1.702070 0.000000 
#    z -0.288790 0.000000 1.827120 
# 
# From -- ./inp_files/51564.got.cif
#   From: 2010.05.17/outbox.cif.g08.bks.cpg/sg13_26_cif.got.tgz:51564.got - 2010.06.03 16:44:36.
