data_PCOD9228799
_publ_section_title
;
Structure prediction by ZEFSAII (Michael W. Deem and Ramdas Pophale) SiO2 
 PCOD9228799
Probable space group: P 2/C
;
_chemical_formula_sum "Si O2"
_cell_formula_units_Z 32
_cell_length_a 29.533693
_cell_length_b 9.584944
_cell_length_c 11.614179
_cell_angle_alpha 90.000000
_cell_angle_beta 153.535415
_cell_angle_gamma 90.000000
_cell_volume 1465.158004
_symmetry_space_group_name_H-M "P 2/C"
_symmetry_group_IT_number 13
_symmetry_cell_setting 'monoclinic'
loop_
_space_group_symop_operation_xyz
x,y,z
-x,y,1/2-z
-x,-y,-z
x,-y,1/2+z
loop_
_atom_site_type_symbol
_atom_site_label
_atom_site_fract_x
_atom_site_fract_y
_atom_site_fract_z
Si Si1 0.646824 0.139591 0.606576
Si Si2 0.050017 0.263285 0.079914
Si Si3 0.494029 0.157950 0.435830
Si Si4 0.826991 0.036597 0.277769
Si Si5 0.139393 0.776336 0.016830
Si Si6 0.667484 0.145641 0.269008
Si Si7 0.114377 0.495630 0.059732
Si Si8 0.177708 0.731672 0.539618
O O1 0.602123 0.200690 0.625928
O O2 0.576996 0.168593 0.337844
O O3 0.757988 0.189927 0.822454
O O4 0.638161 0.973269 0.609433
O O5 0.058655 0.267021 0.236198
O O6 0.109337 0.126464 0.168580
O O7 0.103995 0.402631 0.151150
O O8 0.935901 0.254260 0.771321
O O9 0.427618 0.221841 0.387731
O O10 0.500000 0.000000 0.500000
O O11 0.888669 0.915531 0.480569
O O12 0.801914 0.145949 0.321220
O O13 0.733742 0.950627 0.009037
O O14 0.153403 0.652355 0.140060
O O15 0.741608 0.252934 0.376671
O O16 0.180531 0.408860 0.118902
O O17 0.000000 0.492524 0.750000
#
# Coordination Sequence:
#
# PCOD9228799 Si02
#       8
#     4   4   4   4   4   4   4   4
#     4  10  19  36  53  91 114 145 187 239 296 361
#     4  10  23  40  54  81 124 163 194 251 290 334
#     4   9  19  33  58  82 120 146 177 239 300 354
#     4  11  20  34  55  85 121 148 195 242 302 340
#     4  12  22  37  60  87 115 156 201 247 292 357
#     4  11  18  33  57  88 114 148 192 240 296 353
#     4   9  23  41  55  79 115 165 210 239 281 347
#     4  10  21  37  54  78 122 158 200 243 283 352
#
# _framework density 21.840648000000002
#
# number of rings (size 3 to 8) (size 9 to 14) (size 15 to 20)
#    0.000    1.750    3.750    1.125    0.000    8.000 
#    0.000    0.000    0.000    0.750    0.000    0.000 
#    0.000    0.000    0.000    0.000    0.000    0.000 
#
# Total GULP energy -178556.730864 kJ/mol
# GULP energy per Si atom -5579.897840 kJ/mol
# Density = 2.179094 g / cm^3
# Si number density = 21.840648 Si / 1000 Ang^3
#
#
#
# Elastic Constant Matrix: (Units=GPa)
#
#
# Indices 1 2 3 4 5 6 
#
# 1 88.8451 62.7623 10.2222 0.0000 22.2840 0.0000
# 2 62.7623 78.8199 -9.2521 0.0000 5.1890 0.0000
# 3 10.2222 -9.2521 19.2000 0.0000 3.5643 0.0000
# 4 0.0000 0.0000 0.0000 3.7051 0.0000 5.3275
# 5 22.2840 5.1890 3.5643 0.0000 41.5170 0.0000
# 6 0.0000 0.0000 0.0000 5.3275 0.0000 20.8110
#
#
#
# Elastic Compliance Matrix: (Units=1/GPa)
#
#
# Indices 1 2 3 4 5 6 
#
# 1 0.059363 -0.052102 -0.052848 0.000000 -0.020814 0.000000
# 2 -0.052102 0.059392 0.053397 0.000000 0.015958 0.000000
# 3 -0.052848 0.053397 0.103574 0.000000 0.012800 0.000000
# 4 0.000000 0.000000 0.000000 0.427114 0.000000 -0.109339
# 5 -0.020814 0.015958 0.012800 0.000000 0.032165 0.000000
# 6 0.000000 0.000000 0.000000 -0.109339 0.000000 0.076042
#
#
# Mechanical properties :
#
#
# Convention : Reuss Voigt Hill
#
# Bulk Modulus (GPa) = 8.38771 34.92554 21.65662
# Shear Modulus (GPa) = 5.55248 21.41548 13.48398
#
# Velocity S-wave (km/s) = 1.59618 3.13474 2.48741
# Velocity P-wave (km/s) = 2.69180 5.39703 4.26461
#
# Compressibility (1/GPa) = 0.11922208
#
# Stress axis : x y z
#
# Youngs Moduli (GPa) = 16.84555 16.83722 9.65489
#
# Poissons Ratio (x) = 0.87726 0.51024
# Poissons Ratio (y) = 0.87769 -0.51554
# Poissons Ratio (z) = 0.89026 -0.89905
#
# Static dielectric constant tensor:
#      x y z
#    x 1.870370 0.000000 0.027730 
#    y 0.000000 1.797660 0.000000 
#    z 0.027730 0.000000 1.865020 
# 
# From -- ./inp_files/42789.got.cif
#   From: 2010.05.17/outbox.cif.g08.bks.cpg/sg13_22_cif.got.tgz:42789.got - 2010.06.03 16:44:36.
