data_PCOD9228907
_publ_section_title
;
Structure prediction by ZEFSAII (Michael W. Deem and Ramdas Pophale) SiO2 
 PCOD9228907
Probable space group: P 2/C
;
_chemical_formula_sum "Si O2"
_cell_formula_units_Z 28
_cell_length_a 9.578819
_cell_length_b 8.203997
_cell_length_c 29.669709
_cell_angle_alpha 90.000000
_cell_angle_beta 32.266340
_cell_angle_gamma 90.000000
_cell_volume 1244.728456
_symmetry_space_group_name_H-M "P 2/C"
_symmetry_group_IT_number 13
_symmetry_cell_setting 'monoclinic'
loop_
_space_group_symop_operation_xyz
x,y,z
-x,y,1/2-z
-x,-y,-z
x,-y,1/2+z
loop_
_atom_site_type_symbol
_atom_site_label
_atom_site_fract_x
_atom_site_fract_y
_atom_site_fract_z
Si Si1 0.562555 0.501415 0.634111
Si Si2 0.731915 0.754174 0.340687
Si Si3 0.420557 0.832602 0.720146
Si Si4 0.105103 0.222758 0.171087
Si Si5 0.792958 0.449656 0.908672
Si Si6 0.390637 0.050631 0.426884
Si Si7 0.035078 0.318266 0.544299
O O1 0.331928 0.404480 0.672175
O O2 0.469688 0.640802 0.694091
O O3 0.745972 0.591465 0.546865
O O4 0.750666 0.367780 0.605074
O O5 0.787681 0.697533 0.375489
O O6 0.000000 0.836876 0.250000
O O7 0.473604 0.864906 0.411084
O O8 0.500000 0.864633 0.750000
O O9 0.570014 0.917088 0.637335
O O10 0.116639 0.878290 0.794705
O O11 0.108788 0.389951 0.143040
O O12 0.387832 0.144369 0.103178
O O13 0.000000 0.251040 0.250000
O O14 0.500000 0.500000 0.000000
O O15 0.936490 0.393301 0.914179
O O16 0.118747 0.129382 0.516904
#
# Coordination Sequence:
#
# PCOD9228907 Si02
#       7
#     4   4   4   4   4   4   4
#     4  10  21  37  60  86 120 156 195 255 306 348
#     4  12  24  40  61  88 122 161 202 249 304 360
#     4  10  19  36  60  87 112 156 205 245 296 359
#     4  10  19  36  60  84 120 157 199 251 303 354
#     4  12  20  36  62  93 113 152 208 257 290 353
#     4  10  22  40  59  84 124 167 195 238 311 370
#     4  10  21  39  58  89 122 154 199 247 305 364
#
# _framework density 22.494865999999998
#
# number of rings (size 3 to 8) (size 9 to 14) (size 15 to 20)
#    0.000    1.429    2.857    5.143    0.000    1.143 
#    0.000    3.571    0.000    0.000    0.000    0.000 
#    0.000    0.000    0.000    0.000    0.000    0.000 
#
# Total GULP energy -156439.728936 kJ/mol
# GULP energy per Si atom -5587.133176 kJ/mol
# Density = 2.244367 g / cm^3
# Si number density = 22.494866 Si / 1000 Ang^3
#
#
#
# Elastic Constant Matrix: (Units=GPa)
#
#
# Indices 1 2 3 4 5 6 
#
# 1 163.1866 1.8492 24.5082 0.0000 14.6053 0.0000
# 2 1.8492 32.5167 -3.4956 0.0000 4.3346 0.0000
# 3 24.5082 -3.4956 35.1450 0.0000 -5.5256 0.0000
# 4 0.0000 0.0000 0.0000 20.0177 0.0000 -10.7457
# 5 14.6053 4.3346 -5.5256 0.0000 34.1560 0.0000
# 6 0.0000 0.0000 0.0000 -10.7457 0.0000 0.8542
#
#
#
# Elastic Compliance Matrix: (Units=1/GPa)
#
#
# Indices 1 2 3 4 5 6 
#
# 1 0.007369 -0.000508 -0.005822 0.000000 -0.004028 0.000000
# 2 -0.000508 0.031542 0.002972 0.000000 -0.003305 0.000000
# 3 -0.005822 0.002972 0.034007 0.000000 0.007614 0.000000
# 4 0.000000 0.000000 0.000000 -0.008684 0.000000 -0.109237
# 5 -0.004028 -0.003305 0.007614 0.000000 0.032651 0.000000
# 6 0.000000 0.000000 0.000000 -0.109237 0.000000 -0.203493
#
#
# Mechanical properties :
#
#
# Convention : Reuss Voigt Hill
#
# Bulk Modulus (GPa) = 15.10560 30.73020 22.91790
# Shear Modulus (GPa) = -64.24760 24.87135 -19.68813
#
# Velocity S-wave (km/s) = -5.35005 3.32873 -2.96163
# Velocity P-wave (km/s) = 5.60663 5.33522 1.21855
#
# Compressibility (1/GPa) = 0.06620063
#
# Stress axis : x y z
#
# Youngs Moduli (GPa) = 135.70937 31.70340 29.40614
#
# Poissons Ratio (x) = 0.01610 0.17121
# Poissons Ratio (y) = 0.06894 -0.08739
# Poissons Ratio (z) = 0.79015 -0.09422
#
# Static dielectric constant tensor:
#      x y z
#    x 1.798040 0.000000 -0.035470 
#    y 0.000000 1.891150 0.000000 
#    z -0.035470 0.000000 1.843180 
# 
# From -- ./inp_files/95917.got.cif
#   From: 2010.05.17/outbox.cif.g08.bks.cpg/sg13_48_cif.got.tgz:95917.got - 2010.06.03 16:44:36.
