data_PCOD9228176
_publ_section_title
;
Structure prediction by ZEFSAII (Michael W. Deem and Ramdas Pophale) SiO2 
 PCOD9228176
Probable space group: P 2/C
;
_chemical_formula_sum "Si O2"
_cell_formula_units_Z 28
_cell_length_a 23.614691
_cell_length_b 7.929125
_cell_length_c 8.531750
_cell_angle_alpha 90.000000
_cell_angle_beta 40.605488
_cell_angle_gamma 90.000000
_cell_volume 1039.739445
_symmetry_space_group_name_H-M "P 2/C"
_symmetry_group_IT_number 13
_symmetry_cell_setting 'monoclinic'
loop_
_space_group_symop_operation_xyz
x,y,z
-x,y,1/2-z
-x,-y,-z
x,-y,1/2+z
loop_
_atom_site_type_symbol
_atom_site_label
_atom_site_fract_x
_atom_site_fract_y
_atom_site_fract_z
Si Si1 0.500000 0.703761 0.250000
Si Si2 0.867207 0.810811 0.793869
Si Si3 0.211809 0.799334 0.841745
Si Si4 0.711809 0.299334 0.841745
Si Si5 0.632793 0.310811 0.706131
Si Si6 0.363470 0.919940 0.736736
Si Si7 0.863470 0.419940 0.736736
Si Si8 0.000000 0.796239 0.750000
O O1 0.443943 0.610671 0.234751
O O2 0.432993 0.821726 0.486313
O O3 0.842843 0.894159 0.679238
O O4 0.888542 0.614494 0.707651
O O5 0.943943 0.889329 0.734751
O O6 0.784887 0.789530 0.081052
O O7 0.284887 0.710470 0.581052
O O8 0.270535 0.896107 0.844632
O O9 0.151249 0.671967 0.065761
O O10 0.657157 0.394159 0.820762
O O11 0.770535 0.396107 0.844632
O O12 0.651249 0.171967 0.065761
O O13 0.611457 0.114494 0.792349
O O14 0.932993 0.321726 0.486313
#
# Coordination Sequence:
#
# PCOD9228176 Si02
#       8
#     2   4   4   4   4   4   4   2
#     4  10  20  30  50  80 110 130 154 208 276 308
#     4  10  19  33  51  78 107 132 165 209 255 305
#     4   9  19  32  49  74 102 140 173 194 250 305
#     4   9  19  32  49  74 102 140 173 194 250 305
#     4  10  19  33  51  78 107 132 165 209 255 305
#     4  10  19  33  51  78 107 132 165 209 255 305
#     4  10  19  33  51  78 107 132 165 209 255 305
#     4  10  20  30  50  80 110 130 154 208 276 308
#
# _framework density 26.929825000000001
#
# number of rings (size 3 to 8) (size 9 to 14) (size 15 to 20)
#    0.000    2.286    0.000    4.286    0.000    1.143 
#    0.000    0.000    0.000    0.000    0.000  452.000 
#    0.000    0.000    0.000    0.000    0.000    0.000 
#
# Total GULP energy -156777.941548 kJ/mol
# GULP energy per Si atom -5599.212198 kJ/mol
# Density = 2.686853 g / cm^3
# Si number density = 26.929825 Si / 1000 Ang^3
#
#
#
# Elastic Constant Matrix: (Units=GPa)
#
#
# Indices 1 2 3 4 5 6 
#
# 1 247.0668 11.8632 35.2087 0.0000 17.8294 0.0000
# 2 11.8632 45.3528 30.5145 0.0000 15.8323 0.0000
# 3 35.2087 30.5145 126.3678 0.0000 37.7159 0.0000
# 4 0.0000 0.0000 0.0000 38.4854 0.0000 14.1097
# 5 17.8294 15.8323 37.7159 0.0000 45.4393 0.0000
# 6 0.0000 0.0000 0.0000 14.1097 0.0000 20.8290
#
#
#
# Elastic Compliance Matrix: (Units=1/GPa)
#
#
# Indices 1 2 3 4 5 6 
#
# 1 0.004245 -0.000222 -0.000871 0.000000 -0.000865 0.000000
# 2 -0.000222 0.027288 -0.004939 0.000000 -0.005321 0.000000
# 3 -0.000871 -0.004939 0.011609 0.000000 -0.007573 0.000000
# 4 0.000000 0.000000 0.000000 0.034569 0.000000 -0.023418
# 5 -0.000865 -0.005321 -0.007573 0.000000 0.030487 0.000000
# 6 0.000000 0.000000 0.000000 -0.023418 0.000000 0.063873
#
#
# Mechanical properties :
#
#
# Convention : Reuss Voigt Hill
#
# Bulk Modulus (GPa) = 32.17796 63.77335 47.97565
# Shear Modulus (GPa) = 25.70755 43.69748 34.70251
#
# Velocity S-wave (km/s) = 3.09303 4.03257 3.59364
# Velocity P-wave (km/s) = 4.97298 6.73906 5.92222
#
# Compressibility (1/GPa) = 0.03107717
#
# Stress axis : x y z
#
# Youngs Moduli (GPa) = 235.58835 36.64570 86.13986
#
# Poissons Ratio (x) = 0.00815 0.07500
# Poissons Ratio (y) = 0.05240 0.42547
# Poissons Ratio (z) = 0.20512 0.18101
#
# Static dielectric constant tensor:
#      x y z
#    x 2.237890 0.000000 -0.062410 
#    y 0.000000 2.137850 0.000000 
#    z -0.062410 0.000000 1.997850 
# 
# From -- ./inp_files/24069.got.cif
#   From: 2010.05.17/outbox.cif.g08.bks.cpg/sg13_13_cif.got.tgz:24069.got - 2010.06.03 16:44:36.
