data_PCOD9228007
_publ_section_title
;
Structure prediction by ZEFSAII (Michael W. Deem and Ramdas Pophale) SiO2 
 PCOD9228007
Probable space group: P 2/C
;
_chemical_formula_sum "Si O2"
_cell_formula_units_Z 32
_cell_length_a 9.405991
_cell_length_b 6.716387
_cell_length_c 21.738470
_cell_angle_alpha 90.000000
_cell_angle_beta 67.659842
_cell_angle_gamma 90.000000
_cell_volume 1270.236144
_symmetry_space_group_name_H-M "P 2/C"
_symmetry_group_IT_number 13
_symmetry_cell_setting 'monoclinic'
loop_
_space_group_symop_operation_xyz
x,y,z
-x,y,1/2-z
-x,-y,-z
x,-y,1/2+z
loop_
_atom_site_type_symbol
_atom_site_label
_atom_site_fract_x
_atom_site_fract_y
_atom_site_fract_z
Si Si1 0.301645 0.968744 0.909679
Si Si2 0.668729 0.922135 0.730205
Si Si3 0.832303 0.122662 0.894015
Si Si4 0.601853 0.775552 0.331155
Si Si5 0.870083 0.755649 0.970354
Si Si6 0.362124 0.397443 0.484390
Si Si7 0.978297 0.515560 0.146523
Si Si8 0.768091 0.416488 0.291026
O O1 0.251776 0.923356 0.848330
O O2 0.367787 0.762253 0.927657
O O3 0.448186 0.119633 0.881275
O O4 0.164063 0.078610 0.970007
O O5 0.500000 0.825135 0.750000
O O6 0.745527 0.806976 0.773485
O O7 0.634611 0.143338 0.758255
O O8 0.753251 0.150264 0.842030
O O9 0.986673 0.253080 0.873068
O O10 0.836512 0.900330 0.917944
O O11 0.715652 0.248157 0.954613
O O12 0.614204 0.538294 0.332854
O O13 0.008052 0.617288 0.918186
O O14 0.751832 0.581537 0.007956
O O15 0.500000 0.500000 0.500000
O O16 0.115527 0.446249 0.171334
O O17 0.834575 0.499908 0.215250
#
# Coordination Sequence:
#
# PCOD9228007 Si02
#       8
#     4   4   4   4   4   4   4   4
#     4  10  22  36  53  84 120 156 200 239 290 363
#     4  10  23  38  55  83 117 157 202 239 289 364
#     4   9  18  32  53  84 112 141 188 236 289 351
#     4  10  20  35  55  80 114 153 192 241 295 344
#     4  10  19  34  57  81 118 154 183 241 300 341
#     4  10  19  31  53  84 115 149 189 239 295 348
#     4   9  20  37  61  91 115 149 200 247 299 351
#     4  10  21  39  61  86 119 155 196 248 297 348
#
# _framework density 25.192166
#
# number of rings (size 3 to 8) (size 9 to 14) (size 15 to 20)
#    0.000    2.250    0.000    2.250    0.000   12.500 
#    0.000    3.125    0.000    7.500    0.000    0.000 
#    0.000    0.000    0.000    0.000    0.000    0.000 
#
# Total GULP energy -178299.785916 kJ/mol
# GULP energy per Si atom -5571.868310 kJ/mol
# Density = 2.513483 g / cm^3
# Si number density = 25.192166 Si / 1000 Ang^3
#
#
#
# Elastic Constant Matrix: (Units=GPa)
#
#
# Indices 1 2 3 4 5 6 
#
# 1 36.4920 38.4681 9.7508 0.0000 -11.3812 0.0000
# 2 38.4681 151.8582 61.4564 0.0000 -2.7279 0.0000
# 3 9.7508 61.4564 111.5702 0.0000 2.9721 0.0000
# 4 0.0000 0.0000 0.0000 35.9479 0.0000 0.1941
# 5 -11.3812 -2.7279 2.9721 0.0000 34.4487 0.0000
# 6 0.0000 0.0000 0.0000 0.1941 0.0000 9.9576
#
#
#
# Elastic Compliance Matrix: (Units=1/GPa)
#
#
# Indices 1 2 3 4 5 6 
#
# 1 0.043131 -0.011611 0.002276 0.000000 0.013134 0.000000
# 2 -0.011611 0.011640 -0.005331 0.000000 -0.002454 0.000000
# 3 0.002276 -0.005331 0.011719 0.000000 -0.000681 0.000000
# 4 0.000000 0.000000 0.000000 0.027821 0.000000 -0.000542
# 5 0.013134 -0.002454 -0.000681 0.000000 0.033232 0.000000
# 6 0.000000 0.000000 0.000000 -0.000542 0.000000 0.100436
#
#
# Mechanical properties :
#
#
# Convention : Reuss Voigt Hill
#
# Bulk Modulus (GPa) = 26.91248 57.69678 42.30463
# Shear Modulus (GPa) = 18.53932 28.75387 23.64660
#
# Velocity S-wave (km/s) = 2.71572 3.38210 3.06706
# Velocity P-wave (km/s) = 4.53206 6.18093 5.41957
#
# Compressibility (1/GPa) = 0.03715749
#
# Stress axis : x y z
#
# Youngs Moduli (GPa) = 23.18517 85.91154 85.33226
#
# Poissons Ratio (x) = 0.99752 -0.19425
# Poissons Ratio (y) = 0.26920 0.45495
# Poissons Ratio (z) = -0.05278 0.45803
#
# Static dielectric constant tensor:
#      x y z
#    x 2.005800 0.000000 0.014470 
#    y 0.000000 2.064110 0.000000 
#    z 0.014470 0.000000 2.045130 
# 
# From -- ./inp_files/85977.got.cif
#   From: 2010.05.17/outbox.cif.g08.bks.cpg/sg13_43_cif.got.tgz:85977.got - 2010.06.03 16:44:36.
