data_PCOD9228772
_publ_section_title
;
Structure prediction by ZEFSAII (Michael W. Deem and Ramdas Pophale) SiO2 
 PCOD9228772
Probable space group: P 2/C
;
_chemical_formula_sum "Si O2"
_cell_formula_units_Z 30
_cell_length_a 8.532926
_cell_length_b 8.960400
_cell_length_c 22.319969
_cell_angle_alpha 90.000000
_cell_angle_beta 57.753513
_cell_angle_gamma 90.000000
_cell_volume 1443.332468
_symmetry_space_group_name_H-M "P 2/C"
_symmetry_group_IT_number 13
_symmetry_cell_setting 'monoclinic'
loop_
_space_group_symop_operation_xyz
x,y,z
-x,y,1/2-z
-x,-y,-z
x,-y,1/2+z
loop_
_atom_site_type_symbol
_atom_site_label
_atom_site_fract_x
_atom_site_fract_y
_atom_site_fract_z
Si Si1 0.215281 0.340879 0.635870
Si Si2 0.608342 0.078330 0.130457
Si Si3 0.213778 0.658118 0.837409
Si Si4 0.214959 0.640459 0.272393
Si Si5 0.500000 0.122648 0.750000
Si Si6 0.211797 0.644715 0.582325
Si Si7 0.453526 0.123020 0.960108
Si Si8 0.797048 0.181177 0.289981
O O1 0.218924 0.409437 0.702342
O O2 0.268551 0.472873 0.579119
O O3 0.357810 0.204542 0.600712
O O4 0.996118 0.307892 0.670774
O O5 0.681223 0.243042 0.133735
O O6 0.387096 0.085927 0.166322
O O7 0.633408 0.981085 0.184313
O O8 0.665748 0.971888 0.064138
O O9 0.269930 0.488704 0.808763
O O10 0.224432 0.737933 0.769941
O O11 0.998459 0.650783 0.898124
O O12 0.362860 0.770996 0.242850
O O13 0.336966 0.745461 0.514713
O O14 0.205677 0.714039 0.650737
O O15 0.500000 0.000000 0.000000
O O16 0.000000 0.105593 0.250000
#
# Coordination Sequence:
#
# PCOD9228772 Si02
#       8
#     4   4   4   4   2   4   4   4
#     4  10  21  42  67  93 123 164 223 263 315 376
#     4  12  24  39  59  95 129 170 205 258 330 389
#     4  10  21  39  65  93 125 159 213 266 323 380
#     4  10  22  39  66  98 124 158 209 280 322 367
#     4  12  24  36  58  98 132 154 200 264 346 372
#     4  10  21  40  65  91 122 170 213 259 309 379
#     4  12  25  41  61  91 131 173 213 255 316 394
#     4  10  19  35  63  91 116 156 212 260 307 367
#
# _framework density 20.785231
#
# number of rings (size 3 to 8) (size 9 to 14) (size 15 to 20)
#    0.000    1.333    5.333    0.400    1.867    2.667 
#    0.000    0.000    0.000    3.200    0.000    0.000 
#    0.000    0.000    0.000    0.000    0.000    0.000 
#
# Total GULP energy -167171.493382 kJ/mol
# GULP energy per Si atom -5572.383113 kJ/mol
# Density = 2.073792 g / cm^3
# Si number density = 20.785231 Si / 1000 Ang^3
#
#
#
# Elastic Constant Matrix: (Units=GPa)
#
#
# Indices 1 2 3 4 5 6 
#
# 1 64.9790 38.9099 16.4030 0.0000 -4.9082 0.0000
# 2 38.9099 97.0630 28.3911 0.0000 -5.3179 0.0000
# 3 16.4030 28.3911 61.3756 0.0000 -0.5623 0.0000
# 4 0.0000 0.0000 0.0000 31.4735 0.0000 4.9390
# 5 -4.9082 -5.3179 -0.5623 0.0000 29.5476 0.0000
# 6 0.0000 0.0000 0.0000 4.9390 0.0000 21.0205
#
#
#
# Elastic Compliance Matrix: (Units=1/GPa)
#
#
# Indices 1 2 3 4 5 6 
#
# 1 0.020566 -0.007553 -0.001984 0.000000 0.002019 0.000000
# 2 -0.007553 0.014813 -0.004821 0.000000 0.001320 0.000000
# 3 -0.001984 -0.004821 0.019046 0.000000 -0.000835 0.000000
# 4 0.000000 0.000000 0.000000 0.032989 0.000000 -0.007751
# 5 0.002019 0.001320 -0.000835 0.000000 0.034401 0.000000
# 6 0.000000 0.000000 0.000000 -0.007751 0.000000 0.049394
#
#
# Mechanical properties :
#
#
# Convention : Reuss Voigt Hill
#
# Bulk Modulus (GPa) = 38.89896 43.42506 41.16201
# Shear Modulus (GPa) = 23.98136 25.72257 24.85197
#
# Velocity S-wave (km/s) = 3.40040 3.52169 3.46158
# Velocity P-wave (km/s) = 5.84571 6.12160 5.98524
#
# Compressibility (1/GPa) = 0.02570763
#
# Stress axis : x y z
#
# Youngs Moduli (GPa) = 48.62410 67.50766 52.50457
#
# Poissons Ratio (x) = 0.50991 0.10416
# Poissons Ratio (y) = 0.36728 0.25315
# Poissons Ratio (z) = 0.09646 0.32549
#
# Static dielectric constant tensor:
#      x y z
#    x 1.771020 0.000000 0.032690 
#    y 0.000000 1.751310 0.000000 
#    z 0.032690 0.000000 1.771630 
# 
# From -- ./inp_files/84954.got.cif
#   From: 2010.05.17/outbox.cif.g08.bks.cpg/sg13_43_cif.got.tgz:84954.got - 2010.06.03 16:44:36.
