data_PCOD9228866
_publ_section_title
;
Structure prediction by ZEFSAII (Michael W. Deem and Ramdas Pophale) SiO2 
 PCOD9228866
Probable space group: P 2/C
;
_chemical_formula_sum "Si O2"
_cell_formula_units_Z 32
_cell_length_a 19.865966
_cell_length_b 10.233901
_cell_length_c 25.544203
_cell_angle_alpha 90.000000
_cell_angle_beta 160.081300
_cell_angle_gamma 90.000000
_cell_volume 1769.286154
_symmetry_space_group_name_H-M "P 2/C"
_symmetry_group_IT_number 13
_symmetry_cell_setting 'monoclinic'
loop_
_space_group_symop_operation_xyz
x,y,z
-x,y,1/2-z
-x,-y,-z
x,-y,1/2+z
loop_
_atom_site_type_symbol
_atom_site_label
_atom_site_fract_x
_atom_site_fract_y
_atom_site_fract_z
Si Si1 0.073595 0.006089 0.613858
Si Si2 0.946118 0.550648 0.269246
Si Si3 0.520331 0.898764 0.562751
Si Si4 0.270676 0.267425 0.809730
Si Si5 0.383176 0.658203 0.007573
Si Si6 0.770776 0.058718 0.081843
Si Si7 0.668242 0.600499 0.410081
Si Si8 0.279904 0.107241 0.576319
O O1 0.256558 0.905705 0.754647
O O2 0.890937 0.961997 0.516099
O O3 0.164530 0.144185 0.702470
O O4 0.000000 0.000000 0.500000
O O5 0.881098 0.652322 0.266017
O O6 0.000000 0.603428 0.250000
O O7 0.136849 0.479597 0.433095
O O8 0.770254 0.446181 0.128691
O O9 0.434872 0.771215 0.473598
O O10 0.500000 0.000000 0.500000
O O11 0.370807 0.950665 0.497258
O O12 0.404551 0.341277 0.865031
O O13 0.413223 0.634823 0.091517
O O14 0.282286 0.802733 0.929087
O O15 0.000000 0.024680 0.250000
O O16 0.735858 0.079221 0.995886
O O17 0.500000 0.538249 0.250000
O O18 0.727966 0.735357 0.424550
O O19 0.500000 0.062676 0.750000
#
# Coordination Sequence:
#
# PCOD9228866 Si02
#       8
#     4   4   4   4   4   4   4   4
#     4  11  23  39  58  84 126 155 186 242 298 355
#     4  10  22  40  59  86 116 156 196 243 295 343
#     4  10  20  35  55  82 119 152 188 236 296 347
#     4  11  23  37  59  84 121 155 193 240 295 358
#     4  10  19  36  58  86 115 148 196 253 285 337
#     4  11  18  31  57  85 110 142 197 241 282 336
#     4   9  20  37  63  84 114 148 198 249 288 341
#     4  10  21  34  58  85 110 150 194 237 288 349
#
# _framework density 18.086390999999999
#
# number of rings (size 3 to 8) (size 9 to 14) (size 15 to 20)
#    0.000    1.750    2.500    4.500    5.250    1.500 
#    0.000    3.750    0.000    0.000    0.000    0.000 
#    0.000    0.000    0.000    0.000    0.000    0.000 
#
# Total GULP energy -178283.115734 kJ/mol
# GULP energy per Si atom -5571.347367 kJ/mol
# Density = 1.804523 g / cm^3
# Si number density = 18.086391 Si / 1000 Ang^3
#
#
#
# Elastic Constant Matrix: (Units=GPa)
#
#
# Indices 1 2 3 4 5 6 
#
# 1 105.1733 39.8379 53.0233 0.0000 18.6186 0.0000
# 2 39.8379 30.7177 23.9387 0.0000 -0.8995 0.0000
# 3 53.0233 23.9387 136.9469 0.0000 -3.1312 0.0000
# 4 0.0000 0.0000 0.0000 22.7466 0.0000 17.3493
# 5 18.6186 -0.8995 -3.1312 0.0000 36.1557 0.0000
# 6 0.0000 0.0000 0.0000 17.3493 0.0000 102.8369
#
#
#
# Elastic Compliance Matrix: (Units=1/GPa)
#
#
# Indices 1 2 3 4 5 6 
#
# 1 0.026265 -0.030456 -0.005182 0.000000 -0.014732 0.000000
# 2 -0.030456 0.073009 -0.000571 0.000000 0.017450 0.000000
# 3 -0.005182 -0.000571 0.009488 0.000000 0.003476 0.000000
# 4 0.000000 0.000000 0.000000 0.050455 0.000000 -0.008512
# 5 -0.014732 0.017450 0.003476 0.000000 0.035980 0.000000
# 6 0.000000 0.000000 0.000000 -0.008512 0.000000 0.011160
#
#
# Mechanical properties :
#
#
# Convention : Reuss Voigt Hill
#
# Bulk Modulus (GPa) = 27.51568 56.27085 41.89327
# Shear Modulus (GPa) = 17.18870 42.75038 29.96954
#
# Velocity S-wave (km/s) = 3.08615 4.86704 4.07507
# Velocity P-wave (km/s) = 5.28636 7.92237 6.73459
#
# Compressibility (1/GPa) = 0.03634291
#
# Stress axis : x y z
#
# Youngs Moduli (GPa) = 38.07379 13.69701 105.39681
#
# Poissons Ratio (x) = 0.41715 0.54620
# Poissons Ratio (y) = 1.15956 0.06021
# Poissons Ratio (z) = 0.19731 0.00783
#
# Static dielectric constant tensor:
#      x y z
#    x 1.625780 0.000000 0.009180 
#    y 0.000000 1.668100 0.000000 
#    z 0.009180 0.000000 1.624750 
# 
# From -- ./inp_files/88198.got.cif
#   From: 2010.05.17/outbox.cif.g08.bks.cpg/sg13_45_cif.got.tgz:88198.got - 2010.06.03 16:44:36.
