data_PCOD9228732
_publ_section_title
;
Structure prediction by ZEFSAII (Michael W. Deem and Ramdas Pophale) SiO2 
 PCOD9228732
Probable space group: P 2/C
;
_chemical_formula_sum "Si O2"
_cell_formula_units_Z 20
_cell_length_a 7.692963
_cell_length_b 9.831135
_cell_length_c 13.437689
_cell_angle_alpha 90.000000
_cell_angle_beta 60.317527
_cell_angle_gamma 90.000000
_cell_volume 882.944126
_symmetry_space_group_name_H-M "P 2/C"
_symmetry_group_IT_number 13
_symmetry_cell_setting 'monoclinic'
loop_
_space_group_symop_operation_xyz
x,y,z
-x,y,1/2-z
-x,-y,-z
x,-y,1/2+z
loop_
_atom_site_type_symbol
_atom_site_label
_atom_site_fract_x
_atom_site_fract_y
_atom_site_fract_z
Si Si1 0.779286 0.000448 0.823172
Si Si2 0.401365 0.839808 0.948310
Si Si3 0.204144 0.717925 0.298155
Si Si4 0.842532 0.402356 0.989740
Si Si5 0.561580 0.646085 0.075684
O O1 0.786639 0.134903 0.753204
O O2 0.000000 0.935753 0.750000
O O3 0.587103 0.913560 0.844291
O O4 0.729305 0.051626 0.950445
O O5 0.261732 0.730317 0.931145
O O6 0.508654 0.746987 0.002263
O O7 0.357044 0.621978 0.194896
O O8 0.292531 0.719701 0.385213
O O9 0.978849 0.664305 0.366221
O O10 0.670948 0.509016 0.012512
O O11 0.000000 0.500000 0.000000
#
# Coordination Sequence:
#
# PCOD9228732 Si02
#       5
#     4   4   4   4   4
#     4  10  19  36  61  83 120 166 209 249 302 377
#     4  10  20  35  59  89 116 155 212 251 302 364
#     4   9  18  36  60  80 117 163 198 240 321 360
#     4  10  19  35  61  85 118 154 200 255 310 364
#     4   9  19  34  58  87 115 155 202 252 303 367
#
# _framework density 22.651491
#
# number of rings (size 3 to 8) (size 9 to 14) (size 15 to 20)
#    0.000    2.400    2.000    0.600    0.000    0.000 
#    3.600    1.000   22.000    0.000    0.000    0.000 
#    0.000    0.000    0.000    0.000    0.000    0.000 
#
# Total GULP energy -111566.950164 kJ/mol
# GULP energy per Si atom -5578.347508 kJ/mol
# Density = 2.259993 g / cm^3
# Si number density = 22.651491 Si / 1000 Ang^3
#
#
#
# Elastic Constant Matrix: (Units=GPa)
#
#
# Indices 1 2 3 4 5 6 
#
# 1 92.4000 27.2876 32.6188 0.0000 -28.7453 0.0000
# 2 27.2876 91.3108 54.0498 0.0000 -25.0233 0.0000
# 3 32.6188 54.0498 94.3869 0.0000 -43.9706 0.0000
# 4 0.0000 0.0000 0.0000 47.8014 0.0000 -24.7473
# 5 -28.7453 -25.0233 -43.9706 0.0000 48.7862 0.0000
# 6 0.0000 0.0000 0.0000 -24.7473 0.0000 43.0729
#
#
#
# Elastic Compliance Matrix: (Units=1/GPa)
#
#
# Indices 1 2 3 4 5 6 
#
# 1 0.013626 -0.001960 -0.000542 0.000000 0.006534 0.000000
# 2 -0.001960 0.016850 -0.009452 0.000000 -0.001031 0.000000
# 3 -0.000542 -0.009452 0.023766 0.000000 0.016252 0.000000
# 4 0.000000 0.000000 0.000000 0.029777 0.000000 0.017108
# 5 0.006534 -0.001031 0.016252 0.000000 0.038467 0.000000
# 6 0.000000 0.000000 0.000000 0.017108 0.000000 0.033046
#
#
# Mechanical properties :
#
#
# Convention : Reuss Voigt Hill
#
# Bulk Modulus (GPa) = 32.96821 56.22335 44.59578
# Shear Modulus (GPa) = 26.37819 38.87486 32.62652
#
# Velocity S-wave (km/s) = 3.41621 4.14722 3.79934
# Velocity P-wave (km/s) = 5.49061 6.91430 6.24317
#
# Compressibility (1/GPa) = 0.03033225
#
# Stress axis : x y z
#
# Youngs Moduli (GPa) = 73.39120 59.34851 42.07701
#
# Poissons Ratio (x) = 0.11634 0.02282
# Poissons Ratio (y) = 0.14387 0.39771
# Poissons Ratio (z) = 0.03980 0.56095
#
# Static dielectric constant tensor:
#      x y z
#    x 1.973040 0.000000 -0.001640 
#    y 0.000000 1.847250 0.000000 
#    z -0.001640 0.000000 1.881510 
# 
# From -- ./inp_files/63643.got.cif
#   From: 2010.05.17/outbox.cif.g08.bks.cpg/sg13_32_cif.got.tgz:63643.got - 2010.06.03 16:44:36.
