data_PCOD9228339
_publ_section_title
;
Structure prediction by ZEFSAII (Michael W. Deem and Ramdas Pophale) SiO2 
 PCOD9228339
Probable space group: P 2/C
;
_chemical_formula_sum "Si O2"
_cell_formula_units_Z 32
_cell_length_a 21.043180
_cell_length_b 10.475345
_cell_length_c 8.213047
_cell_angle_alpha 90.000000
_cell_angle_beta 121.855573
_cell_angle_gamma 90.000000
_cell_volume 1537.753232
_symmetry_space_group_name_H-M "P 2/C"
_symmetry_group_IT_number 13
_symmetry_cell_setting 'monoclinic'
loop_
_space_group_symop_operation_xyz
x,y,z
-x,y,1/2-z
-x,-y,-z
x,-y,1/2+z
loop_
_atom_site_type_symbol
_atom_site_label
_atom_site_fract_x
_atom_site_fract_y
_atom_site_fract_z
Si Si1 0.375745 0.763686 0.998928
Si Si2 0.857976 0.550347 0.209633
Si Si3 0.421228 0.249030 0.208736
Si Si4 0.081040 0.312919 0.413059
Si Si5 0.647293 0.367761 0.695655
Si Si6 0.690746 0.017444 0.494645
Si Si7 0.251600 0.601280 0.699410
Si Si8 0.773474 0.840423 0.352832
O O1 0.424747 0.722188 0.907807
O O2 0.367240 0.916663 0.999973
O O3 0.291704 0.717575 0.840059
O O4 0.391334 0.693715 0.194322
O O5 0.899737 0.439101 0.167512
O O6 0.911862 0.635525 0.392460
O O7 0.798741 0.476105 0.242235
O O8 0.805456 0.633703 0.020876
O O9 0.500000 0.199246 0.250000
O O10 0.398107 0.351807 0.035616
O O11 0.358682 0.139539 0.115591
O O12 0.145664 0.206820 0.483880
O O13 0.000000 0.267200 0.250000
O O14 0.680761 0.508743 0.768054
O O15 0.722794 0.285790 0.771677
O O16 0.725312 0.930446 0.403594
O O17 0.764303 0.077437 0.678439
#
# Coordination Sequence:
#
# PCOD9228339 Si02
#       8
#     4   4   4   4   4   4   4   4
#     4  11  22  38  63  91 122 163 201 261 319 358
#     4  10  19  33  58  89 120 156 200 247 300 360
#     4  11  25  42  62  90 127 160 208 265 321 373
#     4  11  22  36  55  88 131 163 196 250 315 372
#     4  10  21  39  63  93 121 157 212 253 310 382
#     4  10  21  40  61  87 113 155 218 262 299 369
#     4  11  18  36  64  93 115 155 208 260 294 370
#     4  10  19  38  59  85 114 155 207 258 301 357
#
# _framework density 20.809581000000001
#
# number of rings (size 3 to 8) (size 9 to 14) (size 15 to 20)
#    0.000    1.500    5.000    1.875    1.750    1.000 
#    0.000    1.250    0.000    0.000    0.000    0.000 
#    0.000    0.000    0.000    0.000    0.000    0.000 
#
# Total GULP energy -178341.851970 kJ/mol
# GULP energy per Si atom -5573.182874 kJ/mol
# Density = 2.076222 g / cm^3
# Si number density = 20.809581 Si / 1000 Ang^3
#
#
#
# Elastic Constant Matrix: (Units=GPa)
#
#
# Indices 1 2 3 4 5 6 
#
# 1 47.5578 -5.1568 16.6850 0.0000 2.3906 0.0000
# 2 -5.1568 33.8198 4.1999 0.0000 2.1695 0.0000
# 3 16.6850 4.1999 75.8109 0.0000 -6.1182 0.0000
# 4 0.0000 0.0000 0.0000 -6.6590 0.0000 -5.9092
# 5 2.3906 2.1695 -6.1182 0.0000 32.0665 0.0000
# 6 0.0000 0.0000 0.0000 -5.9092 0.0000 17.6927
#
#
#
# Elastic Compliance Matrix: (Units=1/GPa)
#
#
# Indices 1 2 3 4 5 6 
#
# 1 0.023683 0.004524 -0.005718 0.000000 -0.003163 0.000000
# 2 0.004524 0.030815 -0.002944 0.000000 -0.002984 0.000000
# 3 -0.005718 -0.002944 0.014892 0.000000 0.003467 0.000000
# 4 0.000000 0.000000 0.000000 -0.115840 0.000000 -0.038689
# 5 -0.003163 -0.002984 0.003467 0.000000 0.032284 0.000000
# 6 0.000000 0.000000 0.000000 -0.038689 0.000000 0.043599
#
#
# Mechanical properties :
#
#
# Convention : Reuss Voigt Hill
#
# Bulk Modulus (GPa) = 16.36268 20.96051 18.66159
# Shear Modulus (GPa) = 86.08877 18.05074 52.06976
#
# Velocity S-wave (km/s) = 6.43891 2.94840 5.00763
# Velocity P-wave (km/s) = 7.94730 4.65673 6.51325
#
# Compressibility (1/GPa) = 0.06111469
#
# Stress axis : x y z
#
# Youngs Moduli (GPa) = 42.22488 32.45147 67.14981
#
# Poissons Ratio (x) = -0.14681 0.38397
# Poissons Ratio (y) = -0.19103 0.19767
# Poissons Ratio (z) = 0.24145 0.09553
#
# Static dielectric constant tensor:
#      x y z
#    x 1.759280 0.000000 -0.077970 
#    y 0.000000 1.780660 0.000000 
#    z -0.077970 0.000000 1.844180 
# 
# From -- ./inp_files/23253.got.cif
#   From: 2010.05.17/outbox.cif.g08.bks.cpg/sg13_12_cif.got.tgz:23253.got - 2010.06.03 16:44:36.
