data_PCOD9228895
_publ_section_title
;
Structure prediction by ZEFSAII (Michael W. Deem and Ramdas Pophale) SiO2 
 PCOD9228895
Probable space group: P 2/C
;
_chemical_formula_sum "Si O2"
_cell_formula_units_Z 20
_cell_length_a 15.319339
_cell_length_b 8.294399
_cell_length_c 9.049641
_cell_angle_alpha 90.000000
_cell_angle_beta 45.032698
_cell_angle_gamma 90.000000
_cell_volume 813.558915
_symmetry_space_group_name_H-M "P 2/C"
_symmetry_group_IT_number 13
_symmetry_cell_setting 'monoclinic'
loop_
_space_group_symop_operation_xyz
x,y,z
-x,y,1/2-z
-x,-y,-z
x,-y,1/2+z
loop_
_atom_site_type_symbol
_atom_site_label
_atom_site_fract_x
_atom_site_fract_y
_atom_site_fract_z
Si Si1 0.832432 0.479151 0.537713
Si Si2 0.610570 0.825129 0.786269
Si Si3 0.330877 0.722615 0.079311
Si Si4 0.260282 0.953208 0.593063
Si Si5 0.080710 0.311423 0.336717
O O1 0.709065 0.416088 0.763119
O O2 0.843164 0.441803 0.352903
O O3 0.881065 0.649886 0.540585
O O4 0.941120 0.358898 0.471847
O O5 0.660607 0.691367 0.608645
O O6 0.661730 0.840007 0.889287
O O7 0.657360 0.987659 0.644273
O O8 0.465007 0.795678 0.959207
O O9 0.239056 0.875238 0.196838
O O10 0.133604 0.858983 0.721055
#
# Coordination Sequence:
#
# PCOD9228895 Si02
#       5
#     4   4   4   4   4
#     4  10  22  42  59  85 115 158 190 245 283 348
#     4   9  20  34  62  84 120 146 194 231 294 334
#     4   9  20  35  63  82 121 149 190 237 288 344
#     4  10  19  36  59  88 115 154 187 244 282 350
#     4  10  23  39  62  84 118 150 201 235 293 337
#
# _framework density 24.583347
#
# number of rings (size 3 to 8) (size 9 to 14) (size 15 to 20)
#    1.200    1.200    0.000    1.800    2.800    0.800 
#    0.000    1.000    8.800    0.000    0.000    0.000 
#    0.000    0.000    0.000    0.000    0.000    0.000 
#
# Total GULP energy -111424.040292 kJ/mol
# GULP energy per Si atom -5571.202015 kJ/mol
# Density = 2.452739 g / cm^3
# Si number density = 24.583347 Si / 1000 Ang^3
#
#
#
# Elastic Constant Matrix: (Units=GPa)
#
#
# Indices 1 2 3 4 5 6 
#
# 1 41.0047 -8.0401 6.4423 0.0000 7.7109 0.0000
# 2 -8.0401 57.7623 23.0542 0.0000 -16.2646 0.0000
# 3 6.4423 23.0542 95.6760 0.0000 -2.3868 0.0000
# 4 0.0000 0.0000 0.0000 49.2138 0.0000 -9.9023
# 5 7.7109 -16.2646 -2.3868 0.0000 38.3120 0.0000
# 6 0.0000 0.0000 0.0000 -9.9023 0.0000 15.7891
#
#
#
# Elastic Compliance Matrix: (Units=1/GPa)
#
#
# Indices 1 2 3 4 5 6 
#
# 1 0.026270 0.003652 -0.002746 0.000000 -0.003908 0.000000
# 2 0.003652 0.022355 -0.005423 0.000000 0.008418 0.000000
# 3 -0.002746 -0.005423 0.011918 0.000000 -0.001007 0.000000
# 4 0.000000 0.000000 0.000000 0.023254 0.000000 0.014584
# 5 -0.003908 0.008418 -0.001007 0.000000 0.030399 0.000000
# 6 0.000000 0.000000 0.000000 0.014584 0.000000 0.072482
#
#
# Mechanical properties :
#
#
# Convention : Reuss Voigt Hill
#
# Bulk Modulus (GPa) = 19.41364 26.37286 22.89325
# Shear Modulus (GPa) = 23.48725 32.19540 27.84133
#
# Velocity S-wave (km/s) = 3.09433 3.62282 3.36896
# Velocity P-wave (km/s) = 4.54760 5.31517 4.94630
#
# Compressibility (1/GPa) = 0.05151017
#
# Stress axis : x y z
#
# Youngs Moduli (GPa) = 38.06628 44.73228 83.90379
#
# Poissons Ratio (x) = -0.16338 0.23044
# Poissons Ratio (y) = -0.13903 0.45498
# Poissons Ratio (z) = 0.10455 0.24257
#
# Static dielectric constant tensor:
#      x y z
#    x 2.073150 0.000000 0.042200 
#    y 0.000000 2.025000 0.000000 
#    z 0.042200 0.000000 1.968440 
# 
# From -- ./inp_files/20824.got.cif
#   From: 2010.05.17/outbox.cif.g08.bks.cpg/sg13_11_cif.got.tgz:20824.got - 2010.06.03 16:44:36.
