data_PCOD9228664
_publ_section_title
;
Structure prediction by ZEFSAII (Michael W. Deem and Ramdas Pophale) SiO2 
 PCOD9228664
Probable space group: P 2/C
;
_chemical_formula_sum "Si O2"
_cell_formula_units_Z 28
_cell_length_a 14.598460
_cell_length_b 7.813615
_cell_length_c 17.585992
_cell_angle_alpha 90.000000
_cell_angle_beta 147.535554
_cell_angle_gamma 90.000000
_cell_volume 1076.760551
_symmetry_space_group_name_H-M "P 2/C"
_symmetry_group_IT_number 13
_symmetry_cell_setting 'monoclinic'
loop_
_space_group_symop_operation_xyz
x,y,z
-x,y,1/2-z
-x,-y,-z
x,-y,1/2+z
loop_
_atom_site_type_symbol
_atom_site_label
_atom_site_fract_x
_atom_site_fract_y
_atom_site_fract_z
Si Si1 0.500000 0.077129 0.750000
Si Si2 0.324135 0.819339 0.921715
Si Si3 0.845141 0.693440 0.498261
Si Si4 0.359039 0.978159 0.796855
Si Si5 0.683197 0.555679 0.097088
Si Si6 0.152552 0.668841 0.420738
Si Si7 0.923819 0.240499 0.883514
Si Si8 0.000000 0.878947 0.750000
O O1 0.336195 0.204436 0.627642
O O2 0.435798 0.949174 0.769586
O O3 0.260818 0.630358 0.897097
O O4 0.185124 0.954177 0.857391
O O5 0.344946 0.828958 0.846543
O O6 0.507604 0.875945 0.080237
O O7 0.823204 0.500115 0.511123
O O8 0.933509 0.691001 0.476775
O O9 0.958221 0.785577 0.641292
O O10 0.175998 0.065496 0.671270
O O11 0.690550 0.678206 0.028351
O O12 0.801918 0.632755 0.247161
O O13 0.500000 0.500000 0.000000
O O14 0.000000 0.654440 0.250000
O O15 0.082932 0.794806 0.437969
#
# Coordination Sequence:
#
# PCOD9228664 Si02
#       8
#     2   4   4   4   4   4   4   2
#     4  10  20  38  66  92 124 166 216 264 322 386
#     4  11  22  39  65  90 124 175 211 260 312 398
#     4  11  20  36  66  92 123 164 215 263 316 388
#     4  10  21  41  64  91 126 166 219 256 325 382
#     4  11  20  37  62  92 128 169 216 258 321 384
#     4  10  19  35  58  87 129 159 200 259 318 370
#     4  10  22  37  62  96 126 161 208 271 318 372
#     4  12  20  40  66  92 120 166 224 256 318 388
#
# _framework density 26.003924000000001
#
# number of rings (size 3 to 8) (size 9 to 14) (size 15 to 20)
#    0.000    1.429    5.000    1.286    2.000    0.000 
#    3.857    2.857    6.286    0.000    0.000    0.000 
#    0.000    0.000    0.000    0.000    0.000    0.000 
#
# Total GULP energy -156239.888068 kJ/mol
# GULP energy per Si atom -5579.996002 kJ/mol
# Density = 2.594474 g / cm^3
# Si number density = 26.003924 Si / 1000 Ang^3
#
#
#
# Elastic Constant Matrix: (Units=GPa)
#
#
# Indices 1 2 3 4 5 6 
#
# 1 280.6954 22.7655 47.7140 0.0000 -23.5772 0.0000
# 2 22.7655 60.7726 8.9446 0.0000 -4.1621 0.0000
# 3 47.7140 8.9446 82.8578 0.0000 -0.5205 0.0000
# 4 0.0000 0.0000 0.0000 26.6600 0.0000 2.9415
# 5 -23.5772 -4.1621 -0.5205 0.0000 52.6465 0.0000
# 6 0.0000 0.0000 0.0000 2.9415 0.0000 23.7010
#
#
#
# Elastic Compliance Matrix: (Units=1/GPa)
#
#
# Indices 1 2 3 4 5 6 
#
# 1 0.004189 -0.001113 -0.002281 0.000000 0.001765 0.000000
# 2 -0.001113 0.017106 -0.001201 0.000000 0.000842 0.000000
# 3 -0.002281 -0.001201 0.013506 0.000000 -0.000983 0.000000
# 4 0.000000 0.000000 0.000000 0.038030 0.000000 -0.004720
# 5 0.001765 0.000842 -0.000983 0.000000 0.019842 0.000000
# 6 0.000000 0.000000 0.000000 -0.004720 0.000000 0.042778
#
#
# Mechanical properties :
#
#
# Convention : Reuss Voigt Hill
#
# Bulk Modulus (GPa) = 39.04380 64.79714 51.92047
# Shear Modulus (GPa) = 32.64204 43.59493 38.11849
#
# Velocity S-wave (km/s) = 3.54683 4.09892 3.83283
# Velocity P-wave (km/s) = 5.64097 6.88287 6.29263
#
# Compressibility (1/GPa) = 0.02561226
#
# Stress axis : x y z
#
# Youngs Moduli (GPa) = 238.73030 58.45922 74.04223
#
# Poissons Ratio (x) = 0.06504 0.16889
# Poissons Ratio (y) = 0.26559 0.08890
# Poissons Ratio (z) = 0.54454 0.07019
#
# Static dielectric constant tensor:
#      x y z
#    x 2.153660 0.000000 0.054570 
#    y 0.000000 2.111950 0.000000 
#    z 0.054570 0.000000 2.129890 
# 
# From -- ./inp_files/68271.got.cif
#   From: 2010.05.17/outbox.cif.g08.bks.cpg/sg13_35_cif.got.tgz:68271.got - 2010.06.03 16:44:36.
