data_PCOD9228012
_publ_section_title
;
Structure prediction by ZEFSAII (Michael W. Deem and Ramdas Pophale) SiO2 
 PCOD9228012
Probable space group: P 2/C
;
_chemical_formula_sum "Si O2"
_cell_formula_units_Z 24
_cell_length_a 5.522859
_cell_length_b 10.032631
_cell_length_c 21.430028
_cell_angle_alpha 90.000000
_cell_angle_beta 109.274638
_cell_angle_gamma 90.000000
_cell_volume 1120.854444
_symmetry_space_group_name_H-M "P 2/C"
_symmetry_group_IT_number 13
_symmetry_cell_setting 'monoclinic'
loop_
_space_group_symop_operation_xyz
x,y,z
-x,y,1/2-z
-x,-y,-z
x,-y,1/2+z
loop_
_atom_site_type_symbol
_atom_site_label
_atom_site_fract_x
_atom_site_fract_y
_atom_site_fract_z
Si Si1 0.432922 0.549399 0.923735
Si Si2 0.705269 0.993693 0.390987
Si Si3 0.500000 0.016662 0.250000
Si Si4 0.968386 0.633566 0.954658
Si Si5 0.000000 0.849840 0.250000
Si Si6 0.180693 0.867120 0.480604
Si Si7 0.625564 0.737923 0.122557
O O1 0.663371 0.638399 0.917462
O O2 0.434605 0.417216 0.881664
O O3 0.157723 0.617704 0.912384
O O4 0.500000 0.500000 0.000000
O O5 0.595636 0.078401 0.323910
O O6 0.579516 0.847207 0.372132
O O7 0.009541 0.967849 0.424557
O O8 0.649166 0.058155 0.453554
O O9 0.239457 0.936133 0.245504
O O10 0.012260 0.767155 0.998473
O O11 0.000000 0.500000 0.000000
O O12 0.118156 0.764029 0.316029
O O13 0.330243 0.775355 0.445644
#
# Coordination Sequence:
#
# PCOD9228012 Si02
#       7
#     4   4   2   4   2   4   4
#     4  10  19  31  55  76 107 138 175 216 271 319
#     4  10  22  34  55  83 112 148 181 238 279 338
#     4  10  20  40  52  76 114 150 182 214 290 340
#     4  10  19  33  51  82 103 143 171 224 267 322
#     4  10  22  34  58  78 110 150 178 232 282 330
#     4  11  20  34  56  84 112 141 194 232 277 331
#     4  11  20  35  55  82 114 141 188 234 284 336
#
# _framework density 21.412234999999999
#
# number of rings (size 3 to 8) (size 9 to 14) (size 15 to 20)
#    0.000    1.667    5.000    2.500    0.000    0.000 
#    0.000    0.000    0.000    2.000    0.000    0.000 
#    0.000    0.000    0.000    0.000    0.000    0.000 
#
# Total GULP energy -133673.592238 kJ/mol
# GULP energy per Si atom -5569.733010 kJ/mol
# Density = 2.136350 g / cm^3
# Si number density = 21.412235 Si / 1000 Ang^3
#
#
#
# Elastic Constant Matrix: (Units=GPa)
#
#
# Indices 1 2 3 4 5 6 
#
# 1 117.7748 10.5311 16.0391 0.0000 8.5892 0.0000
# 2 10.5311 36.8869 12.7470 0.0000 5.7583 0.0000
# 3 16.0391 12.7470 133.0015 0.0000 15.6303 0.0000
# 4 0.0000 0.0000 0.0000 20.5307 0.0000 0.0445
# 5 8.5892 5.7583 15.6303 0.0000 24.1237 0.0000
# 6 0.0000 0.0000 0.0000 0.0445 0.0000 22.7092
#
#
#
# Elastic Compliance Matrix: (Units=1/GPa)
#
#
# Indices 1 2 3 4 5 6 
#
# 1 0.008919 -0.001974 -0.000615 0.000000 -0.002306 0.000000
# 2 -0.001974 0.029131 -0.001969 0.000000 -0.004975 0.000000
# 3 -0.000615 -0.001969 0.008335 0.000000 -0.004711 0.000000
# 4 0.000000 0.000000 0.000000 0.048708 0.000000 -0.000096
# 5 -0.002306 -0.004975 -0.004711 0.000000 0.046514 0.000000
# 6 0.000000 0.000000 0.000000 -0.000096 0.000000 0.044035
#
#
# Mechanical properties :
#
#
# Convention : Reuss Voigt Hill
#
# Bulk Modulus (GPa) = 26.83255 40.69973 33.76614
# Shear Modulus (GPa) = 24.13339 30.02912 27.08125
#
# Velocity S-wave (km/s) = 3.36085 3.74896 3.56020
# Velocity P-wave (km/s) = 5.25538 6.14724 5.71872
#
# Compressibility (1/GPa) = 0.03726817
#
# Stress axis : x y z
#
# Youngs Moduli (GPa) = 112.11716 34.32822 119.97079
#
# Poissons Ratio (x) = 0.06776 0.07384
# Poissons Ratio (y) = 0.22129 0.23625
# Poissons Ratio (z) = 0.06900 0.06760
#
# Static dielectric constant tensor:
#      x y z
#    x 1.884860 0.000000 0.008100 
#    y 0.000000 1.824330 0.000000 
#    z 0.008100 0.000000 1.831930 
# 
# From -- ./inp_files/61063.got.cif
#   From: 2010.05.17/outbox.cif.g08.bks.cpg/sg13_31_cif.got.tgz:61063.got - 2010.06.03 16:44:36.
