data_PCOD9228091
_publ_section_title
;
Structure prediction by ZEFSAII (Michael W. Deem and Ramdas Pophale) SiO2 
 PCOD9228091
Probable space group: P 2/C
;
_chemical_formula_sum "Si O2"
_cell_formula_units_Z 30
_cell_length_a 12.508416
_cell_length_b 5.540186
_cell_length_c 22.084843
_cell_angle_alpha 90.000000
_cell_angle_beta 97.944126
_cell_angle_gamma 90.000000
_cell_volume 1515.769153
_symmetry_space_group_name_H-M "P 2/C"
_symmetry_group_IT_number 13
_symmetry_cell_setting 'monoclinic'
loop_
_space_group_symop_operation_xyz
x,y,z
-x,y,1/2-z
-x,-y,-z
x,-y,1/2+z
loop_
_atom_site_type_symbol
_atom_site_label
_atom_site_fract_x
_atom_site_fract_y
_atom_site_fract_z
Si Si1 0.648885 0.923373 0.442347
Si Si2 0.500000 0.129574 0.750000
Si Si3 0.611516 0.410899 0.040731
Si Si4 0.955162 0.956876 0.564511
Si Si5 0.477644 0.811184 0.857541
Si Si6 0.834836 0.729698 0.903993
Si Si7 0.156577 0.446429 0.964228
Si Si8 0.341100 0.548091 0.162140
O O1 0.646090 0.837982 0.510468
O O2 0.656397 0.683681 0.402100
O O3 0.535877 0.040695 0.415345
O O4 0.745699 0.091371 0.426876
O O5 0.601199 0.275584 0.786166
O O6 0.444389 0.983501 0.800802
O O7 0.597482 0.369800 0.111315
O O8 0.714596 0.576383 0.035175
O O9 0.500000 0.500000 0.000000
O O10 0.882877 0.712552 0.559691
O O11 0.063288 0.885033 0.609315
O O12 0.898120 0.213831 0.572203
O O13 0.000000 0.000000 0.500000
O O14 0.574597 0.667439 0.834165
O O15 0.777038 0.571436 0.847660
O O16 0.868169 0.568862 0.965180
#
# Coordination Sequence:
#
# PCOD9228091 Si02
#       8
#     4   2   4   4   4   4   4   4
#     4  10  19  32  52  85 115 154 201 238 285 376
#     4  10  22  38  54  78 118 154 202 262 314 352
#     4  12  20  34  55  84 121 166 203 231 306 378
#     4  10  21  34  53  77 121 168 196 242 292 345
#     4  10  21  35  54  78 115 162 191 253 300 365
#     4  10  19  33  55  80 115 165 202 235 303 350
#     4  11  22  34  50  83 124 162 203 241 285 373
#     4  10  19  35  55  79 113 154 198 253 291 373
#
# _framework density 19.791931000000002
#
# number of rings (size 3 to 8) (size 9 to 14) (size 15 to 20)
#    0.000    1.600    2.667    4.800    1.867    1.067 
#    0.000    0.000    0.000    0.000    0.000    0.000 
#    0.000   25.600    0.267    0.000    0.000    0.000 
#
# Total GULP energy -167117.608765 kJ/mol
# GULP energy per Si atom -5570.586959 kJ/mol
# Density = 1.974688 g / cm^3
# Si number density = 19.791931 Si / 1000 Ang^3
#
#
#
# Elastic Constant Matrix: (Units=GPa)
#
#
# Indices 1 2 3 4 5 6 
#
# 1 96.6595 38.5702 27.8792 0.0000 15.7492 0.0000
# 2 38.5702 94.2818 28.5260 0.0000 13.5716 0.0000
# 3 27.8792 28.5260 72.1023 0.0000 10.5390 0.0000
# 4 0.0000 0.0000 0.0000 25.4361 0.0000 15.5004
# 5 15.7492 13.5716 10.5390 0.0000 10.5427 0.0000
# 6 0.0000 0.0000 0.0000 15.5004 0.0000 32.7501
#
#
#
# Elastic Compliance Matrix: (Units=1/GPa)
#
#
# Indices 1 2 3 4 5 6 
#
# 1 0.014810 -0.003106 -0.002165 0.000000 -0.015962 0.000000
# 2 -0.003106 0.014317 -0.002866 0.000000 -0.010925 0.000000
# 3 -0.002165 -0.002866 0.017366 0.000000 -0.010436 0.000000
# 4 0.000000 0.000000 0.000000 0.055249 0.000000 -0.026149
# 5 -0.015962 -0.010925 -0.010436 0.000000 0.143192 0.000000
# 6 0.000000 0.000000 0.000000 -0.026149 0.000000 0.042910
#
#
# Mechanical properties :
#
#
# Convention : Reuss Voigt Hill
#
# Bulk Modulus (GPa) = 33.09235 50.33272 41.71254
# Shear Modulus (GPa) = 15.91386 24.95032 20.43209
#
# Velocity S-wave (km/s) = 2.83867 3.55439 3.21650
# Velocity P-wave (km/s) = 5.24409 6.50623 5.90896
#
# Compressibility (1/GPa) = 0.03021846
#
# Stress axis : x y z
#
# Youngs Moduli (GPa) = 67.52155 69.84668 57.58522
#
# Poissons Ratio (x) = 0.21696 0.12464
# Poissons Ratio (y) = 0.20973 0.16506
# Poissons Ratio (z) = 0.14615 0.20021
#
# Static dielectric constant tensor:
#      x y z
#    x 1.778250 0.000000 0.065790 
#    y 0.000000 1.824500 0.000000 
#    z 0.065790 0.000000 1.707630 
# 
# From -- ./inp_files/85866.got.cif
#   From: 2010.05.17/outbox.cif.g08.bks.cpg/sg13_43_cif.got.tgz:85866.got - 2010.06.03 16:44:36.
