data_PCOD9228566
_publ_section_title
;
Structure prediction by ZEFSAII (Michael W. Deem and Ramdas Pophale) SiO2 
 PCOD9228566
Probable space group: P 2/C
;
_chemical_formula_sum "Si O2"
_cell_formula_units_Z 20
_cell_length_a 16.012819
_cell_length_b 5.661141
_cell_length_c 14.959243
_cell_angle_alpha 90.000000
_cell_angle_beta 31.538734
_cell_angle_gamma 90.000000
_cell_volume 709.324942
_symmetry_space_group_name_H-M "P 2/C"
_symmetry_group_IT_number 13
_symmetry_cell_setting 'monoclinic'
loop_
_space_group_symop_operation_xyz
x,y,z
-x,y,1/2-z
-x,-y,-z
x,-y,1/2+z
loop_
_atom_site_type_symbol
_atom_site_label
_atom_site_fract_x
_atom_site_fract_y
_atom_site_fract_z
Si Si1 0.178521 0.161085 0.607517
Si Si2 0.516870 0.631033 0.077680
Si Si3 0.000000 0.383518 0.250000
Si Si4 0.782616 0.156074 0.714463
Si Si5 0.500000 0.748387 0.750000
Si Si6 0.139388 0.673238 0.808635
O O1 0.214865 0.156762 0.679124
O O2 0.341260 0.092940 0.409570
O O3 0.000000 0.051950 0.750000
O O4 0.148607 0.431866 0.607412
O O5 0.383359 0.832610 0.188313
O O6 0.486322 0.435076 0.180173
O O7 0.500000 0.500000 0.000000
O O8 0.698887 0.706238 0.899310
O O9 0.013285 0.305792 0.342682
O O10 0.852168 0.424990 0.645215
O O11 0.857238 0.897004 0.627412
#
# Coordination Sequence:
#
# PCOD9228566 Si02
#       6
#     4   4   2   4   2   4
#     4   9  19  37  61  98 127 171 223 273 330 399
#     4  10  19  37  60  96 129 169 225 274 330 403
#     4   8  16  34  56  90 124 156 218 260 318 388
#     4  10  20  37  63  88 132 172 214 274 337 385
#     4  12  18  38  74  88 136 180 220 276 348 392
#     4  10  19  34  64  88 125 181 206 273 340 384
#
# _framework density 28.195822
#
# number of rings (size 3 to 8) (size 9 to 14) (size 15 to 20)
#    0.600    1.600    6.000    0.600    1.400    0.000 
#    0.000    2.000    0.000    1.200    0.000    0.000 
#    0.000    0.000    0.000    0.000    0.000    0.000 
#
# Total GULP energy -111397.756265 kJ/mol
# GULP energy per Si atom -5569.887813 kJ/mol
# Density = 2.813165 g / cm^3
# Si number density = 28.195822 Si / 1000 Ang^3
#
#
#
# Elastic Constant Matrix: (Units=GPa)
#
#
# Indices 1 2 3 4 5 6 
#
# 1 146.4736 41.7786 45.0662 0.0000 3.8919 0.0000
# 2 41.7786 146.7766 12.6101 0.0000 2.7644 0.0000
# 3 45.0662 12.6101 132.3461 0.0000 0.7886 0.0000
# 4 0.0000 0.0000 0.0000 14.0426 0.0000 26.4265
# 5 3.8919 2.7644 0.7886 0.0000 39.9280 0.0000
# 6 0.0000 0.0000 0.0000 26.4265 0.0000 23.7764
#
#
#
# Elastic Compliance Matrix: (Units=1/GPa)
#
#
# Indices 1 2 3 4 5 6 
#
# 1 0.008247 -0.002112 -0.002603 0.000000 -0.000606 0.000000
# 2 -0.002112 0.007419 0.000014 0.000000 -0.000308 0.000000
# 3 -0.002603 0.000014 0.008441 0.000000 0.000086 0.000000
# 4 0.000000 0.000000 0.000000 -0.065235 0.000000 0.072506
# 5 -0.000606 -0.000308 0.000086 0.000000 0.025124 0.000000
# 6 0.000000 0.000000 0.000000 0.072506 0.000000 -0.038528
#
#
# Mechanical properties :
#
#
# Convention : Reuss Voigt Hill
#
# Bulk Modulus (GPa) = 68.01111 69.38957 68.70034
# Shear Modulus (GPa) = -124.28632 37.29218 -43.49707
#
# Velocity S-wave (km/s) = -6.64646 3.64072 -3.93195
# Velocity P-wave (km/s) = 5.89298 6.50665 1.95055
#
# Compressibility (1/GPa) = 0.01470348
#
# Stress axis : x y z
#
# Youngs Moduli (GPa) = 121.26033 134.79093 118.47582
#
# Poissons Ratio (x) = 0.28472 0.30843
# Poissons Ratio (y) = 0.25614 -0.00168
# Poissons Ratio (z) = 0.31567 -0.00192
#
# Static dielectric constant tensor:
#      x y z
#    x 2.253280 0.000000 -0.317430 
#    y 0.000000 2.408690 0.000000 
#    z -0.317430 0.000000 2.680230 
# 
# From -- ./inp_files/69138.got.cif
#   From: 2010.05.17/outbox.cif.g08.bks.cpg/sg13_35_cif.got.tgz:69138.got - 2010.06.03 16:44:36.
