data_PCOD9228587
_publ_section_title
;
Structure prediction by ZEFSAII (Michael W. Deem and Ramdas Pophale) SiO2 
 PCOD9228587
Probable space group: P 2/C
;
_chemical_formula_sum "Si O2"
_cell_formula_units_Z 28
_cell_length_a 6.231616
_cell_length_b 13.314630
_cell_length_c 16.218502
_cell_angle_alpha 90.000000
_cell_angle_beta 65.436132
_cell_angle_gamma 90.000000
_cell_volume 1223.890279
_symmetry_space_group_name_H-M "P 2/C"
_symmetry_group_IT_number 13
_symmetry_cell_setting 'monoclinic'
loop_
_space_group_symop_operation_xyz
x,y,z
-x,y,1/2-z
-x,-y,-z
x,-y,1/2+z
loop_
_atom_site_type_symbol
_atom_site_label
_atom_site_fract_x
_atom_site_fract_y
_atom_site_fract_z
Si Si1 0.165666 0.422007 0.601226
Si Si2 0.406519 0.385852 0.078458
Si Si3 0.923264 0.851946 0.007415
Si Si4 0.500000 0.761369 0.250000
Si Si5 0.604481 0.020575 0.073431
Si Si6 0.000000 0.750817 0.250000
Si Si7 0.784939 0.643887 0.073936
Si Si8 0.768518 0.824435 0.842174
O O1 0.329180 0.400726 0.495357
O O2 0.289128 0.512330 0.631385
O O3 0.112350 0.325104 0.665025
O O4 0.910734 0.444882 0.602693
O O5 0.358423 0.284434 0.136076
O O6 0.285092 0.377555 0.007649
O O7 0.849194 0.844061 0.923599
O O8 0.165520 0.911011 0.975259
O O9 0.950475 0.741844 0.037535
O O10 0.711568 0.914324 0.086105
O O11 0.238102 0.803494 0.254390
O O12 0.580642 0.689660 0.162377
O O13 0.410676 0.085422 0.152600
O O14 0.500000 0.000000 0.000000
O O15 0.000000 0.823036 0.750000
#
# Coordination Sequence:
#
# PCOD9228587 Si02
#       8
#     4   4   4   2   4   2   4   4
#     4  10  20  33  56  78 112 157 201 252 299 365
#     4  10  20  35  54  79 113 156 205 237 305 364
#     4   9  19  36  61  81 110 151 197 242 304 372
#     4  10  20  36  56  84 116 152 192 248 314 360
#     4   9  18  37  59  82 107 145 190 238 306 366
#     4  10  20  36  58  82 116 156 198 260 310 360
#     4  10  19  35  54  80 111 149 196 246 305 362
#     4  10  21  35  56  85 120 155 193 252 299 369
#
# _framework density 22.877866999999998
#
# number of rings (size 3 to 8) (size 9 to 14) (size 15 to 20)
#    0.000    2.286    1.429    1.286    1.000    0.571 
#    0.000    4.286    0.000    0.000    0.000    0.000 
#    0.000    0.000    0.000    0.000    0.000    0.000 
#
# Total GULP energy -155872.949606 kJ/mol
# GULP energy per Si atom -5566.891057 kJ/mol
# Density = 2.282580 g / cm^3
# Si number density = 22.877867 Si / 1000 Ang^3
#
#
#
# Elastic Constant Matrix: (Units=GPa)
#
#
# Indices 1 2 3 4 5 6 
#
# 1 100.0891 27.4742 3.6733 0.0000 -12.4971 0.0000
# 2 27.4742 89.1539 25.2901 0.0000 -13.8511 0.0000
# 3 3.6733 25.2901 60.4232 0.0000 -14.1837 0.0000
# 4 0.0000 0.0000 0.0000 5.6308 0.0000 -8.8257
# 5 -12.4971 -13.8511 -14.1837 0.0000 34.9782 0.0000
# 6 0.0000 0.0000 0.0000 -8.8257 0.0000 32.7144
#
#
#
# Elastic Compliance Matrix: (Units=1/GPa)
#
#
# Indices 1 2 3 4 5 6 
#
# 1 0.011278 -0.003391 0.001508 0.000000 0.003298 0.000000
# 2 -0.003391 0.014076 -0.005152 0.000000 0.002273 0.000000
# 3 0.001508 -0.005152 0.020183 0.000000 0.006683 0.000000
# 4 0.000000 0.000000 0.000000 0.307710 0.000000 0.083014
# 5 0.003298 0.002273 0.006683 0.000000 0.033378 0.000000
# 6 0.000000 0.000000 0.000000 0.083014 0.000000 0.052963
#
#
# Mechanical properties :
#
#
# Convention : Reuss Voigt Hill
#
# Bulk Modulus (GPa) = 31.77813 40.28236 36.03025
# Shear Modulus (GPa) = 10.77244 27.54660 19.15952
#
# Velocity S-wave (km/s) = 2.17230 3.47374 2.89705
# Velocity P-wave (km/s) = 4.49582 5.80818 5.19362
#
# Compressibility (1/GPa) = 0.03146818
#
# Stress axis : x y z
#
# Youngs Moduli (GPa) = 88.66528 71.04235 49.54594
#
# Poissons Ratio (x) = 0.24090 -0.07471
# Poissons Ratio (y) = 0.30066 0.25525
# Poissons Ratio (z) = -0.13369 0.36599
#
# Static dielectric constant tensor:
#      x y z
#    x 1.958550 0.000000 -0.025110 
#    y 0.000000 1.899080 0.000000 
#    z -0.025110 0.000000 1.857940 
# 
# From -- ./inp_files/61546.got.cif
#   From: 2010.05.17/outbox.cif.g08.bks.cpg/sg13_31_cif.got.tgz:61546.got - 2010.06.03 16:44:36.
