data_PCOD9228070
_publ_section_title
;
Structure prediction by ZEFSAII (Michael W. Deem and Ramdas Pophale) SiO2 
 PCOD9228070
Probable space group: P 2/C
;
_chemical_formula_sum "Si O2"
_cell_formula_units_Z 30
_cell_length_a 18.922654
_cell_length_b 12.132646
_cell_length_c 8.119584
_cell_angle_alpha 90.000000
_cell_angle_beta 127.456971
_cell_angle_gamma 90.000000
_cell_volume 1479.749087
_symmetry_space_group_name_H-M "P 2/C"
_symmetry_group_IT_number 13
_symmetry_cell_setting 'monoclinic'
loop_
_space_group_symop_operation_xyz
x,y,z
-x,y,1/2-z
-x,-y,-z
x,-y,1/2+z
loop_
_atom_site_type_symbol
_atom_site_label
_atom_site_fract_x
_atom_site_fract_y
_atom_site_fract_z
Si Si1 0.113173 0.892135 0.056842
Si Si2 0.296453 0.829287 0.223614
Si Si3 0.924496 0.860961 0.886740
Si Si4 0.500000 0.006639 0.250000
Si Si5 0.631573 0.923105 0.694961
Si Si6 0.387425 0.589747 0.967814
Si Si7 0.435688 0.647332 0.413685
Si Si8 0.241676 0.747441 0.779096
O O1 0.210030 0.838194 0.219238
O O2 0.108943 0.023390 0.083324
O O3 0.093180 0.872704 0.834803
O O4 0.030828 0.847950 0.049011
O O5 0.378950 0.751953 0.388227
O O6 0.326092 0.955079 0.241164
O O7 0.266084 0.782178 0.002103
O O8 0.863543 0.765935 0.877104
O O9 0.552647 0.927321 0.448438
O O10 0.423854 0.082410 0.217757
O O11 0.705250 0.835212 0.756905
O O12 0.411036 0.622564 0.187844
O O13 0.456967 0.651554 0.943515
O O14 0.405253 0.461050 0.968669
O O15 0.286919 0.631285 0.801018
#
# Coordination Sequence:
#
# PCOD9228070 Si02
#       8
#     4   4   4   2   4   4   4   4
#     4   9  17  30  48  72 100 129 160 196 238 290
#     4  10  19  32  52  71  99 131 163 198 244 294
#     4   9  17  30  48  72 100 129 160 196 238 290
#     4  10  24  30  44  62 108 134 162 196 236 292
#     4  11  20  34  43  72  98 134 165 194 239 294
#     4   9  19  35  51  68  91 126 165 204 244 283
#     4   9  19  35  51  68  91 126 165 204 244 283
#     4  10  19  32  52  71  99 131 163 198 244 294
#
# _framework density 20.273707000000002
#
# number of rings (size 3 to 8) (size 9 to 14) (size 15 to 20)
#    0.000    2.400    2.667    0.000    3.733    0.000 
#    2.400    0.000    0.000    0.800    0.000    0.000 
#    0.000    0.000    0.000    0.000    0.000    0.000 
#
# Total GULP energy -167360.265629 kJ/mol
# GULP energy per Si atom -5578.675521 kJ/mol
# Density = 2.022756 g / cm^3
# Si number density = 20.273707 Si / 1000 Ang^3
#
#
#
# Elastic Constant Matrix: (Units=GPa)
#
#
# Indices 1 2 3 4 5 6 
#
# 1 157.9458 45.7392 17.2214 0.0000 22.8499 0.0000
# 2 45.7392 48.2700 8.8897 0.0000 2.2075 0.0000
# 3 17.2214 8.8897 16.2083 0.0000 4.5467 0.0000
# 4 0.0000 0.0000 0.0000 15.3306 0.0000 2.9224
# 5 22.8499 2.2075 4.5467 0.0000 19.0079 0.0000
# 6 0.0000 0.0000 0.0000 2.9224 0.0000 19.4345
#
#
#
# Elastic Compliance Matrix: (Units=1/GPa)
#
#
# Indices 1 2 3 4 5 6 
#
# 1 0.011051 -0.009318 -0.003439 0.000000 -0.011380 0.000000
# 2 -0.009318 0.030903 -0.009845 0.000000 0.009967 0.000000
# 3 -0.003439 -0.009845 0.074253 0.000000 -0.012484 0.000000
# 4 0.000000 0.000000 0.000000 0.067154 0.000000 -0.010098
# 5 -0.011380 0.009967 -0.012484 0.000000 0.068118 0.000000
# 6 0.000000 0.000000 0.000000 -0.010098 0.000000 0.052973
#
#
# Mechanical properties :
#
#
# Convention : Reuss Voigt Hill
#
# Bulk Modulus (GPa) = 14.08395 40.68054 27.38224
# Shear Modulus (GPa) = 13.39322 20.79287 17.09305
#
# Velocity S-wave (km/s) = 2.57304 3.20599 2.90679
# Velocity P-wave (km/s) = 3.97358 5.81495 4.98011
#
# Compressibility (1/GPa) = 0.07100283
#
# Stress axis : x y z
#
# Youngs Moduli (GPa) = 90.49092 32.35903 13.46755
#
# Poissons Ratio (x) = 0.30151 0.04631
# Poissons Ratio (y) = 0.84316 0.13259
# Poissons Ratio (z) = 0.31119 0.31859
#
# Static dielectric constant tensor:
#      x y z
#    x 1.777030 0.000000 -0.005690 
#    y 0.000000 1.701150 0.000000 
#    z -0.005690 0.000000 1.828300 
# 
# From -- ./inp_files/21728.got.cif
#   From: 2010.05.17/outbox.cif.g08.bks.cpg/sg13_11_cif.got.tgz:21728.got - 2010.06.03 16:44:36.
