data_PCOD9228392
_publ_section_title
;
Structure prediction by ZEFSAII (Michael W. Deem and Ramdas Pophale) SiO2 
 PCOD9228392
Probable space group: P 2/C
;
_chemical_formula_sum "Si O2"
_cell_formula_units_Z 20
_cell_length_a 11.742220
_cell_length_b 9.085118
_cell_length_c 7.956933
_cell_angle_alpha 90.000000
_cell_angle_beta 86.613173
_cell_angle_gamma 90.000000
_cell_volume 847.358715
_symmetry_space_group_name_H-M "P 2/C"
_symmetry_group_IT_number 13
_symmetry_cell_setting 'monoclinic'
loop_
_space_group_symop_operation_xyz
x,y,z
-x,y,1/2-z
-x,-y,-z
x,-y,1/2+z
loop_
_atom_site_type_symbol
_atom_site_label
_atom_site_fract_x
_atom_site_fract_y
_atom_site_fract_z
Si Si1 0.164769 0.221013 0.095790
Si Si2 0.270529 0.508505 0.465255
Si Si3 0.620369 0.298280 0.829995
Si Si4 0.204436 0.070603 0.738097
Si Si5 0.056213 0.688122 0.072574
O O1 0.178738 0.101551 0.237941
O O2 0.249267 0.358259 0.099834
O O3 0.197818 0.124892 0.929228
O O4 0.040665 0.280359 0.055697
O O5 0.371389 0.395351 0.502304
O O6 0.296288 0.604042 0.297664
O O7 0.154768 0.413046 0.485707
O O8 0.500000 0.292155 0.750000
O O9 0.676064 0.136978 0.840622
O O10 0.111330 0.160975 0.638112
O O11 0.000000 0.622983 0.250000
#
# Coordination Sequence:
#
# PCOD9228392 Si02
#       5
#     4   4   4   4   4
#     4  10  19  34  53  81 115 146 181 225 275 338
#     4  10  21  36  58  85 109 143 192 233 278 337
#     4  10  21  40  59  79 110 148 191 243 282 317
#     4   9  20  35  53  79 112 149 186 222 273 337
#     4   9  18  35  56  82 116 150 181 225 279 335
#
# _framework density 23.602753
#
# number of rings (size 3 to 8) (size 9 to 14) (size 15 to 20)
#    0.000    2.400    0.000    3.000    0.000    3.200 
#    0.000   10.000    0.000    0.000    0.000    0.000 
#    0.000    0.000    0.000    0.000    0.000    0.000 
#
# Total GULP energy -111753.521478 kJ/mol
# GULP energy per Si atom -5587.676074 kJ/mol
# Density = 2.354903 g / cm^3
# Si number density = 23.602753 Si / 1000 Ang^3
#
#
#
# Elastic Constant Matrix: (Units=GPa)
#
#
# Indices 1 2 3 4 5 6 
#
# 1 73.9914 37.6648 -1.1936 0.0000 24.3878 0.0000
# 2 37.6648 103.2257 4.8825 0.0000 9.0011 0.0000
# 3 -1.1936 4.8825 49.1005 0.0000 -0.8627 0.0000
# 4 0.0000 0.0000 0.0000 41.0814 0.0000 4.7267
# 5 24.3878 9.0011 -0.8627 0.0000 29.0826 0.0000
# 6 0.0000 0.0000 0.0000 4.7267 0.0000 16.2853
#
#
#
# Elastic Compliance Matrix: (Units=1/GPa)
#
#
# Indices 1 2 3 4 5 6 
#
# 1 0.022509 -0.006797 0.000929 0.000000 -0.016744 0.000000
# 2 -0.006797 0.012062 -0.001331 0.000000 0.001927 0.000000
# 3 0.000929 -0.001331 0.020526 0.000000 0.000242 0.000000
# 4 0.000000 0.000000 0.000000 0.025183 0.000000 -0.007309
# 5 -0.016744 0.001927 0.000242 0.000000 0.047837 0.000000
# 6 0.000000 0.000000 0.000000 -0.007309 0.000000 0.063527
#
#
# Mechanical properties :
#
#
# Convention : Reuss Voigt Hill
#
# Bulk Modulus (GPa) = 24.57052 34.33612 29.45332
# Shear Modulus (GPa) = 22.76793 29.62080 26.19436
#
# Velocity S-wave (km/s) = 3.10922 3.54640 3.33498
# Velocity P-wave (km/s) = 4.82931 5.59896 5.22832
#
# Compressibility (1/GPa) = 0.04069918
#
# Stress axis : x y z
#
# Youngs Moduli (GPa) = 44.42691 82.90172 48.71975
#
# Poissons Ratio (x) = 0.56347 -0.04526
# Poissons Ratio (y) = 0.30196 0.06484
# Poissons Ratio (z) = -0.04127 0.11033
#
# Static dielectric constant tensor:
#      x y z
#    x 1.883790 0.000000 -0.041860 
#    y 0.000000 1.917820 0.000000 
#    z -0.041860 0.000000 2.002160 
# 
# From -- ./inp_files/14834.got.cif
#   From: 2010.05.17/outbox.cif.g08.bks.cpg/sg13_8_cif.got.tgz:14834.got - 2010.06.03 16:44:36.
