data_PCOD9228835
_publ_section_title
;
Structure prediction by ZEFSAII (Michael W. Deem and Ramdas Pophale) SiO2 
 PCOD9228835
Probable space group: P 2/C
;
_chemical_formula_sum "Si O2"
_cell_formula_units_Z 28
_cell_length_a 24.318060
_cell_length_b 7.240653
_cell_length_c 15.898853
_cell_angle_alpha 90.000000
_cell_angle_beta 152.446947
_cell_angle_gamma 90.000000
_cell_volume 1294.940088
_symmetry_space_group_name_H-M "P 2/C"
_symmetry_group_IT_number 13
_symmetry_cell_setting 'monoclinic'
loop_
_space_group_symop_operation_xyz
x,y,z
-x,y,1/2-z
-x,-y,-z
x,-y,1/2+z
loop_
_atom_site_type_symbol
_atom_site_label
_atom_site_fract_x
_atom_site_fract_y
_atom_site_fract_z
Si Si1 0.223369 0.131021 0.488592
Si Si2 0.191669 0.677931 0.570217
Si Si3 0.500000 0.408970 0.750000
Si Si4 0.636681 0.986010 0.663570
Si Si5 0.302826 0.876161 0.923059
Si Si6 0.268627 0.449629 0.998213
Si Si7 0.000000 0.060933 0.750000
Si Si8 0.863602 0.537319 0.839251
O O1 0.284605 0.036670 0.490526
O O2 0.230735 0.343673 0.474681
O O3 0.291971 0.094845 0.668272
O O4 0.090678 0.063234 0.321130
O O5 0.312913 0.777111 0.762503
O O6 0.213266 0.659906 0.499926
O O7 0.162834 0.514539 0.596719
O O8 0.078051 0.812664 0.417983
O O9 0.412416 0.270689 0.580067
O O10 0.589008 0.535242 0.816439
O O11 0.667959 0.024198 0.609036
O O12 0.500000 0.000000 0.500000
O O13 0.186351 0.748547 0.744082
O O14 0.213067 0.418449 0.831041
O O15 0.000000 0.500000 0.000000
#
# Coordination Sequence:
#
# PCOD9228835 Si02
#       8
#     4   4   2   4   4   4   2   4
#     4   9  20  36  56  80 107 142 182 221 268 321
#     4  10  21  36  56  80 112 146 180 223 270 318
#     4   8  16  34  56  78 110 144 178 218 266 322
#     4  10  19  36  57  81 109 142 179 222 271 322
#     4   9  18  34  55  78 107 144 177 217 268 319
#     4  10  20  37  57  80 107 143 181 223 270 320
#     4  10  20  36  54  80 114 146 180 222 266 320
#     4   9  18  33  54  79 107 141 179 219 269 318
#
# _framework density 21.622622
#
# number of rings (size 3 to 8) (size 9 to 14) (size 15 to 20)
#    0.000    2.857    0.000    2.571    0.000    2.857 
#    0.000   30.000    0.000    0.000    0.000    0.000 
#    0.000    0.000    0.000    0.000    0.000    0.000 
#
# Total GULP energy -155935.680312 kJ/mol
# GULP energy per Si atom -5569.131440 kJ/mol
# Density = 2.157341 g / cm^3
# Si number density = 21.622622 Si / 1000 Ang^3
#
#
#
# Elastic Constant Matrix: (Units=GPa)
#
#
# Indices 1 2 3 4 5 6 
#
# 1 33.8666 -5.5746 29.0192 0.0000 35.1494 0.0000
# 2 -5.5746 5.9066 11.8825 0.0000 17.5254 0.0000
# 3 29.0192 11.8825 118.3573 0.0000 34.7810 0.0000
# 4 0.0000 0.0000 0.0000 15.6692 0.0000 7.5939
# 5 35.1494 17.5254 34.7810 0.0000 30.9695 0.0000
# 6 0.0000 0.0000 0.0000 7.5939 0.0000 30.5941
#
#
#
# Elastic Compliance Matrix: (Units=1/GPa)
#
#
# Indices 1 2 3 4 5 6 
#
# 1 0.007169 -0.039748 -0.002965 0.000000 0.017687 0.000000
# 2 -0.039748 0.011111 -0.004148 0.000000 0.043485 0.000000
# 3 -0.002965 -0.004148 0.011812 0.000000 -0.007554 0.000000
# 4 0.000000 0.000000 0.000000 0.072546 0.000000 -0.018007
# 5 0.017687 0.043485 -0.007554 0.000000 -0.003908 0.000000
# 6 0.000000 0.000000 0.000000 -0.018007 0.000000 0.037156
#
#
# Mechanical properties :
#
#
# Convention : Reuss Voigt Hill
#
# Bulk Modulus (GPa) = -15.71555 25.42051 4.85248
# Shear Modulus (GPa) = 23.99273 23.63348 23.81311
#
# Velocity S-wave (km/s) = 3.33470 3.30964 3.32219
# Velocity P-wave (km/s) = 2.74646 5.13682 4.11886
#
# Compressibility (1/GPa) = -0.06363122
#
# Stress axis : x y z
#
# Youngs Moduli (GPa) = 139.49919 90.00450 84.65928
#
# Poissons Ratio (x) = 3.57751 0.25098
# Poissons Ratio (y) = 5.54484 0.35121
# Poissons Ratio (z) = 0.41355 0.37338
#
# Static dielectric constant tensor:
#      x y z
#    x 1.967550 0.000000 -0.081270 
#    y 0.000000 1.849010 0.000000 
#    z -0.081270 0.000000 1.799060 
# 
# From -- ./inp_files/57555.got.cif
#   From: 2010.05.17/outbox.cif.g08.bks.cpg/sg13_29_cif.got.tgz:57555.got - 2010.06.03 16:44:36.
