data_PCOD9228777
_publ_section_title
;
Structure prediction by ZEFSAII (Michael W. Deem and Ramdas Pophale) SiO2 
 PCOD9228777
Probable space group: P 2/C
;
_chemical_formula_sum "Si O2"
_cell_formula_units_Z 32
_cell_length_a 25.858871
_cell_length_b 8.213256
_cell_length_c 14.907789
_cell_angle_alpha 90.000000
_cell_angle_beta 28.319881
_cell_angle_gamma 90.000000
_cell_volume 1502.024671
_symmetry_space_group_name_H-M "P 2/C"
_symmetry_group_IT_number 13
_symmetry_cell_setting 'monoclinic'
loop_
_space_group_symop_operation_xyz
x,y,z
-x,y,1/2-z
-x,-y,-z
x,-y,1/2+z
loop_
_atom_site_type_symbol
_atom_site_label
_atom_site_fract_x
_atom_site_fract_y
_atom_site_fract_z
Si Si1 0.521101 0.553113 0.569924
Si Si2 0.725038 0.943073 0.544038
Si Si3 0.881936 0.063990 0.153239
Si Si4 0.712874 0.560645 0.534977
Si Si5 0.754427 0.561650 0.171878
Si Si6 0.888373 0.557349 0.624790
Si Si7 0.745810 0.946394 0.199453
Si Si8 0.512166 0.937274 0.624527
O O1 0.500000 0.500000 0.500000
O O2 0.411972 0.498930 0.788385
O O3 0.646287 0.502864 0.392568
O O4 0.517607 0.747908 0.587653
O O5 0.716247 0.757433 0.523163
O O6 0.600438 0.008431 0.742085
O O7 0.798341 0.042472 0.363336
O O8 0.774201 0.952243 0.567894
O O9 0.890831 0.249860 0.111023
O O10 0.831215 0.965482 0.148375
O O11 0.000000 0.000000 0.000000
O O12 0.749435 0.515112 0.580496
O O13 0.794139 0.489822 0.338689
O O14 0.857680 0.520398 0.075717
O O15 0.742951 0.755956 0.178633
O O16 0.000000 0.500000 0.500000
O O17 0.627398 0.006314 0.416008
O O18 0.500000 0.946853 0.750000
#
# Coordination Sequence:
#
# PCOD9228777 Si02
#       8
#     4   4   4   4   4   4   4   4
#     4   8  18  33  59  92 127 162 204 246 302 369
#     4  11  22  40  66  95 130 168 209 259 314 375
#     4  12  26  45  64  91 125 162 216 266 317 378
#     4  10  21  40  63  94 127 164 206 253 310 369
#     4  10  21  40  63  94 127 164 206 253 310 369
#     4  12  26  43  64  89 119 164 212 262 313 372
#     4  11  22  40  66  95 130 168 209 259 314 375
#     4  10  19  35  63  95 131 172 208 252 318 379
#
# _framework density 21.304576999999998
#
# number of rings (size 3 to 8) (size 9 to 14) (size 15 to 20)
#    0.000    1.500    1.250    4.125    5.250    1.000 
#    0.000   10.000    0.000    0.000    0.000    0.000 
#    0.000    0.000    0.000    0.000    0.000    0.000 
#
# Total GULP energy -178791.322749 kJ/mol
# GULP energy per Si atom -5587.228836 kJ/mol
# Density = 2.125609 g / cm^3
# Si number density = 21.304577 Si / 1000 Ang^3
#
#
#
# Elastic Constant Matrix: (Units=GPa)
#
#
# Indices 1 2 3 4 5 6 
#
# 1 90.0754 -16.5029 16.4601 0.0000 -11.3566 0.0000
# 2 -16.5029 36.0969 -1.8660 0.0000 2.9282 0.0000
# 3 16.4601 -1.8660 25.2446 0.0000 -17.0550 0.0000
# 4 0.0000 0.0000 0.0000 24.8842 0.0000 3.6955
# 5 -11.3566 2.9282 -17.0550 0.0000 35.8651 0.0000
# 6 0.0000 0.0000 0.0000 3.6955 0.0000 31.8199
#
#
#
# Elastic Compliance Matrix: (Units=1/GPa)
#
#
# Indices 1 2 3 4 5 6 
#
# 1 0.013730 0.005849 -0.008700 0.000000 -0.000267 0.000000
# 2 0.005849 0.030390 -0.002935 0.000000 -0.002025 0.000000
# 3 -0.008700 -0.002935 0.063897 0.000000 0.027870 0.000000
# 4 0.000000 0.000000 0.000000 0.040891 0.000000 -0.004749
# 5 -0.000267 -0.002025 0.027870 0.000000 0.041216 0.000000
# 6 0.000000 0.000000 0.000000 -0.004749 0.000000 0.031978
#
#
# Mechanical properties :
#
#
# Convention : Reuss Voigt Hill
#
# Bulk Modulus (GPa) = 10.36888 16.39992 13.38440
# Shear Modulus (GPa) = 18.80955 28.73555 23.77255
#
# Velocity S-wave (km/s) = 2.97457 3.67658 3.34405
# Velocity P-wave (km/s) = 4.08349 5.07322 4.60502
#
# Compressibility (1/GPa) = 0.09644247
#
# Stress axis : x y z
#
# Youngs Moduli (GPa) = 72.83565 32.90587 15.65029
#
# Poissons Ratio (x) = -0.19246 0.13616
# Poissons Ratio (y) = -0.42600 0.04594
# Poissons Ratio (z) = 0.63369 0.09659
#
# Static dielectric constant tensor:
#      x y z
#    x 1.785430 0.000000 -0.033430 
#    y 0.000000 1.759130 0.000000 
#    z -0.033430 0.000000 1.788560 
# 
# From -- ./inp_files/58796.got.cif
#   From: 2010.05.17/outbox.cif.g08.bks.cpg/sg13_30_cif.got.tgz:58796.got - 2010.06.03 16:44:36.
