data_PCOD9228449
_publ_section_title
;
Structure prediction by ZEFSAII (Michael W. Deem and Ramdas Pophale) SiO2 
 PCOD9228449
Probable space group: P 2/C
;
_chemical_formula_sum "Si O2"
_cell_formula_units_Z 32
_cell_length_a 15.691867
_cell_length_b 8.249366
_cell_length_c 15.700240
_cell_angle_alpha 90.000000
_cell_angle_beta 54.533788
_cell_angle_gamma 90.000000
_cell_volume 1655.274718
_symmetry_space_group_name_H-M "P 2/C"
_symmetry_group_IT_number 13
_symmetry_cell_setting 'monoclinic'
loop_
_space_group_symop_operation_xyz
x,y,z
-x,y,1/2-z
-x,-y,-z
x,-y,1/2+z
loop_
_atom_site_type_symbol
_atom_site_label
_atom_site_fract_x
_atom_site_fract_y
_atom_site_fract_z
Si Si1 0.674297 0.194997 0.616948
Si Si2 0.262444 0.212746 0.573259
Si Si3 0.010241 0.677899 0.644904
Si Si4 0.115970 0.005619 0.549815
Si Si5 0.534976 0.070437 0.133920
Si Si6 0.219938 0.485269 0.485139
Si Si7 0.321878 0.972838 0.208185
Si Si8 0.839378 0.768480 0.620954
O O1 0.780542 0.099240 0.531623
O O2 0.582360 0.110102 0.617981
O O3 0.694020 0.380341 0.585535
O O4 0.660027 0.148235 0.723209
O O5 0.240674 0.399697 0.563989
O O6 0.284852 0.135553 0.651432
O O7 0.158269 0.123017 0.598754
O O8 0.367230 0.170846 0.458092
O O9 0.033580 0.871337 0.624555
O O10 0.107117 0.574152 0.552409
O O11 0.000000 0.636349 0.750000
O O12 0.907719 0.662457 0.646176
O O13 0.091339 0.117157 0.482394
O O14 0.500000 0.122924 0.250000
O O15 0.433362 0.062959 0.133388
O O16 0.218818 0.348759 0.412303
O O17 0.237975 0.109753 0.284468
#
# Coordination Sequence:
#
# PCOD9228449 Si02
#       8
#     4   4   4   4   4   4   4   4
#     4   8  17  33  52  71 105 144 172 205 262 324
#     4  10  19  34  56  82 106 133 178 230 264 302
#     4  11  21  34  53  80 109 140 176 222 270 313
#     4   8  17  34  53  73 100 138 179 215 258 313
#     4   9  17  34  56  78 106 144 179 215 263 314
#     4  10  21  37  53  76 110 145 174 210 269 335
#     4  10  19  34  56  82 105 135 181 230 262 298
#     4  10  20  36  57  78 104 143 182 219 263 319
#
# _framework density 19.332136999999999
#
# number of rings (size 3 to 8) (size 9 to 14) (size 15 to 20)
#    0.000    2.500    0.000    4.125    0.000    1.000 
#    0.000   12.500    0.000    0.000    0.000    0.000 
#    0.000    0.000    0.000    0.000    0.000    0.000 
#
# Total GULP energy -178282.221603 kJ/mol
# GULP energy per Si atom -5571.319425 kJ/mol
# Density = 1.928814 g / cm^3
# Si number density = 19.332137 Si / 1000 Ang^3
#
#
#
# Elastic Constant Matrix: (Units=GPa)
#
#
# Indices 1 2 3 4 5 6 
#
# 1 87.7664 13.1619 16.3249 0.0000 11.3745 0.0000
# 2 13.1619 75.5513 14.4409 0.0000 1.1461 0.0000
# 3 16.3249 14.4409 41.4251 0.0000 2.9052 0.0000
# 4 0.0000 0.0000 0.0000 21.1857 0.0000 -6.4182
# 5 11.3745 1.1461 2.9052 0.0000 19.6464 0.0000
# 6 0.0000 0.0000 0.0000 -6.4182 0.0000 19.7455
#
#
#
# Elastic Compliance Matrix: (Units=1/GPa)
#
#
# Indices 1 2 3 4 5 6 
#
# 1 0.013302 -0.001396 -0.004265 0.000000 -0.006989 0.000000
# 2 -0.001396 0.014328 -0.004489 0.000000 0.000636 0.000000
# 3 -0.004265 -0.004489 0.027479 0.000000 -0.001332 0.000000
# 4 0.000000 0.000000 0.000000 0.052357 0.000000 0.017019
# 5 -0.006989 0.000636 -0.001332 0.000000 0.055106 0.000000
# 6 0.000000 0.000000 0.000000 0.017019 0.000000 0.056176
#
#
# Mechanical properties :
#
#
# Convention : Reuss Voigt Hill
#
# Bulk Modulus (GPa) = 28.72895 32.51091 30.61993
# Shear Modulus (GPa) = 19.94787 22.83654 21.39221
#
# Velocity S-wave (km/s) = 3.21573 3.44069 3.33011
# Velocity P-wave (km/s) = 5.35545 5.71297 5.53710
#
# Compressibility (1/GPa) = 0.03480809
#
# Stress axis : x y z
#
# Youngs Moduli (GPa) = 75.17405 69.79510 36.39117
#
# Poissons Ratio (x) = 0.09744 0.15522
# Poissons Ratio (y) = 0.10495 0.16336
# Poissons Ratio (z) = 0.32065 0.31332
#
# Static dielectric constant tensor:
#      x y z
#    x 1.686160 0.000000 0.001320 
#    y 0.000000 1.682850 0.000000 
#    z 0.001320 0.000000 1.707130 
# 
# From -- ./inp_files/53036.got.cif
#   From: 2010.05.17/outbox.cif.g08.bks.cpg/sg13_27_cif.got.tgz:53036.got - 2010.06.03 16:44:36.
