data_PCOD9228588
_publ_section_title
;
Structure prediction by ZEFSAII (Michael W. Deem and Ramdas Pophale) SiO2 
 PCOD9228588
Probable space group: P 2/C
;
_chemical_formula_sum "Si O2"
_cell_formula_units_Z 14
_cell_length_a 7.839903
_cell_length_b 12.963601
_cell_length_c 8.821153
_cell_angle_alpha 90.000000
_cell_angle_beta 128.588050
_cell_angle_gamma 90.000000
_cell_volume 700.768146
_symmetry_space_group_name_H-M "P 2/C"
_symmetry_group_IT_number 13
_symmetry_cell_setting 'monoclinic'
loop_
_space_group_symop_operation_xyz
x,y,z
-x,y,1/2-z
-x,-y,-z
x,-y,1/2+z
loop_
_atom_site_type_symbol
_atom_site_label
_atom_site_fract_x
_atom_site_fract_y
_atom_site_fract_z
Si Si1 0.259154 0.963366 0.331781
Si Si2 0.000000 0.502184 0.750000
Si Si3 0.940199 0.138451 0.476081
Si Si4 0.241137 0.632452 0.637743
O O1 0.180294 0.907945 0.441710
O O2 0.500000 0.000000 0.500000
O O3 0.139632 0.066516 0.204264
O O4 0.193603 0.882667 0.160941
O O5 0.828662 0.571949 0.748816
O O6 0.869295 0.430932 0.560136
O O7 0.868453 0.254857 0.415624
O O8 0.500000 0.640503 0.750000
#
# Coordination Sequence:
#
# PCOD9228588 Si02
#       4
#     4   2   4   4
#     4  10  19  35  54  81 115 152 192 240 289 354
#     4  10  24  40  64  92 120 160 214 256 310 374
#     4  10  22  35  57  85 117 157 201 241 298 364
#     4  11  22  42  64  90 124 162 204 261 311 359
#
# _framework density 19.978079000000001
#
# number of rings (size 3 to 8) (size 9 to 14) (size 15 to 20)
#    0.000    1.714    0.000    5.143    0.000    4.571 
#    0.000    2.857    0.000    0.000    0.000    0.000 
#    0.000    0.000    0.000    0.000    0.000    0.000 
#
# Total GULP energy -78064.761038 kJ/mol
# GULP energy per Si atom -5576.054360 kJ/mol
# Density = 1.993261 g / cm^3
# Si number density = 19.978079 Si / 1000 Ang^3
#
#
#
# Elastic Constant Matrix: (Units=GPa)
#
#
# Indices 1 2 3 4 5 6 
#
# 1 35.5293 21.8827 22.2630 0.0000 11.2081 0.0000
# 2 21.8827 160.2267 35.1752 0.0000 -4.7497 0.0000
# 3 22.2630 35.1752 94.7000 0.0000 9.8589 0.0000
# 4 0.0000 0.0000 0.0000 16.8230 0.0000 3.4767
# 5 11.2081 -4.7497 9.8589 0.0000 44.5846 0.0000
# 6 0.0000 0.0000 0.0000 3.4767 0.0000 30.8000
#
#
#
# Elastic Compliance Matrix: (Units=1/GPa)
#
#
# Indices 1 2 3 4 5 6 
#
# 1 0.037222 -0.003921 -0.006424 0.000000 -0.008354 0.000000
# 2 -0.003921 0.007284 -0.002014 0.000000 0.002207 0.000000
# 3 -0.006424 -0.002014 0.012971 0.000000 -0.001468 0.000000
# 4 0.000000 0.000000 0.000000 0.060862 0.000000 -0.006870
# 5 -0.008354 0.002207 -0.001468 0.000000 0.025089 0.000000
# 6 0.000000 0.000000 0.000000 -0.006870 0.000000 0.033243
#
#
# Mechanical properties :
#
#
# Convention : Reuss Voigt Hill
#
# Bulk Modulus (GPa) = 30.52607 49.89974 40.21290
# Shear Modulus (GPa) = 23.55071 32.51719 28.03395
#
# Velocity S-wave (km/s) = 3.43713 4.03878 3.75004
# Velocity P-wave (km/s) = 5.57358 6.83963 6.23880
#
# Compressibility (1/GPa) = 0.03275889
#
# Stress axis : x y z
#
# Youngs Moduli (GPa) = 26.86619 137.28521 77.09691
#
# Poissons Ratio (x) = 0.53826 0.49530
# Poissons Ratio (y) = 0.10534 0.15524
# Poissons Ratio (z) = 0.17260 0.27644
#
# Static dielectric constant tensor:
#      x y z
#    x 1.800150 0.000000 0.025330 
#    y 0.000000 1.681120 0.000000 
#    z 0.025330 0.000000 1.740120 
# 
# From -- ./inp_files/11519.got.cif
#   From: 2010.05.17/outbox.cif.g08.bks.cpg/sg13_6_cif.got.tgz:11519.got - 2010.06.03 16:44:36.
