data_PCOD9228876
_publ_section_title
;
Structure prediction by ZEFSAII (Michael W. Deem and Ramdas Pophale) SiO2 
 PCOD9228876
Probable space group: P 2/C
;
_chemical_formula_sum "Si O2"
_cell_formula_units_Z 32
_cell_length_a 12.958850
_cell_length_b 5.119702
_cell_length_c 27.083882
_cell_angle_alpha 90.000000
_cell_angle_beta 84.963321
_cell_angle_gamma 90.000000
_cell_volume 1789.954005
_symmetry_space_group_name_H-M "P 2/C"
_symmetry_group_IT_number 13
_symmetry_cell_setting 'monoclinic'
loop_
_space_group_symop_operation_xyz
x,y,z
-x,y,1/2-z
-x,-y,-z
x,-y,1/2+z
loop_
_atom_site_type_symbol
_atom_site_label
_atom_site_fract_x
_atom_site_fract_y
_atom_site_fract_z
Si Si1 0.331989 0.558198 0.091906
Si Si2 0.862401 0.469955 0.836548
Si Si3 0.580633 0.960768 0.644834
Si Si4 0.557378 0.066220 0.447136
Si Si5 0.527402 0.530940 0.315668
Si Si6 0.223578 0.831815 0.814403
Si Si7 0.278511 0.668609 0.252343
Si Si8 0.991498 0.983001 0.809839
O O1 0.213165 0.529281 0.113092
O O2 0.361122 0.840352 0.070092
O O3 0.396050 0.524184 0.140113
O O4 0.379799 0.336665 0.054862
O O5 0.793460 0.382646 0.792269
O O6 0.909907 0.753343 0.824293
O O7 0.952084 0.253085 0.834617
O O8 0.527370 0.930314 0.593708
O O9 0.554829 0.246517 0.666591
O O10 0.524923 0.751190 0.683112
O O11 0.701636 0.894117 0.642797
O O12 0.500000 0.000000 0.500000
O O13 0.603882 0.604725 0.268151
O O14 0.240166 0.538034 0.794723
O O15 0.103325 0.896567 0.825114
O O16 0.264399 0.035439 0.770824
O O17 0.000000 0.013857 0.750000
#
# Coordination Sequence:
#
# PCOD9228876 Si02
#       8
#     4   4   4   4   4   4   4   4
#     4   9  19  33  54  82 102 128 165 204 256 304
#     4  11  20  35  52  71 105 135 176 222 242 280
#     4  10  21  35  46  73 102 128 160 207 244 307
#     4  10  19  36  59  81 103 126 157 202 259 321
#     4   9  19  33  49  66 102 134 166 197 243 296
#     4  12  23  31  47  69 100 133 178 207 244 285
#     4  11  20  32  48  70  94 140 173 205 242 284
#     4  12  21  34  50  71  97 143 186 217 244 271
#
# _framework density 17.877555000000001
#
# number of rings (size 3 to 8) (size 9 to 14) (size 15 to 20)
#    0.000    1.500    2.500    3.750    0.000    7.000 
#    0.000    0.000    0.000    0.000    0.000    5.250 
#    0.000    0.000    0.000    0.000    0.000    0.000 
#
# Total GULP energy -178768.369087 kJ/mol
# GULP energy per Si atom -5586.511534 kJ/mol
# Density = 1.783686 g / cm^3
# Si number density = 17.877555 Si / 1000 Ang^3
#
#
#
# Elastic Constant Matrix: (Units=GPa)
#
#
# Indices 1 2 3 4 5 6 
#
# 1 73.6119 -6.4691 13.3640 0.0000 -10.2081 0.0000
# 2 -6.4691 45.1939 -15.4630 0.0000 4.5466 0.0000
# 3 13.3640 -15.4630 41.3034 0.0000 -3.1029 0.0000
# 4 0.0000 0.0000 0.0000 14.8459 0.0000 -5.7778
# 5 -10.2081 4.5466 -3.1029 0.0000 16.3771 0.0000
# 6 0.0000 0.0000 0.0000 -5.7778 0.0000 24.9283
#
#
#
# Elastic Compliance Matrix: (Units=1/GPa)
#
#
# Indices 1 2 3 4 5 6 
#
# 1 0.015616 -0.000187 -0.004451 0.000000 0.008943 0.000000
# 2 -0.000187 0.025845 0.009321 0.000000 -0.005526 0.000000
# 3 -0.004451 0.009321 0.029153 0.000000 0.000161 0.000000
# 4 0.000000 0.000000 0.000000 0.074037 0.000000 0.017160
# 5 0.008943 -0.005526 0.000161 0.000000 0.068200 0.000000
# 6 0.000000 0.000000 0.000000 0.017160 0.000000 0.044092
#
#
# Mechanical properties :
#
#
# Convention : Reuss Voigt Hill
#
# Bulk Modulus (GPa) = 12.50301 15.88588 14.19444
# Shear Modulus (GPa) = 18.23233 22.47541 20.35387
#
# Velocity S-wave (km/s) = 3.19697 3.54953 3.37785
# Velocity P-wave (km/s) = 4.54272 5.06992 4.81354
#
# Compressibility (1/GPa) = 0.07998077
#
# Stress axis : x y z
#
# Youngs Moduli (GPa) = 64.03485 38.69184 34.30170
#
# Poissons Ratio (x) = 0.00724 0.15268
# Poissons Ratio (y) = 0.01199 -0.31974
# Poissons Ratio (z) = 0.28502 -0.36066
#
# Static dielectric constant tensor:
#      x y z
#    x 1.658680 0.000000 0.018280 
#    y 0.000000 1.605300 0.000000 
#    z 0.018280 0.000000 1.597900 
# 
# From -- ./inp_files/96336.got.cif
#   From: 2010.05.17/outbox.cif.g08.bks.cpg/sg13_49_cif.got.tgz:96336.got - 2010.06.03 16:44:36.
