data_PCOD9228987
_publ_section_title
;
Structure prediction by ZEFSAII (Michael W. Deem and Ramdas Pophale) SiO2 
 PCOD9228987
Probable space group: P 2/C
;
_chemical_formula_sum "Si O2"
_cell_formula_units_Z 18
_cell_length_a 9.075780
_cell_length_b 18.192712
_cell_length_c 5.436074
_cell_angle_alpha 90.000000
_cell_angle_beta 119.207483
_cell_angle_gamma 90.000000
_cell_volume 783.448651
_symmetry_space_group_name_H-M "P 2/C"
_symmetry_group_IT_number 13
_symmetry_cell_setting 'monoclinic'
loop_
_space_group_symop_operation_xyz
x,y,z
-x,y,1/2-z
-x,-y,-z
x,-y,1/2+z
loop_
_atom_site_type_symbol
_atom_site_label
_atom_site_fract_x
_atom_site_fract_y
_atom_site_fract_z
Si Si1 0.741588 0.346827 0.285661
Si Si2 0.695212 0.796157 0.009655
Si Si3 0.000000 0.450179 0.250000
Si Si4 0.500000 0.455269 0.250000
Si Si5 0.293020 0.040521 0.081400
Si Si6 0.500000 0.264744 0.750000
O O1 0.795190 0.272953 0.474854
O O2 0.670916 0.407843 0.410006
O O3 0.851112 0.391329 0.179826
O O4 0.577006 0.317838 0.012763
O O5 0.500000 0.797557 0.750000
O O6 0.765808 0.875608 0.003722
O O7 0.653463 0.782716 0.263173
O O8 0.000000 0.500000 0.500000
O O9 0.500000 0.500000 0.500000
O O10 0.500000 0.040947 0.250000
O O11 0.240806 0.006607 0.300207
#
# Coordination Sequence:
#
# PCOD9228987 Si02
#       6
#     4   4   2   2   4   2
#     4  11  23  41  62  90 119 161 204 254 304 367
#     4   9  19  32  56  84 119 161 203 249 291 359
#     4  12  30  48  64  90 128 160 198 260 320 368
#     4  12  23  36  60  85 110 146 194 242 299 356
#     4   9  18  28  45  79 122 159 189 236 300 352
#     4  10  19  36  64  89 120 154 216 250 293 352
#
# _framework density 22.975338000000001
#
# number of rings (size 3 to 8) (size 9 to 14) (size 15 to 20)
#    0.000    1.778    3.333    2.000   14.000    0.000 
#    0.000    0.000    0.000    0.000    0.000    1.556 
#    0.000    0.000    0.000    0.000    0.000    0.000 
#
# Total GULP energy -100335.149999 kJ/mol
# GULP energy per Si atom -5574.175000 kJ/mol
# Density = 2.292305 g / cm^3
# Si number density = 22.975338 Si / 1000 Ang^3
#
#
#
# Elastic Constant Matrix: (Units=GPa)
#
#
# Indices 1 2 3 4 5 6 
#
# 1 48.6876 49.2125 26.1233 0.0000 -23.1904 0.0000
# 2 49.2125 195.7321 67.8047 0.0000 -37.4653 0.0000
# 3 26.1233 67.8047 99.5250 0.0000 -43.1999 0.0000
# 4 0.0000 0.0000 0.0000 26.9349 0.0000 -16.3187
# 5 -23.1904 -37.4653 -43.1999 0.0000 30.1339 0.0000
# 6 0.0000 0.0000 0.0000 -16.3187 0.0000 19.1887
#
#
#
# Elastic Compliance Matrix: (Units=1/GPa)
#
#
# Indices 1 2 3 4 5 6 
#
# 1 0.038762 -0.006210 0.009672 0.000000 0.035975 0.000000
# 2 -0.006210 0.007946 -0.004156 0.000000 -0.000858 0.000000
# 3 0.009672 -0.004156 0.029991 0.000000 0.045271 0.000000
# 4 0.000000 0.000000 0.000000 0.076587 0.000000 0.065132
# 5 0.035975 -0.000858 0.045271 0.000000 0.124705 0.000000
# 6 0.000000 0.000000 0.000000 0.065132 0.000000 0.107504
#
#
# Mechanical properties :
#
#
# Convention : Reuss Voigt Hill
#
# Bulk Modulus (GPa) = 13.27831 70.02506 41.65169
# Shear Modulus (GPa) = 12.13633 28.63848 20.38740
#
# Velocity S-wave (km/s) = 2.30083 3.53439 2.98209
# Velocity P-wave (km/s) = 3.58473 6.87026 5.47954
#
# Compressibility (1/GPa) = 0.07531081
#
# Stress axis : x y z
#
# Youngs Moduli (GPa) = 25.79830 125.85144 33.34383
#
# Poissons Ratio (x) = 0.78159 -0.32251
# Poissons Ratio (y) = 0.16022 0.13857
# Poissons Ratio (z) = -0.24953 0.52300
#
# Static dielectric constant tensor:
#      x y z
#    x 2.067510 0.000000 -0.081790 
#    y 0.000000 1.925480 0.000000 
#    z -0.081790 0.000000 2.223800 
# 
# From -- ./inp_files/1319.got.cif
#   From: 2010.05.17/outbox.cif.g08.bks.cpg/sg13_1_cif.got.tgz:1319.got - 2010.06.03 16:44:36.
