data_PCOD9228572
_publ_section_title
;
Structure prediction by ZEFSAII (Michael W. Deem and Ramdas Pophale) SiO2 
 PCOD9228572
Probable space group: P 2/C
;
_chemical_formula_sum "Si O2"
_cell_formula_units_Z 18
_cell_length_a 7.247347
_cell_length_b 11.158710
_cell_length_c 15.841679
_cell_angle_alpha 90.000000
_cell_angle_beta 145.681294
_cell_angle_gamma 90.000000
_cell_volume 722.297370
_symmetry_space_group_name_H-M "P 2/C"
_symmetry_group_IT_number 13
_symmetry_cell_setting 'monoclinic'
loop_
_space_group_symop_operation_xyz
x,y,z
-x,y,1/2-z
-x,-y,-z
x,-y,1/2+z
loop_
_atom_site_type_symbol
_atom_site_label
_atom_site_fract_x
_atom_site_fract_y
_atom_site_fract_z
Si Si1 0.597868 0.244846 0.993994
Si Si2 0.843444 0.073596 0.286563
Si Si3 0.225131 0.386490 0.708092
Si Si4 0.162746 0.845537 0.465555
Si Si5 0.000000 0.579789 0.750000
O O1 0.709159 0.332913 0.111909
O O2 0.914433 0.173171 0.081982
O O3 0.419890 0.316889 0.854696
O O4 0.333623 0.159704 0.937391
O O5 0.000000 0.067623 0.250000
O O6 0.468831 0.115042 0.138597
O O7 0.895810 0.949591 0.355121
O O8 0.500000 0.434860 0.750000
O O9 0.048346 0.495037 0.687801
O O10 0.995095 0.284994 0.579712
#
# Coordination Sequence:
#
# PCOD9228572 Si02
#       5
#     4   4   4   4   2
#     4  11  21  43  69  99 135 180 225 280 344 405
#     4  10  19  34  71 103 132 173 227 276 348 411
#     4  12  27  43  68 100 141 183 232 280 335 400
#     4  11  20  41  67 103 137 175 224 282 343 410
#     4  12  24  46  72  96 138 182 236 280 334 394
#
# _framework density 24.920486
#
# number of rings (size 3 to 8) (size 9 to 14) (size 15 to 20)
#    0.000    0.889    5.556    6.000    0.000    0.889 
#    0.000    5.556    0.000    0.000    0.000    0.000 
#    0.000    0.000    0.000    0.000    0.000    0.000 
#
# Total GULP energy -100838.105020 kJ/mol
# GULP energy per Si atom -5602.116946 kJ/mol
# Density = 2.486377 g / cm^3
# Si number density = 24.920486 Si / 1000 Ang^3
#
#
#
# Elastic Constant Matrix: (Units=GPa)
#
#
# Indices 1 2 3 4 5 6 
#
# 1 69.2238 20.8720 12.4247 0.0000 15.9178 0.0000
# 2 20.8720 132.2409 40.1975 0.0000 21.2703 0.0000
# 3 12.4247 40.1975 100.9255 0.0000 19.7127 0.0000
# 4 0.0000 0.0000 0.0000 27.4748 0.0000 1.0541
# 5 15.9178 21.2703 19.7127 0.0000 31.4869 0.0000
# 6 0.0000 0.0000 0.0000 1.0541 0.0000 1.3233
#
#
#
# Elastic Compliance Matrix: (Units=1/GPa)
#
#
# Indices 1 2 3 4 5 6 
#
# 1 0.016582 -0.001417 -0.000030 0.000000 -0.007407 0.000000
# 2 -0.001417 0.009236 -0.002763 0.000000 -0.003793 0.000000
# 3 -0.000030 -0.002763 0.012128 0.000000 -0.005711 0.000000
# 4 0.000000 0.000000 0.000000 0.037544 0.000000 -0.029908
# 5 -0.007407 -0.003793 -0.005711 0.000000 0.041641 0.000000
# 6 0.000000 0.000000 0.000000 -0.029908 0.000000 0.779502
#
#
# Mechanical properties :
#
#
# Convention : Reuss Voigt Hill
#
# Bulk Modulus (GPa) = 33.86989 49.93096 41.90043
# Shear Modulus (GPa) = 5.46511 27.31673 16.39092
#
# Velocity S-wave (km/s) = 1.48249 3.31442 2.56740
# Velocity P-wave (km/s) = 4.06830 5.89294 5.06349
#
# Compressibility (1/GPa) = 0.02952475
#
# Stress axis : x y z
#
# Youngs Moduli (GPa) = 60.30774 108.27758 82.45345
#
# Poissons Ratio (x) = 0.15338 0.00251
# Poissons Ratio (y) = 0.08543 0.22784
# Poissons Ratio (z) = 0.00184 0.29919
#
# Static dielectric constant tensor:
#      x y z
#    x 2.021550 0.000000 -0.025790 
#    y 0.000000 1.918010 0.000000 
#    z -0.025790 0.000000 1.937250 
# 
# From -- ./inp_files/11324.got.cif
#   From: 2010.05.17/outbox.cif.g08.bks.cpg/sg13_6_cif.got.tgz:11324.got - 2010.06.03 16:44:36.
