data_PCOD9228429
_publ_section_title
;
Structure prediction by ZEFSAII (Michael W. Deem and Ramdas Pophale) SiO2 
 PCOD9228429
Probable space group: P 2/C
;
_chemical_formula_sum "Si O2"
_cell_formula_units_Z 26
_cell_length_a 11.177003
_cell_length_b 25.630929
_cell_length_c 5.245329
_cell_angle_alpha 90.000000
_cell_angle_beta 114.606498
_cell_angle_gamma 90.000000
_cell_volume 1366.207200
_symmetry_space_group_name_H-M "P 2/C"
_symmetry_group_IT_number 13
_symmetry_cell_setting 'monoclinic'
loop_
_space_group_symop_operation_xyz
x,y,z
-x,y,1/2-z
-x,-y,-z
x,-y,1/2+z
loop_
_atom_site_type_symbol
_atom_site_label
_atom_site_fract_x
_atom_site_fract_y
_atom_site_fract_z
Si Si1 0.233435 0.119000 0.475303
Si Si2 0.000000 0.964689 0.750000
Si Si3 0.347329 0.534754 0.127463
Si Si4 0.354746 0.977621 0.919123
Si Si5 0.840411 0.366982 0.113808
Si Si6 0.841481 0.301493 0.616088
Si Si7 0.160382 0.180820 0.910881
O O1 0.121582 0.074864 0.364445
O O2 0.355675 0.081821 0.513193
O O3 0.224043 0.147726 0.737043
O O4 0.204569 0.158932 0.222412
O O5 0.000000 0.000000 0.500000
O O6 0.500000 0.553352 0.250000
O O7 0.329996 0.507706 0.386959
O O8 0.242428 0.580305 0.988134
O O9 0.292084 0.985955 0.584141
O O10 0.500000 0.000000 0.000000
O O11 0.803914 0.336246 0.339417
O O12 0.000000 0.376002 0.250000
O O13 0.805472 0.330265 0.844157
O O14 0.799249 0.241397 0.572516
O O15 0.000000 0.299326 0.750000
O O16 0.000000 0.176651 0.750000
#
# Coordination Sequence:
#
# PCOD9228429 Si02
#       7
#     4   2   4   4   4   4   4
#     4  12  21  34  53  79 107 139 173 215 274 332
#     4  12  22  32  46  72 114 134 160 210 260 336
#     4  10  21  36  55  84 120 157 197 238 284 333
#     4  10  21  38  56  75  95 130 179 214 256 324
#     4  10  19  34  55  85 115 155 196 234 282 333
#     4   9  19  33  54  80 113 145 186 232 273 330
#     4  11  20  35  52  81 114 143 172 219 281 333
#
# _framework density 19.03079
#
# number of rings (size 3 to 8) (size 9 to 14) (size 15 to 20)
#    0.000    1.538    1.538    4.615    0.000    3.077 
#    0.000    0.000    0.000    0.000   40.000    0.000 
#    0.000    0.000    0.000    0.000    0.000    0.000 
#
# Total GULP energy -145111.065934 kJ/mol
# GULP energy per Si atom -5581.194844 kJ/mol
# Density = 1.898747 g / cm^3
# Si number density = 19.030790 Si / 1000 Ang^3
#
#
#
# Elastic Constant Matrix: (Units=GPa)
#
#
# Indices 1 2 3 4 5 6 
#
# 1 51.6305 35.2178 32.0321 0.0000 -1.3887 0.0000
# 2 35.2178 111.4755 37.0361 0.0000 5.7016 0.0000
# 3 32.0321 37.0361 100.7120 0.0000 -29.0274 0.0000
# 4 0.0000 0.0000 0.0000 33.3141 0.0000 -4.5662
# 5 -1.3887 5.7016 -29.0274 0.0000 32.3013 0.0000
# 6 0.0000 0.0000 0.0000 -4.5662 0.0000 18.2341
#
#
#
# Elastic Compliance Matrix: (Units=1/GPa)
#
#
# Indices 1 2 3 4 5 6 
#
# 1 0.028488 -0.005941 -0.008395 0.000000 -0.005271 0.000000
# 2 -0.005941 0.012780 -0.004769 0.000000 -0.006797 0.000000
# 3 -0.008395 -0.004769 0.019557 0.000000 0.018056 0.000000
# 4 0.000000 0.000000 0.000000 0.031084 0.000000 0.007784
# 5 -0.005271 -0.006797 0.018056 0.000000 0.048157 0.000000
# 6 0.000000 0.000000 0.000000 0.007784 0.000000 0.056792
#
#
# Mechanical properties :
#
#
# Convention : Reuss Voigt Hill
#
# Bulk Modulus (GPa) = 44.22011 52.48780 48.35396
# Shear Modulus (GPa) = 20.60956 27.40536 24.00746
#
# Velocity S-wave (km/s) = 3.29440 3.79892 3.55562
# Velocity P-wave (km/s) = 6.14470 6.84710 6.50538
#
# Compressibility (1/GPa) = 0.02261415
#
# Stress axis : x y z
#
# Youngs Moduli (GPa) = 35.10309 78.24972 51.13202
#
# Poissons Ratio (x) = 0.46490 0.42925
# Poissons Ratio (y) = 0.20856 0.24385
# Poissons Ratio (z) = 0.29469 0.37317
#
# Static dielectric constant tensor:
#      x y z
#    x 1.693820 0.000000 -0.171370 
#    y 0.000000 1.643250 0.000000 
#    z -0.171370 0.000000 1.395770 
# 
# From -- ./inp_files/4211.got.cif
#   From: 2010.05.17/outbox.cif.g08.bks.cpg/sg13_3_cif.got.tgz:4211.got - 2010.06.03 16:44:36.
