data_PCOD9228924
_publ_section_title
;
Structure prediction by ZEFSAII (Michael W. Deem and Ramdas Pophale) SiO2 
 PCOD9228924
Probable space group: P 2/C
;
_chemical_formula_sum "Si O2"
_cell_formula_units_Z 30
_cell_length_a 11.577875
_cell_length_b 8.229746
_cell_length_c 16.534913
_cell_angle_alpha 90.000000
_cell_angle_beta 66.955863
_cell_angle_gamma 90.000000
_cell_volume 1449.776726
_symmetry_space_group_name_H-M "P 2/C"
_symmetry_group_IT_number 13
_symmetry_cell_setting 'monoclinic'
loop_
_space_group_symop_operation_xyz
x,y,z
-x,y,1/2-z
-x,-y,-z
x,-y,1/2+z
loop_
_atom_site_type_symbol
_atom_site_label
_atom_site_fract_x
_atom_site_fract_y
_atom_site_fract_z
Si Si1 0.356462 0.392216 0.796898
Si Si2 0.060041 0.596811 0.058587
Si Si3 0.158501 0.069551 0.577422
Si Si4 0.652496 0.177029 0.540645
Si Si5 0.295086 0.529774 0.577593
Si Si6 0.620052 0.223851 0.877389
Si Si7 0.856458 0.571463 0.717452
Si Si8 0.000000 0.134232 0.250000
O O1 0.500000 0.452316 0.750000
O O2 0.336324 0.291989 0.883973
O O3 0.344520 0.266725 0.724560
O O4 0.256591 0.536431 0.813832
O O5 0.077792 0.791192 0.054371
O O6 0.200700 0.531984 0.034329
O O7 0.968480 0.545212 0.157445
O O8 0.000000 0.500000 0.000000
O O9 0.265663 0.149973 0.604560
O O10 0.237679 0.954451 0.495570
O O11 0.075258 0.970159 0.663949
O O12 0.665346 0.291169 0.458182
O O13 0.507446 0.120410 0.583846
O O14 0.400360 0.399260 0.573096
O O15 0.207121 0.530104 0.680269
O O16 0.913316 0.748051 0.718358
#
# Coordination Sequence:
#
# PCOD9228924 Si02
#       8
#     4   4   4   4   4   4   4   2
#     4   9  21  38  66  94 128 177 220 267 331 396
#     4  11  23  40  62  90 127 173 214 268 330 404
#     4  11  25  40  64  98 127 173 217 273 341 386
#     4  11  19  41  62  99 133 160 221 284 325 384
#     4  10  19  36  60  94 120 171 222 256 313 394
#     4   9  21  38  66  89 129 182 214 258 330 408
#     4  11  20  41  64  89 128 173 219 264 314 398
#     4  12  24  40  66  98 128 160 226 272 320 386
#
# _framework density 20.692841999999999
#
# number of rings (size 3 to 8) (size 9 to 14) (size 15 to 20)
#    0.000    1.600    2.667    1.600    5.600    0.000 
#    2.400    3.333    0.000    0.000    0.000    0.000 
#    0.000    0.000    0.000    0.000    0.000    0.000 
#
# Total GULP energy -167277.218479 kJ/mol
# GULP energy per Si atom -5575.907283 kJ/mol
# Density = 2.064574 g / cm^3
# Si number density = 20.692842 Si / 1000 Ang^3
#
#
#
# Elastic Constant Matrix: (Units=GPa)
#
#
# Indices 1 2 3 4 5 6 
#
# 1 85.5656 43.9824 38.5423 0.0000 0.9420 0.0000
# 2 43.9824 98.9705 40.1277 0.0000 -14.7700 0.0000
# 3 38.5423 40.1277 99.5275 0.0000 -7.8959 0.0000
# 4 0.0000 0.0000 0.0000 20.4974 0.0000 6.5066
# 5 0.9420 -14.7700 -7.8959 0.0000 33.4185 0.0000
# 6 0.0000 0.0000 0.0000 6.5066 0.0000 15.9729
#
#
#
# Elastic Compliance Matrix: (Units=1/GPa)
#
#
# Indices 1 2 3 4 5 6 
#
# 1 0.016999 -0.006449 -0.004328 0.000000 -0.004352 0.000000
# 2 -0.006449 0.015153 -0.003125 0.000000 0.006141 0.000000
# 3 -0.004328 -0.003125 0.013130 0.000000 0.001843 0.000000
# 4 0.000000 0.000000 0.000000 0.056032 0.000000 -0.022825
# 5 -0.004352 0.006141 0.001843 0.000000 0.033196 0.000000
# 6 0.000000 0.000000 0.000000 -0.022825 0.000000 0.071904
#
#
# Mechanical properties :
#
#
# Convention : Reuss Voigt Hill
#
# Bulk Modulus (GPa) = 57.21476 58.81874 58.01675
# Shear Modulus (GPa) = 20.82943 24.73850 22.78397
#
# Velocity S-wave (km/s) = 3.17614 3.46137 3.32182
# Velocity P-wave (km/s) = 6.41561 6.66792 6.54298
#
# Compressibility (1/GPa) = 0.01747801
#
# Stress axis : x y z
#
# Youngs Moduli (GPa) = 58.82545 65.99142 76.16303
#
# Poissons Ratio (x) = 0.42559 0.32965
# Poissons Ratio (y) = 0.37938 0.23801
# Poissons Ratio (z) = 0.25461 0.20622
#
# Static dielectric constant tensor:
#      x y z
#    x 1.804820 0.000000 0.005640 
#    y 0.000000 1.768450 0.000000 
#    z 0.005640 0.000000 1.747980 
# 
# From -- ./inp_files/50319.got.cif
#   From: 2010.05.17/outbox.cif.g08.bks.cpg/sg13_26_cif.got.tgz:50319.got - 2010.06.03 16:44:36.
