data_PCOD9228825
_publ_section_title
;
Structure prediction by ZEFSAII (Michael W. Deem and Ramdas Pophale) SiO2 
 PCOD9228825
Probable space group: P 2/C
;
_chemical_formula_sum "Si O2"
_cell_formula_units_Z 30
_cell_length_a 24.917936
_cell_length_b 10.318397
_cell_length_c 8.218996
_cell_angle_alpha 90.000000
_cell_angle_beta 45.532567
_cell_angle_gamma 90.000000
_cell_volume 1508.091065
_symmetry_space_group_name_H-M "P 2/C"
_symmetry_group_IT_number 13
_symmetry_cell_setting 'monoclinic'
loop_
_space_group_symop_operation_xyz
x,y,z
-x,y,1/2-z
-x,-y,-z
x,-y,1/2+z
loop_
_atom_site_type_symbol
_atom_site_label
_atom_site_fract_x
_atom_site_fract_y
_atom_site_fract_z
Si Si1 0.810609 0.067258 0.874249
Si Si2 0.000000 0.572153 0.250000
Si Si3 0.412452 0.687175 0.461971
Si Si4 0.254887 0.631300 0.417682
Si Si5 0.923001 0.903573 0.861555
Si Si6 0.081661 0.357551 0.281998
Si Si7 0.345636 0.565929 0.919888
Si Si8 0.278939 0.853071 0.631611
O O1 0.867082 0.133006 0.627600
O O2 0.868176 0.975428 0.851867
O O3 0.769693 0.151179 0.099077
O O4 0.748084 0.985291 0.903148
O O5 0.955281 0.480142 0.223537
O O6 0.938155 0.646671 0.485783
O O7 0.500000 0.711121 0.250000
O O8 0.393684 0.648375 0.689021
O O9 0.389222 0.558593 0.404926
O O10 0.362637 0.810733 0.510830
O O11 0.168657 0.632240 0.554941
O O12 0.279041 0.498529 0.455045
O O13 0.261819 0.744358 0.534534
O O14 0.309672 0.644333 0.146195
O O15 0.951079 0.774147 0.717462
O O16 0.000000 0.976477 0.750000
#
# Coordination Sequence:
#
# PCOD9228825 Si02
#       8
#     4   2   4   4   4   4   4   4
#     4  10  23  42  59  81 115 147 198 258 295 334
#     4  10  24  38  50  78 120 154 176 236 280 354
#     4  10  20  37  60  92 124 153 188 231 288 352
#     4  10  19  36  56  85 111 152 193 231 279 349
#     4  11  22  40  61  84 110 150 198 249 301 345
#     4  11  21  38  55  79 114 152 191 225 289 340
#     4   9  20  34  59  89 122 150 185 230 280 345
#     4  10  22  38  61  84 111 155 193 242 295 342
#
# _framework density 19.892697999999999
#
# number of rings (size 3 to 8) (size 9 to 14) (size 15 to 20)
#    0.000    1.867    2.000    1.600    1.867    1.067 
#    3.600    0.667    0.000    0.000    0.000    0.000 
#    0.000    0.000    0.000    0.000    0.000    0.000 
#
# Total GULP energy -167207.296471 kJ/mol
# GULP energy per Si atom -5573.576549 kJ/mol
# Density = 1.984742 g / cm^3
# Si number density = 19.892698 Si / 1000 Ang^3
#
#
#
# Elastic Constant Matrix: (Units=GPa)
#
#
# Indices 1 2 3 4 5 6 
#
# 1 83.0333 14.1606 58.4372 0.0000 -5.7725 0.0000
# 2 14.1606 31.0211 36.9417 0.0000 3.9608 0.0000
# 3 58.4372 36.9417 133.2049 0.0000 9.6190 0.0000
# 4 0.0000 0.0000 0.0000 -20.4097 0.0000 49.1834
# 5 -5.7725 3.9608 9.6190 0.0000 43.7401 0.0000
# 6 0.0000 0.0000 0.0000 49.1834 0.0000 -26.6521
#
#
#
# Elastic Compliance Matrix: (Units=1/GPa)
#
#
# Indices 1 2 3 4 5 6 
#
# 1 0.018205 0.001532 -0.008713 0.000000 0.004180 0.000000
# 2 0.001532 0.048351 -0.014002 0.000000 -0.001097 0.000000
# 3 -0.008713 -0.014002 0.015450 0.000000 -0.003280 0.000000
# 4 0.000000 0.000000 0.000000 0.014214 0.000000 0.026230
# 5 0.004180 -0.001097 -0.003280 0.000000 0.024234 0.000000
# 6 0.000000 0.000000 0.000000 0.026230 0.000000 0.010885
#
#
# Mechanical properties :
#
#
# Convention : Reuss Voigt Hill
#
# Bulk Modulus (GPa) = 25.22730 51.81539 38.52134
# Shear Modulus (GPa) = 26.74949 8.51698 17.63323
#
# Velocity S-wave (km/s) = 3.67098 2.07141 2.98051
# Velocity P-wave (km/s) = 5.53871 5.64136 5.59027
#
# Compressibility (1/GPa) = 0.03963960
#
# Stress axis : x y z
#
# Youngs Moduli (GPa) = 54.93023 20.68193 64.72535
#
# Poissons Ratio (x) = -0.03169 0.56398
# Poissons Ratio (y) = -0.08418 0.90631
# Poissons Ratio (z) = 0.47863 0.28960
#
# Static dielectric constant tensor:
#      x y z
#    x 1.749280 0.000000 0.029740 
#    y 0.000000 1.713750 0.000000 
#    z 0.029740 0.000000 1.693080 
# 
# From -- ./inp_files/24935.got.cif
#   From: 2010.05.17/outbox.cif.g08.bks.cpg/sg13_13_cif.got.tgz:24935.got - 2010.06.03 16:44:36.
