data_PCOD9228651
_publ_section_title
;
Structure prediction by ZEFSAII (Michael W. Deem and Ramdas Pophale) SiO2 
 PCOD9228651
Probable space group: P 2/C
;
_chemical_formula_sum "Si O2"
_cell_formula_units_Z 24
_cell_length_a 9.313693
_cell_length_b 18.813523
_cell_length_c 9.102242
_cell_angle_alpha 90.000000
_cell_angle_beta 129.364534
_cell_angle_gamma 90.000000
_cell_volume 1233.078953
_symmetry_space_group_name_H-M "P 2/C"
_symmetry_group_IT_number 13
_symmetry_cell_setting 'monoclinic'
loop_
_space_group_symop_operation_xyz
x,y,z
-x,y,1/2-z
-x,-y,-z
x,-y,1/2+z
loop_
_atom_site_type_symbol
_atom_site_label
_atom_site_fract_x
_atom_site_fract_y
_atom_site_fract_z
Si Si1 0.200413 0.414899 0.805015
Si Si2 0.526251 0.317655 0.942410
Si Si3 0.797683 0.557871 0.547042
Si Si4 0.849750 0.930264 0.779826
Si Si5 0.876185 0.910110 0.311008
Si Si6 0.510754 0.842037 0.434389
O O1 0.342184 0.349361 0.897653
O O2 0.279428 0.481644 0.949553
O O3 0.189737 0.435371 0.622806
O O4 0.000000 0.399376 0.750000
O O5 0.500000 0.310024 0.750000
O O6 0.564409 0.237737 0.017584
O O7 0.682005 0.378533 0.045948
O O8 0.000000 0.560316 0.750000
O O9 0.663112 0.894739 0.600500
O O10 0.000000 0.938325 0.750000
O O11 0.809937 0.010000 0.814522
O O12 0.972645 0.884413 0.972674
O O13 0.698606 0.862957 0.160621
O O14 0.000000 0.917272 0.250000
O O15 0.500000 0.847611 0.250000
#
# Coordination Sequence:
#
# PCOD9228651 Si02
#       6
#     4   4   4   4   4   4
#     4  10  19  35  59  83 110 146 186 233 279 329
#     4   9  21  36  53  82 115 148 186 230 283 338
#     4  10  19  35  58  84 108 144 190 233 275 330
#     4  10  20  38  63  90 109 156 200 234 291 348
#     4  10  22  38  61  87 120 146 194 251 287 333
#     4  11  21  38  60  86 119 157 194 236 292 356
#
# _framework density 19.463474000000001
#
# number of rings (size 3 to 8) (size 9 to 14) (size 15 to 20)
#    0.000    2.000    1.667    3.000    0.000    2.000 
#    3.000    2.500   11.000    0.000    0.000    0.000 
#    0.000    0.000    0.000    0.000    0.000    0.000 
#
# Total GULP energy -133653.101266 kJ/mol
# GULP energy per Si atom -5568.879219 kJ/mol
# Density = 1.941917 g / cm^3
# Si number density = 19.463474 Si / 1000 Ang^3
#
#
#
# Elastic Constant Matrix: (Units=GPa)
#
#
# Indices 1 2 3 4 5 6 
#
# 1 99.2290 31.5670 22.3536 0.0000 5.2114 0.0000
# 2 31.5670 73.9258 13.6270 0.0000 8.1794 0.0000
# 3 22.3536 13.6270 72.7946 0.0000 0.8132 0.0000
# 4 0.0000 0.0000 0.0000 47.7123 0.0000 9.3048
# 5 5.2114 8.1794 0.8132 0.0000 22.3642 0.0000
# 6 0.0000 0.0000 0.0000 9.3048 0.0000 11.5348
#
#
#
# Elastic Compliance Matrix: (Units=1/GPa)
#
#
# Indices 1 2 3 4 5 6 
#
# 1 0.012241 -0.004575 -0.002890 0.000000 -0.001074 0.000000
# 2 -0.004575 0.016310 -0.001594 0.000000 -0.004841 0.000000
# 3 -0.002890 -0.001594 0.014915 0.000000 0.000714 0.000000
# 4 0.000000 0.000000 0.000000 0.024872 0.000000 -0.020063
# 5 -0.001074 -0.004841 0.000714 0.000000 0.046709 0.000000
# 6 0.000000 0.000000 0.000000 -0.020063 0.000000 0.102879
#
#
# Mechanical properties :
#
#
# Convention : Reuss Voigt Hill
#
# Bulk Modulus (GPa) = 39.45304 42.33828 40.89566
# Shear Modulus (GPa) = 20.45035 28.21570 24.33303
#
# Velocity S-wave (km/s) = 3.24497 3.81159 3.53964
# Velocity P-wave (km/s) = 5.86124 6.41645 6.14512
#
# Compressibility (1/GPa) = 0.02534659
#
# Stress axis : x y z
#
# Youngs Moduli (GPa) = 81.69452 61.31106 67.04519
#
# Poissons Ratio (x) = 0.28052 0.19379
# Poissons Ratio (y) = 0.37378 0.10688
# Poissons Ratio (z) = 0.23613 0.09774
#
# Static dielectric constant tensor:
#      x y z
#    x 1.684650 0.000000 -0.012400 
#    y 0.000000 1.720840 0.000000 
#    z -0.012400 0.000000 1.679160 
# 
# From -- ./inp_files/13523.got.cif
#   From: 2010.05.17/outbox.cif.g08.bks.cpg/sg13_7_cif.got.tgz:13523.got - 2010.06.03 16:44:36.
