data_PCOD9228467
_publ_section_title
;
Structure prediction by ZEFSAII (Michael W. Deem and Ramdas Pophale) SiO2 
 PCOD9228467
Probable space group: P 2/C
;
_chemical_formula_sum "Si O2"
_cell_formula_units_Z 16
_cell_length_a 29.425236
_cell_length_b 6.637592
_cell_length_c 24.050739
_cell_angle_alpha 90.000000
_cell_angle_beta 169.912568
_cell_angle_gamma 90.000000
_cell_volume 822.755852
_symmetry_space_group_name_H-M "P 2/C"
_symmetry_group_IT_number 13
_symmetry_cell_setting 'monoclinic'
loop_
_space_group_symop_operation_xyz
x,y,z
-x,y,1/2-z
-x,-y,-z
x,-y,1/2+z
loop_
_atom_site_type_symbol
_atom_site_label
_atom_site_fract_x
_atom_site_fract_y
_atom_site_fract_z
Si Si1 0.380904 0.144894 0.710550
Si Si2 0.968506 0.368080 0.290090
Si Si3 0.171023 0.413786 0.255275
Si Si4 0.378877 0.280868 0.163608
O O1 0.270642 0.229970 0.519067
O O2 0.211415 0.265269 0.552186
O O3 0.338346 0.907668 0.654998
O O4 0.677597 0.207417 0.075905
O O5 0.986826 0.380355 0.378045
O O6 0.877551 0.588163 0.159058
O O7 0.404150 0.570365 0.549526
O O8 0.000000 0.500000 0.000000
O O9 0.500000 0.213950 0.250000
#
# Coordination Sequence:
#
# PCOD9228467 Si02
#       4
#     4   4   4   4
#     4  10  19  34  57  80 104 139 185 228 270 317
#     4   9  20  35  55  82 108 137 181 231 271 316
#     4  10  21  36  52  78 116 148 176 218 272 328
#     4   9  18  36  59  80 108 145 183 226 276 324
#
# _framework density 19.446838
#
# number of rings (size 3 to 8) (size 9 to 14) (size 15 to 20)
#    0.000    2.500    0.000    3.750    0.000   10.000 
#    0.000    1.250    0.000    0.000    0.000   10.500 
#    0.000    0.000    0.000    0.000    0.000    0.000 
#
# Total GULP energy -89201.873814 kJ/mol
# GULP energy per Si atom -5575.117113 kJ/mol
# Density = 1.940258 g / cm^3
# Si number density = 19.446838 Si / 1000 Ang^3
#
#
#
# Elastic Constant Matrix: (Units=GPa)
#
#
# Indices 1 2 3 4 5 6 
#
# 1 127.4696 34.2963 39.4070 0.0000 18.0243 0.0000
# 2 34.2963 106.8275 9.9753 0.0000 22.0365 0.0000
# 3 39.4070 9.9753 42.4353 0.0000 0.4455 0.0000
# 4 0.0000 0.0000 0.0000 15.7170 0.0000 6.7399
# 5 18.0243 22.0365 0.4455 0.0000 27.2194 0.0000
# 6 0.0000 0.0000 0.0000 6.7399 0.0000 19.6328
#
#
#
# Elastic Compliance Matrix: (Units=1/GPa)
#
#
# Indices 1 2 3 4 5 6 
#
# 1 0.012800 -0.001599 -0.011437 0.000000 -0.006995 0.000000
# 2 -0.001599 0.011719 -0.001182 0.000000 -0.008410 0.000000
# 3 -0.011437 -0.001182 0.034381 0.000000 0.007968 0.000000
# 4 0.000000 0.000000 0.000000 0.074609 0.000000 -0.025613
# 5 -0.006995 -0.008410 0.007968 0.000000 0.048048 0.000000
# 6 0.000000 0.000000 0.000000 -0.025613 0.000000 0.059728
#
#
# Mechanical properties :
#
#
# Convention : Reuss Voigt Hill
#
# Bulk Modulus (GPa) = 32.82568 49.34329 41.08449
# Shear Modulus (GPa) = 17.86504 25.38409 21.62456
#
# Velocity S-wave (km/s) = 3.03423 3.61682 3.33826
# Velocity P-wave (km/s) = 5.40294 6.54755 6.00259
#
# Compressibility (1/GPa) = 0.03046396
#
# Stress axis : x y z
#
# Youngs Moduli (GPa) = 78.12511 85.32951 29.08607
#
# Poissons Ratio (x) = 0.13640 0.33267
# Poissons Ratio (y) = 0.12488 0.03438
# Poissons Ratio (z) = 0.89355 0.10087
#
# Static dielectric constant tensor:
#      x y z
#    x 1.709180 0.000000 0.052840 
#    y 0.000000 1.723590 0.000000 
#    z 0.052840 0.000000 1.680470 
# 
# From -- ./inp_files/61960.got.cif
#   From: 2010.05.17/outbox.cif.g08.bks.cpg/sg13_31_cif.got.tgz:61960.got - 2010.06.03 16:44:36.
