data_PCOD9228096
_publ_section_title
;
Structure prediction by ZEFSAII (Michael W. Deem and Ramdas Pophale) SiO2 
 PCOD9228096
Probable space group: P 2/C
;
_chemical_formula_sum "Si O2"
_cell_formula_units_Z 22
_cell_length_a 30.358325
_cell_length_b 7.110195
_cell_length_c 5.236716
_cell_angle_alpha 90.000000
_cell_angle_beta 74.834082
_cell_angle_gamma 90.000000
_cell_volume 1090.996059
_symmetry_space_group_name_H-M "P 2/C"
_symmetry_group_IT_number 13
_symmetry_cell_setting 'monoclinic'
loop_
_space_group_symop_operation_xyz
x,y,z
-x,y,1/2-z
-x,-y,-z
x,-y,1/2+z
loop_
_atom_site_type_symbol
_atom_site_label
_atom_site_fract_x
_atom_site_fract_y
_atom_site_fract_z
Si Si1 0.784345 0.874239 0.378026
Si Si2 0.688271 0.122201 0.909187
Si Si3 0.500000 0.632505 0.750000
Si Si4 0.598928 0.630345 0.586289
Si Si5 0.020681 0.710368 0.468773
Si Si6 0.116613 0.130924 0.854770
O O1 0.736392 0.772924 0.393273
O O2 0.833062 0.778933 0.252780
O O3 0.784091 0.956474 0.666154
O O4 0.642673 0.237958 0.024420
O O5 0.688446 0.955823 0.120538
O O6 0.500000 0.500000 0.500000
O O7 0.549253 0.732839 0.671969
O O8 0.600661 0.508392 0.325521
O O9 0.074957 0.725334 0.391184
O O10 0.000000 0.800347 0.250000
O O11 0.000000 0.500000 0.500000
O O12 0.000000 0.800936 0.750000
O O13 0.113234 0.977714 0.630341
#
# Coordination Sequence:
#
# PCOD9228096 Si02
#       6
#     4   4   2   4   4   4
#     4   8  16  30  49  72  97 126 159 199 246 297
#     4  10  19  33  53  77 105 137 169 211 270 311
#     4   8  16  30  48  70  96 142 176 210 256 304
#     4  10  19  33  53  74 105 137 181 218 254 306
#     4  10  21  35  50  68 100 132 155 189 250 297
#     4  10  19  32  53  77  96 123 168 206 232 282
#
# _framework density 20.16506
#
# number of rings (size 3 to 8) (size 9 to 14) (size 15 to 20)
#    0.000    2.545    0.000    2.182    0.000    2.182 
#    0.000    0.909    8.000    0.000    0.000    0.000 
#    0.000    0.000    0.000    0.000    0.000    0.000 
#
# Total GULP energy -122512.941129 kJ/mol
# GULP energy per Si atom -5568.770051 kJ/mol
# Density = 2.011916 g / cm^3
# Si number density = 20.165060 Si / 1000 Ang^3
#
#
#
# Elastic Constant Matrix: (Units=GPa)
#
#
# Indices 1 2 3 4 5 6 
#
# 1 211.2226 31.6088 29.9937 0.0000 -49.6169 0.0000
# 2 31.6088 33.9162 4.9234 0.0000 -9.7596 0.0000
# 3 29.9937 4.9234 132.6635 0.0000 16.6758 0.0000
# 4 0.0000 0.0000 0.0000 -0.9351 0.0000 -16.4405
# 5 -49.6169 -9.7596 16.6758 0.0000 56.2717 0.0000
# 6 0.0000 0.0000 0.0000 -16.4405 0.0000 36.1749
#
#
#
# Elastic Compliance Matrix: (Units=1/GPa)
#
#
# Indices 1 2 3 4 5 6 
#
# 1 0.007200 -0.004597 -0.002238 0.000000 0.006214 0.000000
# 2 -0.004597 0.034436 -0.000498 0.000000 0.002067 0.000000
# 3 -0.002238 -0.000498 0.008643 0.000000 -0.004622 0.000000
# 4 0.000000 0.000000 0.000000 -0.118951 0.000000 -0.054060
# 5 0.006214 0.002067 -0.004622 0.000000 0.024979 0.000000
# 6 0.000000 0.000000 0.000000 -0.054060 0.000000 0.003075
#
#
# Mechanical properties :
#
#
# Convention : Reuss Voigt Hill
#
# Bulk Modulus (GPa) = 28.08084 56.76157 42.42120
# Shear Modulus (GPa) = -355.10432 39.05407 -158.02512
#
# Velocity S-wave (km/s) = -13.28462 4.40559 -8.86205
# Velocity P-wave (km/s) = 14.87792 7.35449 9.14505
#
# Compressibility (1/GPa) = 0.03561147
#
# Stress axis : x y z
#
# Youngs Moduli (GPa) = 138.89076 29.03963 115.69566
#
# Poissons Ratio (x) = 0.13349 0.25897
# Poissons Ratio (y) = 0.63846 0.05767
# Poissons Ratio (z) = 0.31089 0.01448
#
# Static dielectric constant tensor:
#      x y z
#    x 1.789780 0.000000 -0.022000 
#    y 0.000000 1.674830 0.000000 
#    z -0.022000 0.000000 1.732780 
# 
# From -- ./inp_files/7324.got.cif
#   From: 2010.05.17/outbox.cif.g08.bks.cpg/sg13_4_cif.got.tgz:7324.got - 2010.06.03 16:44:36.
