data_PCOD9228457
_publ_section_title
;
Structure prediction by ZEFSAII (Michael W. Deem and Ramdas Pophale) SiO2 
 PCOD9228457
Probable space group: P 2/C
;
_chemical_formula_sum "Si O2"
_cell_formula_units_Z 26
_cell_length_a 5.942648
_cell_length_b 11.653962
_cell_length_c 20.204058
_cell_angle_alpha 90.000000
_cell_angle_beta 65.265582
_cell_angle_gamma 90.000000
_cell_volume 1270.869518
_symmetry_space_group_name_H-M "P 2/C"
_symmetry_group_IT_number 13
_symmetry_cell_setting 'monoclinic'
loop_
_space_group_symop_operation_xyz
x,y,z
-x,y,1/2-z
-x,-y,-z
x,-y,1/2+z
loop_
_atom_site_type_symbol
_atom_site_label
_atom_site_fract_x
_atom_site_fract_y
_atom_site_fract_z
Si Si1 0.993673 0.567316 0.636420
Si Si2 0.832869 0.928212 0.941609
Si Si3 0.500000 0.527479 0.250000
Si Si4 0.771676 0.352315 0.829195
Si Si5 0.754765 0.741041 0.580475
Si Si6 0.336210 0.830493 0.049443
Si Si7 0.766169 0.214750 0.325499
O O1 0.746833 0.546105 0.710194
O O2 0.892706 0.621973 0.580750
O O3 0.146422 0.451063 0.628439
O O4 0.154119 0.669681 0.646462
O O5 0.751284 0.890738 0.878073
O O6 0.066287 0.849033 0.928497
O O7 0.854848 0.064752 0.938970
O O8 0.606690 0.889354 0.016413
O O9 0.451537 0.602881 0.190076
O O10 0.712339 0.240655 0.878822
O O11 0.000000 0.334803 0.750000
O O12 0.673933 0.749476 0.514148
O O13 0.517934 0.758996 0.657968
O O14 0.000000 0.191885 0.250000
#
# Coordination Sequence:
#
# PCOD9228457 Si02
#       7
#     4   4   2   4   4   4   4
#     4  10  19  34  56  85 116 150 191 234 290 353
#     4   9  21  37  58  83 113 157 197 238 292 344
#     4  10  20  38  58  84 122 158 188 232 300 352
#     4  10  22  37  58  85 114 152 195 240 289 348
#     4  10  20  36  60  87 116 153 191 235 297 348
#     4  10  21  40  58  81 119 153 195 243 287 350
#     4  10  19  34  57  86 117 150 194 244 288 342
#
# _framework density 20.458434
#
# number of rings (size 3 to 8) (size 9 to 14) (size 15 to 20)
#    0.000    2.154    0.000    3.692    0.000    5.538 
#    0.000   10.769    0.000    1.846    0.000    1.077 
#    0.000    0.000    0.000    0.000    0.000    0.000 
#
# Total GULP energy -144944.432874 kJ/mol
# GULP energy per Si atom -5574.785880 kJ/mol
# Density = 2.041187 g / cm^3
# Si number density = 20.458434 Si / 1000 Ang^3
#
#
#
# Elastic Constant Matrix: (Units=GPa)
#
#
# Indices 1 2 3 4 5 6 
#
# 1 82.3690 27.6863 21.0100 0.0000 -7.1157 0.0000
# 2 27.6863 108.3868 52.9047 0.0000 4.7912 0.0000
# 3 21.0100 52.9047 70.2344 0.0000 -2.3727 0.0000
# 4 0.0000 0.0000 0.0000 33.5161 0.0000 2.6829
# 5 -7.1157 4.7912 -2.3727 0.0000 26.7992 0.0000
# 6 0.0000 0.0000 0.0000 2.6829 0.0000 6.6859
#
#
#
# Elastic Compliance Matrix: (Units=1/GPa)
#
#
# Indices 1 2 3 4 5 6 
#
# 1 0.013918 -0.002795 -0.001922 0.000000 0.004025 0.000000
# 2 -0.002795 0.015505 -0.010995 0.000000 -0.004488 0.000000
# 3 -0.001922 -0.010995 0.023214 0.000000 0.003511 0.000000
# 4 0.000000 0.000000 0.000000 0.030827 0.000000 -0.012370
# 5 0.004025 -0.004488 0.003511 0.000000 0.039496 0.000000
# 6 0.000000 0.000000 0.000000 -0.012370 0.000000 0.154533
#
#
# Mechanical properties :
#
#
# Convention : Reuss Voigt Hill
#
# Bulk Modulus (GPa) = 47.14143 51.57691 49.35917
# Shear Modulus (GPa) = 15.82335 24.02617 19.92476
#
# Velocity S-wave (km/s) = 2.78409 3.43065 3.12415
# Velocity P-wave (km/s) = 5.78165 6.39983 6.09858
#
# Compressibility (1/GPa) = 0.02121276
#
# Stress axis : x y z
#
# Youngs Moduli (GPa) = 71.84983 64.49397 43.07781
#
# Poissons Ratio (x) = 0.18025 0.08280
# Poissons Ratio (y) = 0.20081 0.47364
# Poissons Ratio (z) = 0.13811 0.70912
#
# Static dielectric constant tensor:
#      x y z
#    x 1.826630 0.000000 0.018210 
#    y 0.000000 1.718980 0.000000 
#    z 0.018210 0.000000 1.744710 
# 
# From -- ./inp_files/73524.got.cif
#   From: 2010.05.17/outbox.cif.g08.bks.cpg/sg13_37_cif.got.tgz:73524.got - 2010.06.03 16:44:36.
