data_PCOD9228991
_publ_section_title
;
Structure prediction by ZEFSAII (Michael W. Deem and Ramdas Pophale) SiO2 
 PCOD9228991
Probable space group: P 2/C
;
_chemical_formula_sum "Si O2"
_cell_formula_units_Z 26
_cell_length_a 6.413277
_cell_length_b 11.683412
_cell_length_c 21.577211
_cell_angle_alpha 90.000000
_cell_angle_beta 48.002018
_cell_angle_gamma 90.000000
_cell_volume 1201.523388
_symmetry_space_group_name_H-M "P 2/C"
_symmetry_group_IT_number 13
_symmetry_cell_setting 'monoclinic'
loop_
_space_group_symop_operation_xyz
x,y,z
-x,y,1/2-z
-x,-y,-z
x,-y,1/2+z
loop_
_atom_site_type_symbol
_atom_site_label
_atom_site_fract_x
_atom_site_fract_y
_atom_site_fract_z
Si Si1 0.102803 0.284200 0.480449
Si Si2 0.658224 0.159898 0.954193
Si Si3 0.017480 0.002501 0.818389
Si Si4 0.451775 0.321988 0.634306
Si Si5 0.608079 0.551283 0.912365
Si Si6 0.047187 0.765323 0.620970
Si Si7 0.500000 0.176322 0.750000
O O1 0.157771 0.189307 0.522107
O O2 0.337204 0.378650 0.444594
O O3 0.784721 0.327774 0.551525
O O4 0.139266 0.243362 0.403134
O O5 0.703444 0.247776 0.887812
O O6 0.344562 0.187251 0.036990
O O7 0.730389 0.039380 0.909369
O O8 0.000000 0.031021 0.750000
O O9 0.072222 0.867242 0.813476
O O10 0.241753 0.087107 0.805511
O O11 0.335887 0.449348 0.647018
O O12 0.444524 0.257542 0.701555
O O13 0.865350 0.641014 0.869661
O O14 0.500000 0.500000 0.000000
#
# Coordination Sequence:
#
# PCOD9228991 Si02
#       7
#     4   4   4   4   4   4   2
#     4  10  19  36  64  97 126 155 206 270 323 368
#     4  10  20  39  67  95 123 158 211 274 315 367
#     4  12  25  44  64  87 134 171 216 262 313 392
#     4  11  21  38  61  99 123 160 217 251 328 377
#     4  11  20  37  67  94 126 159 205 272 321 376
#     4  10  24  39  64  99 123 169 208 263 331 378
#     4  12  26  40  64  94 128 184 212 262 324 386
#
# _framework density 21.639195999999998
#
# number of rings (size 3 to 8) (size 9 to 14) (size 15 to 20)
#    0.000    1.231    7.692    0.923    0.000    3.077 
#    0.000    1.538    0.000    0.000    0.000    0.000 
#    0.000    0.000    0.000    0.000    0.000    0.000 
#
# Total GULP energy -145051.128175 kJ/mol
# GULP energy per Si atom -5578.889545 kJ/mol
# Density = 2.158994 g / cm^3
# Si number density = 21.639196 Si / 1000 Ang^3
#
#
#
# Elastic Constant Matrix: (Units=GPa)
#
#
# Indices 1 2 3 4 5 6 
#
# 1 91.6338 32.1559 13.1999 0.0000 28.6593 0.0000
# 2 32.1559 134.3023 22.4734 0.0000 29.4580 0.0000
# 3 13.1999 22.4734 30.9680 0.0000 11.7799 0.0000
# 4 0.0000 0.0000 0.0000 32.4805 0.0000 14.1396
# 5 28.6593 29.4580 11.7799 0.0000 22.7546 0.0000
# 6 0.0000 0.0000 0.0000 14.1396 0.0000 7.9837
#
#
#
# Elastic Compliance Matrix: (Units=1/GPa)
#
#
# Indices 1 2 3 4 5 6 
#
# 1 0.018110 0.000861 0.000942 0.000000 -0.024412 0.000000
# 2 0.000861 0.010671 -0.003043 0.000000 -0.013324 0.000000
# 3 0.000942 -0.003043 0.041155 0.000000 -0.018553 0.000000
# 4 0.000000 0.000000 0.000000 0.134435 0.000000 -0.238091
# 5 -0.024412 -0.013324 -0.018553 0.000000 0.101548 0.000000
# 6 0.000000 0.000000 0.000000 -0.238091 0.000000 0.546927
#
#
# Mechanical properties :
#
#
# Convention : Reuss Voigt Hill
#
# Bulk Modulus (GPa) = 14.82427 43.61804 29.22116
# Shear Modulus (GPa) = 5.69598 25.24876 15.47237
#
# Velocity S-wave (km/s) = 1.62418 3.41956 2.67688
# Velocity P-wave (km/s) = 3.22224 5.98263 4.80493
#
# Compressibility (1/GPa) = 0.06745694
#
# Stress axis : x y z
#
# Youngs Moduli (GPa) = 55.21735 93.70775 24.29814
#
# Poissons Ratio (x) = -0.08066 -0.02289
# Poissons Ratio (y) = -0.04753 0.07393
# Poissons Ratio (z) = -0.05201 0.28513
#
# Static dielectric constant tensor:
#      x y z
#    x 1.829990 0.000000 -0.029320 
#    y 0.000000 1.850410 0.000000 
#    z -0.029320 0.000000 1.852600 
# 
# From -- ./inp_files/61134.got.cif
#   From: 2010.05.17/outbox.cif.g08.bks.cpg/sg13_31_cif.got.tgz:61134.got - 2010.06.03 16:44:36.
