data_PCOD9228867
_publ_section_title
;
Structure prediction by ZEFSAII (Michael W. Deem and Ramdas Pophale) SiO2 
 PCOD9228867
Probable space group: P 2/C
;
_chemical_formula_sum "Si O2"
_cell_formula_units_Z 28
_cell_length_a 11.088828
_cell_length_b 16.473800
_cell_length_c 9.208376
_cell_angle_alpha 90.000000
_cell_angle_beta 58.874047
_cell_angle_gamma 90.000000
_cell_volume 1439.968528
_symmetry_space_group_name_H-M "P 2/C"
_symmetry_group_IT_number 13
_symmetry_cell_setting 'monoclinic'
loop_
_space_group_symop_operation_xyz
x,y,z
-x,y,1/2-z
-x,-y,-z
x,-y,1/2+z
loop_
_atom_site_type_symbol
_atom_site_label
_atom_site_fract_x
_atom_site_fract_y
_atom_site_fract_z
Si Si1 0.749952 0.259941 0.272744
Si Si2 0.181230 0.926658 0.471047
Si Si3 0.000000 0.630796 0.750000
Si Si4 0.645506 0.475315 0.981860
Si Si5 0.500000 0.339218 0.250000
Si Si6 0.667481 0.767055 0.152110
Si Si7 0.781587 0.409317 0.622427
Si Si8 0.845835 0.911240 0.668112
O O1 0.881898 0.318532 0.231311
O O2 0.608580 0.293530 0.287425
O O3 0.710522 0.235078 0.458539
O O4 0.797188 0.179258 0.159307
O O5 0.269082 0.854009 0.340195
O O6 0.192529 0.926906 0.639013
O O7 0.015095 0.911763 0.546886
O O8 0.215729 0.015196 0.387022
O O9 0.079320 0.587530 0.565549
O O10 0.763738 0.457298 0.785576
O O11 0.500000 0.500000 0.000000
O O12 0.607706 0.394229 0.091181
O O13 0.677079 0.546013 0.076025
O O14 0.500000 0.763348 0.250000
O O15 0.735251 0.684633 0.176351
#
# Coordination Sequence:
#
# PCOD9228867 Si02
#       8
#     4   4   2   4   2   4   4   4
#     4  10  21  40  63  89 120 169 200 255 310 373
#     4   9  18  34  61  85 114 157 202 246 298 367
#     4  10  22  42  68  88 126 166 214 250 320 376
#     4  12  22  40  62  90 122 165 209 254 314 381
#     4  12  24  40  64  92 126 160 212 260 318 368
#     4  10  19  36  58  86 116 157 204 243 306 374
#     4  11  23  38  64  88 120 163 209 256 308 377
#     4   9  17  36  59  85 114 155 204 245 299 362
#
# _framework density 19.444870999999999
#
# number of rings (size 3 to 8) (size 9 to 14) (size 15 to 20)
#    0.000    1.714    1.429    6.000    0.000    0.571 
#    6.429    1.429    3.143    0.000    0.000    0.000 
#    0.000    0.000    0.000    0.000    0.000    0.000 
#
# Total GULP energy -155887.904928 kJ/mol
# GULP energy per Si atom -5567.425176 kJ/mol
# Density = 1.940061 g / cm^3
# Si number density = 19.444871 Si / 1000 Ang^3
#
#
#
# Elastic Constant Matrix: (Units=GPa)
#
#
# Indices 1 2 3 4 5 6 
#
# 1 35.0318 -6.1071 -14.4687 0.0000 0.8806 0.0000
# 2 -6.1071 39.0037 0.0148 0.0000 3.6742 0.0000
# 3 -14.4687 0.0148 61.0225 0.0000 -15.8810 0.0000
# 4 0.0000 0.0000 0.0000 21.1020 0.0000 -3.5477
# 5 0.8806 3.6742 -15.8810 0.0000 23.5582 0.0000
# 6 0.0000 0.0000 0.0000 -3.5477 0.0000 62.2325
#
#
#
# Elastic Compliance Matrix: (Units=1/GPa)
#
#
# Indices 1 2 3 4 5 6 
#
# 1 0.032931 0.004777 0.008844 0.000000 0.003986 0.000000
# 2 0.004777 0.026798 -0.000010 0.000000 -0.004364 0.000000
# 3 0.008844 -0.000010 0.022313 0.000000 0.014713 0.000000
# 4 0.000000 0.000000 0.000000 0.047848 0.000000 0.002728
# 5 0.003986 -0.004364 0.014713 0.000000 0.052898 0.000000
# 6 0.000000 0.000000 0.000000 0.002728 0.000000 0.016224
#
#
# Mechanical properties :
#
#
# Convention : Reuss Voigt Hill
#
# Bulk Modulus (GPa) = 9.15197 10.43735 9.79466
# Shear Modulus (GPa) = 24.01427 31.75314 27.88371
#
# Velocity S-wave (km/s) = 3.51806 4.04540 3.79091
# Velocity P-wave (km/s) = 4.60643 5.21533 4.92031
#
# Compressibility (1/GPa) = 0.10926607
#
# Stress axis : x y z
#
# Youngs Moduli (GPa) = 30.36659 37.31659 44.81624
#
# Poissons Ratio (x) = -0.17828 -0.39637
# Poissons Ratio (y) = -0.14507 0.00043
# Poissons Ratio (z) = -0.26857 0.00036
#
# Static dielectric constant tensor:
#      x y z
#    x 1.542820 0.000000 -0.175580 
#    y 0.000000 1.680900 0.000000 
#    z -0.175580 0.000000 1.232660 
# 
# From -- ./inp_files/16704.got.cif
#   From: 2010.05.17/outbox.cif.g08.bks.cpg/sg13_9_cif.got.tgz:16704.got - 2010.06.03 16:44:36.
