data_PCOD9228782
_publ_section_title
;
Structure prediction by ZEFSAII (Michael W. Deem and Ramdas Pophale) SiO2 
 PCOD9228782
Probable space group: P 2/C
;
_chemical_formula_sum "Si O2"
_cell_formula_units_Z 28
_cell_length_a 11.156001
_cell_length_b 7.258683
_cell_length_c 14.920454
_cell_angle_alpha 90.000000
_cell_angle_beta 62.334760
_cell_angle_gamma 90.000000
_cell_volume 1070.096713
_symmetry_space_group_name_H-M "P 2/C"
_symmetry_group_IT_number 13
_symmetry_cell_setting 'monoclinic'
loop_
_space_group_symop_operation_xyz
x,y,z
-x,y,1/2-z
-x,-y,-z
x,-y,1/2+z
loop_
_atom_site_type_symbol
_atom_site_label
_atom_site_fract_x
_atom_site_fract_y
_atom_site_fract_z
Si Si1 0.055810 0.047900 0.819898
Si Si2 0.679823 0.134949 0.691981
Si Si3 0.773215 0.005883 0.486252
Si Si4 0.351486 0.445510 0.332937
Si Si5 0.342585 0.589002 0.519414
Si Si6 0.146698 0.634820 0.745799
Si Si7 0.584740 0.848469 0.418473
O O1 0.124758 0.856511 0.762404
O O2 0.000000 0.139515 0.750000
O O3 0.167598 0.167044 0.828291
O O4 0.933413 0.008872 0.929300
O O5 0.698013 0.982354 0.608100
O O6 0.631447 0.332932 0.678441
O O7 0.598877 0.091918 0.810489
O O8 0.737628 0.219337 0.478060
O O9 0.723409 0.875906 0.423115
O O10 0.500000 0.368403 0.250000
O O11 0.325114 0.434993 0.448697
O O12 0.220119 0.402338 0.317259
O O13 0.265043 0.556658 0.639727
O O14 0.498786 0.662933 0.461767
O O15 0.000000 0.578691 0.750000
O O16 0.500000 0.000000 0.500000
#
# Coordination Sequence:
#
# PCOD9228782 Si02
#       7
#     4   4   4   4   4   4   4
#     4  11  19  40  66  93 132 172 217 271 325 386
#     4  11  22  39  64  96 131 166 217 272 331 389
#     4  10  20  36  65  95 132 171 210 271 331 391
#     4  11  25  45  66  95 134 175 217 270 331 387
#     4  10  20  41  66  91 129 173 216 269 328 387
#     4  11  24  46  69  92 132 180 220 270 324 392
#     4  10  19  35  64  96 124 171 213 263 333 391
#
# _framework density 26.165858
#
# number of rings (size 3 to 8) (size 9 to 14) (size 15 to 20)
#    0.000    1.429    5.714    1.286    0.000    1.714 
#    2.571    0.000    0.000    0.000    0.000    0.000 
#    0.000    0.000    0.000    0.000    0.000    0.000 
#
# Total GULP energy -156271.439732 kJ/mol
# GULP energy per Si atom -5581.122848 kJ/mol
# Density = 2.610630 g / cm^3
# Si number density = 26.165858 Si / 1000 Ang^3
#
#
#
# Elastic Constant Matrix: (Units=GPa)
#
#
# Indices 1 2 3 4 5 6 
#
# 1 133.5145 7.6346 19.5932 0.0000 -4.1507 0.0000
# 2 7.6346 59.9061 15.1033 0.0000 -1.5061 0.0000
# 3 19.5932 15.1033 164.1739 0.0000 1.1380 0.0000
# 4 0.0000 0.0000 0.0000 23.6748 0.0000 1.3590
# 5 -4.1507 -1.5061 1.1380 0.0000 61.6242 0.0000
# 6 0.0000 0.0000 0.0000 1.3590 0.0000 17.4651
#
#
#
# Elastic Compliance Matrix: (Units=1/GPa)
#
#
# Indices 1 2 3 4 5 6 
#
# 1 0.007674 -0.000751 -0.000850 0.000000 0.000514 0.000000
# 2 -0.000751 0.017175 -0.001493 0.000000 0.000397 0.000000
# 3 -0.000850 -0.001493 0.006331 0.000000 -0.000211 0.000000
# 4 0.000000 0.000000 0.000000 0.042428 0.000000 -0.003301
# 5 0.000514 0.000397 -0.000211 0.000000 0.016276 0.000000
# 6 0.000000 0.000000 0.000000 -0.003301 0.000000 0.057514
#
#
# Mechanical properties :
#
#
# Convention : Reuss Voigt Hill
#
# Bulk Modulus (GPa) = 40.01346 49.13962 44.57654
# Shear Modulus (GPa) = 30.88009 41.57039 36.22524
#
# Velocity S-wave (km/s) = 3.43908 3.99021 3.72485
# Velocity P-wave (km/s) = 5.57630 6.32849 5.96427
#
# Compressibility (1/GPa) = 0.02499159
#
# Stress axis : x y z
#
# Youngs Moduli (GPa) = 130.31839 58.22452 157.94275
#
# Poissons Ratio (x) = 0.04370 0.13430
# Poissons Ratio (y) = 0.09782 0.23584
# Poissons Ratio (z) = 0.11081 0.08694
#
# Static dielectric constant tensor:
#      x y z
#    x 2.198780 0.000000 0.045200 
#    y 0.000000 2.067050 0.000000 
#    z 0.045200 0.000000 2.180520 
# 
# From -- ./inp_files/50237.got.cif
#   From: 2010.05.17/outbox.cif.g08.bks.cpg/sg13_26_cif.got.tgz:50237.got - 2010.06.03 16:44:36.
