data_PCOD9228263
_publ_section_title
;
Structure prediction by ZEFSAII (Michael W. Deem and Ramdas Pophale) SiO2 
 PCOD9228263
Probable space group: P 2/C
;
_chemical_formula_sum "Si O2"
_cell_formula_units_Z 20
_cell_length_a 19.783481
_cell_length_b 8.604670
_cell_length_c 5.422919
_cell_angle_alpha 90.000000
_cell_angle_beta 82.123068
_cell_angle_gamma 90.000000
_cell_volume 914.435132
_symmetry_space_group_name_H-M "P 2/C"
_symmetry_group_IT_number 13
_symmetry_cell_setting 'monoclinic'
loop_
_space_group_symop_operation_xyz
x,y,z
-x,y,1/2-z
-x,-y,-z
x,-y,1/2+z
loop_
_atom_site_type_symbol
_atom_site_label
_atom_site_fract_x
_atom_site_fract_y
_atom_site_fract_z
Si Si1 0.750182 0.052196 0.874912
Si Si2 0.422091 0.561393 0.538949
Si Si3 0.926965 0.602752 0.286505
Si Si4 0.773194 0.396301 0.863390
Si Si5 0.401334 0.922248 0.549323
O O1 0.731035 0.235154 0.884476
O O2 0.786730 0.999995 0.606643
O O3 0.680489 0.949392 0.909765
O O4 0.500000 0.500000 0.500000
O O5 0.389056 0.499999 0.305465
O O6 0.420757 0.744374 0.539614
O O7 0.927720 0.499996 0.536124
O O8 0.851137 0.672481 0.324421
O O9 0.000000 0.691148 0.250000
O O10 0.765459 0.499998 0.617255
O O11 0.426120 0.999999 0.286930
#
# Coordination Sequence:
#
# PCOD9228263 Si02
#       5
#     4   4   4   4   4
#     4  10  21  38  55  78 111 149 180 219 276 330
#     4  10  21  40  62  88 113 141 182 226 262 312
#     4   8  14  25  44  72 103 133 172 224 273 312
#     4  10  19  33  55  81 106 140 187 231 267 316
#     4  10  21  40  60  83 113 147 179 216 276 330
#
# _framework density 21.871424000000001
#
# number of rings (size 3 to 8) (size 9 to 14) (size 15 to 20)
#    0.000    2.400    0.000    2.400    0.000    0.000 
#    0.000   36.000    0.000    1.200    0.000    0.000 
#    0.000    0.000    0.000    0.000    0.000    0.000 
#
# Total GULP energy -111543.560620 kJ/mol
# GULP energy per Si atom -5577.178031 kJ/mol
# Density = 2.182164 g / cm^3
# Si number density = 21.871424 Si / 1000 Ang^3
#
#
#
# Elastic Constant Matrix: (Units=GPa)
#
#
# Indices 1 2 3 4 5 6 
#
# 1 93.4244 7.6325 -10.6508 0.0000 -12.4153 0.0000
# 2 7.6325 185.0479 82.8102 0.0000 10.7695 0.0000
# 3 -10.6508 82.8102 252.7839 0.0000 35.2437 0.0000
# 4 0.0000 0.0000 0.0000 38.9142 0.0000 4.4058
# 5 -12.4153 10.7695 35.2437 0.0000 15.5616 0.0000
# 6 0.0000 0.0000 0.0000 4.4058 0.0000 8.1693
#
#
#
# Elastic Compliance Matrix: (Units=1/GPa)
#
#
# Indices 1 2 3 4 5 6 
#
# 1 0.012333 -0.000807 -0.000973 0.000000 0.012602 0.000000
# 2 -0.000807 0.006387 -0.002076 0.000000 -0.000363 0.000000
# 3 -0.000973 -0.002076 0.006581 0.000000 -0.014244 0.000000
# 4 0.000000 0.000000 0.000000 0.027369 0.000000 -0.014760
# 5 0.012602 -0.000363 -0.014244 0.000000 0.106826 0.000000
# 6 0.000000 0.000000 0.000000 -0.014760 0.000000 0.130369
#
#
# Mechanical properties :
#
#
# Convention : Reuss Voigt Hill
#
# Bulk Modulus (GPa) = 56.84877 76.75999 66.80438
# Shear Modulus (GPa) = 16.47769 42.62664 29.55217
#
# Velocity S-wave (km/s) = 2.74777 4.41950 3.67982
# Velocity P-wave (km/s) = 6.00963 7.82399 6.97605
#
# Compressibility (1/GPa) = 0.01759053
#
# Stress axis : x y z
#
# Youngs Moduli (GPa) = 81.08003 156.55933 151.95354
#
# Poissons Ratio (x) = 0.12629 0.14786
# Poissons Ratio (y) = 0.06540 0.31544
# Poissons Ratio (z) = 0.07890 0.32500
#
# Static dielectric constant tensor:
#      x y z
#    x 1.990290 0.000000 -0.007630 
#    y 0.000000 1.733700 0.000000 
#    z -0.007630 0.000000 1.937010 
# 
# From -- ./inp_files/7626.got.cif
#   From: 2010.05.17/outbox.cif.g08.bks.cpg/sg13_4_cif.got.tgz:7626.got - 2010.06.03 16:44:36.
