data_PCOD9228547
_publ_section_title
;
Structure prediction by ZEFSAII (Michael W. Deem and Ramdas Pophale) SiO2 
 PCOD9228547
Probable space group: P 2/C
;
_chemical_formula_sum "Si O2"
_cell_formula_units_Z 16
_cell_length_a 7.582752
_cell_length_b 5.441860
_cell_length_c 15.319527
_cell_angle_alpha 90.000000
_cell_angle_beta 102.111781
_cell_angle_gamma 90.000000
_cell_volume 618.077604
_symmetry_space_group_name_H-M "P 2/C"
_symmetry_group_IT_number 13
_symmetry_cell_setting 'monoclinic'
loop_
_space_group_symop_operation_xyz
x,y,z
-x,y,1/2-z
-x,-y,-z
x,-y,1/2+z
loop_
_atom_site_type_symbol
_atom_site_label
_atom_site_fract_x
_atom_site_fract_y
_atom_site_fract_z
Si Si1 0.737333 0.667576 0.802510
Si Si2 0.980565 0.378644 0.590132
Si Si3 0.796790 0.167092 0.766881
Si Si4 0.394760 0.749228 0.512340
O O1 0.687272 0.417612 0.745840
O O2 0.951226 0.603273 0.840886
O O3 0.708305 0.908699 0.742671
O O4 0.655488 0.714356 0.889937
O O5 0.785499 0.258339 0.567724
O O6 0.000000 0.500000 0.500000
O O7 0.142044 0.185055 0.624040
O O8 0.000000 0.177684 0.750000
O O9 0.500000 0.500000 0.500000
O O10 0.500000 0.000000 0.500000
#
# Coordination Sequence:
#
# PCOD9228547 Si02
#       4
#     4   4   4   4
#     4   9  20  35  56  78 114 138 189 229 276 325
#     4   8  20  35  57  80 113 140 188 236 277 321
#     4  10  19  34  60  83 107 143 191 235 280 326
#     4  11  22  33  55  83 115 146 181 227 285 335
#
# _framework density 25.886716
#
# number of rings (size 3 to 8) (size 9 to 14) (size 15 to 20)
#    1.500    1.000    0.000    2.250    3.500    2.000 
#    0.000    0.000    0.000    9.000    0.000    0.000 
#    0.000    0.000    0.000    0.000    0.000    0.000 
#
# Total GULP energy -89082.080462 kJ/mol
# GULP energy per Si atom -5567.630029 kJ/mol
# Density = 2.582780 g / cm^3
# Si number density = 25.886716 Si / 1000 Ang^3
#
#
#
# Elastic Constant Matrix: (Units=GPa)
#
#
# Indices 1 2 3 4 5 6 
#
# 1 108.2114 66.8817 14.1674 0.0000 1.5186 0.0000
# 2 66.8817 263.8288 28.3921 0.0000 -34.9443 0.0000
# 3 14.1674 28.3921 62.7700 0.0000 -26.4408 0.0000
# 4 0.0000 0.0000 0.0000 25.0912 0.0000 -16.6429
# 5 1.5186 -34.9443 -26.4408 0.0000 56.2463 0.0000
# 6 0.0000 0.0000 0.0000 -16.6429 0.0000 30.6511
#
#
#
# Elastic Compliance Matrix: (Units=1/GPa)
#
#
# Indices 1 2 3 4 5 6 
#
# 1 0.011561 -0.003106 -0.002679 0.000000 -0.003501 0.000000
# 2 -0.003106 0.005014 -0.000273 0.000000 0.003070 0.000000
# 3 -0.002679 -0.000273 0.020722 0.000000 0.009644 0.000000
# 4 0.000000 0.000000 0.000000 0.062288 0.000000 0.033821
# 5 -0.003501 0.003070 0.009644 0.000000 0.024314 0.000000
# 6 0.000000 0.000000 0.000000 0.033821 0.000000 0.050989
#
#
# Mechanical properties :
#
#
# Convention : Reuss Voigt Hill
#
# Bulk Modulus (GPa) = 39.71616 72.63251 56.17434
# Shear Modulus (GPa) = 25.58865 44.08896 34.83881
#
# Velocity S-wave (km/s) = 3.14743 4.13140 3.67252
# Velocity P-wave (km/s) = 5.34640 7.13279 6.30320
#
# Compressibility (1/GPa) = 0.02517867
#
# Stress axis : x y z
#
# Youngs Moduli (GPa) = 86.49841 199.44730 48.25843
#
# Poissons Ratio (x) = 0.61952 0.12930
# Poissons Ratio (y) = 0.26868 0.01320
# Poissons Ratio (z) = 0.23175 0.05455
#
# Static dielectric constant tensor:
#      x y z
#    x 2.083900 0.000000 -0.031730 
#    y 0.000000 2.149680 0.000000 
#    z -0.031730 0.000000 2.311760 
# 
# From -- ./inp_files/74057.got.cif
#   From: 2010.05.17/outbox.cif.g08.bks.cpg/sg13_38_cif.got.tgz:74057.got - 2010.06.03 16:44:36.
