data_PCOD9228930
_publ_section_title
;
Structure prediction by ZEFSAII (Michael W. Deem and Ramdas Pophale) SiO2 
 PCOD9228930
Probable space group: P 2/C
;
_chemical_formula_sum "Si O2"
_cell_formula_units_Z 26
_cell_length_a 9.032322
_cell_length_b 14.263149
_cell_length_c 11.214545
_cell_angle_alpha 90.000000
_cell_angle_beta 80.547780
_cell_angle_gamma 90.000000
_cell_volume 1425.146900
_symmetry_space_group_name_H-M "P 2/C"
_symmetry_group_IT_number 13
_symmetry_cell_setting 'monoclinic'
loop_
_space_group_symop_operation_xyz
x,y,z
-x,y,1/2-z
-x,-y,-z
x,-y,1/2+z
loop_
_atom_site_type_symbol
_atom_site_label
_atom_site_fract_x
_atom_site_fract_y
_atom_site_fract_z
Si Si1 0.377515 0.929973 0.869113
Si Si2 0.766823 0.403751 0.744097
Si Si3 0.841280 0.611347 0.706387
Si Si4 0.818764 0.808764 0.781288
Si Si5 0.970549 0.396808 0.950056
Si Si6 0.500000 0.732896 0.250000
Si Si7 0.618691 0.131431 0.526517
O O1 0.500000 0.946574 0.750000
O O2 0.252029 0.868095 0.818969
O O3 0.333223 0.032157 0.922391
O O4 0.467508 0.881591 0.966128
O O5 0.747608 0.514919 0.717111
O O6 0.861845 0.401487 0.852460
O O7 0.625709 0.338507 0.780834
O O8 0.870672 0.363705 0.622761
O O9 0.769361 0.699600 0.780060
O O10 0.888995 0.651253 0.570790
O O11 0.000000 0.588456 0.750000
O O12 0.000000 0.812461 0.750000
O O13 0.748738 0.842284 0.915484
O O14 0.000000 0.500000 0.000000
O O15 0.424929 0.796774 0.362643
#
# Coordination Sequence:
#
# PCOD9228930 Si02
#       7
#     4   4   4   4   4   2   4
#     4   9  19  43  68  85 115 161 199 243 313 371
#     4  10  21  37  56  87 121 165 199 247 289 346
#     4  10  19  36  61  84 119 162 199 237 296 353
#     4  10  23  37  66  96 115 150 208 253 295 355
#     4   9  17  37  62  76 113 167 210 232 292 349
#     4  12  26  36  58  94 128 156 204 248 302 348
#     4  10  22  42  63  85 121 163 197 243 309 374
#
# _framework density 18.243734
#
# number of rings (size 3 to 8) (size 9 to 14) (size 15 to 20)
#    0.000    2.154    3.846    0.000    6.462    0.615 
#    4.154    3.846    3.385    0.000    0.000    0.000 
#    0.000    0.000    0.000    0.000    0.000    0.000 
#
# Total GULP energy -144760.579081 kJ/mol
# GULP energy per Si atom -5567.714580 kJ/mol
# Density = 1.820221 g / cm^3
# Si number density = 18.243734 Si / 1000 Ang^3
#
#
#
# Elastic Constant Matrix: (Units=GPa)
#
#
# Indices 1 2 3 4 5 6 
#
# 1 60.4624 42.3402 25.7760 0.0000 -6.1865 0.0000
# 2 42.3402 112.0315 39.3471 0.0000 -5.1027 0.0000
# 3 25.7760 39.3471 83.0670 0.0000 3.9686 0.0000
# 4 0.0000 0.0000 0.0000 26.1580 0.0000 -3.8303
# 5 -6.1865 -5.1027 3.9686 0.0000 17.0262 0.0000
# 6 0.0000 0.0000 0.0000 -3.8303 0.0000 17.9216
#
#
#
# Elastic Compliance Matrix: (Units=1/GPa)
#
#
# Indices 1 2 3 4 5 6 
#
# 1 0.024326 -0.007272 -0.004472 0.000000 0.007702 0.000000
# 2 -0.007272 0.013224 -0.004116 0.000000 0.002280 0.000000
# 3 -0.004472 -0.004116 0.015687 0.000000 -0.006515 0.000000
# 4 0.000000 0.000000 0.000000 0.039464 0.000000 0.008435
# 5 0.007702 0.002280 -0.006515 0.000000 0.063733 0.000000
# 6 0.000000 0.000000 0.000000 0.008435 0.000000 0.057601
#
#
# Mechanical properties :
#
#
# Convention : Reuss Voigt Hill
#
# Bulk Modulus (GPa) = 46.47540 52.27638 49.37589
# Shear Modulus (GPa) = 19.76837 22.09434 20.93136
#
# Velocity S-wave (km/s) = 3.29533 3.48381 3.39088
# Velocity P-wave (km/s) = 6.32527 6.70069 6.51568
#
# Compressibility (1/GPa) = 0.02151676
#
# Stress axis : x y z
#
# Youngs Moduli (GPa) = 41.10788 75.61975 63.74660
#
# Poissons Ratio (x) = 0.54993 0.28506
# Poissons Ratio (y) = 0.29895 0.26240
# Poissons Ratio (z) = 0.18382 0.31127
#
# Static dielectric constant tensor:
#      x y z
#    x 1.627440 0.000000 -0.006920 
#    y 0.000000 1.645300 0.000000 
#    z -0.006920 0.000000 1.688300 
# 
# From -- ./inp_files/29886.got.cif
#   From: 2010.05.17/outbox.cif.g08.bks.cpg/sg13_15_cif.got.tgz:29886.got - 2010.06.03 16:44:36.
