data_PCOD9228552
_publ_section_title
;
Structure prediction by ZEFSAII (Michael W. Deem and Ramdas Pophale) SiO2 
 PCOD9228552
Probable space group: P 2/C
;
_chemical_formula_sum "Si O2"
_cell_formula_units_Z 24
_cell_length_a 14.917354
_cell_length_b 7.350067
_cell_length_c 8.541159
_cell_angle_alpha 90.000000
_cell_angle_beta 92.807140
_cell_angle_gamma 90.000000
_cell_volume 935.359265
_symmetry_space_group_name_H-M "P 2/C"
_symmetry_group_IT_number 13
_symmetry_cell_setting 'monoclinic'
loop_
_space_group_symop_operation_xyz
x,y,z
-x,y,1/2-z
-x,-y,-z
x,-y,1/2+z
loop_
_atom_site_type_symbol
_atom_site_label
_atom_site_fract_x
_atom_site_fract_y
_atom_site_fract_z
Si Si1 0.776486 0.887393 0.326915
Si Si2 0.097569 0.594743 0.332455
Si Si3 0.411636 0.765532 0.307674
Si Si4 0.358685 0.416107 0.102267
Si Si5 0.243388 0.682855 0.874960
Si Si6 0.939293 0.142572 0.392658
O O1 0.835143 0.720432 0.262640
O O2 0.680453 0.872638 0.234455
O O3 0.758465 0.851607 0.508830
O O4 0.846248 0.051891 0.327852
O O5 0.145500 0.401491 0.344301
O O6 0.084743 0.688390 0.499614
O O7 0.000000 0.594888 0.250000
O O8 0.500000 0.863148 0.250000
O O9 0.405157 0.578818 0.203187
O O10 0.416717 0.707650 0.490319
O O11 0.301670 0.303349 0.223303
O O12 0.291888 0.522446 0.980084
O O13 0.000000 0.178646 0.250000
O O14 0.000000 0.000000 0.500000
#
# Coordination Sequence:
#
# PCOD9228552 Si02
#       6
#     4   4   4   4   4   4
#     4  11  22  42  61  90 128 158 206 261 304 363
#     4  12  23  43  61  88 125 163 207 254 305 373
#     4  10  19  34  60  92 128 162 202 251 308 364
#     4   9  17  33  57  89 125 166 194 241 304 371
#     4  10  20  38  60  93 128 158 198 252 318 356
#     4  12  24  44  64  88 117 168 219 245 303 377
#
# _framework density 25.658588999999999
#
# number of rings (size 3 to 8) (size 9 to 14) (size 15 to 20)
#    0.000    1.333    8.333    0.500    0.000    2.000 
#    0.000    1.667    0.000    1.000    0.000    1.167 
#    0.000    0.000    0.000    0.000    0.000    0.000 
#
# Total GULP energy -134638.925900 kJ/mol
# GULP energy per Si atom -5609.955246 kJ/mol
# Density = 2.560019 g / cm^3
# Si number density = 25.658589 Si / 1000 Ang^3
#
#
#
# Elastic Constant Matrix: (Units=GPa)
#
#
# Indices 1 2 3 4 5 6 
#
# 1 154.3592 37.9371 48.1233 0.0000 -27.0039 0.0000
# 2 37.9371 88.0423 34.1349 0.0000 -15.0272 0.0000
# 3 48.1233 34.1349 173.9175 0.0000 -47.7144 0.0000
# 4 0.0000 0.0000 0.0000 22.4163 0.0000 -8.7775
# 5 -27.0039 -15.0272 -47.7144 0.0000 48.1070 0.0000
# 6 0.0000 0.0000 0.0000 -8.7775 0.0000 13.9117
#
#
#
# Elastic Compliance Matrix: (Units=1/GPa)
#
#
# Indices 1 2 3 4 5 6 
#
# 1 0.007872 -0.002570 -0.000937 0.000000 0.002687 0.000000
# 2 -0.002570 0.013273 -0.001583 0.000000 0.001133 0.000000
# 3 -0.000937 -0.001583 0.008298 0.000000 0.007210 0.000000
# 4 0.000000 0.000000 0.000000 0.059248 0.000000 0.037382
# 5 0.002687 0.001133 0.007210 0.000000 0.029800 0.000000
# 6 0.000000 0.000000 0.000000 0.037382 0.000000 0.095468
#
#
# Mechanical properties :
#
#
# Convention : Reuss Voigt Hill
#
# Bulk Modulus (GPa) = 51.91296 72.96770 62.44033
# Shear Modulus (GPa) = 21.68638 36.62859 29.15749
#
# Velocity S-wave (km/s) = 2.91037 3.78238 3.37466
# Velocity P-wave (km/s) = 5.61870 6.89745 6.29065
#
# Compressibility (1/GPa) = 0.01926301
#
# Stress axis : x y z
#
# Youngs Moduli (GPa) = 127.02963 75.34168 120.51534
#
# Poissons Ratio (x) = 0.19365 0.11287
# Poissons Ratio (y) = 0.32651 0.19077
# Poissons Ratio (z) = 0.11897 0.11926
#
# Static dielectric constant tensor:
#      x y z
#    x 1.997640 0.000000 0.052290 
#    y 0.000000 2.091940 0.000000 
#    z 0.052290 0.000000 2.044790 
# 
# From -- ./inp_files/18115.got.cif
#   From: 2010.05.17/outbox.cif.g08.bks.cpg/sg13_10_cif.got.tgz:18115.got - 2010.06.03 16:44:36.
