data_PCOD9228224
_publ_section_title
;
Structure prediction by ZEFSAII (Michael W. Deem and Ramdas Pophale) SiO2 
 PCOD9228224
Probable space group: P 2/C
;
_chemical_formula_sum "Si O2"
_cell_formula_units_Z 30
_cell_length_a 24.368472
_cell_length_b 12.912215
_cell_length_c 30.500157
_cell_angle_alpha 90.000000
_cell_angle_beta 9.882625
_cell_angle_gamma 90.000000
_cell_volume 1647.119951
_symmetry_space_group_name_H-M "P 2/C"
_symmetry_group_IT_number 13
_symmetry_cell_setting 'monoclinic'
loop_
_space_group_symop_operation_xyz
x,y,z
-x,y,1/2-z
-x,-y,-z
x,-y,1/2+z
loop_
_atom_site_type_symbol
_atom_site_label
_atom_site_fract_x
_atom_site_fract_y
_atom_site_fract_z
Si Si1 0.664054 0.074456 0.933128
Si Si2 0.985628 0.498066 0.113840
Si Si3 0.810152 0.779704 0.441722
Si Si4 0.567663 0.374685 0.500982
Si Si5 0.534876 0.856598 0.435633
Si Si6 0.797982 0.817016 0.636426
Si Si7 0.500000 0.370639 0.250000
Si Si8 0.090285 0.386987 0.947067
O O1 0.611829 0.120067 0.925709
O O2 0.978463 0.124731 0.707332
O O3 0.367083 0.110371 0.197324
O O4 0.669854 0.951103 0.922693
O O5 0.852755 0.451182 0.263767
O O6 0.725584 0.577098 0.297456
O O7 0.310188 0.559481 0.865167
O O8 0.041493 0.402357 0.036910
O O9 0.460403 0.808235 0.699094
O O10 0.757408 0.699462 0.522229
O O11 0.000000 0.736268 0.250000
O O12 0.620192 0.256417 0.446076
O O13 0.442049 0.371334 0.649725
O O14 0.867404 0.853821 0.146892
O O15 0.870853 0.704528 0.600570
O O16 0.000000 0.500000 0.000000
#
# Coordination Sequence:
#
# PCOD9228224 Si02
#       8
#     4   4   4   4   4   4   2   4
#     4  10  20  32  51  79 107 137 175 221 271 317
#     4  10  20  32  52  78 106 137 174 216 261 315
#     4  10  21  34  52  79 110 138 172 224 274 315
#     4   9  18  33  52  73 100 136 175 214 254 309
#     4  10  19  33  54  77 103 138 179 219 264 322
#     4  10  19  34  55  78 106 138 181 226 264 317
#     4  12  22  34  54  80 110 142 172 218 276 324
#     4   9  17  30  50  75 101 133 172 214 260 310
#
# _framework density 18.213609000000002
#
# number of rings (size 3 to 8) (size 9 to 14) (size 15 to 20)
#    0.000    2.133    0.000    5.200    0.000    6.400 
#    0.000    0.000    0.000   15.200    0.000    0.000 
#    0.000    0.000    0.000    0.000    0.000    0.000 
#
# Total GULP energy -167218.191969 kJ/mol
# GULP energy per Si atom -5573.939732 kJ/mol
# Density = 1.817215 g / cm^3
# Si number density = 18.213609 Si / 1000 Ang^3
#
#
#
# Elastic Constant Matrix: (Units=GPa)
#
#
# Indices 1 2 3 4 5 6 
#
# 1 47.7022 11.6655 4.3409 0.0000 6.7759 0.0000
# 2 11.6655 71.4716 5.2991 0.0000 7.9753 0.0000
# 3 4.3409 5.2991 40.6007 0.0000 0.9002 0.0000
# 4 0.0000 0.0000 0.0000 20.1154 0.0000 5.1097
# 5 6.7759 7.9753 0.9002 0.0000 17.0508 0.0000
# 6 0.0000 0.0000 0.0000 5.1097 0.0000 24.8873
#
#
#
# Elastic Compliance Matrix: (Units=1/GPa)
#
#
# Indices 1 2 3 4 5 6 
#
# 1 0.022904 -0.002734 -0.001921 0.000000 -0.007721 0.000000
# 2 -0.002734 0.015217 -0.001562 0.000000 -0.005949 0.000000
# 3 -0.001921 -0.001562 0.025036 0.000000 0.000172 0.000000
# 4 0.000000 0.000000 0.000000 0.052449 0.000000 -0.010768
# 5 -0.007721 -0.005949 0.000172 0.000000 0.064490 0.000000
# 6 0.000000 0.000000 0.000000 -0.010768 0.000000 0.042392
#
#
# Mechanical properties :
#
#
# Convention : Reuss Voigt Hill
#
# Bulk Modulus (GPa) = 19.71501 22.48729 21.10115
# Shear Modulus (GPa) = 19.85476 21.64196 20.74836
#
# Velocity S-wave (km/s) = 3.30526 3.45081 3.37882
# Velocity P-wave (km/s) = 5.04124 5.31514 5.18000
#
# Compressibility (1/GPa) = 0.05072277
#
# Stress axis : x y z
#
# Youngs Moduli (GPa) = 43.66114 65.71403 39.94323
#
# Poissons Ratio (x) = 0.17968 0.07672
# Poissons Ratio (y) = 0.11938 0.06239
# Poissons Ratio (z) = 0.08386 0.10264
#
# Static dielectric constant tensor:
#      x y z
#    x 1.656450 0.000000 0.033040 
#    y 0.000000 1.620850 0.000000 
#    z 0.033040 0.000000 1.638100 
# 
# From -- ./inp_files/97744.got.cif
#   From: 2010.05.17/outbox.cif.g08.bks.cpg/sg13_49_cif.got.tgz:97744.got - 2010.06.03 16:44:36.
