data_PCOD9228976
_publ_section_title
;
Structure prediction by ZEFSAII (Michael W. Deem and Ramdas Pophale) SiO2 
 PCOD9228976
Probable space group: P 2/C
;
_chemical_formula_sum "Si O2"
_cell_formula_units_Z 24
_cell_length_a 15.855986
_cell_length_b 10.267623
_cell_length_c 21.239804
_cell_angle_alpha 90.000000
_cell_angle_beta 22.029151
_cell_angle_gamma 90.000000
_cell_volume 1296.986891
_symmetry_space_group_name_H-M "P 2/C"
_symmetry_group_IT_number 13
_symmetry_cell_setting 'monoclinic'
loop_
_space_group_symop_operation_xyz
x,y,z
-x,y,1/2-z
-x,-y,-z
x,-y,1/2+z
loop_
_atom_site_type_symbol
_atom_site_label
_atom_site_fract_x
_atom_site_fract_y
_atom_site_fract_z
Si Si1 0.732297 0.345405 0.438445
Si Si2 0.738221 0.134800 0.049932
Si Si3 0.545753 0.791094 0.947474
Si Si4 0.747265 0.639133 0.451166
Si Si5 0.211282 0.040540 0.766829
Si Si6 0.533299 0.893204 0.152151
O O1 0.642165 0.311608 0.431101
O O2 0.671545 0.489305 0.504918
O O3 0.635828 0.235221 0.550907
O O4 0.000000 0.335420 0.250000
O O5 0.500000 0.137572 0.250000
O O6 0.699212 0.017073 0.027014
O O7 0.765554 0.276470 0.001604
O O8 0.956231 0.088516 0.937082
O O9 0.734147 0.891318 0.790592
O O10 0.420368 0.717745 0.978164
O O11 0.361380 0.875484 0.113650
O O12 0.000000 0.638486 0.250000
O O13 0.310525 0.070741 0.767120
O O14 0.500000 0.875451 0.250000
#
# Coordination Sequence:
#
# PCOD9228976 Si02
#       6
#     4   4   4   4   4   4
#     4  10  22  37  59  88 118 152 193 243 291 349
#     4  11  23  38  59  87 120 154 196 244 293 347
#     4  10  19  36  63  90 116 150 195 246 293 348
#     4  11  21  38  61  87 119 154 195 241 292 351
#     4  10  20  36  62  91 116 152 198 243 295 345
#     4  10  22  39  59  83 118 157 193 243 288 350
#
# _framework density 18.504427
#
# number of rings (size 3 to 8) (size 9 to 14) (size 15 to 20)
#    0.000    1.667    3.333    1.500    0.000    4.000 
#    3.000    0.000    0.000    3.000    0.000    0.000 
#    0.000    0.000    0.000    0.000    0.000    0.000 
#
# Total GULP energy -133871.885814 kJ/mol
# GULP energy per Si atom -5577.995242 kJ/mol
# Density = 1.846231 g / cm^3
# Si number density = 18.504427 Si / 1000 Ang^3
#
#
#
# Elastic Constant Matrix: (Units=GPa)
#
#
# Indices 1 2 3 4 5 6 
#
# 1 95.8898 48.9690 39.7072 0.0000 -17.1167 0.0000
# 2 48.9690 149.7457 39.1743 0.0000 -4.8242 0.0000
# 3 39.7072 39.1743 80.6084 0.0000 -14.8669 0.0000
# 4 0.0000 0.0000 0.0000 4.6729 0.0000 -9.5683
# 5 -17.1167 -4.8242 -14.8669 0.0000 34.4005 0.0000
# 6 0.0000 0.0000 0.0000 -9.5683 0.0000 40.8341
#
#
#
# Elastic Compliance Matrix: (Units=1/GPa)
#
#
# Indices 1 2 3 4 5 6 
#
# 1 0.015103 -0.003519 -0.004818 0.000000 0.004939 0.000000
# 2 -0.003519 0.008481 -0.002708 0.000000 -0.001732 0.000000
# 3 -0.004818 -0.002708 0.016932 0.000000 0.004541 0.000000
# 4 0.000000 0.000000 0.000000 0.411371 0.000000 0.096393
# 5 0.004939 -0.001732 0.004541 0.000000 0.033246 0.000000
# 6 0.000000 0.000000 0.000000 0.096393 0.000000 0.047076
#
#
# Mechanical properties :
#
#
# Convention : Reuss Voigt Hill
#
# Bulk Modulus (GPa) = 54.27089 64.66054 59.46572
# Shear Modulus (GPa) = 8.92152 29.20773 19.06463
#
# Velocity S-wave (km/s) = 2.19813 3.97724 3.21327
# Velocity P-wave (km/s) = 5.98620 7.49069 6.78030
#
# Compressibility (1/GPa) = 0.01842608
#
# Stress axis : x y z
#
# Youngs Moduli (GPa) = 66.21371 117.90555 59.05821
#
# Poissons Ratio (x) = 0.41493 0.28456
# Poissons Ratio (y) = 0.23302 0.15991
# Poissons Ratio (z) = 0.31904 0.31925
#
# Static dielectric constant tensor:
#      x y z
#    x 1.669030 0.000000 0.013650 
#    y 0.000000 1.660800 0.000000 
#    z 0.013650 0.000000 1.641660 
# 
# From -- ./inp_files/80134.got.cif
#   From: 2010.05.17/outbox.cif.g08.bks.cpg/sg13_41_cif.got.tgz:80134.got - 2010.06.03 16:44:36.
