data_PCOD9228101
_publ_section_title
;
Structure prediction by ZEFSAII (Michael W. Deem and Ramdas Pophale) SiO2 
 PCOD9228101
Probable space group: P 2/C
;
_chemical_formula_sum "Si O2"
_cell_formula_units_Z 24
_cell_length_a 9.023553
_cell_length_b 7.860715
_cell_length_c 16.404198
_cell_angle_alpha 90.000000
_cell_angle_beta 127.009597
_cell_angle_gamma 90.000000
_cell_volume 929.155533
_symmetry_space_group_name_H-M "P 2/C"
_symmetry_group_IT_number 13
_symmetry_cell_setting 'monoclinic'
loop_
_space_group_symop_operation_xyz
x,y,z
-x,y,1/2-z
-x,-y,-z
x,-y,1/2+z
loop_
_atom_site_type_symbol
_atom_site_label
_atom_site_fract_x
_atom_site_fract_y
_atom_site_fract_z
Si Si1 0.084594 0.695695 0.168908
Si Si2 0.372799 0.182134 0.635295
Si Si3 0.294481 0.282226 0.393635
Si Si4 0.903211 0.292458 0.335487
Si Si5 0.833898 0.122156 0.477534
Si Si6 0.640085 0.317389 0.602297
O O1 0.202153 0.736368 0.126775
O O2 0.078867 0.493938 0.171185
O O3 0.192718 0.757960 0.285471
O O4 0.889429 0.781212 0.078871
O O5 0.500000 0.117629 0.750000
O O6 0.479930 0.324350 0.620521
O O7 0.328099 0.014051 0.570172
O O8 0.230261 0.229606 0.281601
O O9 0.503469 0.234671 0.489239
O O10 0.304641 0.489535 0.400496
O O11 0.115743 0.228965 0.390033
O O12 0.820179 0.249470 0.396162
O O13 0.000000 0.000000 0.500000
#
# Coordination Sequence:
#
# PCOD9228101 Si02
#       6
#     4   4   4   4   4   4
#     4   9  18  32  55  80 106 141 185 234 274 322
#     4   9  18  34  55  79 111 144 179 229 283 331
#     4   9  18  32  55  80 111 143 180 230 269 332
#     4  10  19  33  53  82 109 142 188 226 274 325
#     4  10  19  32  53  78 109 146 183 229 278 329
#     4   9  17  33  55  80 106 143 182 223 284 325
#
# _framework density 25.829905
#
# number of rings (size 3 to 8) (size 9 to 14) (size 15 to 20)
#    0.000    2.667    0.000    2.500    0.000    0.000 
#    0.000    9.167    0.000   68.000    0.000    0.000 
#    0.000    0.000    0.000    0.000    0.000    0.000 
#
# Total GULP energy -133908.723315 kJ/mol
# GULP energy per Si atom -5579.530138 kJ/mol
# Density = 2.577111 g / cm^3
# Si number density = 25.829905 Si / 1000 Ang^3
#
#
#
# Elastic Constant Matrix: (Units=GPa)
#
#
# Indices 1 2 3 4 5 6 
#
# 1 70.4406 13.9783 43.0873 0.0000 8.4974 0.0000
# 2 13.9783 54.5190 35.6411 0.0000 -8.0903 0.0000
# 3 43.0873 35.6411 181.9922 0.0000 -0.2190 0.0000
# 4 0.0000 0.0000 0.0000 1.8400 0.0000 -9.1263
# 5 8.4974 -8.0903 -0.2190 0.0000 50.5966 0.0000
# 6 0.0000 0.0000 0.0000 -9.1263 0.0000 32.0427
#
#
#
# Elastic Compliance Matrix: (Units=1/GPa)
#
#
# Indices 1 2 3 4 5 6 
#
# 1 0.017311 -0.002582 -0.003597 0.000000 -0.003336 0.000000
# 2 -0.002582 0.022002 -0.003693 0.000000 0.003936 0.000000
# 3 -0.003597 -0.003693 0.007070 0.000000 0.000044 0.000000
# 4 0.000000 0.000000 0.000000 -1.316887 0.000000 -0.375074
# 5 -0.003336 0.003936 0.000044 0.000000 0.020954 0.000000
# 6 0.000000 0.000000 0.000000 -0.375074 0.000000 -0.075619
#
#
# Mechanical properties :
#
#
# Convention : Reuss Voigt Hill
#
# Bulk Modulus (GPa) = 37.53799 54.70725 46.12262
# Shear Modulus (GPa) = -3.85640 31.17884 13.66122
#
# Velocity S-wave (km/s) = -1.22321 3.47808 2.30226
# Velocity P-wave (km/s) = 3.54532 6.11189 4.99622
#
# Compressibility (1/GPa) = 0.02663968
#
# Stress axis : x y z
#
# Youngs Moduli (GPa) = 57.76574 45.44939 141.45131
#
# Poissons Ratio (x) = 0.11736 0.50878
# Poissons Ratio (y) = 0.14916 0.52236
# Poissons Ratio (z) = 0.20777 0.16784
#
# Static dielectric constant tensor:
#      x y z
#    x 2.180210 0.000000 -0.008140 
#    y 0.000000 1.956540 0.000000 
#    z -0.008140 0.000000 2.213760 
# 
# From -- ./inp_files/66116.got.cif
#   From: 2010.05.17/outbox.cif.g08.bks.cpg/sg13_34_cif.got.tgz:66116.got - 2010.06.03 16:44:36.
