data_PCOD9228014
_publ_section_title
;
Structure prediction by ZEFSAII (Michael W. Deem and Ramdas Pophale) SiO2 
 PCOD9228014
Probable space group: P 2/C
;
_chemical_formula_sum "Si O2"
_cell_formula_units_Z 24
_cell_length_a 10.437244
_cell_length_b 15.967450
_cell_length_c 17.405429
_cell_angle_alpha 90.000000
_cell_angle_beta 29.487252
_cell_angle_gamma 90.000000
_cell_volume 1427.822176
_symmetry_space_group_name_H-M "P 2/C"
_symmetry_group_IT_number 13
_symmetry_cell_setting 'monoclinic'
loop_
_space_group_symop_operation_xyz
x,y,z
-x,y,1/2-z
-x,-y,-z
x,-y,1/2+z
loop_
_atom_site_type_symbol
_atom_site_label
_atom_site_fract_x
_atom_site_fract_y
_atom_site_fract_z
Si Si1 0.266393 0.599308 0.063740
Si Si2 0.049868 0.748491 0.632019
Si Si3 0.736759 0.585860 0.938404
Si Si4 0.485732 0.935768 0.849168
Si Si5 0.509741 0.742072 0.653615
Si Si6 0.048723 0.936795 0.633271
O O1 0.283253 0.507024 0.016038
O O2 0.000000 0.607548 0.250000
O O3 0.498003 0.599993 0.005409
O O4 0.309739 0.674309 0.982004
O O5 0.232580 0.667845 0.524916
O O6 0.139043 0.842049 0.564430
O O7 0.000000 0.752817 0.750000
O O8 0.778791 0.732022 0.730902
O O9 0.000000 0.581592 0.750000
O O10 0.500000 0.945817 0.750000
O O11 0.414497 0.838517 0.902383
O O12 0.771058 0.951353 0.736607
O O13 0.267599 0.997205 0.995793
O O14 0.500000 0.730450 0.750000
O O15 0.000000 0.940644 0.750000
#
# Coordination Sequence:
#
# PCOD9228014 Si02
#       6
#     4   4   4   4   4   4
#     4  10  19  31  55  86 103 130 180 226 253 294
#     4   9  16  33  58  72  98 148 182 196 252 335
#     4   9  16  32  58  75 102 140 181 201 254 323
#     4  10  21  37  55  75 107 145 174 207 267 325
#     4  10  20  35  54  78 108 143 172 210 267 321
#     4  10  20  34  56  81 103 133 180 223 257 299
#
# _framework density 16.808817000000001
#
# number of rings (size 3 to 8) (size 9 to 14) (size 15 to 20)
#    0.000    2.333    3.333    1.000    0.000    0.667 
#    3.000    0.833    0.000    0.000    0.000    0.000 
#    0.000    0.000    0.000    0.000    0.000    0.000 
#
# Total GULP energy -133662.083199 kJ/mol
# GULP energy per Si atom -5569.253467 kJ/mol
# Density = 1.677056 g / cm^3
# Si number density = 16.808817 Si / 1000 Ang^3
#
#
#
# Elastic Constant Matrix: (Units=GPa)
#
#
# Indices 1 2 3 4 5 6 
#
# 1 113.3926 49.9086 34.2122 0.0000 -11.4488 0.0000
# 2 49.9086 186.3248 72.0406 0.0000 -9.4586 0.0000
# 3 34.2122 72.0406 58.7049 0.0000 -15.7686 0.0000
# 4 0.0000 0.0000 0.0000 22.6803 0.0000 5.0793
# 5 -11.4488 -9.4586 -15.7686 0.0000 18.1679 0.0000
# 6 0.0000 0.0000 0.0000 5.0793 0.0000 64.4567
#
#
#
# Elastic Compliance Matrix: (Units=1/GPa)
#
#
# Indices 1 2 3 4 5 6 
#
# 1 0.010859 -0.001138 -0.004241 0.000000 0.002569 0.000000
# 2 -0.001138 0.011121 -0.015154 0.000000 -0.008081 0.000000
# 3 -0.004241 -0.015154 0.045987 0.000000 0.029351 0.000000
# 4 0.000000 0.000000 0.000000 0.044883 0.000000 -0.003537
# 5 0.002569 -0.008081 0.029351 0.000000 0.077929 0.000000
# 6 0.000000 0.000000 0.000000 -0.003537 0.000000 0.015793
#
#
# Mechanical properties :
#
#
# Convention : Reuss Voigt Hill
#
# Bulk Modulus (GPa) = 37.17635 74.52722 55.85178
# Shear Modulus (GPa) = 19.48502 34.54504 27.01503
#
# Velocity S-wave (km/s) = 3.40842 4.53832 4.01333
# Velocity P-wave (km/s) = 6.13636 8.47916 7.40105
#
# Compressibility (1/GPa) = 0.02689882
#
# Stress axis : x y z
#
# Youngs Moduli (GPa) = 92.08905 89.92016 21.74520
#
# Poissons Ratio (x) = 0.10236 0.09223
# Poissons Ratio (y) = 0.10483 0.32953
# Poissons Ratio (z) = 0.39059 1.36268
#
# Static dielectric constant tensor:
#      x y z
#    x 1.552890 0.000000 -0.006900 
#    y 0.000000 1.635210 0.000000 
#    z -0.006900 0.000000 1.525140 
# 
# From -- ./inp_files/19497.got.cif
#   From: 2010.05.17/outbox.cif.g08.bks.cpg/sg13_10_cif.got.tgz:19497.got - 2010.06.03 16:44:36.
