data_PCOD9228399
_publ_section_title
;
Structure prediction by ZEFSAII (Michael W. Deem and Ramdas Pophale) SiO2 
 PCOD9228399
Probable space group: P 2/C
;
_chemical_formula_sum "Si O2"
_cell_formula_units_Z 30
_cell_length_a 5.445109
_cell_length_b 11.000333
_cell_length_c 31.266182
_cell_angle_alpha 90.000000
_cell_angle_beta 63.569958
_cell_angle_gamma 90.000000
_cell_volume 1677.036153
_symmetry_space_group_name_H-M "P 2/C"
_symmetry_group_IT_number 13
_symmetry_cell_setting 'monoclinic'
loop_
_space_group_symop_operation_xyz
x,y,z
-x,y,1/2-z
-x,-y,-z
x,-y,1/2+z
loop_
_atom_site_type_symbol
_atom_site_label
_atom_site_fract_x
_atom_site_fract_y
_atom_site_fract_z
Si Si1 0.782937 0.257745 0.200423
Si Si2 0.264406 0.416666 0.473447
Si Si3 0.740628 0.407039 0.117407
Si Si4 0.579128 0.601559 0.310059
Si Si5 0.233390 0.399711 0.568692
Si Si6 0.007370 0.263510 0.834655
Si Si7 0.170605 0.983252 0.281520
Si Si8 0.000000 0.573200 0.750000
O O1 0.500000 0.266107 0.250000
O O2 0.752114 0.314450 0.155914
O O3 0.002057 0.339741 0.208960
O O4 0.866448 0.117317 0.195814
O O5 0.275975 0.345883 0.427864
O O6 0.263329 0.345889 0.518330
O O7 0.496889 0.518548 0.449709
O O8 0.000000 0.500000 0.500000
O O9 0.506174 0.505335 0.146577
O O10 0.001603 0.496708 0.093585
O O11 0.305364 0.669015 0.315117
O O12 0.809809 0.688977 0.311986
O O13 0.739659 0.514440 0.265109
O O14 0.158529 0.298833 0.609485
O O15 0.066292 0.123612 0.820326
O O16 0.500000 0.966051 0.250000
O O17 0.000000 0.978148 0.250000
#
# Coordination Sequence:
#
# PCOD9228399 Si02
#       8
#     4   4   4   4   4   4   4   2
#     4  11  23  39  57  80 119 160 206 242 282 339
#     4   9  17  32  54  82 120 147 178 230 309 368
#     4  10  19  34  53  86 115 150 190 238 299 351
#     4  11  23  34  57  87 119 145 190 242 303 344
#     4   9  18  33  54  85 117 148 183 238 303 360
#     4  11  23  39  57  86 118 154 199 242 286 356
#     4  11  25  45  59  79 115 169 212 239 278 339
#     4  12  22  36  54  80 120 150 188 248 302 342
#
# _framework density 17.888703
#
# number of rings (size 3 to 8) (size 9 to 14) (size 15 to 20)
#    0.000    1.600    3.333    2.400    2.800    0.000 
#    0.000    0.000    0.000    0.800    0.000    8.400 
#    0.000    0.000    0.000    0.000    0.000    0.000 
#
# Total GULP energy -167102.286938 kJ/mol
# GULP energy per Si atom -5570.076231 kJ/mol
# Density = 1.784799 g / cm^3
# Si number density = 17.888703 Si / 1000 Ang^3
#
#
#
# Elastic Constant Matrix: (Units=GPa)
#
#
# Indices 1 2 3 4 5 6 
#
# 1 83.3693 34.9742 29.9210 0.0000 -5.3127 0.0000
# 2 34.9742 100.5566 70.5954 0.0000 13.8425 0.0000
# 3 29.9210 70.5954 123.3677 0.0000 18.2920 0.0000
# 4 0.0000 0.0000 0.0000 16.8922 0.0000 -0.1105
# 5 -5.3127 13.8425 18.2920 0.0000 36.9544 0.0000
# 6 0.0000 0.0000 0.0000 -0.1105 0.0000 21.1035
#
#
#
# Elastic Compliance Matrix: (Units=1/GPa)
#
#
# Indices 1 2 3 4 5 6 
#
# 1 0.014832 -0.004664 -0.001623 0.000000 0.004683 0.000000
# 2 -0.004664 0.018182 -0.008810 0.000000 -0.003120 0.000000
# 3 -0.001623 -0.008810 0.014123 0.000000 -0.003924 0.000000
# 4 0.000000 0.000000 0.000000 0.059201 0.000000 0.000310
# 5 0.004683 -0.003120 -0.003924 0.000000 0.030844 0.000000
# 6 0.000000 0.000000 0.000000 0.000310 0.000000 0.047387
#
#
# Mechanical properties :
#
#
# Convention : Reuss Voigt Hill
#
# Bulk Modulus (GPa) = 59.02374 64.25275 61.63824
# Shear Modulus (GPa) = 22.68488 26.44354 24.56421
#
# Velocity S-wave (km/s) = 3.56492 3.84894 3.70965
# Velocity P-wave (km/s) = 7.07188 7.46649 7.27186
#
# Compressibility (1/GPa) = 0.01694234
#
# Stress axis : x y z
#
# Youngs Moduli (GPa) = 67.42057 55.00043 70.80771
#
# Poissons Ratio (x) = 0.25653 0.11489
# Poissons Ratio (y) = 0.31446 0.62384
# Poissons Ratio (z) = 0.10940 0.48457
#
# Static dielectric constant tensor:
#      x y z
#    x 1.727030 0.000000 -0.011410 
#    y 0.000000 1.575470 0.000000 
#    z -0.011410 0.000000 1.767510 
# 
# From -- ./inp_files/95197.got.cif
#   From: 2010.05.17/outbox.cif.g08.bks.cpg/sg13_48_cif.got.tgz:95197.got - 2010.06.03 16:44:36.
