data_PCOD9228116
_publ_section_title
;
Structure prediction by ZEFSAII (Michael W. Deem and Ramdas Pophale) SiO2 
 PCOD9228116
Probable space group: P 2/C
;
_chemical_formula_sum "Si O2"
_cell_formula_units_Z 28
_cell_length_a 20.003506
_cell_length_b 8.314286
_cell_length_c 22.205905
_cell_angle_alpha 90.000000
_cell_angle_beta 20.388061
_cell_angle_gamma 90.000000
_cell_volume 1286.615268
_symmetry_space_group_name_H-M "P 2/C"
_symmetry_group_IT_number 13
_symmetry_cell_setting 'monoclinic'
loop_
_space_group_symop_operation_xyz
x,y,z
-x,y,1/2-z
-x,-y,-z
x,-y,1/2+z
loop_
_atom_site_type_symbol
_atom_site_label
_atom_site_fract_x
_atom_site_fract_y
_atom_site_fract_z
Si Si1 0.760072 0.537343 0.136346
Si Si2 0.228030 0.637496 0.119472
Si Si3 0.809760 0.284520 0.987464
Si Si4 0.500000 0.016744 0.250000
Si Si5 0.105689 0.710121 0.782906
Si Si6 0.420229 0.706588 0.379463
Si Si7 0.602223 0.637503 0.874466
Si Si8 0.000000 0.781695 0.750000
O O1 0.551726 0.623418 0.317108
O O2 0.766973 0.444670 0.193709
O O3 0.762999 0.403322 0.081722
O O4 0.917798 0.666525 0.981184
O O5 0.244821 0.645191 0.032661
O O6 0.166407 0.461826 0.199383
O O7 0.038527 0.741461 0.293674
O O8 0.426638 0.697694 0.981125
O O9 0.685084 0.125786 0.100896
O O10 0.465997 0.895895 0.334493
O O11 0.282530 0.751996 0.677134
O O12 0.063240 0.835565 0.764343
O O13 0.500000 0.637439 0.250000
O O14 0.194406 0.692240 0.568202
O O15 0.500000 0.500000 0.000000
#
# Coordination Sequence:
#
# PCOD9228116 Si02
#       8
#     4   4   4   2   4   4   4   2
#     4  11  20  35  56  81 116 150 189 237 284 340
#     4   9  19  30  51  81 113 146 185 227 287 335
#     4  10  20  34  57  82 111 149 187 241 285 330
#     4  10  22  34  50  84 116 142 194 240 280 334
#     4  10  19  32  53  89 116 147 186 235 291 339
#     4  10  23  36  53  85 114 147 190 234 289 332
#     4  10  20  31  48  83 119 147 187 236 287 339
#     4  12  20  36  60  78 116 150 184 236 288 344
#
# _framework density 21.762528
#
# number of rings (size 3 to 8) (size 9 to 14) (size 15 to 20)
#    0.429    1.429    1.429    4.714    3.000    1.143 
#    0.000    0.000    0.000    0.000    0.000   93.000 
#    0.000    0.000    0.000    0.000    0.000    0.000 
#
# Total GULP energy -155879.601703 kJ/mol
# GULP energy per Si atom -5567.128632 kJ/mol
# Density = 2.171300 g / cm^3
# Si number density = 21.762528 Si / 1000 Ang^3
#
#
#
# Elastic Constant Matrix: (Units=GPa)
#
#
# Indices 1 2 3 4 5 6 
#
# 1 102.0451 7.2928 42.1063 0.0000 -4.6407 0.0000
# 2 7.2928 47.4620 6.5742 0.0000 -4.1052 0.0000
# 3 42.1063 6.5742 133.5901 0.0000 0.5152 0.0000
# 4 0.0000 0.0000 0.0000 2.2396 0.0000 -3.7938
# 5 -4.6407 -4.1052 0.5152 0.0000 40.3314 0.0000
# 6 0.0000 0.0000 0.0000 -3.7938 0.0000 1.9044
#
#
#
# Elastic Compliance Matrix: (Units=1/GPa)
#
#
# Indices 1 2 3 4 5 6 
#
# 1 0.011400 -0.001154 -0.003541 0.000000 0.001239 0.000000
# 2 -0.001154 0.021523 -0.000703 0.000000 0.002067 0.000000
# 3 -0.003541 -0.000703 0.008639 0.000000 -0.000589 0.000000
# 4 0.000000 0.000000 0.000000 -0.188033 0.000000 -0.374587
# 5 0.001239 0.002067 -0.000589 0.000000 0.025155 0.000000
# 6 0.000000 0.000000 0.000000 -0.374587 0.000000 -0.221131
#
#
# Mechanical properties :
#
#
# Convention : Reuss Voigt Hill
#
# Bulk Modulus (GPa) = 32.50514 43.89374 38.19944
# Shear Modulus (GPa) = -15.55716 24.03668 4.23976
#
# Velocity S-wave (km/s) = -2.67659 3.32700 1.39729
# Velocity P-wave (km/s) = 2.32735 5.91370 4.49379
#
# Compressibility (1/GPa) = 0.03076436
#
# Stress axis : x y z
#
# Youngs Moduli (GPa) = 87.72294 46.46189 115.75999
#
# Poissons Ratio (x) = 0.05361 0.40991
# Poissons Ratio (y) = 0.10122 0.08143
# Poissons Ratio (z) = 0.31063 0.03268
#
# Static dielectric constant tensor:
#      x y z
#    x 1.891830 0.000000 -0.003850 
#    y 0.000000 1.790630 0.000000 
#    z -0.003850 0.000000 1.850270 
# 
# From -- ./inp_files/88496.got.cif
#   From: 2010.05.17/outbox.cif.g08.bks.cpg/sg13_45_cif.got.tgz:88496.got - 2010.06.03 16:44:36.
