data_PCOD9228205
_publ_section_title
;
Structure prediction by ZEFSAII (Michael W. Deem and Ramdas Pophale) SiO2 
 PCOD9228205
Probable space group: P 2/C
;
_chemical_formula_sum "Si O2"
_cell_formula_units_Z 28
_cell_length_a 20.705006
_cell_length_b 5.166878
_cell_length_c 16.921536
_cell_angle_alpha 90.000000
_cell_angle_beta 134.067174
_cell_angle_gamma 90.000000
_cell_volume 1300.724028
_symmetry_space_group_name_H-M "P 2/C"
_symmetry_group_IT_number 13
_symmetry_cell_setting 'monoclinic'
loop_
_space_group_symop_operation_xyz
x,y,z
-x,y,1/2-z
-x,-y,-z
x,-y,1/2+z
loop_
_atom_site_type_symbol
_atom_site_label
_atom_site_fract_x
_atom_site_fract_y
_atom_site_fract_z
Si Si1 0.591399 0.145610 0.608676
Si Si2 0.190189 0.016665 0.387677
Si Si3 0.897417 0.526410 0.383162
Si Si4 0.476816 0.656650 0.144278
Si Si5 0.214698 0.967018 0.716926
Si Si6 0.095791 0.516903 0.301771
Si Si7 0.372806 0.835974 0.530030
O O1 0.557172 0.330433 0.649275
O O2 0.678648 0.983903 0.711141
O O3 0.630182 0.277273 0.562287
O O4 0.500000 0.000000 0.500000
O O5 0.205921 0.032159 0.305770
O O6 0.112804 0.812061 0.340859
O O7 0.278818 0.870552 0.492729
O O8 0.168125 0.306962 0.393741
O O9 0.843911 0.786556 0.360556
O O10 0.901530 0.517666 0.291052
O O11 0.000000 0.500000 0.500000
O O12 0.835373 0.286884 0.356211
O O13 0.500000 0.761543 0.250000
O O14 0.438559 0.370794 0.123798
O O15 0.405741 0.867988 0.052562
O O16 0.000000 0.426186 0.250000
#
# Coordination Sequence:
#
# PCOD9228205 Si02
#       7
#     4   4   4   4   4   4   4
#     4   9  20  37  61  86 109 145 194 234 272 330
#     4   9  18  33  54  77 102 134 179 224 260 310
#     4  10  20  36  55  77 108 144 179 220 271 322
#     4  11  22  36  54  81 116 146 174 223 284 332
#     4   9  19  34  56  81 106 138 183 228 265 313
#     4  10  19  33  53  78 104 133 172 222 271 316
#     4  10  20  37  58  78 104 148 191 223 264 329
#
# _framework density 21.526471999999998
#
# number of rings (size 3 to 8) (size 9 to 14) (size 15 to 20)
#    0.000    2.286    0.000    2.571    0.000    9.143 
#    0.000    4.286    0.000    0.000    0.000    0.000 
#    0.000    0.000    0.000    0.000    0.000    0.000 
#
# Total GULP energy -155944.840125 kJ/mol
# GULP energy per Si atom -5569.458576 kJ/mol
# Density = 2.147748 g / cm^3
# Si number density = 21.526472 Si / 1000 Ang^3
#
#
#
# Elastic Constant Matrix: (Units=GPa)
#
#
# Indices 1 2 3 4 5 6 
#
# 1 44.9238 9.8482 11.1182 0.0000 22.1080 0.0000
# 2 9.8482 108.9987 10.1941 0.0000 13.7209 0.0000
# 3 11.1182 10.1941 50.3562 0.0000 19.5913 0.0000
# 4 0.0000 0.0000 0.0000 -15.0167 0.0000 -6.6763
# 5 22.1080 13.7209 19.5913 0.0000 32.8467 0.0000
# 6 0.0000 0.0000 0.0000 -6.6763 0.0000 8.5495
#
#
#
# Elastic Compliance Matrix: (Units=1/GPa)
#
#
# Indices 1 2 3 4 5 6 
#
# 1 0.033413 -0.000233 0.001799 0.000000 -0.023465 0.000000
# 2 -0.000233 0.009695 -0.000516 0.000000 -0.003585 0.000000
# 3 0.001799 -0.000516 0.025982 0.000000 -0.016492 0.000000
# 4 0.000000 0.000000 0.000000 -0.049431 0.000000 -0.038601
# 5 -0.023465 -0.003585 -0.016492 0.000000 0.057572 0.000000
# 6 0.000000 0.000000 0.000000 -0.038601 0.000000 0.086823
#
#
# Mechanical properties :
#
#
# Convention : Reuss Voigt Hill
#
# Bulk Modulus (GPa) = 14.04712 29.62218 21.83465
# Shear Modulus (GPa) = 26.92719 16.81711 21.87215
#
# Velocity S-wave (km/s) = 3.54063 2.79808 3.19103
# Velocity P-wave (km/s) = 4.82228 4.92237 4.87258
#
# Compressibility (1/GPa) = 0.07118898
#
# Stress axis : x y z
#
# Youngs Moduli (GPa) = 29.92809 103.14525 38.48782
#
# Poissons Ratio (x) = 0.02407 -0.06924
# Poissons Ratio (y) = 0.00699 0.01988
# Poissons Ratio (z) = -0.05384 0.05327
#
# Static dielectric constant tensor:
#      x y z
#    x 1.831660 0.000000 0.011890 
#    y 0.000000 1.790820 0.000000 
#    z 0.011890 0.000000 1.880050 
# 
# From -- ./inp_files/70332.got.cif
#   From: 2010.05.17/outbox.cif.g08.bks.cpg/sg13_36_cif.got.tgz:70332.got - 2010.06.03 16:44:36.
