data_PCOD9228633
_publ_section_title
;
Structure prediction by ZEFSAII (Michael W. Deem and Ramdas Pophale) SiO2 
 PCOD9228633
Probable space group: P 2/C
;
_chemical_formula_sum "Si O2"
_cell_formula_units_Z 32
_cell_length_a 18.364150
_cell_length_b 19.512003
_cell_length_c 17.548006
_cell_angle_alpha 90.000000
_cell_angle_beta 164.010993
_cell_angle_gamma 90.000000
_cell_volume 1731.999806
_symmetry_space_group_name_H-M "P 2/C"
_symmetry_group_IT_number 13
_symmetry_cell_setting 'monoclinic'
loop_
_space_group_symop_operation_xyz
x,y,z
-x,y,1/2-z
-x,-y,-z
x,-y,1/2+z
loop_
_atom_site_type_symbol
_atom_site_label
_atom_site_fract_x
_atom_site_fract_y
_atom_site_fract_z
Si Si1 0.737718 0.931120 0.936416
Si Si2 0.622602 0.340162 0.174373
Si Si3 0.889247 0.677588 0.439019
Si Si4 0.243269 0.977003 0.193507
Si Si5 0.412783 0.813675 0.824812
Si Si6 0.920688 0.168491 0.933715
Si Si7 0.954332 0.443156 0.114181
Si Si8 0.545762 0.484876 0.455955
O O1 0.500000 0.955424 0.750000
O O2 0.655851 0.858390 0.817220
O O3 0.766341 0.983270 0.895291
O O4 0.000000 0.925409 0.250000
O O5 0.625742 0.267778 0.221079
O O6 0.523497 0.404763 0.122491
O O7 0.909926 0.348362 0.425175
O O8 0.408479 0.333461 0.890483
O O9 0.924629 0.759208 0.481470
O O10 0.957823 0.632676 0.581156
O O11 0.192700 0.895720 0.134018
O O12 0.500000 0.000000 0.500000
O O13 0.000000 0.000000 0.000000
O O14 0.210171 0.839038 0.687405
O O15 0.711903 0.824932 0.153868
O O16 0.000000 0.443300 0.250000
O O17 0.169250 0.490055 0.285856
O O18 0.668159 0.472884 0.806515
O O19 0.500000 0.500000 0.500000
#
# Coordination Sequence:
#
# PCOD9228633 Si02
#       8
#     4   4   4   4   4   4   4   4
#     4  12  24  38  58  87 125 160 192 246 314 367
#     4  10  20  34  61  87 109 145 205 254 282 336
#     4  10  19  35  57  87 114 147 195 248 294 353
#     4  12  21  38  63  89 117 156 203 252 292 353
#     4  10  20  37  57  86 115 148 197 246 293 353
#     4  10  19  35  61  87 111 144 203 251 285 337
#     4  12  24  38  57  89 126 161 192 249 317 363
#     4  12  21  38  63  87 118 156 208 251 294 354
#
# _framework density 18.475753999999998
#
# number of rings (size 3 to 8) (size 9 to 14) (size 15 to 20)
#    0.000    1.000    5.000    3.000    0.000    0.000 
#    0.000    2.500    0.000    1.500    0.000    0.000 
#    0.000    0.000    0.000    0.000    0.000    0.000 
#
# Total GULP energy -178697.669948 kJ/mol
# GULP energy per Si atom -5584.302186 kJ/mol
# Density = 1.843370 g / cm^3
# Si number density = 18.475754 Si / 1000 Ang^3
#
#
#
# Elastic Constant Matrix: (Units=GPa)
#
#
# Indices 1 2 3 4 5 6 
#
# 1 80.9678 38.4240 10.8238 0.0000 -8.8895 0.0000
# 2 38.4240 127.1564 6.3897 0.0000 -7.6236 0.0000
# 3 10.8238 6.3897 74.2269 0.0000 4.1826 0.0000
# 4 0.0000 0.0000 0.0000 34.6134 0.0000 -11.7111
# 5 -8.8895 -7.6236 4.1826 0.0000 31.0720 0.0000
# 6 0.0000 0.0000 0.0000 -11.7111 0.0000 37.6820
#
#
#
# Elastic Compliance Matrix: (Units=1/GPa)
#
#
# Indices 1 2 3 4 5 6 
#
# 1 0.015013 -0.004223 -0.002025 0.000000 0.003532 0.000000
# 2 -0.004223 0.009218 -0.000239 0.000000 0.001085 0.000000
# 3 -0.002025 -0.000239 0.013930 0.000000 -0.002513 0.000000
# 4 0.000000 0.000000 0.000000 0.032285 0.000000 0.010034
# 5 0.003532 0.001085 -0.002513 0.000000 0.033798 0.000000
# 6 0.000000 0.000000 0.000000 0.010034 0.000000 0.029656
#
#
# Mechanical properties :
#
#
# Convention : Reuss Voigt Hill
#
# Bulk Modulus (GPa) = 39.70311 43.73624 41.71967
# Shear Modulus (GPa) = 32.20214 35.78773 33.99494
#
# Velocity S-wave (km/s) = 4.17938 4.40592 4.29415
# Velocity P-wave (km/s) = 6.69519 7.04319 6.87139
#
# Compressibility (1/GPa) = 0.02518695
#
# Stress axis : x y z
#
# Youngs Moduli (GPa) = 66.60845 108.48853 71.78955
#
# Poissons Ratio (x) = 0.45817 0.14535
# Poissons Ratio (y) = 0.28130 0.01714
# Poissons Ratio (z) = 0.13486 0.02591
#
# Static dielectric constant tensor:
#      x y z
#    x 1.601740 0.000000 0.022440 
#    y 0.000000 1.702390 0.000000 
#    z 0.022440 0.000000 1.623280 
# 
# From -- ./inp_files/54015.got.cif
#   From: 2010.05.17/outbox.cif.g08.bks.cpg/sg13_28_cif.got.tgz:54015.got - 2010.06.03 16:44:36.
