data_PCOD9228135
_publ_section_title
;
Structure prediction by ZEFSAII (Michael W. Deem and Ramdas Pophale) SiO2 
 PCOD9228135
Probable space group: P 2/C
;
_chemical_formula_sum "Si O2"
_cell_formula_units_Z 22
_cell_length_a 27.321239
_cell_length_b 6.975731
_cell_length_c 5.342516
_cell_angle_alpha 90.000000
_cell_angle_beta 73.114373
_cell_angle_gamma 90.000000
_cell_volume 974.308215
_symmetry_space_group_name_H-M "P 2/C"
_symmetry_group_IT_number 13
_symmetry_cell_setting 'monoclinic'
loop_
_space_group_symop_operation_xyz
x,y,z
-x,y,1/2-z
-x,-y,-z
x,-y,1/2+z
loop_
_atom_site_type_symbol
_atom_site_label
_atom_site_fract_x
_atom_site_fract_y
_atom_site_fract_z
Si Si1 0.242351 0.720905 0.239258
Si Si2 0.611622 0.869536 0.107584
Si Si3 0.500000 0.130157 0.750000
Si Si4 0.132909 0.129775 0.785410
Si Si5 0.716834 0.288096 0.321568
Si Si6 0.977390 0.715087 0.033644
O O1 0.184718 0.748275 0.234752
O O2 0.261074 0.501937 0.245446
O O3 0.249314 0.803756 0.507428
O O4 0.277724 0.799618 0.962868
O O5 0.658898 0.726434 0.001507
O O6 0.614928 0.020021 0.869233
O O7 0.555540 0.771008 0.172460
O O8 0.500000 0.000000 0.500000
O O9 0.131629 0.015407 0.524466
O O10 0.083351 0.265617 0.874110
O O11 0.000000 0.802681 0.750000
O O12 0.000000 0.802931 0.250000
O O13 0.000000 0.500000 0.000000
#
# Coordination Sequence:
#
# PCOD9228135 Si02
#       6
#     4   4   2   4   4   4
#     4  10  23  40  58  83 119 157 194 236 292 352
#     4  10  19  32  55  85 116 152 196 244 292 343
#     4   8  16  30  48  78 116 150 188 238 296 348
#     4  12  26  42  64  93 122 151 192 246 293 338
#     4  10  21  37  59  82 115 158 200 239 288 352
#     4  10  23  42  67  93 121 158 194 228 286 355
#
# _framework density 22.580120999999998
#
# number of rings (size 3 to 8) (size 9 to 14) (size 15 to 20)
#    0.000    1.818    0.000    3.273    0.000   12.364 
#    0.000    0.000    0.000    4.364    0.000    0.000 
#    0.000    0.000    0.000    0.000    0.000    0.000 
#
# Total GULP energy -122781.862546 kJ/mol
# GULP energy per Si atom -5580.993752 kJ/mol
# Density = 2.252873 g / cm^3
# Si number density = 22.580121 Si / 1000 Ang^3
#
#
#
# Elastic Constant Matrix: (Units=GPa)
#
#
# Indices 1 2 3 4 5 6 
#
# 1 144.3136 13.6364 25.7914 0.0000 -27.7161 0.0000
# 2 13.6364 99.6244 -3.9342 0.0000 -9.5421 0.0000
# 3 25.7914 -3.9342 145.2654 0.0000 29.0254 0.0000
# 4 0.0000 0.0000 0.0000 4.1289 0.0000 -27.8699
# 5 -27.7161 -9.5421 29.0254 0.0000 71.4498 0.0000
# 6 0.0000 0.0000 0.0000 -27.8699 0.0000 27.1153
#
#
#
# Elastic Compliance Matrix: (Units=1/GPa)
#
#
# Indices 1 2 3 4 5 6 
#
# 1 0.008179 -0.000828 -0.002271 0.000000 0.003984 0.000000
# 2 -0.000828 0.010251 0.000234 0.000000 0.000953 0.000000
# 3 -0.002271 0.000234 0.008122 0.000000 -0.004149 0.000000
# 4 0.000000 0.000000 0.000000 -0.040789 0.000000 -0.041924
# 5 0.003984 0.000953 -0.004149 0.000000 0.017354 0.000000
# 6 0.000000 0.000000 0.000000 -0.041924 0.000000 -0.006211
#
#
# Mechanical properties :
#
#
# Convention : Reuss Voigt Hill
#
# Bulk Modulus (GPa) = 48.02014 51.13228 49.57621
# Shear Modulus (GPa) = 522.11222 44.11946 283.11584
#
# Velocity S-wave (km/s) = 15.22263 4.42510 11.20959
# Velocity P-wave (km/s) = 18.17372 6.98589 13.76747
#
# Compressibility (1/GPa) = 0.02082460
#
# Stress axis : x y z
#
# Youngs Moduli (GPa) = 122.27058 97.54679 123.11511
#
# Poissons Ratio (x) = 0.08072 0.27955
# Poissons Ratio (y) = 0.10118 -0.02883
# Poissons Ratio (z) = 0.27763 -0.02284
#
# Static dielectric constant tensor:
#      x y z
#    x 1.847840 0.000000 0.027360 
#    y 0.000000 1.395020 0.000000 
#    z 0.027360 0.000000 1.898990 
# 
# From -- ./inp_files/7729.got.cif
#   From: 2010.05.17/outbox.cif.g08.bks.cpg/sg13_4_cif.got.tgz:7729.got - 2010.06.03 16:44:36.
