data_PCOD9228004
_publ_section_title
;
Structure prediction by ZEFSAII (Michael W. Deem and Ramdas Pophale) SiO2 
 PCOD9228004
Probable space group: P 2/C
;
_chemical_formula_sum "Si O2"
_cell_formula_units_Z 32
_cell_length_a 19.989208
_cell_length_b 7.350444
_cell_length_c 10.937066
_cell_angle_alpha 90.000000
_cell_angle_beta 59.780530
_cell_angle_gamma 90.000000
_cell_volume 1388.596024
_symmetry_space_group_name_H-M "P 2/C"
_symmetry_group_IT_number 13
_symmetry_cell_setting 'monoclinic'
loop_
_space_group_symop_operation_xyz
x,y,z
-x,y,1/2-z
-x,-y,-z
x,-y,1/2+z
loop_
_atom_site_type_symbol
_atom_site_label
_atom_site_fract_x
_atom_site_fract_y
_atom_site_fract_z
Si Si1 0.081188 0.847249 0.319691
Si Si2 0.744664 0.778648 0.705560
Si Si3 0.386377 0.383693 0.041279
Si Si4 0.759503 0.213608 0.749719
Si Si5 0.909927 0.841893 0.475678
Si Si6 0.648443 0.148185 0.065878
Si Si7 0.355361 0.763780 0.335049
Si Si8 0.461900 0.235166 0.524084
O O1 0.154700 0.729899 0.293317
O O2 0.096154 0.907245 0.162761
O O3 0.996277 0.757079 0.400809
O O4 0.083535 0.005677 0.422051
O O5 0.702868 0.658373 0.846448
O O6 0.831135 0.733072 0.578815
O O7 0.678394 0.768564 0.663179
O O8 0.753605 0.993673 0.731100
O O9 0.424010 0.562770 0.062982
O O10 0.392881 0.384338 0.888282
O O11 0.447846 0.232893 0.031435
O O12 0.720728 0.300042 0.666410
O O13 0.703789 0.239640 0.914868
O O14 0.666243 0.934751 0.060941
O O15 0.564219 0.165665 0.083901
O O16 0.415040 0.847295 0.181440
#
# Coordination Sequence:
#
# PCOD9228004 Si02
#       8
#     4   4   4   4   4   4   4   4
#     4   9  16  28  47  79 119 159 190 244 297 360
#     4  10  19  31  53  80 111 150 189 239 290 347
#     4  11  23  41  58  80 115 154 195 249 299 362
#     4   9  17  32  52  80 114 149 187 237 293 340
#     4   9  17  27  48  78 118 158 197 236 303 355
#     4  10  19  37  55  82 110 145 194 239 292 346
#     4  10  21  39  59  81 112 148 193 251 296 355
#     4  10  25  41  58  81 113 153 200 243 306 362
#
# _framework density 23.044858000000001
#
# number of rings (size 3 to 8) (size 9 to 14) (size 15 to 20)
#    0.000    2.250    2.500    0.375    1.750    1.000 
#    4.500    0.000    0.000    0.000    0.000    3.500 
#    7.500    0.000    0.000    0.000    0.000    0.000 
#
# Total GULP energy -178220.809063 kJ/mol
# GULP energy per Si atom -5569.400283 kJ/mol
# Density = 2.299241 g / cm^3
# Si number density = 23.044858 Si / 1000 Ang^3
#
#
#
# Elastic Constant Matrix: (Units=GPa)
#
#
# Indices 1 2 3 4 5 6 
#
# 1 162.8320 7.3912 66.8777 0.0000 -12.4329 0.0000
# 2 7.3912 31.6513 10.5034 0.0000 -0.5741 0.0000
# 3 66.8777 10.5034 106.3444 0.0000 -9.6119 0.0000
# 4 0.0000 0.0000 0.0000 16.1978 0.0000 3.2813
# 5 -12.4329 -0.5741 -9.6119 0.0000 46.8861 0.0000
# 6 0.0000 0.0000 0.0000 3.2813 0.0000 19.2155
#
#
#
# Elastic Compliance Matrix: (Units=1/GPa)
#
#
# Indices 1 2 3 4 5 6 
#
# 1 0.008343 -0.000228 -0.005119 0.000000 0.001160 0.000000
# 2 -0.000228 0.032674 -0.003111 0.000000 -0.000298 0.000000
# 3 -0.005119 -0.003111 0.013046 0.000000 0.001279 0.000000
# 4 0.000000 0.000000 0.000000 0.063949 0.000000 -0.010920
# 5 0.001160 -0.000298 0.001279 0.000000 0.021894 0.000000
# 6 0.000000 0.000000 0.000000 -0.010920 0.000000 0.053906
#
#
# Mechanical properties :
#
#
# Convention : Reuss Voigt Hill
#
# Bulk Modulus (GPa) = 26.92034 52.26359 39.59197
# Shear Modulus (GPa) = 22.41041 30.86357 26.63699
#
# Velocity S-wave (km/s) = 3.12183 3.66359 3.40351
# Velocity P-wave (km/s) = 4.97006 6.37371 5.71514
#
# Compressibility (1/GPa) = 0.03714663
#
# Stress axis : x y z
#
# Youngs Moduli (GPa) = 119.86429 30.60498 76.65438
#
# Poissons Ratio (x) = 0.00699 0.39241
# Poissons Ratio (y) = 0.02737 0.23843
# Poissons Ratio (z) = 0.61361 0.09520
#
# Static dielectric constant tensor:
#      x y z
#    x 1.891500 0.000000 -0.008020 
#    y 0.000000 1.968130 0.000000 
#    z -0.008020 0.000000 1.959200 
# 
# From -- ./inp_files/40413.got.cif
#   From: 2010.05.17/outbox.cif.g08.bks.cpg/sg13_21_cif.got.tgz:40413.got - 2010.06.03 16:44:36.
