data_PCOD9228734
_publ_section_title
;
Structure prediction by ZEFSAII (Michael W. Deem and Ramdas Pophale) SiO2 
 PCOD9228734
Probable space group: P 2/C
;
_chemical_formula_sum "Si O2"
_cell_formula_units_Z 24
_cell_length_a 10.805061
_cell_length_b 7.392441
_cell_length_c 19.611242
_cell_angle_alpha 90.000000
_cell_angle_beta 134.933436
_cell_angle_gamma 90.000000
_cell_volume 1108.942816
_symmetry_space_group_name_H-M "P 2/C"
_symmetry_group_IT_number 13
_symmetry_cell_setting 'monoclinic'
loop_
_space_group_symop_operation_xyz
x,y,z
-x,y,1/2-z
-x,-y,-z
x,-y,1/2+z
loop_
_atom_site_type_symbol
_atom_site_label
_atom_site_fract_x
_atom_site_fract_y
_atom_site_fract_z
Si Si1 0.782418 0.856016 0.470772
Si Si2 0.958495 0.787209 0.808318
Si Si3 0.896062 0.257622 0.491617
Si Si4 0.338435 0.285981 0.220965
Si Si5 0.051179 0.351464 0.693806
Si Si6 0.562917 0.321476 0.698965
O O1 0.594591 0.763551 0.405368
O O2 0.885967 0.838500 0.581542
O O3 0.909792 0.761747 0.464569
O O4 0.796380 0.065615 0.455913
O O5 0.777804 0.837113 0.775248
O O6 0.939819 0.569505 0.798251
O O7 0.000000 0.856815 0.750000
O O8 0.788185 0.358234 0.389548
O O9 0.920644 0.318578 0.579121
O O10 0.500000 0.185322 0.250000
O O11 0.422949 0.458550 0.292282
O O12 0.241381 0.272865 0.747844
O O13 0.000000 0.288662 0.750000
O O14 0.500000 0.266995 0.750000
#
# Coordination Sequence:
#
# PCOD9228734 Si02
#       6
#     4   4   4   4   4   4
#     4  10  21  37  61  86 113 153 195 237 281 347
#     4   9  20  38  59  84 116 153 191 232 289 339
#     4  10  21  38  58  86 117 151 191 236 293 337
#     4   9  20  35  58  86 111 147 194 239 275 337
#     4  10  21  38  58  85 119 152 188 238 287 338
#     4  10  19  35  61  86 109 150 196 233 281 337
#
# _framework density 21.642236
#
# number of rings (size 3 to 8) (size 9 to 14) (size 15 to 20)
#    0.000    2.333    1.667    0.000    4.667    3.333 
#    6.000    3.333    0.000    0.000    0.000    0.000 
#    0.000    0.000    0.000    0.000    0.000    0.000 
#
# Total GULP energy -133831.654710 kJ/mol
# GULP energy per Si atom -5576.318946 kJ/mol
# Density = 2.159298 g / cm^3
# Si number density = 21.642236 Si / 1000 Ang^3
#
#
#
# Elastic Constant Matrix: (Units=GPa)
#
#
# Indices 1 2 3 4 5 6 
#
# 1 135.5139 3.3465 58.0736 0.0000 -9.4769 0.0000
# 2 3.3465 69.8049 12.2042 0.0000 9.3329 0.0000
# 3 58.0736 12.2042 68.1412 0.0000 -3.1993 0.0000
# 4 0.0000 0.0000 0.0000 46.2319 0.0000 -9.7586
# 5 -9.4769 9.3329 -3.1993 0.0000 46.1664 0.0000
# 6 0.0000 0.0000 0.0000 -9.7586 0.0000 1.4104
#
#
#
# Elastic Compliance Matrix: (Units=1/GPa)
#
#
# Indices 1 2 3 4 5 6 
#
# 1 0.011827 0.001012 -0.010190 0.000000 0.001517 0.000000
# 2 0.001012 0.015357 -0.003761 0.000000 -0.003157 0.000000
# 3 -0.010190 -0.003761 0.024049 0.000000 0.000335 0.000000
# 4 0.000000 0.000000 0.000000 -0.046974 0.000000 -0.325013
# 5 0.001517 -0.003157 0.000335 0.000000 0.022634 0.000000
# 6 0.000000 0.000000 0.000000 -0.325013 0.000000 -1.539761
#
#
# Mechanical properties :
#
#
# Convention : Reuss Voigt Hill
#
# Bulk Modulus (GPa) = 39.43980 46.74539 43.09260
# Shear Modulus (GPa) = -3.38172 32.08412 14.35120
#
# Velocity S-wave (km/s) = -1.25138 3.85447 2.57789
# Velocity P-wave (km/s) = 4.02184 6.43858 5.36798
#
# Compressibility (1/GPa) = 0.02535510
#
# Stress axis : x y z
#
# Youngs Moduli (GPa) = 84.55106 65.11766 41.58189
#
# Poissons Ratio (x) = -0.06588 0.42371
# Poissons Ratio (y) = -0.08554 0.15638
# Poissons Ratio (z) = 0.86155 0.24490
#
# Static dielectric constant tensor:
#      x y z
#    x 1.831700 0.000000 -0.007560 
#    y 0.000000 1.832890 0.000000 
#    z -0.007560 0.000000 1.818510 
# 
# From -- ./inp_files/78139.got.cif
#   From: 2010.05.17/outbox.cif.g08.bks.cpg/sg13_40_cif.got.tgz:78139.got - 2010.06.03 16:44:36.
