data_PCOD9228913
_publ_section_title
;
Structure prediction by ZEFSAII (Michael W. Deem and Ramdas Pophale) SiO2 
 PCOD9228913
Probable space group: P 2/C
;
_chemical_formula_sum "Si O2"
_cell_formula_units_Z 32
_cell_length_a 24.391723
_cell_length_b 9.250012
_cell_length_c 19.937818
_cell_angle_alpha 90.000000
_cell_angle_beta 20.024738
_cell_angle_gamma 90.000000
_cell_volume 1540.383732
_symmetry_space_group_name_H-M "P 2/C"
_symmetry_group_IT_number 13
_symmetry_cell_setting 'monoclinic'
loop_
_space_group_symop_operation_xyz
x,y,z
-x,y,1/2-z
-x,-y,-z
x,-y,1/2+z
loop_
_atom_site_type_symbol
_atom_site_label
_atom_site_fract_x
_atom_site_fract_y
_atom_site_fract_z
Si Si1 0.039332 0.007373 0.280042
Si Si2 0.418927 0.800239 0.722378
Si Si3 0.381361 0.910960 0.336629
Si Si4 0.215498 0.734337 0.418562
Si Si5 0.853613 0.581832 0.465483
Si Si6 0.248290 0.243126 0.731198
Si Si7 0.947876 0.250187 0.986535
Si Si8 0.317771 0.937822 0.704550
O O1 0.927990 0.148177 0.419499
O O2 0.000000 0.949693 0.250000
O O3 0.014520 0.887571 0.365859
O O4 0.219215 0.061059 0.063795
O O5 0.586593 0.743903 0.499918
O O6 0.312351 0.881351 0.787557
O O7 0.448345 0.931299 0.739165
O O8 0.304634 0.669560 0.874992
O O9 0.500000 0.832468 0.250000
O O10 0.349991 0.819393 0.305796
O O11 0.172030 0.589280 0.506810
O O12 0.265905 0.691955 0.285402
O O13 0.902292 0.628137 0.485051
O O14 0.000000 0.621052 0.250000
O O15 0.090664 0.291273 0.872667
O O16 0.232325 0.073093 0.768122
O O17 0.782111 0.196058 0.212501
O O18 0.500000 0.000000 0.500000
#
# Coordination Sequence:
#
# PCOD9228913 Si02
#       8
#     4   4   4   4   4   4   4   4
#     4  10  19  36  60  86 117 155 203 245 303 353
#     4  10  21  38  62  88 117 160 193 262 308 358
#     4  11  21  38  60  90 115 150 208 254 300 362
#     4  11  23  40  61  84 125 167 193 252 308 374
#     4  11  23  42  62  81 118 166 210 245 307 362
#     4  11  21  37  61  93 127 150 206 247 317 369
#     4  11  20  35  62  93 114 163 202 254 295 360
#     4   9  17  32  55  86 122 151 186 236 299 355
#
# _framework density 20.774045000000001
#
# number of rings (size 3 to 8) (size 9 to 14) (size 15 to 20)
#    0.000    1.500    2.500    5.625    0.000    1.000 
#    0.000    3.125    0.000    0.000    0.000    0.000 
#    0.000    0.000    0.000    0.000    0.000    0.000 
#
# Total GULP energy -178221.603575 kJ/mol
# GULP energy per Si atom -5569.425112 kJ/mol
# Density = 2.072676 g / cm^3
# Si number density = 20.774045 Si / 1000 Ang^3
#
#
#
# Elastic Constant Matrix: (Units=GPa)
#
#
# Indices 1 2 3 4 5 6 
#
# 1 81.8373 3.0458 33.0871 0.0000 -20.0622 0.0000
# 2 3.0458 75.9887 16.6451 0.0000 5.2344 0.0000
# 3 33.0871 16.6451 111.5221 0.0000 -0.9726 0.0000
# 4 0.0000 0.0000 0.0000 18.0646 0.0000 3.0611
# 5 -20.0622 5.2344 -0.9726 0.0000 26.1631 0.0000
# 6 0.0000 0.0000 0.0000 3.0611 0.0000 2.0852
#
#
#
# Elastic Compliance Matrix: (Units=1/GPa)
#
#
# Indices 1 2 3 4 5 6 
#
# 1 0.017542 -0.000527 -0.005009 0.000000 0.013371 0.000000
# 2 -0.000527 0.013828 -0.001936 0.000000 -0.003243 0.000000
# 3 -0.005009 -0.001936 0.010715 0.000000 -0.003056 0.000000
# 4 0.000000 0.000000 0.000000 0.073687 0.000000 -0.108172
# 5 0.013371 -0.003243 -0.003056 0.000000 0.049010 0.000000
# 6 0.000000 0.000000 0.000000 -0.108172 0.000000 0.638367
#
#
# Mechanical properties :
#
#
# Convention : Reuss Voigt Hill
#
# Bulk Modulus (GPa) = 36.84373 41.65599 39.24986
# Shear Modulus (GPa) = 6.04493 23.70059 14.87276
#
# Velocity S-wave (km/s) = 1.70768 3.38135 2.67859
# Velocity P-wave (km/s) = 4.65426 5.94476 5.33865
#
# Compressibility (1/GPa) = 0.02714166
#
# Stress axis : x y z
#
# Youngs Moduli (GPa) = 57.00608 72.31506 93.32458
#
# Poissons Ratio (x) = 0.03810 0.46748
# Poissons Ratio (y) = 0.03004 0.18067
# Poissons Ratio (z) = 0.28556 0.13999
#
# Static dielectric constant tensor:
#      x y z
#    x 1.808110 0.000000 0.025770 
#    y 0.000000 1.723380 0.000000 
#    z 0.025770 0.000000 1.834720 
# 
# From -- ./inp_files/82509.got.cif
#   From: 2010.05.17/outbox.cif.g08.bks.cpg/sg13_42_cif.got.tgz:82509.got - 2010.06.03 16:44:36.
