data_PCOD9228981
_publ_section_title
;
Structure prediction by ZEFSAII (Michael W. Deem and Ramdas Pophale) SiO2 
 PCOD9228981
Probable space group: P 2/C
;
_chemical_formula_sum "Si O2"
_cell_formula_units_Z 20
_cell_length_a 13.524537
_cell_length_b 8.953802
_cell_length_c 10.780721
_cell_angle_alpha 90.000000
_cell_angle_beta 126.802686
_cell_angle_gamma 90.000000
_cell_volume 1045.320125
_symmetry_space_group_name_H-M "P 2/C"
_symmetry_group_IT_number 13
_symmetry_cell_setting 'monoclinic'
loop_
_space_group_symop_operation_xyz
x,y,z
-x,y,1/2-z
-x,-y,-z
x,-y,1/2+z
loop_
_atom_site_type_symbol
_atom_site_label
_atom_site_fract_x
_atom_site_fract_y
_atom_site_fract_z
Si Si1 0.322654 0.757148 0.720552
Si Si2 0.920043 0.671143 0.568068
Si Si3 0.334405 0.744439 0.012819
Si Si4 0.500000 0.003756 0.750000
Si Si5 0.934956 0.309809 0.572685
Si Si6 0.500000 0.494858 0.250000
O O1 0.199244 0.761827 0.546211
O O2 0.402734 0.611766 0.745241
O O3 0.410418 0.897554 0.761389
O O4 0.287007 0.745862 0.837168
O O5 0.781959 0.730762 0.483331
O O6 0.915779 0.489901 0.561325
O O7 0.000000 0.712135 0.750000
O O8 0.982203 0.722337 0.486447
O O9 0.415592 0.889330 0.102920
O O10 0.423542 0.602707 0.101733
O O11 0.000000 0.266159 0.750000
#
# Coordination Sequence:
#
# PCOD9228981 Si02
#       6
#     4   4   4   2   4   2
#     4  11  21  42  62  88 128 163 205 261 304 368
#     4  10  19  36  63  92 123 158 202 258 317 363
#     4  11  21  41  63  91 123 164 208 258 304 372
#     4  10  26  42  58  88 126 172 210 246 308 362
#     4  10  21  36  61  96 124 156 199 260 318 369
#     4  10  22  34  62  98 116 160 208 254 318 364
#
# _framework density 19.132895000000001
#
# number of rings (size 3 to 8) (size 9 to 14) (size 15 to 20)
#    0.000    1.600    4.000    1.200    0.000    0.000 
#   18.000    2.000    0.000    0.000    0.000    0.000 
#    0.000    0.000    0.000    0.000    0.000    0.000 
#
# Total GULP energy -111711.139597 kJ/mol
# GULP energy per Si atom -5585.556980 kJ/mol
# Density = 1.908935 g / cm^3
# Si number density = 19.132895 Si / 1000 Ang^3
#
#
#
# Elastic Constant Matrix: (Units=GPa)
#
#
# Indices 1 2 3 4 5 6 
#
# 1 139.4081 36.9694 63.5249 0.0000 9.6647 0.0000
# 2 36.9694 74.8220 33.2322 0.0000 7.6503 0.0000
# 3 63.5249 33.2322 135.7689 0.0000 8.3101 0.0000
# 4 0.0000 0.0000 0.0000 -0.9379 0.0000 1.0880
# 5 9.6647 7.6503 8.3101 0.0000 36.9273 0.0000
# 6 0.0000 0.0000 0.0000 1.0880 0.0000 7.5087
#
#
#
# Elastic Compliance Matrix: (Units=1/GPa)
#
#
# Indices 1 2 3 4 5 6 
#
# 1 0.009769 -0.003047 -0.003759 0.000000 -0.001080 0.000000
# 2 -0.003047 0.016143 -0.002403 0.000000 -0.002006 0.000000
# 3 -0.003759 -0.002403 0.009756 0.000000 -0.000714 0.000000
# 4 0.000000 0.000000 0.000000 -0.912753 0.000000 0.132259
# 5 -0.001080 -0.002006 -0.000714 0.000000 0.027939 0.000000
# 6 0.000000 0.000000 0.000000 0.132259 0.000000 0.114014
#
#
# Mechanical properties :
#
#
# Convention : Reuss Voigt Hill
#
# Bulk Modulus (GPa) = 57.96946 68.60577 63.28761
# Shear Modulus (GPa) = -7.03270 23.11780 8.04255
#
# Velocity S-wave (km/s) = -1.91929 3.47980 2.05247
# Velocity P-wave (km/s) = 5.04505 7.21669 6.22628
#
# Compressibility (1/GPa) = 0.01725046
#
# Stress axis : x y z
#
# Youngs Moduli (GPa) = 102.36614 61.94689 102.50043
#
# Poissons Ratio (x) = 0.18874 0.38529
# Poissons Ratio (y) = 0.31190 0.24630
# Poissons Ratio (z) = 0.38478 0.14885
#
# Static dielectric constant tensor:
#      x y z
#    x 1.646490 0.000000 -0.002840 
#    y 0.000000 1.645870 0.000000 
#    z -0.002840 0.000000 1.646490 
# 
# From -- ./inp_files/14874.got.cif
#   From: 2010.05.17/outbox.cif.g08.bks.cpg/sg13_8_cif.got.tgz:14874.got - 2010.06.03 16:44:36.
