data_PCOD9228422
_publ_section_title
;
Structure prediction by ZEFSAII (Michael W. Deem and Ramdas Pophale) SiO2 
 PCOD9228422
Probable space group: P 2/C
;
_chemical_formula_sum "Si O2"
_cell_formula_units_Z 24
_cell_length_a 23.498676
_cell_length_b 7.069654
_cell_length_c 18.205688
_cell_angle_alpha 90.000000
_cell_angle_beta 154.741077
_cell_angle_gamma 90.000000
_cell_volume 1290.568475
_symmetry_space_group_name_H-M "P 2/C"
_symmetry_group_IT_number 13
_symmetry_cell_setting 'monoclinic'
loop_
_space_group_symop_operation_xyz
x,y,z
-x,y,1/2-z
-x,-y,-z
x,-y,1/2+z
loop_
_atom_site_type_symbol
_atom_site_label
_atom_site_fract_x
_atom_site_fract_y
_atom_site_fract_z
Si Si1 0.348100 0.280531 0.554731
Si Si2 0.184491 0.014845 0.641255
Si Si3 0.766273 0.311343 0.587252
Si Si4 0.007420 0.283195 0.531034
Si Si5 0.716495 0.033518 0.401230
Si Si6 0.593443 0.948317 0.986715
O O1 0.500000 0.340703 0.750000
O O2 0.258878 0.465406 0.443163
O O3 0.293378 0.144261 0.555071
O O4 0.363198 0.144912 0.501706
O O5 0.195082 0.006858 0.566493
O O6 0.131431 0.815250 0.610818
O O7 0.078342 0.165629 0.548663
O O8 0.326317 0.064722 0.843839
O O9 0.898383 0.263802 0.787515
O O10 0.763755 0.211658 0.505042
O O11 0.647510 0.213627 0.495195
O O12 0.000000 0.500000 0.500000
O O13 0.565136 0.065672 0.196289
#
# Coordination Sequence:
#
# PCOD9228422 Si02
#       6
#     4   4   4   4   4   4
#     4   9  17  31  52  79 108 136 168 210 265 321
#     4  10  21  37  55  77 105 137 178 222 263 314
#     4  10  19  34  55  78 107 141 176 213 257 314
#     4  10  22  39  56  73 101 146 187 215 254 311
#     4  10  20  33  54  84 109 132 169 222 276 315
#     4   9  18  34  56  79 106 139 172 212 266 323
#
# _framework density 18.596457000000001
#
# number of rings (size 3 to 8) (size 9 to 14) (size 15 to 20)
#    0.000    2.333    0.000    4.000    0.000    3.333 
#    0.000    0.000    0.000   11.000    0.000    0.000 
#    0.000    0.000    0.000    0.000    0.000    0.000 
#
# Total GULP energy -133930.884644 kJ/mol
# GULP energy per Si atom -5580.453527 kJ/mol
# Density = 1.855413 g / cm^3
# Si number density = 18.596457 Si / 1000 Ang^3
#
#
#
# Elastic Constant Matrix: (Units=GPa)
#
#
# Indices 1 2 3 4 5 6 
#
# 1 83.3289 9.0650 22.7662 0.0000 -15.4304 0.0000
# 2 9.0650 71.8040 -0.4982 0.0000 1.6719 0.0000
# 3 22.7662 -0.4982 35.5989 0.0000 4.6219 0.0000
# 4 0.0000 0.0000 0.0000 22.5984 0.0000 1.3476
# 5 -15.4304 1.6719 4.6219 0.0000 15.1110 0.0000
# 6 0.0000 0.0000 0.0000 1.3476 0.0000 2.8391
#
#
#
# Elastic Compliance Matrix: (Units=1/GPa)
#
#
# Indices 1 2 3 4 5 6 
#
# 1 0.022936 -0.003711 -0.018551 0.000000 0.029506 0.000000
# 2 -0.003711 0.014569 0.003414 0.000000 -0.006446 0.000000
# 3 -0.018551 0.003414 0.044269 0.000000 -0.032861 0.000000
# 4 0.000000 0.000000 0.000000 0.045540 0.000000 -0.021616
# 5 0.029506 -0.006446 -0.032861 0.000000 0.107071 0.000000
# 6 0.000000 0.000000 0.000000 -0.021616 0.000000 0.362480
#
#
# Mechanical properties :
#
#
# Convention : Reuss Voigt Hill
#
# Bulk Modulus (GPa) = 22.68707 28.15531 25.42119
# Shear Modulus (GPa) = 7.70115 18.73630 13.21872
#
# Velocity S-wave (km/s) = 2.03720 3.17759 2.66901
# Velocity P-wave (km/s) = 4.21423 5.35124 4.81640
#
# Compressibility (1/GPa) = 0.04407797
#
# Stress axis : x y z
#
# Youngs Moduli (GPa) = 43.59878 68.63837 22.58932
#
# Poissons Ratio (x) = 0.25474 0.41906
# Poissons Ratio (y) = 0.16181 -0.07713
# Poissons Ratio (z) = 0.80880 -0.23435
#
# Static dielectric constant tensor:
#      x y z
#    x 1.608900 0.000000 -0.009770 
#    y 0.000000 1.622450 0.000000 
#    z -0.009770 0.000000 1.676020 
# 
# From -- ./inp_files/70949.got.cif
#   From: 2010.05.17/outbox.cif.g08.bks.cpg/sg13_36_cif.got.tgz:70949.got - 2010.06.03 16:44:36.
