data_PCOD9228811
_publ_section_title
;
Structure prediction by ZEFSAII (Michael W. Deem and Ramdas Pophale) SiO2 
 PCOD9228811
Probable space group: P 2/C
;
_chemical_formula_sum "Si O2"
_cell_formula_units_Z 24
_cell_length_a 18.344152
_cell_length_b 9.223211
_cell_length_c 8.594558
_cell_angle_alpha 90.000000
_cell_angle_beta 55.996177
_cell_angle_gamma 90.000000
_cell_volume 1205.474415
_symmetry_space_group_name_H-M "P 2/C"
_symmetry_group_IT_number 13
_symmetry_cell_setting 'monoclinic'
loop_
_space_group_symop_operation_xyz
x,y,z
-x,y,1/2-z
-x,-y,-z
x,-y,1/2+z
loop_
_atom_site_type_symbol
_atom_site_label
_atom_site_fract_x
_atom_site_fract_y
_atom_site_fract_z
Si Si1 0.347686 0.704071 0.785463
Si Si2 0.185804 0.912576 0.914528
Si Si3 0.393188 0.417422 0.891939
Si Si4 0.064476 0.935725 0.793837
Si Si5 0.680244 0.848041 0.196067
Si Si6 0.587247 0.044347 0.103132
O O1 0.256859 0.793167 0.880812
O O2 0.354781 0.576532 0.902861
O O3 0.372829 0.639215 0.589094
O O4 0.413916 0.826873 0.769131
O O5 0.140280 0.863725 0.807790
O O6 0.231325 0.074281 0.845022
O O7 0.112999 0.940998 0.133978
O O8 0.500000 0.419167 0.750000
O O9 0.342365 0.313978 0.828291
O O10 0.000000 0.853159 0.750000
O O11 0.000000 0.000000 0.000000
O O12 0.607807 0.894209 0.410806
O O13 0.665219 0.937215 0.055081
O O14 0.500000 0.957348 0.250000
#
# Coordination Sequence:
#
# PCOD9228811 Si02
#       6
#     4   4   4   4   4   4
#     4  11  23  36  54  76 110 154 194 245 291 327
#     4  10  19  36  55  86 116 137 180 227 284 355
#     4  12  23  38  53  78 112 160 214 249 278 322
#     4   9  18  33  59  90 113 134 163 218 284 348
#     4  11  21  33  55  79 110 149 188 241 286 326
#     4  11  20  34  50  75 106 146 192 242 292 332
#
# _framework density 19.909174
#
# number of rings (size 3 to 8) (size 9 to 14) (size 15 to 20)
#    0.000    1.333    0.000    9.000    0.000    0.000 
#    0.000    0.000    0.000    0.000    0.000   73.500 
#    0.000    0.000    0.000    0.000    0.000    0.000 
#
# Total GULP energy -133695.010247 kJ/mol
# GULP energy per Si atom -5570.625427 kJ/mol
# Density = 1.986386 g / cm^3
# Si number density = 19.909174 Si / 1000 Ang^3
#
#
#
# Elastic Constant Matrix: (Units=GPa)
#
#
# Indices 1 2 3 4 5 6 
#
# 1 119.9690 27.7689 26.3293 0.0000 1.2559 0.0000
# 2 27.7689 75.8940 3.8335 0.0000 -2.3190 0.0000
# 3 26.3293 3.8335 102.8186 0.0000 -2.3592 0.0000
# 4 0.0000 0.0000 0.0000 21.7469 0.0000 12.5370
# 5 1.2559 -2.3190 -2.3592 0.0000 32.3528 0.0000
# 6 0.0000 0.0000 0.0000 12.5370 0.0000 22.9023
#
#
#
# Elastic Compliance Matrix: (Units=1/GPa)
#
#
# Indices 1 2 3 4 5 6 
#
# 1 0.009658 -0.003439 -0.002363 0.000000 -0.000794 0.000000
# 2 -0.003439 0.014452 0.000369 0.000000 0.001196 0.000000
# 3 -0.002363 0.000369 0.010337 0.000000 0.000872 0.000000
# 4 0.000000 0.000000 0.000000 0.067186 0.000000 -0.036779
# 5 -0.000794 0.001196 0.000872 0.000000 0.031089 0.000000
# 6 0.000000 0.000000 0.000000 -0.036779 0.000000 0.063797
#
#
# Mechanical properties :
#
#
# Convention : Reuss Voigt Hill
#
# Bulk Modulus (GPa) = 42.40465 46.06058 44.23261
# Shear Modulus (GPa) = 23.22911 31.45041 27.33976
#
# Velocity S-wave (km/s) = 3.41948 3.97885 3.70972
# Velocity P-wave (km/s) = 6.07748 6.65537 6.37298
#
# Compressibility (1/GPa) = 0.02358232
#
# Stress axis : x y z
#
# Youngs Moduli (GPa) = 103.53642 69.19264 96.73717
#
# Poissons Ratio (x) = 0.23794 0.22862
# Poissons Ratio (y) = 0.35604 -0.03571
# Poissons Ratio (z) = 0.24469 -0.02555
#
# Static dielectric constant tensor:
#      x y z
#    x 1.820060 0.000000 0.000120 
#    y 0.000000 1.701910 0.000000 
#    z 0.000120 0.000000 1.730240 
# 
# From -- ./inp_files/22698.got.cif
#   From: 2010.05.17/outbox.cif.g08.bks.cpg/sg13_12_cif.got.tgz:22698.got - 2010.06.03 16:44:36.
