data_PCOD9228328
_publ_section_title
;
Structure prediction by ZEFSAII (Michael W. Deem and Ramdas Pophale) SiO2 
 PCOD9228328
Probable space group: P 2/C
;
_chemical_formula_sum "Si O2"
_cell_formula_units_Z 32
_cell_length_a 8.407249
_cell_length_b 13.176692
_cell_length_c 24.306382
_cell_angle_alpha 90.000000
_cell_angle_beta 147.028209
_cell_angle_gamma 90.000000
_cell_volume 1465.412717
_symmetry_space_group_name_H-M "P 2/C"
_symmetry_group_IT_number 13
_symmetry_cell_setting 'monoclinic'
loop_
_space_group_symop_operation_xyz
x,y,z
-x,y,1/2-z
-x,-y,-z
x,-y,1/2+z
loop_
_atom_site_type_symbol
_atom_site_label
_atom_site_fract_x
_atom_site_fract_y
_atom_site_fract_z
Si Si1 0.553914 0.803886 0.042283
Si Si2 0.086203 0.667669 0.172733
Si Si3 0.733975 0.606090 0.500685
Si Si4 0.174706 0.473209 0.350687
Si Si5 0.087450 0.679093 0.500622
Si Si6 0.576663 0.816001 0.332807
Si Si7 0.346113 0.794533 0.859182
Si Si8 0.650417 0.976912 0.147529
O O1 0.548868 0.917279 0.063419
O O2 0.881478 0.764087 0.126641
O O3 0.419224 0.717311 0.042819
O O4 0.393787 0.794461 0.938275
O O5 0.403830 0.708095 0.280303
O O6 0.000197 0.575195 0.185490
O O7 0.005865 0.634671 0.086745
O O8 0.493592 0.515774 0.424727
O O9 0.823496 0.587751 0.591047
O O10 0.971074 0.616607 0.520123
O O11 0.000000 0.423942 0.250000
O O12 0.429078 0.710735 0.599893
O O13 0.905321 0.785011 0.442888
O O14 0.500000 0.855666 0.250000
O O15 0.460232 0.899678 0.339182
O O16 0.000000 0.786228 0.750000
O O17 0.444868 0.907997 0.870521
O O18 0.000000 0.977655 0.250000
#
# Coordination Sequence:
#
# PCOD9228328 Si02
#       8
#     4   4   4   4   4   4   4   4
#     4  10  19  37  61  84 120 167 207 256 317 385
#     4   9  19  33  60  93 125 164 196 254 327 382
#     4  10  21  37  62  93 122 168 210 254 318 385
#     4  10  21  36  61  96 133 161 206 259 308 381
#     4  10  20  38  60  87 126 168 208 258 321 383
#     4  10  19  33  57  92 125 153 193 261 332 386
#     4  10  24  41  57  84 122 167 224 269 305 373
#     4  11  20  35  62  92 119 161 212 265 322 388
#
# _framework density 21.836850999999999
#
# number of rings (size 3 to 8) (size 9 to 14) (size 15 to 20)
#    0.000    2.000    2.500    1.125    1.750    1.500 
#    0.000    0.625    0.000    6.000    0.000    0.000 
#    0.000    0.000    0.000    0.000    0.000    0.000 
#
# Total GULP energy -178481.010852 kJ/mol
# GULP energy per Si atom -5577.531589 kJ/mol
# Density = 2.178715 g / cm^3
# Si number density = 21.836851 Si / 1000 Ang^3
#
#
#
# Elastic Constant Matrix: (Units=GPa)
#
#
# Indices 1 2 3 4 5 6 
#
# 1 124.8928 41.4895 50.7986 0.0000 -8.8885 0.0000
# 2 41.4895 110.6368 29.6416 0.0000 -1.6363 0.0000
# 3 50.7986 29.6416 108.1858 0.0000 6.4401 0.0000
# 4 0.0000 0.0000 0.0000 18.7292 0.0000 4.3205
# 5 -8.8885 -1.6363 6.4401 0.0000 35.9472 0.0000
# 6 0.0000 0.0000 0.0000 4.3205 0.0000 45.4399
#
#
#
# Elastic Compliance Matrix: (Units=1/GPa)
#
#
# Indices 1 2 3 4 5 6 
#
# 1 0.011085 -0.002867 -0.004624 0.000000 0.003439 0.000000
# 2 -0.002867 0.010527 -0.001541 0.000000 0.000046 0.000000
# 3 -0.004624 -0.001541 0.012037 0.000000 -0.003370 0.000000
# 4 0.000000 0.000000 0.000000 0.054590 0.000000 -0.005191
# 5 0.003439 0.000046 -0.003370 0.000000 0.029275 0.000000
# 6 0.000000 0.000000 0.000000 -0.005191 0.000000 0.022501
#
#
# Mechanical properties :
#
#
# Convention : Reuss Voigt Hill
#
# Bulk Modulus (GPa) = 64.16242 65.28608 64.72425
# Shear Modulus (GPa) = 30.62338 34.80899 32.71619
#
# Velocity S-wave (km/s) = 3.74889 3.99688 3.87487
# Velocity P-wave (km/s) = 6.94156 7.15976 7.05151
#
# Compressibility (1/GPa) = 0.01558545
#
# Stress axis : x y z
#
# Youngs Moduli (GPa) = 90.21332 94.99123 83.07486
#
# Poissons Ratio (x) = 0.27236 0.38414
# Poissons Ratio (y) = 0.25866 0.12800
# Poissons Ratio (z) = 0.41715 0.14637
#
# Static dielectric constant tensor:
#      x y z
#    x 1.894720 0.000000 0.055290 
#    y 0.000000 1.814260 0.000000 
#    z 0.055290 0.000000 1.985360 
# 
# From -- ./inp_files/85362.got.cif
#   From: 2010.05.17/outbox.cif.g08.bks.cpg/sg13_43_cif.got.tgz:85362.got - 2010.06.03 16:44:36.
