data_PCOD9228413
_publ_section_title
;
Structure prediction by ZEFSAII (Michael W. Deem and Ramdas Pophale) SiO2 
 PCOD9228413
Probable space group: P 2/C
;
_chemical_formula_sum "Si O2"
_cell_formula_units_Z 28
_cell_length_a 11.588247
_cell_length_b 7.847211
_cell_length_c 17.490532
_cell_angle_alpha 90.000000
_cell_angle_beta 112.972091
_cell_angle_gamma 90.000000
_cell_volume 1464.373669
_symmetry_space_group_name_H-M "P 2/C"
_symmetry_group_IT_number 13
_symmetry_cell_setting 'monoclinic'
loop_
_space_group_symop_operation_xyz
x,y,z
-x,y,1/2-z
-x,-y,-z
x,-y,1/2+z
loop_
_atom_site_type_symbol
_atom_site_label
_atom_site_fract_x
_atom_site_fract_y
_atom_site_fract_z
Si Si1 0.665498 0.448890 0.508990
Si Si2 0.317228 0.995924 0.890007
Si Si3 0.473843 0.220741 0.540924
Si Si4 0.794326 0.347217 0.171492
Si Si5 0.043767 0.234094 0.155647
Si Si6 0.038717 0.138055 0.837611
Si Si7 0.921615 0.665888 0.001917
O O1 0.560156 0.306918 0.496547
O O2 0.605457 0.615964 0.453756
O O3 0.715189 0.509859 0.606548
O O4 0.782146 0.382095 0.491773
O O5 0.289239 0.821796 0.838592
O O6 0.421898 0.121845 0.883033
O O7 0.185993 0.089510 0.870976
O O8 0.377984 0.919397 0.983533
O O9 0.866919 0.356749 0.270733
O O10 0.903539 0.300636 0.138051
O O11 0.076569 0.228860 0.075688
O O12 0.040139 0.038141 0.182671
O O13 0.018417 0.239622 0.909987
O O14 0.000000 0.234136 0.750000
O O15 0.000000 0.500000 0.000000
#
# Coordination Sequence:
#
# PCOD9228413 Si02
#       7
#     4   4   4   4   4   4   4
#     4  10  19  34  54  87 112 152 193 237 289 351
#     4   9  16  33  58  87 102 141 204 251 274 327
#     4   9  18  32  58  84 109 147 202 248 270 337
#     4   9  17  33  59  79 117 148 194 234 284 358
#     4  10  19  36  55  84 117 156 185 236 300 350
#     4  11  21  38  61  89 115 149 200 244 294 358
#     4  12  24  35  53  90 127 151 184 240 311 353
#
# _framework density 19.120804
#
# number of rings (size 3 to 8) (size 9 to 14) (size 15 to 20)
#    0.000    2.000    5.714    0.429    0.000    1.143 
#    0.000    0.000    0.000    7.714    7.429    0.000 
#    0.000    0.000    0.000    0.000    0.000    0.000 
#
# Total GULP energy -155903.316656 kJ/mol
# GULP energy per Si atom -5567.975595 kJ/mol
# Density = 1.907728 g / cm^3
# Si number density = 19.120804 Si / 1000 Ang^3
#
#
#
# Elastic Constant Matrix: (Units=GPa)
#
#
# Indices 1 2 3 4 5 6 
#
# 1 57.2469 16.9547 39.7567 0.0000 5.4814 0.0000
# 2 16.9547 61.4991 30.1417 0.0000 -0.9786 0.0000
# 3 39.7567 30.1417 109.9832 0.0000 -10.4681 0.0000
# 4 0.0000 0.0000 0.0000 22.3392 0.0000 2.0231
# 5 5.4814 -0.9786 -10.4681 0.0000 29.3427 0.0000
# 6 0.0000 0.0000 0.0000 2.0231 0.0000 30.0434
#
#
#
# Elastic Compliance Matrix: (Units=1/GPa)
#
#
# Indices 1 2 3 4 5 6 
#
# 1 0.025452 -0.002607 -0.009261 0.000000 -0.008145 0.000000
# 2 -0.002607 0.019095 -0.004331 0.000000 -0.000421 0.000000
# 3 -0.009261 -0.004331 0.014262 0.000000 0.006674 0.000000
# 4 0.000000 0.000000 0.000000 0.045039 0.000000 -0.003033
# 5 -0.008145 -0.000421 0.006674 0.000000 0.037968 0.000000
# 6 0.000000 0.000000 0.000000 -0.003033 0.000000 0.033489
#
#
# Mechanical properties :
#
#
# Convention : Reuss Voigt Hill
#
# Bulk Modulus (GPa) = 37.86349 44.71504 41.28926
# Shear Modulus (GPa) = 23.09386 25.80347 24.44867
#
# Velocity S-wave (km/s) = 3.47909 3.67754 3.57969
# Velocity P-wave (km/s) = 5.99867 6.43962 6.22305
#
# Compressibility (1/GPa) = 0.02641067
#
# Stress axis : x y z
#
# Youngs Moduli (GPa) = 39.28976 52.36952 70.11631
#
# Poissons Ratio (x) = 0.13655 0.64935
# Poissons Ratio (y) = 0.10245 0.30365
# Poissons Ratio (z) = 0.36386 0.22680
#
# Static dielectric constant tensor:
#      x y z
#    x 1.668520 0.000000 0.054870 
#    y 0.000000 1.748990 0.000000 
#    z 0.054870 0.000000 1.723050 
# 
# From -- ./inp_files/50081.got.cif
#   From: 2010.05.17/outbox.cif.g08.bks.cpg/sg13_26_cif.got.tgz:50081.got - 2010.06.03 16:44:36.
