data_PCOD9228478
_publ_section_title
;
Structure prediction by ZEFSAII (Michael W. Deem and Ramdas Pophale) SiO2 
 PCOD9228478
Probable space group: P 2/C
;
_chemical_formula_sum "Si O2"
_cell_formula_units_Z 24
_cell_length_a 7.933887
_cell_length_b 8.788954
_cell_length_c 17.854365
_cell_angle_alpha 90.000000
_cell_angle_beta 128.427924
_cell_angle_gamma 90.000000
_cell_volume 975.317436
_symmetry_space_group_name_H-M "P 2/C"
_symmetry_group_IT_number 13
_symmetry_cell_setting 'monoclinic'
loop_
_space_group_symop_operation_xyz
x,y,z
-x,y,1/2-z
-x,-y,-z
x,-y,1/2+z
loop_
_atom_site_type_symbol
_atom_site_label
_atom_site_fract_x
_atom_site_fract_y
_atom_site_fract_z
Si Si1 0.160214 0.891467 0.866746
Si Si2 0.968274 0.402502 0.916724
Si Si3 0.597541 0.180002 0.859811
Si Si4 0.522645 0.832954 0.870717
Si Si5 0.787820 0.243179 0.638523
Si Si6 0.817521 0.707248 0.843992
O O1 0.387190 0.815476 0.908554
O O2 0.200142 0.069564 0.889362
O O3 0.000000 0.884746 0.750000
O O4 0.040984 0.796229 0.896838
O O5 0.818692 0.264521 0.902369
O O6 0.836778 0.529698 0.831045
O O7 0.164282 0.353205 0.917710
O O8 0.000000 0.500000 0.000000
O O9 0.500000 0.169645 0.750000
O O10 0.605659 0.005647 0.889285
O O11 0.425897 0.258686 0.869322
O O12 0.716949 0.730044 0.897998
O O13 0.341979 0.793288 0.757586
O O14 0.000000 0.257722 0.750000
#
# Coordination Sequence:
#
# PCOD9228478 Si02
#       6
#     4   4   4   4   4   4
#     4   8  16  32  57  90 117 144 202 271 308 348
#     4  12  28  41  56  95 143 176 200 250 330 393
#     4  11  20  40  70  92 119 163 221 264 310 377
#     4   9  18  34  63  95 111 145 216 276 304 344
#     4  10  20  37  67  92 117 166 221 265 307 375
#     4  10  19  34  57  84 123 156 196 260 309 363
#
# _framework density 24.607375000000001
#
# number of rings (size 3 to 8) (size 9 to 14) (size 15 to 20)
#    0.000    2.000    3.333    2.000    2.333    4.000 
#    0.000    3.333    0.000    4.000    0.000    0.000 
#    0.000    0.000    0.000    0.000    0.000    0.000 
#
# Total GULP energy -134071.595278 kJ/mol
# GULP energy per Si atom -5586.316470 kJ/mol
# Density = 2.455137 g / cm^3
# Si number density = 24.607375 Si / 1000 Ang^3
#
#
#
# Elastic Constant Matrix: (Units=GPa)
#
#
# Indices 1 2 3 4 5 6 
#
# 1 202.0360 58.8788 -5.8688 0.0000 -9.7940 0.0000
# 2 58.8788 75.2442 -5.4562 0.0000 0.7231 0.0000
# 3 -5.8688 -5.4562 45.7305 0.0000 -10.7181 0.0000
# 4 0.0000 0.0000 0.0000 22.9713 0.0000 -6.0662
# 5 -9.7940 0.7231 -10.7181 0.0000 26.0550 0.0000
# 6 0.0000 0.0000 0.0000 -6.0662 0.0000 47.8064
#
#
#
# Elastic Compliance Matrix: (Units=1/GPa)
#
#
# Indices 1 2 3 4 5 6 
#
# 1 0.006622 -0.005142 0.000944 0.000000 0.003020 0.000000
# 2 -0.005142 0.017402 0.000941 0.000000 -0.002029 0.000000
# 3 0.000944 0.000941 0.024544 0.000000 0.010425 0.000000
# 4 0.000000 0.000000 0.000000 0.045042 0.000000 0.005715
# 5 0.003020 -0.002029 0.010425 0.000000 0.043861 0.000000
# 6 0.000000 0.000000 0.000000 0.005715 0.000000 0.021643
#
#
# Mechanical properties :
#
#
# Convention : Reuss Voigt Hill
#
# Bulk Modulus (GPa) = 23.77946 46.45759 35.11852
# Shear Modulus (GPa) = 27.83252 37.73032 32.78142
#
# Velocity S-wave (km/s) = 3.36678 3.91998 3.65386
# Velocity P-wave (km/s) = 4.97977 6.27764 5.66599
#
# Compressibility (1/GPa) = 0.04205310
#
# Stress axis : x y z
#
# Youngs Moduli (GPa) = 151.00993 57.46565 40.74290
#
# Poissons Ratio (x) = 0.29551 -0.03847
# Poissons Ratio (y) = 0.77655 -0.03833
# Poissons Ratio (z) = -0.14258 -0.05406
#
# Static dielectric constant tensor:
#      x y z
#    x 1.955160 0.000000 0.211150 
#    y 0.000000 1.953990 0.000000 
#    z 0.211150 0.000000 3.565280 
# 
# From -- ./inp_files/75386.got.cif
#   From: 2010.05.17/outbox.cif.g08.bks.cpg/sg13_38_cif.got.tgz:75386.got - 2010.06.03 16:44:36.
