data_PCOD9228718
_publ_section_title
;
Structure prediction by ZEFSAII (Michael W. Deem and Ramdas Pophale) SiO2 
 PCOD9228718
Probable space group: P 2/C
;
_chemical_formula_sum "Si O2"
_cell_formula_units_Z 30
_cell_length_a 21.045563
_cell_length_b 11.619516
_cell_length_c 17.877250
_cell_angle_alpha 90.000000
_cell_angle_beta 159.827706
_cell_angle_gamma 90.000000
_cell_volume 1507.552351
_symmetry_space_group_name_H-M "P 2/C"
_symmetry_group_IT_number 13
_symmetry_cell_setting 'monoclinic'
loop_
_space_group_symop_operation_xyz
x,y,z
-x,y,1/2-z
-x,-y,-z
x,-y,1/2+z
loop_
_atom_site_type_symbol
_atom_site_label
_atom_site_fract_x
_atom_site_fract_y
_atom_site_fract_z
Si Si1 0.790285 0.692978 0.540043
Si Si2 0.879353 0.351507 0.881991
Si Si3 0.500000 0.870510 0.250000
Si Si4 0.427566 0.973880 0.538220
Si Si5 0.345579 0.834421 0.820990
Si Si6 0.060043 0.884522 0.108896
Si Si7 0.436802 0.632422 0.356884
Si Si8 0.780430 0.470808 0.164208
O O1 0.678088 0.790135 0.461759
O O2 0.674928 0.685211 0.336237
O O3 0.784649 0.576912 0.584239
O O4 0.000000 0.719784 0.750000
O O5 0.864747 0.214002 0.864106
O O6 0.722463 0.405920 0.761953
O O7 0.850253 0.403816 0.767000
O O8 0.075117 0.388332 0.132134
O O9 0.469048 0.953013 0.285634
O O10 0.549411 0.873834 0.637154
O O11 0.232667 0.921524 0.350200
O O12 0.379715 0.064481 0.419542
O O13 0.126837 0.830301 0.565201
O O14 0.436543 0.722244 0.957884
O O15 0.000000 0.000000 0.000000
O O16 0.576516 0.544507 0.472245
#
# Coordination Sequence:
#
# PCOD9228718 Si02
#       8
#     4   4   2   4   4   4   4   4
#     4  12  24  38  64  92 131 163 209 268 330 378
#     4  11  23  38  64  95 125 161 217 265 318 380
#     4  12  24  40  62  94 130 168 212 272 328 384
#     4  10  21  35  57  87 125 166 206 257 311 378
#     4  10  19  35  60  91 121 160 212 254 311 377
#     4  10  21  36  61  91 126 164 206 263 309 372
#     4  12  20  39  66  94 122 166 212 265 321 381
#     4  11  23  40  60  95 129 162 207 268 321 383
#
# _framework density 19.899806999999999
#
# number of rings (size 3 to 8) (size 9 to 14) (size 15 to 20)
#    0.000    1.067    6.667    0.400    1.867    1.067 
#    0.000    0.000    2.933    0.000    0.000    0.000 
#    0.000    0.000    0.000    0.000    0.000    0.000 
#
# Total GULP energy -167265.562939 kJ/mol
# GULP energy per Si atom -5575.518765 kJ/mol
# Density = 1.985451 g / cm^3
# Si number density = 19.899807 Si / 1000 Ang^3
#
#
#
# Elastic Constant Matrix: (Units=GPa)
#
#
# Indices 1 2 3 4 5 6 
#
# 1 64.1566 12.7252 25.2980 0.0000 6.5190 0.0000
# 2 12.7252 45.2819 7.6160 0.0000 -8.0235 0.0000
# 3 25.2980 7.6160 90.4960 0.0000 22.0723 0.0000
# 4 0.0000 0.0000 0.0000 18.1531 0.0000 -8.4683
# 5 6.5190 -8.0235 22.0723 0.0000 26.4235 0.0000
# 6 0.0000 0.0000 0.0000 -8.4683 0.0000 26.8185
#
#
#
# Elastic Compliance Matrix: (Units=1/GPa)
#
#
# Indices 1 2 3 4 5 6 
#
# 1 0.018455 -0.004964 -0.004098 0.000000 -0.002637 0.000000
# 2 -0.004964 0.026335 -0.003865 0.000000 0.012450 0.000000
# 3 -0.004098 -0.003865 0.015775 0.000000 -0.013340 0.000000
# 4 0.000000 0.000000 0.000000 0.064603 0.000000 0.020399
# 5 -0.002637 0.012450 -0.013340 0.000000 0.053419 0.000000
# 6 0.000000 0.000000 0.000000 0.020399 0.000000 0.043729
#
#
# Mechanical properties :
#
#
# Convention : Reuss Voigt Hill
#
# Bulk Modulus (GPa) = 28.81025 32.35699 30.58362
# Shear Modulus (GPa) = 19.24986 24.56538 21.90762
#
# Velocity S-wave (km/s) = 3.11358 3.51729 3.32157
# Velocity P-wave (km/s) = 5.23784 5.72629 5.48750
#
# Compressibility (1/GPa) = 0.03470986
#
# Stress axis : x y z
#
# Youngs Moduli (GPa) = 54.18444 37.97215 63.39251
#
# Poissons Ratio (x) = 0.18851 0.25979
# Poissons Ratio (y) = 0.26899 0.24502
# Poissons Ratio (z) = 0.22206 0.14677
#
# Static dielectric constant tensor:
#      x y z
#    x 1.733680 0.000000 0.024570 
#    y 0.000000 1.730000 0.000000 
#    z 0.024570 0.000000 1.733770 
# 
# From -- ./inp_files/70747.got.cif
#   From: 2010.05.17/outbox.cif.g08.bks.cpg/sg13_36_cif.got.tgz:70747.got - 2010.06.03 16:44:36.
