data_PCOD9228347
_publ_section_title
;
Structure prediction by ZEFSAII (Michael W. Deem and Ramdas Pophale) SiO2 
 PCOD9228347
Probable space group: P 2/C
;
_chemical_formula_sum "Si O2"
_cell_formula_units_Z 30
_cell_length_a 13.319757
_cell_length_b 16.487698
_cell_length_c 18.825210
_cell_angle_alpha 90.000000
_cell_angle_beta 20.487796
_cell_angle_gamma 90.000000
_cell_volume 1447.018073
_symmetry_space_group_name_H-M "P 2/C"
_symmetry_group_IT_number 13
_symmetry_cell_setting 'monoclinic'
loop_
_space_group_symop_operation_xyz
x,y,z
-x,y,1/2-z
-x,-y,-z
x,-y,1/2+z
loop_
_atom_site_type_symbol
_atom_site_label
_atom_site_fract_x
_atom_site_fract_y
_atom_site_fract_z
Si Si1 0.328888 0.838896 0.177674
Si Si2 0.361100 0.946317 0.414702
Si Si3 0.048254 0.322231 0.891070
Si Si4 0.796431 0.115738 0.947299
Si Si5 0.159253 0.328555 0.982699
Si Si6 0.500000 0.786674 0.750000
Si Si7 0.898814 0.823375 0.734595
Si Si8 0.849080 0.509108 0.521504
O O1 0.444321 0.882031 0.171844
O O2 0.295866 0.741364 0.206977
O O3 0.028695 0.880389 0.357568
O O4 0.566813 0.847315 0.958647
O O5 0.500000 0.975733 0.250000
O O6 0.076746 0.896680 0.583667
O O7 0.287503 0.023316 0.511941
O O8 0.764956 0.272270 0.063086
O O9 0.013344 0.411975 0.882118
O O10 0.054669 0.329377 0.971391
O O11 0.000000 0.151236 0.750000
O O12 0.520560 0.160593 0.163889
O O13 0.500000 0.310993 0.750000
O O14 0.119241 0.421079 0.036315
O O15 0.990084 0.260110 0.137380
O O16 0.000000 0.818054 0.750000
O O17 0.500000 0.524381 0.750000
O O18 0.000000 0.500000 0.500000
#
# Coordination Sequence:
#
# PCOD9228347 Si02
#       8
#     4   4   4   4   4   2   4   4
#     4  10  23  38  57  86 115 161 198 245 311 362
#     4  11  22  40  61  86 118 152 207 253 303 367
#     4  10  19  37  60  82 118 153 200 249 292 370
#     4  11  24  41  59  86 121 154 203 256 302 367
#     4  10  19  33  59  90 114 152 202 244 302 358
#     4  10  22  40  60  88 116 166 204 242 306 360
#     4  10  20  35  56  84 120 157 193 246 303 363
#     4   9  18  33  58  91 119 154 200 258 304 362
#
# _framework density 20.732292000000001
#
# number of rings (size 3 to 8) (size 9 to 14) (size 15 to 20)
#    0.000    1.867    1.333    4.000    1.867    2.667 
#    0.000    0.667    0.000    3.200    0.000    0.000 
#    0.000    0.000    0.000    0.000    0.000    0.000 
#
# Total GULP energy -167062.037059 kJ/mol
# GULP energy per Si atom -5568.734569 kJ/mol
# Density = 2.068510 g / cm^3
# Si number density = 20.732292 Si / 1000 Ang^3
#
#
#
# Elastic Constant Matrix: (Units=GPa)
#
#
# Indices 1 2 3 4 5 6 
#
# 1 15.1306 -11.3522 -4.7152 0.0000 1.4433 0.0000
# 2 -11.3522 89.0284 4.1500 0.0000 -0.2434 0.0000
# 3 -4.7152 4.1500 38.1043 0.0000 7.0887 0.0000
# 4 0.0000 0.0000 0.0000 24.7752 0.0000 -6.1765
# 5 1.4433 -0.2434 7.0887 0.0000 31.2891 0.0000
# 6 0.0000 0.0000 0.0000 -6.1765 0.0000 16.3665
#
#
#
# Elastic Compliance Matrix: (Units=1/GPa)
#
#
# Indices 1 2 3 4 5 6 
#
# 1 0.076571 0.009305 0.009506 0.000000 -0.005613 0.000000
# 2 0.009305 0.012425 -0.000146 0.000000 -0.000299 0.000000
# 3 0.009506 -0.000146 0.028729 0.000000 -0.006948 0.000000
# 4 0.000000 0.000000 0.000000 0.044555 0.000000 0.016814
# 5 -0.005613 -0.000299 -0.006948 0.000000 0.033791 0.000000
# 6 0.000000 0.000000 0.000000 0.016814 0.000000 0.067446
#
#
# Mechanical properties :
#
#
# Convention : Reuss Voigt Hill
#
# Bulk Modulus (GPa) = 6.44935 13.15872 9.80403
# Shear Modulus (GPa) = 17.99402 24.76487 21.37944
#
# Velocity S-wave (km/s) = 2.94925 3.45991 3.21474
# Velocity P-wave (km/s) = 3.83601 4.72463 4.30331
#
# Compressibility (1/GPa) = 0.15505448
#
# Stress axis : x y z
#
# Youngs Moduli (GPa) = 13.05983 80.48353 34.80855
#
# Poissons Ratio (x) = -0.74892 -0.33089
# Poissons Ratio (y) = -0.12153 0.00508
# Poissons Ratio (z) = -0.12415 0.01175
#
# Static dielectric constant tensor:
#      x y z
#    x 1.735050 0.000000 -0.020280 
#    y 0.000000 1.791930 0.000000 
#    z -0.020280 0.000000 1.786120 
# 
# From -- ./inp_files/80279.got.cif
#   From: 2010.05.17/outbox.cif.g08.bks.cpg/sg13_41_cif.got.tgz:80279.got - 2010.06.03 16:44:36.
