data_PCOD9228444
_publ_section_title
;
Structure prediction by ZEFSAII (Michael W. Deem and Ramdas Pophale) SiO2 
 PCOD9228444
Probable space group: P 2/C
;
_chemical_formula_sum "Si O2"
_cell_formula_units_Z 28
_cell_length_a 13.222438
_cell_length_b 15.440627
_cell_length_c 5.532032
_cell_angle_alpha 90.000000
_cell_angle_beta 77.562704
_cell_angle_gamma 90.000000
_cell_volume 1102.929528
_symmetry_space_group_name_H-M "P 2/C"
_symmetry_group_IT_number 13
_symmetry_cell_setting 'monoclinic'
loop_
_space_group_symop_operation_xyz
x,y,z
-x,y,1/2-z
-x,-y,-z
x,-y,1/2+z
loop_
_atom_site_type_symbol
_atom_site_label
_atom_site_fract_x
_atom_site_fract_y
_atom_site_fract_z
Si Si1 0.623791 0.043199 0.156948
Si Si2 0.559256 0.748281 0.976463
Si Si3 0.105991 0.651273 0.126414
Si Si4 0.199467 0.194423 0.077249
Si Si5 0.214646 0.174669 0.560133
Si Si6 0.615361 0.450178 0.514069
Si Si7 0.148148 0.395184 0.097095
O O1 0.500000 0.044739 0.250000
O O2 0.655649 0.020466 0.417692
O O3 0.673799 0.131381 0.031761
O O4 0.500000 0.763964 0.750000
O O5 0.500000 0.779912 0.250000
O O6 0.677021 0.784369 0.951507
O O7 0.567477 0.644204 0.992191
O O8 0.201616 0.719784 0.062919
O O9 0.119020 0.584117 0.336721
O O10 0.000000 0.700634 0.250000
O O11 0.092287 0.600902 0.883272
O O12 0.178334 0.146436 0.840027
O O13 0.158872 0.150088 0.340684
O O14 0.151034 0.289471 0.077966
O O15 0.594295 0.513068 0.295681
O O16 0.737967 0.432714 0.432490
#
# Coordination Sequence:
#
# PCOD9228444 Si02
#       7
#     4   4   4   4   4   4   4
#     4  10  21  36  53  76 109 149 187 218 249 291
#     4  11  22  34  48  72 105 133 170 227 277 318
#     4  10  19  34  59  85 107 131 165 217 277 330
#     4   9  19  33  50  74 101 134 172 215 270 317
#     4  10  19  34  56  80 106 138 179 219 261 314
#     4  11  22  36  54  71  96 141 184 215 259 321
#     4   9  19  35  53  76 104 133 168 212 264 319
#
# _framework density 25.386935999999999
#
# number of rings (size 3 to 8) (size 9 to 14) (size 15 to 20)
#    0.000    2.000    0.000    3.857    0.000    8.000 
#    0.000    0.000    0.000    9.429    0.000    0.000 
#    0.000    0.000    0.000    0.000    0.000    0.000 
#
# Total GULP energy -156097.399330 kJ/mol
# GULP energy per Si atom -5574.907119 kJ/mol
# Density = 2.532915 g / cm^3
# Si number density = 25.386936 Si / 1000 Ang^3
#
#
#
# Elastic Constant Matrix: (Units=GPa)
#
#
# Indices 1 2 3 4 5 6 
#
# 1 52.3573 27.0212 36.4018 0.0000 10.8460 0.0000
# 2 27.0212 79.4684 38.7522 0.0000 -7.4184 0.0000
# 3 36.4018 38.7522 271.2474 0.0000 47.6701 0.0000
# 4 0.0000 0.0000 0.0000 -42.6359 0.0000 -14.2475
# 5 10.8460 -7.4184 47.6701 0.0000 44.0684 0.0000
# 6 0.0000 0.0000 0.0000 -14.2475 0.0000 8.9509
#
#
#
# Elastic Compliance Matrix: (Units=1/GPa)
#
#
# Indices 1 2 3 4 5 6 
#
# 1 0.025798 -0.008917 -0.000998 0.000000 -0.006771 0.000000
# 2 -0.008917 0.017732 -0.002774 0.000000 0.008181 0.000000
# 3 -0.000998 -0.002774 0.005255 0.000000 -0.005906 0.000000
# 4 0.000000 0.000000 0.000000 -0.015311 0.000000 -0.024370
# 5 -0.006771 0.008181 -0.005906 0.000000 0.032124 0.000000
# 6 0.000000 0.000000 0.000000 -0.024370 0.000000 0.072929
#
#
# Mechanical properties :
#
#
# Convention : Reuss Voigt Hill
#
# Bulk Modulus (GPa) = 42.72479 67.49150 55.10815
# Shear Modulus (GPa) = 29.11890 22.13654 25.62772
#
# Velocity S-wave (km/s) = 3.39042 2.95611 3.18069
# Velocity P-wave (km/s) = 5.67385 6.18824 5.93662
#
# Compressibility (1/GPa) = 0.02340561
#
# Stress axis : x y z
#
# Youngs Moduli (GPa) = 38.76218 56.39422 190.29827
#
# Poissons Ratio (x) = 0.50288 0.18997
# Poissons Ratio (y) = 0.34565 0.52796
# Poissons Ratio (z) = 0.03870 0.15646
#
# Static dielectric constant tensor:
#      x y z
#    x 2.049040 0.000000 0.024580 
#    y 0.000000 2.020650 0.000000 
#    z 0.024580 0.000000 2.199930 
# 
# From -- ./inp_files/5215.got.cif
#   From: 2010.05.17/outbox.cif.g08.bks.cpg/sg13_3_cif.got.tgz:5215.got - 2010.06.03 16:44:36.
