data_PCOD9228983
_publ_section_title
;
Structure prediction by ZEFSAII (Michael W. Deem and Ramdas Pophale) SiO2 
 PCOD9228983
Probable space group: P 2/C
;
_chemical_formula_sum "Si O2"
_cell_formula_units_Z 22
_cell_length_a 11.992129
_cell_length_b 10.798501
_cell_length_c 14.483938
_cell_angle_alpha 90.000000
_cell_angle_beta 31.066032
_cell_angle_gamma 90.000000
_cell_volume 967.871422
_symmetry_space_group_name_H-M "P 2/C"
_symmetry_group_IT_number 13
_symmetry_cell_setting 'monoclinic'
loop_
_space_group_symop_operation_xyz
x,y,z
-x,y,1/2-z
-x,-y,-z
x,-y,1/2+z
loop_
_atom_site_type_symbol
_atom_site_label
_atom_site_fract_x
_atom_site_fract_y
_atom_site_fract_z
Si Si1 0.127667 0.391093 0.958424
Si Si2 0.175358 0.248011 0.451000
Si Si3 0.000000 0.310314 0.250000
Si Si4 0.500000 0.472833 0.250000
Si Si5 0.679820 0.903932 0.989114
Si Si6 0.751225 0.011283 0.649169
Si Si7 0.000000 0.108517 0.750000
O O1 0.380141 0.426482 0.768196
O O2 0.000000 0.500000 0.000000
O O3 0.018171 0.276237 0.983909
O O4 0.068957 0.382944 0.108846
O O5 0.306941 0.370551 0.388614
O O6 0.317704 0.134871 0.308465
O O7 0.075899 0.191567 0.613014
O O8 0.795781 0.220538 0.374121
O O9 0.424148 0.918148 0.164612
O O10 0.733254 0.925054 0.060749
O O11 0.808762 0.017462 0.853238
O O12 0.000000 0.000000 0.500000
#
# Coordination Sequence:
#
# PCOD9228983 Si02
#       7
#     4   4   2   2   4   4   2
#     4  10  24  43  62  87 118 164 220 265 313 362
#     4  10  20  40  63  90 128 167 206 261 317 364
#     4  11  22  43  66  90 130 165 206 273 318 368
#     4  10  22  42  62  82 120 168 216 266 312 364
#     4   9  20  37  60  96 133 167 202 247 316 386
#     4  10  19  36  63  96 131 166 202 247 313 397
#     4   9  18  37  66  96 132 169 206 249 308 390
#
# _framework density 22.730291999999999
#
# number of rings (size 3 to 8) (size 9 to 14) (size 15 to 20)
#    0.000    2.182    0.000    3.273    0.000    5.818 
#    0.000   33.636    0.000    0.000    0.000    0.000 
#    0.000    0.000    0.000    0.000    0.000    0.000 
#
# Total GULP energy -122550.756079 kJ/mol
# GULP energy per Si atom -5570.488913 kJ/mol
# Density = 2.267856 g / cm^3
# Si number density = 22.730292 Si / 1000 Ang^3
#
#
#
# Elastic Constant Matrix: (Units=GPa)
#
#
# Indices 1 2 3 4 5 6 
#
# 1 101.1663 26.2526 35.3929 0.0000 -23.8968 0.0000
# 2 26.2526 88.5767 33.8046 0.0000 0.2628 0.0000
# 3 35.3929 33.8046 112.7665 0.0000 -23.6304 0.0000
# 4 0.0000 0.0000 0.0000 29.2451 0.0000 7.5607
# 5 -23.8968 0.2628 -23.6304 0.0000 46.8207 0.0000
# 6 0.0000 0.0000 0.0000 7.5607 0.0000 18.3411
#
#
#
# Elastic Compliance Matrix: (Units=1/GPa)
#
#
# Indices 1 2 3 4 5 6 
#
# 1 0.012639 -0.003036 -0.001903 0.000000 0.005508 0.000000
# 2 -0.003036 0.013691 -0.003905 0.000000 -0.003597 0.000000
# 3 -0.001903 -0.003905 0.011671 0.000000 0.004941 0.000000
# 4 0.000000 0.000000 0.000000 0.038273 0.000000 -0.015777
# 5 0.005508 -0.003597 0.004941 0.000000 0.026683 0.000000
# 6 0.000000 0.000000 0.000000 -0.015777 0.000000 0.061026
#
#
# Mechanical properties :
#
#
# Convention : Reuss Voigt Hill
#
# Bulk Modulus (GPa) = 49.22906 54.82329 52.02617
# Shear Modulus (GPa) = 26.53345 32.68532 29.60939
#
# Velocity S-wave (km/s) = 3.42031 3.79616 3.61313
# Velocity P-wave (km/s) = 6.10761 6.58680 6.35172
#
# Compressibility (1/GPa) = 0.02031321
#
# Stress axis : x y z
#
# Youngs Moduli (GPa) = 79.11863 73.04325 85.68190
#
# Poissons Ratio (x) = 0.22178 0.16302
# Poissons Ratio (y) = 0.24023 0.33458
# Poissons Ratio (z) = 0.15053 0.28523
#
# Static dielectric constant tensor:
#      x y z
#    x 1.908510 0.000000 -0.067440 
#    y 0.000000 1.946890 0.000000 
#    z -0.067440 0.000000 2.028590 
# 
# From -- ./inp_files/51136.got.cif
#   From: 2010.05.17/outbox.cif.g08.bks.cpg/sg13_26_cif.got.tgz:51136.got - 2010.06.03 16:44:36.
