data_PCOD9228793
_publ_section_title
;
Structure prediction by ZEFSAII (Michael W. Deem and Ramdas Pophale) SiO2 
 PCOD9228793
Probable space group: P 2/C
;
_chemical_formula_sum "Si O2"
_cell_formula_units_Z 30
_cell_length_a 5.180552
_cell_length_b 12.666826
_cell_length_c 22.281267
_cell_angle_alpha 90.000000
_cell_angle_beta 99.306909
_cell_angle_gamma 90.000000
_cell_volume 1442.875327
_symmetry_space_group_name_H-M "P 2/C"
_symmetry_group_IT_number 13
_symmetry_cell_setting 'monoclinic'
loop_
_space_group_symop_operation_xyz
x,y,z
-x,y,1/2-z
-x,-y,-z
x,-y,1/2+z
loop_
_atom_site_type_symbol
_atom_site_label
_atom_site_fract_x
_atom_site_fract_y
_atom_site_fract_z
Si Si1 0.757064 0.486314 0.076590
Si Si2 0.868076 0.427140 0.303293
Si Si3 0.766745 0.125195 0.181266
Si Si4 0.015892 0.111650 0.820028
Si Si5 0.468322 0.221569 0.640780
Si Si6 0.500000 0.613875 0.250000
Si Si7 0.735936 0.788779 0.818332
Si Si8 0.761060 0.613770 0.453905
O O1 0.465086 0.530091 0.075590
O O2 0.906678 0.451718 0.141264
O O3 0.952144 0.576732 0.056909
O O4 0.750543 0.396737 0.025212
O O5 0.732058 0.534103 0.276442
O O6 0.672395 0.335385 0.318130
O O7 0.000000 0.377105 0.250000
O O8 0.467567 0.142634 0.151894
O O9 0.747834 0.163521 0.250570
O O10 0.964040 0.198104 0.151715
O O11 0.884874 0.008818 0.179948
O O12 0.249399 0.172858 0.861914
O O13 0.000000 0.148863 0.750000
O O14 0.734988 0.136938 0.838388
O O15 0.525650 0.310510 0.693615
O O16 0.327322 0.278335 0.580046
#
# Coordination Sequence:
#
# PCOD9228793 Si02
#       8
#     4   4   4   4   4   2   4   4
#     4  10  22  38  64  77 115 163 205 236 278 337
#     4  12  24  36  56  91 121 158 186 239 302 363
#     4  10  19  36  52  75 111 146 181 243 276 353
#     4  12  22  35  55  83 112 148 197 229 301 352
#     4  12  24  35  54  83 119 156 188 241 281 349
#     4  12  24  32  50  80 132 152 180 228 298 342
#     4  10  20  33  54  75 112 143 186 229 289 342
#     4  10  21  42  56  82 110 164 211 237 270 335
#
# _framework density 20.791817000000002
#
# number of rings (size 3 to 8) (size 9 to 14) (size 15 to 20)
#    0.000    1.067    5.333    3.200    3.733    0.000 
#    0.000    0.000    0.000    0.000    0.000    5.600 
#    0.000    0.000    0.000    0.000    0.000    0.000 
#
# Total GULP energy -167396.147332 kJ/mol
# GULP energy per Si atom -5579.871578 kJ/mol
# Density = 2.074449 g / cm^3
# Si number density = 20.791817 Si / 1000 Ang^3
#
#
#
# Elastic Constant Matrix: (Units=GPa)
#
#
# Indices 1 2 3 4 5 6 
#
# 1 100.7971 22.6379 5.1042 0.0000 16.1532 0.0000
# 2 22.6379 89.9199 7.0290 0.0000 6.0296 0.0000
# 3 5.1042 7.0290 65.4083 0.0000 16.5680 0.0000
# 4 0.0000 0.0000 0.0000 -7.5370 0.0000 -4.8309
# 5 16.1532 6.0296 16.5680 0.0000 20.8753 0.0000
# 6 0.0000 0.0000 0.0000 -4.8309 0.0000 19.6234
#
#
#
# Elastic Compliance Matrix: (Units=1/GPa)
#
#
# Indices 1 2 3 4 5 6 
#
# 1 0.011997 -0.002493 0.001878 0.000000 -0.010054 0.000000
# 2 -0.002493 0.011871 -0.000878 0.000000 -0.000803 0.000000
# 3 0.001878 -0.000878 0.019450 0.000000 -0.016637 0.000000
# 4 0.000000 0.000000 0.000000 -0.114596 0.000000 -0.028211
# 5 -0.010054 -0.000803 -0.016637 0.000000 0.069119 0.000000
# 6 0.000000 0.000000 0.000000 -0.028211 0.000000 0.044014
#
#
# Mechanical properties :
#
#
# Convention : Reuss Voigt Hill
#
# Bulk Modulus (GPa) = 24.79312 36.18528 30.48920
# Shear Modulus (GPa) = 85.78544 21.34930 53.56737
#
# Velocity S-wave (km/s) = 6.43030 3.20787 5.08130
# Velocity P-wave (km/s) = 8.19037 5.58229 7.00871
#
# Compressibility (1/GPa) = 0.04033376
#
# Stress axis : x y z
#
# Youngs Moduli (GPa) = 83.35517 84.23825 51.41259
#
# Poissons Ratio (x) = 0.21000 -0.09657
# Poissons Ratio (y) = 0.20780 0.04513
# Poissons Ratio (z) = -0.15657 0.07394
#
# Static dielectric constant tensor:
#      x y z
#    x 1.930020 0.000000 0.096930 
#    y 0.000000 1.787820 0.000000 
#    z 0.096930 0.000000 1.783730 
# 
# From -- ./inp_files/83742.got.cif
#   From: 2010.05.17/outbox.cif.g08.bks.cpg/sg13_42_cif.got.tgz:83742.got - 2010.06.03 16:44:36.
