data_PCOD9228957
_publ_section_title
;
Structure prediction by ZEFSAII (Michael W. Deem and Ramdas Pophale) SiO2 
 PCOD9228957
Probable space group: P 2/C
;
_chemical_formula_sum "Si O2"
_cell_formula_units_Z 28
_cell_length_a 22.084830
_cell_length_b 8.196872
_cell_length_c 14.615121
_cell_angle_alpha 90.000000
_cell_angle_beta 28.533222
_cell_angle_gamma 90.000000
_cell_volume 1263.778615
_symmetry_space_group_name_H-M "P 2/C"
_symmetry_group_IT_number 13
_symmetry_cell_setting 'monoclinic'
loop_
_space_group_symop_operation_xyz
x,y,z
-x,y,1/2-z
-x,-y,-z
x,-y,1/2+z
loop_
_atom_site_type_symbol
_atom_site_label
_atom_site_fract_x
_atom_site_fract_y
_atom_site_fract_z
Si Si1 0.108008 0.362546 0.865258
Si Si2 0.759512 0.894718 0.438910
Si Si3 0.705269 0.520137 0.758297
Si Si4 0.414768 0.978750 0.994133
Si Si5 0.545754 0.735405 0.393880
Si Si6 0.005172 0.929821 0.890353
Si Si7 0.792189 0.851916 0.599776
O O1 0.149516 0.248481 0.724414
O O2 0.238809 0.438703 0.726149
O O3 0.057591 0.245189 0.013828
O O4 0.000000 0.500000 0.000000
O O5 0.643466 0.920256 0.523954
O O6 0.730386 0.858231 0.582027
O O7 0.847317 0.056730 0.327687
O O8 0.668474 0.380968 0.733478
O O9 0.805773 0.659890 0.599402
O O10 0.575608 0.617537 0.949760
O O11 0.452265 0.830025 0.011023
O O12 0.298693 0.065785 0.203680
O O13 0.522358 0.119638 0.852341
O O14 0.920225 0.045677 0.939928
O O15 0.000000 0.000000 0.000000
#
# Coordination Sequence:
#
# PCOD9228957 Si02
#       7
#     4   4   4   4   4   4   4
#     4  11  22  37  64  88 122 163 198 256 322 369
#     4  11  22  38  62  91 122 162 211 255 306 372
#     4  10  19  36  62  88 122 159 203 252 316 370
#     4  10  19  39  63  86 119 163 213 251 307 366
#     4   9  19  35  65  85 116 172 199 249 317 359
#     4  10  19  37  59  88 118 162 203 244 304 373
#     4  11  21  37  65  90 123 163 209 254 306 372
#
# _framework density 22.155778999999999
#
# number of rings (size 3 to 8) (size 9 to 14) (size 15 to 20)
#    0.000    1.714    4.286    2.143    2.000    0.000 
#    0.000   10.714    3.143    0.000    0.000    0.000 
#    0.000    0.000    0.000    0.000    0.000    0.000 
#
# Total GULP energy -156145.830753 kJ/mol
# GULP energy per Si atom -5576.636813 kJ/mol
# Density = 2.210535 g / cm^3
# Si number density = 22.155779 Si / 1000 Ang^3
#
#
#
# Elastic Constant Matrix: (Units=GPa)
#
#
# Indices 1 2 3 4 5 6 
#
# 1 132.0386 44.0518 11.5004 0.0000 -14.9496 0.0000
# 2 44.0518 120.4916 24.0669 0.0000 -19.1709 0.0000
# 3 11.5004 24.0669 38.5765 0.0000 -12.9256 0.0000
# 4 0.0000 0.0000 0.0000 19.4200 0.0000 -14.9127
# 5 -14.9496 -19.1709 -12.9256 0.0000 36.1010 0.0000
# 6 0.0000 0.0000 0.0000 -14.9127 0.0000 36.4641
#
#
#
# Elastic Compliance Matrix: (Units=1/GPa)
#
#
# Indices 1 2 3 4 5 6 
#
# 1 0.008771 -0.002849 -0.000145 0.000000 0.002067 0.000000
# 2 -0.002849 0.010768 -0.004941 0.000000 0.002770 0.000000
# 3 -0.000145 -0.004941 0.031986 0.000000 0.008769 0.000000
# 4 0.000000 0.000000 0.000000 0.075069 0.000000 0.030701
# 5 0.002067 0.002770 0.008769 0.000000 0.033167 0.000000
# 6 0.000000 0.000000 0.000000 0.030701 0.000000 0.039980
#
#
# Mechanical properties :
#
#
# Convention : Reuss Voigt Hill
#
# Bulk Modulus (GPa) = 28.04530 50.03832 39.04181
# Shear Modulus (GPa) = 21.97854 32.49617 27.23736
#
# Velocity S-wave (km/s) = 3.15302 3.83392 3.51002
# Velocity P-wave (km/s) = 5.09324 6.49865 5.83839
#
# Compressibility (1/GPa) = 0.03565660
#
# Stress axis : x y z
#
# Youngs Moduli (GPa) = 114.01689 92.86456 31.26351
#
# Poissons Ratio (x) = 0.26454 0.00453
# Poissons Ratio (y) = 0.32480 0.15447
# Poissons Ratio (z) = 0.01651 0.45883
#
# Static dielectric constant tensor:
#      x y z
#    x 1.818690 0.000000 -0.010140 
#    y 0.000000 1.882230 0.000000 
#    z -0.010140 0.000000 1.914460 
# 
# From -- ./inp_files/57438.got.cif
#   From: 2010.05.17/outbox.cif.g08.bks.cpg/sg13_29_cif.got.tgz:57438.got - 2010.06.03 16:44:36.
