data_PCOD9228414
_publ_section_title
;
Structure prediction by ZEFSAII (Michael W. Deem and Ramdas Pophale) SiO2 
 PCOD9228414
Probable space group: P 2/C
;
_chemical_formula_sum "Si O2"
_cell_formula_units_Z 26
_cell_length_a 15.338295
_cell_length_b 12.044082
_cell_length_c 21.732327
_cell_angle_alpha 90.000000
_cell_angle_beta 17.683837
_cell_angle_gamma 90.000000
_cell_volume 1219.533573
_symmetry_space_group_name_H-M "P 2/C"
_symmetry_group_IT_number 13
_symmetry_cell_setting 'monoclinic'
loop_
_space_group_symop_operation_xyz
x,y,z
-x,y,1/2-z
-x,-y,-z
x,-y,1/2+z
loop_
_atom_site_type_symbol
_atom_site_label
_atom_site_fract_x
_atom_site_fract_y
_atom_site_fract_z
Si Si1 0.298423 0.772121 0.131669
Si Si2 0.816489 0.883026 0.059969
Si Si3 0.673159 0.954400 0.290355
Si Si4 0.818836 0.371345 0.559363
Si Si5 0.906979 0.591543 0.144507
Si Si6 0.500000 0.722160 0.750000
Si Si7 0.648175 0.161648 0.033154
O O1 0.415120 0.868597 0.097715
O O2 0.288420 0.657296 0.175536
O O3 0.972048 0.813634 0.336329
O O4 0.426758 0.768001 0.977381
O O5 0.500000 0.915281 0.250000
O O6 0.792902 0.890963 0.149901
O O7 0.874836 0.755747 0.003889
O O8 0.062009 0.964588 0.870326
O O9 0.418565 0.035834 0.440516
O O10 0.500000 0.398516 0.750000
O O11 0.818675 0.384539 0.633555
O O12 0.045806 0.460231 0.380894
O O13 0.220625 0.646420 0.943154
O O14 0.537910 0.799360 0.784053
#
# Coordination Sequence:
#
# PCOD9228414 Si02
#       7
#     4   4   4   4   4   2   4
#     4  10  21  38  53  88 113 158 186 241 291 341
#     4  10  21  32  53  89 117 145 192 234 278 337
#     4  11  20  34  56  83 118 158 183 236 282 349
#     4  10  19  34  54  88 112 150 192 241 291 334
#     4  10  19  35  59  83 115 144 196 241 287 346
#     4  10  20  36  60  90 104 148 196 244 278 350
#     4  10  22  34  58  84 120 144 198 235 287 344
#
# _framework density 21.319627000000001
#
# number of rings (size 3 to 8) (size 9 to 14) (size 15 to 20)
#    0.000    1.846    2.308    2.308    7.538    0.000 
#    0.000    0.000    0.000    8.308    0.000    0.000 
#    0.000    0.000    0.000    0.000    0.000    0.000 
#
# Total GULP energy -145268.500357 kJ/mol
# GULP energy per Si atom -5587.250014 kJ/mol
# Density = 2.127110 g / cm^3
# Si number density = 21.319627 Si / 1000 Ang^3
#
#
#
# Elastic Constant Matrix: (Units=GPa)
#
#
# Indices 1 2 3 4 5 6 
#
# 1 98.8320 44.6654 18.1643 0.0000 11.6504 0.0000
# 2 44.6654 114.5115 9.9872 0.0000 9.6465 0.0000
# 3 18.1643 9.9872 32.3592 0.0000 -2.1381 0.0000
# 4 0.0000 0.0000 0.0000 48.4178 0.0000 63.1925
# 5 11.6504 9.6465 -2.1381 0.0000 42.6839 0.0000
# 6 0.0000 0.0000 0.0000 63.1925 0.0000 179.1885
#
#
#
# Elastic Compliance Matrix: (Units=1/GPa)
#
#
# Indices 1 2 3 4 5 6 
#
# 1 0.013719 -0.004527 -0.006505 0.000000 -0.003047 0.000000
# 2 -0.004527 0.010674 -0.000834 0.000000 -0.001218 0.000000
# 3 -0.006505 -0.000834 0.035058 0.000000 0.003720 0.000000
# 4 0.000000 0.000000 0.000000 0.038267 0.000000 -0.013495
# 5 -0.003047 -0.001218 0.003720 0.000000 0.024721 0.000000
# 6 0.000000 0.000000 0.000000 -0.013495 0.000000 0.010340
#
#
# Mechanical properties :
#
#
# Convention : Reuss Voigt Hill
#
# Bulk Modulus (GPa) = 27.99630 43.48185 35.73907
# Shear Modulus (GPa) = 29.68834 65.58375 47.63605
#
# Velocity S-wave (km/s) = 3.73572 5.55238 4.73205
# Velocity P-wave (km/s) = 5.63628 7.84505 6.83053
#
# Compressibility (1/GPa) = 0.03571901
#
# Stress axis : x y z
#
# Youngs Moduli (GPa) = 72.89234 93.68676 28.52441
#
# Poissons Ratio (x) = 0.42412 0.18555
# Poissons Ratio (y) = 0.32999 0.02378
# Poissons Ratio (z) = 0.47417 0.07810
#
# Static dielectric constant tensor:
#      x y z
#    x 1.775020 0.000000 0.007750 
#    y 0.000000 1.787470 0.000000 
#    z 0.007750 0.000000 1.809940 
# 
# From -- ./inp_files/76201.got.cif
#   From: 2010.05.17/outbox.cif.g08.bks.cpg/sg13_39_cif.got.tgz:76201.got - 2010.06.03 16:44:36.
