data_PCOD9228147
_publ_section_title
;
Structure prediction by ZEFSAII (Michael W. Deem and Ramdas Pophale) SiO2 
 PCOD9228147
Probable space group: P 2/C
;
_chemical_formula_sum "Si O2"
_cell_formula_units_Z 32
_cell_length_a 18.262000
_cell_length_b 12.073441
_cell_length_c 9.316368
_cell_angle_alpha 90.000000
_cell_angle_beta 43.691905
_cell_angle_gamma 90.000000
_cell_volume 1418.946288
_symmetry_space_group_name_H-M "P 2/C"
_symmetry_group_IT_number 13
_symmetry_cell_setting 'monoclinic'
loop_
_space_group_symop_operation_xyz
x,y,z
-x,y,1/2-z
-x,-y,-z
x,-y,1/2+z
loop_
_atom_site_type_symbol
_atom_site_label
_atom_site_fract_x
_atom_site_fract_y
_atom_site_fract_z
Si Si1 0.819482 0.977304 0.285010
Si Si2 0.735903 0.138187 0.158801
Si Si3 0.376850 0.712144 0.453268
Si Si4 0.768085 0.380826 0.573991
Si Si5 0.427808 0.465935 0.471528
Si Si6 0.126939 0.487060 0.832714
Si Si7 0.902169 0.306294 0.979696
Si Si8 0.008929 0.840299 0.892479
O O1 0.766301 0.048659 0.235742
O O2 0.905594 0.058246 0.241242
O O3 0.730192 0.927853 0.517623
O O4 0.897016 0.887544 0.103520
O O5 0.657220 0.221056 0.354927
O O6 0.836631 0.217123 0.985590
O O7 0.500000 0.748224 0.250000
O O8 0.282759 0.714852 0.462290
O O9 0.388202 0.580050 0.457847
O O10 0.666419 0.403917 0.818214
O O11 0.850193 0.381853 0.595604
O O12 0.815288 0.476985 0.398527
O O13 0.500000 0.500000 0.500000
O O14 0.500000 0.405859 0.250000
O O15 0.164777 0.591093 0.874924
O O16 0.000000 0.500000 0.000000
O O17 0.944739 0.242933 0.057789
O O18 0.000000 0.347105 0.750000
O O19 0.000000 0.788214 0.750000
#
# Coordination Sequence:
#
# PCOD9228147 Si02
#       8
#     4   4   4   4   4   4   4   4
#     4  10  20  34  61  88 121 168 207 259 331 389
#     4  11  21  40  63  90 128 162 212 271 336 390
#     4  11  23  41  71  98 123 164 226 280 333 382
#     4  12  21  41  64  90 130 177 215 264 326 384
#     4  11  19  37  69  98 122 158 218 279 329 366
#     4  12  26  41  59  90 139 186 221 245 320 411
#     4  11  21  37  59  85 124 171 212 260 312 377
#     4  10  19  32  57  91 120 157 221 266 301 376
#
# _framework density 22.551943999999999
#
# number of rings (size 3 to 8) (size 9 to 14) (size 15 to 20)
#    0.000    1.000    7.500    1.125    0.000    1.000 
#    0.000    0.625    5.500    0.000    0.000    0.000 
#    0.000    0.000    0.000    0.000    0.000    0.000 
#
# Total GULP energy -178186.944040 kJ/mol
# GULP energy per Si atom -5568.342001 kJ/mol
# Density = 2.250062 g / cm^3
# Si number density = 22.551944 Si / 1000 Ang^3
#
#
#
# Elastic Constant Matrix: (Units=GPa)
#
#
# Indices 1 2 3 4 5 6 
#
# 1 66.0165 -16.1827 22.8564 0.0000 -9.9974 0.0000
# 2 -16.1827 46.2834 26.7792 0.0000 2.4883 0.0000
# 3 22.8564 26.7792 189.1889 0.0000 6.0420 0.0000
# 4 0.0000 0.0000 0.0000 29.1274 0.0000 -0.8178
# 5 -9.9974 2.4883 6.0420 0.0000 32.5866 0.0000
# 6 0.0000 0.0000 0.0000 -0.8178 0.0000 4.9565
#
#
#
# Elastic Compliance Matrix: (Units=1/GPa)
#
#
# Indices 1 2 3 4 5 6 
#
# 1 0.019493 0.008676 -0.003775 0.000000 0.006018 0.000000
# 2 0.008676 0.027441 -0.004980 0.000000 0.001490 0.000000
# 3 -0.003775 -0.004980 0.006510 0.000000 -0.001985 0.000000
# 4 0.000000 0.000000 0.000000 0.034492 0.000000 0.005691
# 5 0.006018 0.001490 -0.001985 0.000000 0.032788 0.000000
# 6 0.000000 0.000000 0.000000 0.005691 0.000000 0.202694
#
#
# Mechanical properties :
#
#
# Convention : Reuss Voigt Hill
#
# Bulk Modulus (GPa) = 18.76652 40.93271 29.84962
# Shear Modulus (GPa) = 14.64826 31.20316 22.92571
#
# Velocity S-wave (km/s) = 2.55136 3.72373 3.19183
# Velocity P-wave (km/s) = 4.12538 6.05624 5.18155
#
# Compressibility (1/GPa) = 0.05328637
#
# Stress axis : x y z
#
# Youngs Moduli (GPa) = 51.30045 36.44187 153.60688
#
# Poissons Ratio (x) = -0.31619 0.57991
# Poissons Ratio (y) = -0.44511 0.76496
# Poissons Ratio (z) = 0.19368 0.18148
#
# Static dielectric constant tensor:
#      x y z
#    x 1.902180 0.000000 -0.076590 
#    y 0.000000 1.891070 0.000000 
#    z -0.076590 0.000000 1.976520 
# 
# From -- ./inp_files/23551.got.cif
#   From: 2010.05.17/outbox.cif.g08.bks.cpg/sg13_12_cif.got.tgz:23551.got - 2010.06.03 16:44:36.
