data_PCOD9228690
_publ_section_title
;
Structure prediction by ZEFSAII (Michael W. Deem and Ramdas Pophale) SiO2 
 PCOD9228690
Probable space group: P 2/C
;
_chemical_formula_sum "Si O2"
_cell_formula_units_Z 28
_cell_length_a 12.182933
_cell_length_b 5.592944
_cell_length_c 28.898430
_cell_angle_alpha 90.000000
_cell_angle_beta 146.476654
_cell_angle_gamma 90.000000
_cell_volume 1087.485090
_symmetry_space_group_name_H-M "P 2/C"
_symmetry_group_IT_number 13
_symmetry_cell_setting 'monoclinic'
loop_
_space_group_symop_operation_xyz
x,y,z
-x,y,1/2-z
-x,-y,-z
x,-y,1/2+z
loop_
_atom_site_type_symbol
_atom_site_label
_atom_site_fract_x
_atom_site_fract_y
_atom_site_fract_z
Si Si1 0.872799 0.489904 0.787184
Si Si2 0.831653 0.739939 0.960835
Si Si3 0.450639 0.975015 0.929016
Si Si4 0.191906 0.591711 0.127771
Si Si5 0.127856 0.997653 0.737606
Si Si6 0.510312 0.048134 0.804759
Si Si7 0.462800 0.525890 0.084135
O O1 0.824363 0.468910 0.824385
O O2 0.971133 0.743551 0.808985
O O3 0.663499 0.486593 0.685696
O O4 0.983864 0.249519 0.809142
O O5 0.870628 0.635848 0.923924
O O6 0.665274 0.935286 0.894686
O O7 0.728230 0.527420 0.952615
O O8 0.029852 0.797044 0.058166
O O9 0.548538 0.215569 0.942413
O O10 0.236421 0.983880 0.825909
O O11 0.526364 0.708707 0.943873
O O12 0.500000 0.000000 0.000000
O O13 0.392666 0.698324 0.175848
O O14 0.303352 0.023013 0.759366
O O15 0.500000 0.924037 0.750000
#
# Coordination Sequence:
#
# PCOD9228690 Si02
#       7
#     4   4   4   4   4   4   4
#     4  10  19  37  53  80 108 150 197 229 281 333
#     4  11  24  37  50  81 123 153 202 240 289 349
#     4  10  19  35  59  90 113 138 187 249 304 341
#     4  11  24  35  52  81 115 166 196 242 282 343
#     4  10  20  34  57  83 110 144 194 236 283 339
#     4  12  21  34  58  80 116 163 199 237 283 344
#     4  10  21  36  59  83 115 149 188 242 293 348
#
# _framework density 25.747482999999999
#
# number of rings (size 3 to 8) (size 9 to 14) (size 15 to 20)
#    0.000    1.429    4.286    3.429    0.000    0.000 
#    0.000    0.000    0.000    0.000    0.000   24.000 
#    0.000    0.000    0.000    0.000    0.000    0.000 
#
# Total GULP energy -156399.958738 kJ/mol
# GULP energy per Si atom -5585.712812 kJ/mol
# Density = 2.568888 g / cm^3
# Si number density = 25.747483 Si / 1000 Ang^3
#
#
#
# Elastic Constant Matrix: (Units=GPa)
#
#
# Indices 1 2 3 4 5 6 
#
# 1 55.1908 36.9256 37.5233 0.0000 -37.7957 0.0000
# 2 36.9256 193.2609 34.9994 0.0000 -24.9564 0.0000
# 3 37.5233 34.9994 92.7701 0.0000 -43.7362 0.0000
# 4 0.0000 0.0000 0.0000 24.9009 0.0000 -12.1763
# 5 -37.7957 -24.9564 -43.7362 0.0000 45.7751 0.0000
# 6 0.0000 0.0000 0.0000 -12.1763 0.0000 38.5800
#
#
#
# Elastic Compliance Matrix: (Units=1/GPa)
#
#
# Indices 1 2 3 4 5 6 
#
# 1 0.044448 -0.004016 -0.000352 0.000000 0.034175 0.000000
# 2 -0.004016 0.006006 -0.001203 0.000000 -0.001191 0.000000
# 3 -0.000352 -0.001203 0.019888 0.000000 0.018056 0.000000
# 4 0.000000 0.000000 0.000000 0.047488 0.000000 0.014988
# 5 0.034175 -0.001191 0.018056 0.000000 0.066666 0.000000
# 6 0.000000 0.000000 0.000000 0.014988 0.000000 0.030650
#
#
# Mechanical properties :
#
#
# Convention : Reuss Voigt Hill
#
# Bulk Modulus (GPa) = 16.89162 62.23539 39.56350
# Shear Modulus (GPa) = 20.32354 37.30275 28.81315
#
# Velocity S-wave (km/s) = 2.81257 3.81043 3.34887
# Velocity P-wave (km/s) = 4.13789 6.60175 5.50932
#
# Compressibility (1/GPa) = 0.05920096
#
# Stress axis : x y z
#
# Youngs Moduli (GPa) = 22.49805 166.50835 50.28239
#
# Poissons Ratio (x) = 0.66866 0.01769
# Poissons Ratio (y) = 0.09035 0.06048
# Poissons Ratio (z) = 0.00791 0.20029
#
# Static dielectric constant tensor:
#      x y z
#    x 2.074240 0.000000 0.032920 
#    y 0.000000 2.158160 0.000000 
#    z 0.032920 0.000000 2.072340 
# 
# From -- ./inp_files/96802.got.cif
#   From: 2010.05.17/outbox.cif.g08.bks.cpg/sg13_49_cif.got.tgz:96802.got - 2010.06.03 16:44:36.
