data_PCOD9228475
_publ_section_title
;
Structure prediction by ZEFSAII (Michael W. Deem and Ramdas Pophale) SiO2 
 PCOD9228475
Probable space group: P 2/C
;
_chemical_formula_sum "Si O2"
_cell_formula_units_Z 18
_cell_length_a 7.753871
_cell_length_b 21.066433
_cell_length_c 5.642992
_cell_angle_alpha 90.000000
_cell_angle_beta 61.477928
_cell_angle_gamma 90.000000
_cell_volume 809.891121
_symmetry_space_group_name_H-M "P 2/C"
_symmetry_group_IT_number 13
_symmetry_cell_setting 'monoclinic'
loop_
_space_group_symop_operation_xyz
x,y,z
-x,y,1/2-z
-x,-y,-z
x,-y,1/2+z
loop_
_atom_site_type_symbol
_atom_site_label
_atom_site_fract_x
_atom_site_fract_y
_atom_site_fract_z
Si Si1 0.500000 0.265832 0.250000
Si Si2 0.000000 0.748981 0.750000
Si Si3 0.794417 0.170068 0.017710
Si Si4 0.228869 0.023420 0.360699
Si Si5 0.292821 0.348641 0.015698
Si Si6 0.000000 0.461932 0.250000
O O1 0.372707 0.214842 0.485349
O O2 0.649712 0.313125 0.279614
O O3 0.845958 0.796127 0.730911
O O4 0.129974 0.699205 0.509779
O O5 0.000000 0.172814 0.750000
O O6 0.746766 0.097021 0.088409
O O7 0.305780 0.986989 0.543336
O O8 0.000000 0.000000 0.500000
O O9 0.500000 0.353824 0.750000
O O10 0.188745 0.415527 0.120152
O O11 0.000000 0.500000 0.500000
#
# Coordination Sequence:
#
# PCOD9228475 Si02
#       6
#     2   2   4   4   4   2
#     4  10  24  40  62 104 122 172 224 268 338 380
#     4   9  20  36  58  94 118 173 218 268 332 389
#     4  11  20  35  62  83 125 163 222 276 329 402
#     4  10  19  34  57  84 116 167 216 264 334 391
#     4  10  22  43  68  95 140 171 215 273 323 378
#     4  11  28  48  74 108 136 179 226 254 312 393
#
# _framework density 22.225207999999999
#
# number of rings (size 3 to 8) (size 9 to 14) (size 15 to 20)
#    0.000    1.778    2.222    2.667    3.111    0.889 
#    4.000    1.111    0.000    0.000    0.000    0.000 
#    0.000    0.000    0.000    0.000    0.000    0.000 
#
# Total GULP energy -100267.274157 kJ/mol
# GULP energy per Si atom -5570.404120 kJ/mol
# Density = 2.217462 g / cm^3
# Si number density = 22.225208 Si / 1000 Ang^3
#
#
#
# Elastic Constant Matrix: (Units=GPa)
#
#
# Indices 1 2 3 4 5 6 
#
# 1 95.5762 37.4635 15.8699 0.0000 -15.4785 0.0000
# 2 37.4635 156.9467 44.4663 0.0000 -9.9730 0.0000
# 3 15.8699 44.4663 99.5462 0.0000 -10.0030 0.0000
# 4 0.0000 0.0000 0.0000 30.2595 0.0000 1.9631
# 5 -15.4785 -9.9730 -10.0030 0.0000 35.8894 0.0000
# 6 0.0000 0.0000 0.0000 1.9631 0.0000 35.7624
#
#
#
# Elastic Compliance Matrix: (Units=1/GPa)
#
#
# Indices 1 2 3 4 5 6 
#
# 1 0.012242 -0.002533 -0.000371 0.000000 0.004472 0.000000
# 2 -0.002533 0.007865 -0.003086 0.000000 0.000233 0.000000
# 3 -0.000371 -0.003086 0.011709 0.000000 0.002246 0.000000
# 4 0.000000 0.000000 0.000000 0.033166 0.000000 -0.001821
# 5 0.004472 0.000233 0.002246 0.000000 0.030483 0.000000
# 6 0.000000 0.000000 0.000000 -0.001821 0.000000 0.028062
#
#
# Mechanical properties :
#
#
# Convention : Reuss Voigt Hill
#
# Bulk Modulus (GPa) = 50.41260 60.85204 55.63232
# Shear Modulus (GPa) = 35.18193 37.33355 36.25774
#
# Velocity S-wave (km/s) = 3.98298 4.10296 4.04342
# Velocity P-wave (km/s) = 6.62450 7.06293 6.84722
#
# Compressibility (1/GPa) = 0.01983631
#
# Stress axis : x y z
#
# Youngs Moduli (GPa) = 81.68909 127.13960 85.40486
#
# Poissons Ratio (x) = 0.32202 0.03167
# Poissons Ratio (y) = 0.20691 0.26357
# Poissons Ratio (z) = 0.03029 0.39237
#
# Static dielectric constant tensor:
#      x y z
#    x 1.972600 0.000000 -0.031360 
#    y 0.000000 1.761190 0.000000 
#    z -0.031360 0.000000 1.871480 
# 
# From -- ./inp_files/1504.got.cif
#   From: 2010.05.17/outbox.cif.g08.bks.cpg/sg13_1_cif.got.tgz:1504.got - 2010.06.03 16:44:36.
