data_PCOD9228771
_publ_section_title
;
Structure prediction by ZEFSAII (Michael W. Deem and Ramdas Pophale) SiO2 
 PCOD9228771
Probable space group: P 2/C
;
_chemical_formula_sum "Si O2"
_cell_formula_units_Z 26
_cell_length_a 8.186607
_cell_length_b 9.589461
_cell_length_c 14.684127
_cell_angle_alpha 90.000000
_cell_angle_beta 93.713984
_cell_angle_gamma 90.000000
_cell_volume 1150.358548
_symmetry_space_group_name_H-M "P 2/C"
_symmetry_group_IT_number 13
_symmetry_cell_setting 'monoclinic'
loop_
_space_group_symop_operation_xyz
x,y,z
-x,y,1/2-z
-x,-y,-z
x,-y,1/2+z
loop_
_atom_site_type_symbol
_atom_site_label
_atom_site_fract_x
_atom_site_fract_y
_atom_site_fract_z
Si Si1 0.500000 0.877777 0.750000
Si Si2 0.774458 0.042341 0.955738
Si Si3 0.596467 0.084127 0.621914
Si Si4 0.149457 0.415236 0.302256
Si Si5 0.019008 0.786733 0.564159
Si Si6 0.440297 0.409592 0.853616
Si Si7 0.666535 0.345118 0.376000
O O1 0.456114 0.779992 0.659956
O O2 0.629644 0.987746 0.711522
O O3 0.598196 0.063300 0.905011
O O4 0.894853 0.934444 0.909717
O O5 0.884684 0.177507 0.982501
O O6 0.718375 0.971432 0.049102
O O7 0.597206 0.250548 0.625644
O O8 0.271334 0.509880 0.361554
O O9 0.251632 0.363300 0.219998
O O10 0.000000 0.496659 0.250000
O O11 0.077186 0.290293 0.358857
O O12 0.182857 0.694862 0.553430
O O13 0.500000 0.408027 0.750000
O O14 0.575619 0.513751 0.901886
#
# Coordination Sequence:
#
# PCOD9228771 Si02
#       7
#     2   4   4   4   4   4   4
#     4  12  18  34  66  92 108 150 206 246 300 360
#     4  10  23  40  59  85 130 158 207 246 300 361
#     4  11  23  39  62  90 121 161 200 256 304 355
#     4   9  18  34  60  88 119 152 199 251 301 348
#     4  10  20  39  59  84 117 168 193 244 298 360
#     4  10  20  38  59  92 123 148 198 260 307 351
#     4  10  19  35  63  91 115 150 207 251 295 361
#
# _framework density 22.601648000000001
#
# number of rings (size 3 to 8) (size 9 to 14) (size 15 to 20)
#    0.000    1.846    4.615    0.923    0.000    0.000 
#    0.000   15.385    0.000    0.000    0.000    0.000 
#    0.000    0.000    0.000    0.000    0.000    0.000 
#
# Total GULP energy -144748.741402 kJ/mol
# GULP energy per Si atom -5567.259285 kJ/mol
# Density = 2.255021 g / cm^3
# Si number density = 22.601648 Si / 1000 Ang^3
#
#
#
# Elastic Constant Matrix: (Units=GPa)
#
#
# Indices 1 2 3 4 5 6 
#
# 1 89.5514 18.7628 15.8828 0.0000 1.5436 0.0000
# 2 18.7628 83.0262 23.3578 0.0000 -17.1431 0.0000
# 3 15.8828 23.3578 52.2545 0.0000 -17.4740 0.0000
# 4 0.0000 0.0000 0.0000 16.7384 0.0000 -8.0091
# 5 1.5436 -17.1431 -17.4740 0.0000 23.3324 0.0000
# 6 0.0000 0.0000 0.0000 -8.0091 0.0000 20.8164
#
#
#
# Elastic Compliance Matrix: (Units=1/GPa)
#
#
# Indices 1 2 3 4 5 6 
#
# 1 0.012728 -0.002885 -0.004762 0.000000 -0.006528 0.000000
# 2 -0.002885 0.015445 -0.002893 0.000000 0.009372 0.000000
# 3 -0.004762 -0.002893 0.028380 0.000000 0.019443 0.000000
# 4 0.000000 0.000000 0.000000 0.073223 0.000000 0.028173
# 5 -0.006528 0.009372 0.019443 0.000000 0.064739 0.000000
# 6 0.000000 0.000000 0.000000 0.028173 0.000000 0.058878
#
#
# Mechanical properties :
#
#
# Convention : Reuss Voigt Hill
#
# Bulk Modulus (GPa) = 28.19028 37.87101 33.03065
# Shear Modulus (GPa) = 17.46430 23.29934 20.38182
#
# Velocity S-wave (km/s) = 2.78276 3.21420 3.00623
# Velocity P-wave (km/s) = 4.77753 5.52874 5.16681
#
# Compressibility (1/GPa) = 0.03547322
#
# Stress axis : x y z
#
# Youngs Moduli (GPa) = 78.56499 64.74427 35.23624
#
# Poissons Ratio (x) = 0.18676 0.16781
# Poissons Ratio (y) = 0.22662 0.10195
# Poissons Ratio (z) = 0.37416 0.18732
#
# Static dielectric constant tensor:
#      x y z
#    x 1.917180 0.000000 0.077380 
#    y 0.000000 1.908490 0.000000 
#    z 0.077380 0.000000 1.898170 
# 
# From -- ./inp_files/63791.got.cif
#   From: 2010.05.17/outbox.cif.g08.bks.cpg/sg13_32_cif.got.tgz:63791.got - 2010.06.03 16:44:36.
