data_PCOD9228856
_publ_section_title
;
Structure prediction by ZEFSAII (Michael W. Deem and Ramdas Pophale) SiO2 
 PCOD9228856
Probable space group: P 2/C
;
_chemical_formula_sum "Si O2"
_cell_formula_units_Z 24
_cell_length_a 12.410323
_cell_length_b 12.044617
_cell_length_c 9.113805
_cell_angle_alpha 90.000000
_cell_angle_beta 129.278284
_cell_angle_gamma 90.000000
_cell_volume 1054.536896
_symmetry_space_group_name_H-M "P 2/C"
_symmetry_group_IT_number 13
_symmetry_cell_setting 'monoclinic'
loop_
_space_group_symop_operation_xyz
x,y,z
-x,y,1/2-z
-x,-y,-z
x,-y,1/2+z
loop_
_atom_site_type_symbol
_atom_site_label
_atom_site_fract_x
_atom_site_fract_y
_atom_site_fract_z
Si Si1 0.511140 0.632418 0.030229
Si Si2 0.267514 0.332966 0.516461
Si Si3 0.100992 0.452378 0.956846
Si Si4 0.116354 0.170015 0.570695
Si Si5 0.876648 0.075712 0.516054
Si Si6 0.723293 0.262650 0.507463
O O1 0.620862 0.652232 0.256128
O O2 0.363169 0.677129 0.957180
O O3 0.580217 0.693021 0.952012
O O4 0.500000 0.500000 0.000000
O O5 0.175540 0.443165 0.444944
O O6 0.165573 0.233583 0.469341
O O7 0.218039 0.356177 0.054381
O O8 0.000000 0.401807 0.750000
O O9 0.000000 0.500000 0.000000
O O10 0.182294 0.238159 0.763658
O O11 0.954493 0.155495 0.467039
O O12 0.160250 0.041770 0.586792
O O13 0.741616 0.141768 0.452341
O O14 0.000000 0.060997 0.750000
#
# Coordination Sequence:
#
# PCOD9228856 Si02
#       6
#     4   4   4   4   4   4
#     4  10  19  37  59  80 116 164 204 243 294 359
#     4  10  21  34  57  85 115 160 202 239 300 364
#     4  12  23  36  58  91 127 156 191 251 309 365
#     4   9  18  34  54  81 115 152 194 238 300 357
#     4   9  17  32  58  82 112 152 196 244 298 354
#     4  10  19  36  58  82 114 155 197 240 300 353
#
# _framework density 22.758804000000001
#
# number of rings (size 3 to 8) (size 9 to 14) (size 15 to 20)
#    0.000    2.000    1.667    4.500    0.000    0.667 
#    0.000    2.500    0.000    0.000    0.000    0.000 
#    0.000    0.000    0.000    0.000    0.000    0.000 
#
# Total GULP energy -133757.440990 kJ/mol
# GULP energy per Si atom -5573.226708 kJ/mol
# Density = 2.270700 g / cm^3
# Si number density = 22.758804 Si / 1000 Ang^3
#
#
#
# Elastic Constant Matrix: (Units=GPa)
#
#
# Indices 1 2 3 4 5 6 
#
# 1 172.9211 104.6447 32.1154 0.0000 -4.6558 0.0000
# 2 104.6447 120.8793 6.4676 0.0000 -0.1724 0.0000
# 3 32.1154 6.4676 76.2953 0.0000 -13.9875 0.0000
# 4 0.0000 0.0000 0.0000 18.9939 0.0000 -11.4394
# 5 -4.6558 -0.1724 -13.9875 0.0000 12.9041 0.0000
# 6 0.0000 0.0000 0.0000 -11.4394 0.0000 48.1529
#
#
#
# Elastic Compliance Matrix: (Units=1/GPa)
#
#
# Indices 1 2 3 4 5 6 
#
# 1 0.013687 -0.011589 -0.004870 0.000000 -0.000495 0.000000
# 2 -0.011589 0.018130 0.003269 0.000000 -0.000396 0.000000
# 3 -0.004870 0.003269 0.018178 0.000000 0.017991 0.000000
# 4 0.000000 0.000000 0.000000 0.061439 0.000000 0.014596
# 5 -0.000495 -0.000396 0.017991 0.000000 0.096812 0.000000
# 6 0.000000 0.000000 0.000000 0.014596 0.000000 0.024235
#
#
# Mechanical properties :
#
#
# Convention : Reuss Voigt Hill
#
# Bulk Modulus (GPa) = 42.34603 72.95010 57.64806
# Shear Modulus (GPa) = 18.74532 31.13473 24.94002
#
# Velocity S-wave (km/s) = 2.87305 3.70270 3.31394
# Velocity P-wave (km/s) = 5.44543 7.09952 6.32676
#
# Compressibility (1/GPa) = 0.02361497
#
# Stress axis : x y z
#
# Youngs Moduli (GPa) = 73.05941 55.15691 55.01138
#
# Poissons Ratio (x) = 0.63923 0.26790
# Poissons Ratio (y) = 0.84671 -0.17983
# Poissons Ratio (z) = 0.35579 -0.18030
#
# Static dielectric constant tensor:
#      x y z
#    x 1.932220 0.000000 -0.007670 
#    y 0.000000 1.810690 0.000000 
#    z -0.007670 0.000000 2.003750 
# 
# From -- ./inp_files/33358.got.cif
#   From: 2010.05.17/outbox.cif.g08.bks.cpg/sg13_17_cif.got.tgz:33358.got - 2010.06.03 16:44:36.
