data_PCOD9228309
_publ_section_title
;
Structure prediction by ZEFSAII (Michael W. Deem and Ramdas Pophale) SiO2 
 PCOD9228309
Probable space group: P 2/C
;
_chemical_formula_sum "Si O2"
_cell_formula_units_Z 28
_cell_length_a 7.873753
_cell_length_b 15.560759
_cell_length_c 11.386315
_cell_angle_alpha 90.000000
_cell_angle_beta 71.725990
_cell_angle_gamma 90.000000
_cell_volume 1324.712827
_symmetry_space_group_name_H-M "P 2/C"
_symmetry_group_IT_number 13
_symmetry_cell_setting 'monoclinic'
loop_
_space_group_symop_operation_xyz
x,y,z
-x,y,1/2-z
-x,-y,-z
x,-y,1/2+z
loop_
_atom_site_type_symbol
_atom_site_label
_atom_site_fract_x
_atom_site_fract_y
_atom_site_fract_z
Si Si1 0.497205 0.404225 0.381233
Si Si2 0.007352 0.644387 0.470641
Si Si3 0.281527 0.045795 0.798385
Si Si4 0.311721 0.048303 0.524044
Si Si5 0.286584 0.241526 0.791734
Si Si6 0.809280 0.503805 0.927365
Si Si7 0.306055 0.749715 0.019988
O O1 0.500000 0.370570 0.250000
O O2 0.334553 0.470315 0.443066
O O3 0.677515 0.457868 0.360304
O O4 0.463636 0.320584 0.470093
O O5 0.927080 0.580844 0.388753
O O6 0.852950 0.713955 0.527571
O O7 0.184827 0.691289 0.392451
O O8 0.060312 0.579624 0.561815
O O9 0.500000 0.039305 0.750000
O O10 0.222832 0.034103 0.673555
O O11 0.237469 0.144526 0.837692
O O12 0.224158 0.987885 0.922410
O O13 0.347889 0.149986 0.496062
O O14 0.500000 0.000000 0.500000
O O15 0.500000 0.249798 0.750000
O O16 0.234414 0.254589 0.668090
#
# Coordination Sequence:
#
# PCOD9228309 Si02
#       7
#     4   4   4   4   4   4   4
#     4  10  21  37  57  82 112 146 191 236 280 344
#     4  10  20  37  57  80 115 149 184 237 292 340
#     4   8  16  30  51  79 107 139 184 233 280 334
#     4   9  17  32  53  79 111 147 191 237 283 339
#     4  10  19  33  57  83 107 143 191 238 283 341
#     4   9  21  38  56  82 111 147 189 233 286 342
#     4  10  21  35  53  84 115 147 190 233 286 343
#
# _framework density 21.136658000000001
#
# number of rings (size 3 to 8) (size 9 to 14) (size 15 to 20)
#    0.000    2.571    0.000    2.143    0.000    6.857 
#    0.000    6.429    0.000    0.000    0.000    0.000 
#    0.000    0.000    0.000    0.000    0.000    0.000 
#
# Total GULP energy -155968.481628 kJ/mol
# GULP energy per Si atom -5570.302915 kJ/mol
# Density = 2.108855 g / cm^3
# Si number density = 21.136658 Si / 1000 Ang^3
#
#
#
# Elastic Constant Matrix: (Units=GPa)
#
#
# Indices 1 2 3 4 5 6 
#
# 1 53.8677 26.2570 5.9220 0.0000 0.1921 0.0000
# 2 26.2570 112.0103 25.5068 0.0000 5.1791 0.0000
# 3 5.9220 25.5068 59.7840 0.0000 15.4407 0.0000
# 4 0.0000 0.0000 0.0000 -17.1703 0.0000 -9.9092
# 5 0.1921 5.1791 15.4407 0.0000 14.1414 0.0000
# 6 0.0000 0.0000 0.0000 -9.9092 0.0000 7.3082
#
#
#
# Elastic Compliance Matrix: (Units=1/GPa)
#
#
# Indices 1 2 3 4 5 6 
#
# 1 0.021003 -0.004899 -0.000529 0.000000 0.002087 0.000000
# 2 -0.004899 0.011051 -0.004459 0.000000 0.000888 0.000000
# 3 -0.000529 -0.004459 0.025429 0.000000 -0.026125 0.000000
# 4 0.000000 0.000000 0.000000 -0.032673 0.000000 -0.044302
# 5 0.002087 0.000888 -0.026125 0.000000 0.098887 0.000000
# 6 0.000000 0.000000 0.000000 -0.044302 0.000000 0.076764
#
#
# Mechanical properties :
#
#
# Convention : Reuss Voigt Hill
#
# Bulk Modulus (GPa) = 26.51947 37.89264 32.20606
# Shear Modulus (GPa) = 21.47725 12.05426 16.76576
#
# Velocity S-wave (km/s) = 3.19111 2.39069 2.81945
# Velocity P-wave (km/s) = 5.11385 5.05835 5.08618
#
# Compressibility (1/GPa) = 0.03770814
#
# Stress axis : x y z
#
# Youngs Moduli (GPa) = 47.61252 90.49352 39.32500
#
# Poissons Ratio (x) = 0.44336 0.02081
# Poissons Ratio (y) = 0.23327 0.17534
# Poissons Ratio (z) = 0.02519 0.40348
#
# Static dielectric constant tensor:
#      x y z
#    x 1.829470 0.000000 0.032880 
#    y 0.000000 1.752710 0.000000 
#    z 0.032880 0.000000 1.765900 
# 
# From -- ./inp_files/30100.got.cif
#   From: 2010.05.17/outbox.cif.g08.bks.cpg/sg13_16_cif.got.tgz:30100.got - 2010.06.03 16:44:36.
