data_PCOD9228358
_publ_section_title
;
Structure prediction by ZEFSAII (Michael W. Deem and Ramdas Pophale) SiO2 
 PCOD9228358
Probable space group: P 2/C
;
_chemical_formula_sum "Si O2"
_cell_formula_units_Z 32
_cell_length_a 8.289027
_cell_length_b 13.233466
_cell_length_c 13.886743
_cell_angle_alpha 90.000000
_cell_angle_beta 119.277467
_cell_angle_gamma 90.000000
_cell_volume 1328.692077
_symmetry_space_group_name_H-M "P 2/C"
_symmetry_group_IT_number 13
_symmetry_cell_setting 'monoclinic'
loop_
_space_group_symop_operation_xyz
x,y,z
-x,y,1/2-z
-x,-y,-z
x,-y,1/2+z
loop_
_atom_site_type_symbol
_atom_site_label
_atom_site_fract_x
_atom_site_fract_y
_atom_site_fract_z
Si Si1 0.787295 0.520694 0.204880
Si Si2 0.214122 0.072510 0.291755
Si Si3 0.515114 0.899088 0.136809
Si Si4 0.318339 0.703467 0.814557
Si Si5 0.104863 0.597124 0.065833
Si Si6 0.480079 0.672795 0.126736
Si Si7 0.797677 0.954179 0.938170
Si Si8 0.248358 0.726888 0.565916
O O1 0.764748 0.403054 0.174379
O O2 0.777165 0.545574 0.314663
O O3 0.619803 0.591550 0.120273
O O4 0.000000 0.552297 0.250000
O O5 0.270015 0.185363 0.342087
O O6 0.251458 0.068039 0.187767
O O7 0.000000 0.059559 0.250000
O O8 0.324341 0.972332 0.353267
O O9 0.500000 0.893834 0.250000
O O10 0.528702 0.784921 0.106216
O O11 0.330461 0.959025 0.056556
O O12 0.243395 0.712249 0.681629
O O13 0.540298 0.691869 0.889158
O O14 0.263893 0.648048 0.047839
O O15 0.000000 0.500000 0.000000
O O16 0.932864 0.673041 0.031669
O O17 0.500000 0.678716 0.250000
O O18 0.770209 0.843171 0.972127
O O19 0.000000 0.000000 0.000000
#
# Coordination Sequence:
#
# PCOD9228358 Si02
#       8
#     4   4   4   4   4   4   4   4
#     4  11  23  38  58  83 118 154 186 235 295 347
#     4  10  20  35  59  84 113 152 187 230 284 343
#     4   9  17  35  55  80 108 144 191 227 269 334
#     4  10  19  36  59  86 115 148 195 235 287 340
#     4  11  20  36  59  87 111 146 199 235 282 335
#     4   9  20  35  56  80 112 152 190 233 278 343
#     4  10  19  34  58  85 110 144 190 235 279 327
#     4  10  19  33  62  87 109 148 196 244 275 335
#
# _framework density 24.083836000000002
#
# number of rings (size 3 to 8) (size 9 to 14) (size 15 to 20)
#    0.000    2.000    2.500    1.875    3.500    1.500 
#    0.000    3.125    2.750    0.000    0.000    0.000 
#    0.000    0.000    0.000    0.000    0.000    0.000 
#
# Total GULP energy -178508.151853 kJ/mol
# GULP energy per Si atom -5578.379745 kJ/mol
# Density = 2.402902 g / cm^3
# Si number density = 24.083836 Si / 1000 Ang^3
#
#
#
# Elastic Constant Matrix: (Units=GPa)
#
#
# Indices 1 2 3 4 5 6 
#
# 1 84.0403 64.5003 21.7784 0.0000 42.8115 0.0000
# 2 64.5003 208.6330 46.0309 0.0000 36.0565 0.0000
# 3 21.7784 46.0309 73.1461 0.0000 11.7498 0.0000
# 4 0.0000 0.0000 0.0000 5.4797 0.0000 8.3190
# 5 42.8115 36.0565 11.7498 0.0000 62.5140 0.0000
# 6 0.0000 0.0000 0.0000 8.3190 0.0000 21.6631
#
#
#
# Elastic Compliance Matrix: (Units=1/GPa)
#
#
# Indices 1 2 3 4 5 6 
#
# 1 0.021825 -0.004232 -0.001883 0.000000 -0.012152 0.000000
# 2 -0.004232 0.006840 -0.002966 0.000000 -0.000490 0.000000
# 3 -0.001883 -0.002966 0.016103 0.000000 -0.000026 0.000000
# 4 0.000000 0.000000 0.000000 0.437621 0.000000 -0.168054
# 5 -0.012152 -0.000490 -0.000026 0.000000 0.024606 0.000000
# 6 0.000000 0.000000 0.000000 -0.168054 0.000000 0.110697
#
#
# Mechanical properties :
#
#
# Convention : Reuss Voigt Hill
#
# Bulk Modulus (GPa) = 37.58482 70.04872 53.81677
# Shear Modulus (GPa) = 7.75527 33.49870 20.62698
#
# Velocity S-wave (km/s) = 1.79641 3.73355 2.92972
# Velocity P-wave (km/s) = 4.46570 6.90901 5.81708
#
# Compressibility (1/GPa) = 0.02660649
#
# Stress axis : x y z
#
# Youngs Moduli (GPa) = 45.81830 146.18890 62.10143
#
# Poissons Ratio (x) = 0.61865 0.11694
# Poissons Ratio (y) = 0.19390 0.18420
# Poissons Ratio (z) = 0.08628 0.43360
#
# Static dielectric constant tensor:
#      x y z
#    x 2.023920 0.000000 -0.357970 
#    y 0.000000 1.821470 0.000000 
#    z -0.357970 0.000000 4.186820 
# 
# From -- ./inp_files/76456.got.cif
#   From: 2010.05.17/outbox.cif.g08.bks.cpg/sg13_39_cif.got.tgz:76456.got - 2010.06.03 16:44:36.
