data_PCOD9228496
_publ_section_title
;
Structure prediction by ZEFSAII (Michael W. Deem and Ramdas Pophale) SiO2 
 PCOD9228496
Probable space group: P 2/C
;
_chemical_formula_sum "Si O2"
_cell_formula_units_Z 32
_cell_length_a 18.204336
_cell_length_b 6.923335
_cell_length_c 30.523370
_cell_angle_alpha 90.000000
_cell_angle_beta 27.775176
_cell_angle_gamma 90.000000
_cell_volume 1792.716857
_symmetry_space_group_name_H-M "P 2/C"
_symmetry_group_IT_number 13
_symmetry_cell_setting 'monoclinic'
loop_
_space_group_symop_operation_xyz
x,y,z
-x,y,1/2-z
-x,-y,-z
x,-y,1/2+z
loop_
_atom_site_type_symbol
_atom_site_label
_atom_site_fract_x
_atom_site_fract_y
_atom_site_fract_z
Si Si1 0.172733 0.435381 0.178250
Si Si2 0.293715 0.305296 0.686993
Si Si3 0.601306 0.571285 0.517918
Si Si4 0.393080 0.092209 0.094525
Si Si5 0.404423 0.833941 0.757634
Si Si6 0.183745 0.490668 0.411049
Si Si7 0.652018 0.243578 0.745013
Si Si8 0.362739 0.513247 0.904299
O O1 0.173582 0.576445 0.220026
O O2 0.262002 0.238159 0.144494
O O3 0.000000 0.402859 0.250000
O O4 0.282097 0.537790 0.083893
O O5 0.462068 0.411238 0.589649
O O6 0.264441 0.312979 0.754376
O O7 0.313432 0.084134 0.662161
O O8 0.510241 0.774506 0.561488
O O9 0.685193 0.546148 0.520383
O O10 0.500000 0.000000 0.000000
O O11 0.500000 0.905328 0.750000
O O12 0.260667 0.704016 0.850778
O O13 0.520704 0.689048 0.670709
O O14 0.350778 0.014518 0.757784
O O15 0.268787 0.661618 0.339244
O O16 0.229641 0.499214 0.437843
O O17 0.000000 0.500000 0.500000
O O18 0.473990 0.324835 0.842118
#
# Coordination Sequence:
#
# PCOD9228496 Si02
#       8
#     4   4   4   4   4   4   4   4
#     4  11  23  36  54  82 118 148 178 227 284 337
#     4  10  20  36  58  82 105 142 188 231 273 331
#     4  10  19  35  57  81 106 145 187 231 274 332
#     4  11  18  36  61  80 109 143 192 231 276 327
#     4   9  17  33  55  79 105 135 181 231 268 314
#     4  10  21  35  53  77 114 148 175 220 280 332
#     4  10  19  34  58  81 103 137 187 230 270 318
#     4   9  19  34  55  81 104 139 186 229 270 320
#
# _framework density 17.850003000000001
#
# number of rings (size 3 to 8) (size 9 to 14) (size 15 to 20)
#    0.000    2.000    2.500    3.375    0.000    3.000 
#    0.000    0.000    0.000    1.500    0.000    0.000 
#    0.000    0.000    0.000    0.000    0.000    0.000 
#
# Total GULP energy -178544.187806 kJ/mol
# GULP energy per Si atom -5579.505869 kJ/mol
# Density = 1.780938 g / cm^3
# Si number density = 17.850003 Si / 1000 Ang^3
#
#
#
# Elastic Constant Matrix: (Units=GPa)
#
#
# Indices 1 2 3 4 5 6 
#
# 1 138.8828 41.4037 31.8065 0.0000 -1.4359 0.0000
# 2 41.4037 93.3961 10.5790 0.0000 -5.0174 0.0000
# 3 31.8065 10.5790 22.2341 0.0000 -9.8489 0.0000
# 4 0.0000 0.0000 0.0000 8.1682 0.0000 4.8093
# 5 -1.4359 -5.0174 -9.8489 0.0000 25.1873 0.0000
# 6 0.0000 0.0000 0.0000 4.8093 0.0000 23.6157
#
#
#
# Elastic Compliance Matrix: (Units=1/GPa)
#
#
# Indices 1 2 3 4 5 6 
#
# 1 0.012859 -0.003853 -0.020051 0.000000 -0.007875 0.000000
# 2 -0.003853 0.012472 0.000702 0.000000 0.002539 0.000000
# 3 -0.020051 0.000702 0.088150 0.000000 0.033466 0.000000
# 4 0.000000 0.000000 0.000000 0.139106 0.000000 -0.028329
# 5 -0.007875 0.002539 0.033466 0.000000 0.052845 0.000000
# 6 0.000000 0.000000 0.000000 -0.028329 0.000000 0.048114
#
#
# Mechanical properties :
#
#
# Convention : Reuss Voigt Hill
#
# Bulk Modulus (GPa) = 14.90810 46.89906 30.90358
# Shear Modulus (GPa) = 11.83967 22.77581 17.30774
#
# Velocity S-wave (km/s) = 2.57823 3.57593 3.11725
# Velocity P-wave (km/s) = 4.15127 6.58640 5.50517
#
# Compressibility (1/GPa) = 0.06707762
#
# Stress axis : x y z
#
# Youngs Moduli (GPa) = 77.76369 80.18021 11.34435
#
# Poissons Ratio (x) = 0.30890 0.22747
# Poissons Ratio (y) = 0.29959 -0.00796
# Poissons Ratio (z) = 1.55924 -0.05628
#
# Static dielectric constant tensor:
#      x y z
#    x 1.632000 0.000000 0.023350 
#    y 0.000000 1.605280 0.000000 
#    z 0.023350 0.000000 1.574940 
# 
# From -- ./inp_files/97242.got.cif
#   From: 2010.05.17/outbox.cif.g08.bks.cpg/sg13_49_cif.got.tgz:97242.got - 2010.06.03 16:44:36.
