data_PCOD9228725
_publ_section_title
;
Structure prediction by ZEFSAII (Michael W. Deem and Ramdas Pophale) SiO2 
 PCOD9228725
Probable space group: P 2/C
;
_chemical_formula_sum "Si O2"
_cell_formula_units_Z 18
_cell_length_a 7.398160
_cell_length_b 7.465799
_cell_length_c 14.285714
_cell_angle_alpha 90.000000
_cell_angle_beta 99.805093
_cell_angle_gamma 90.000000
_cell_volume 777.519578
_symmetry_space_group_name_H-M "P 2/C"
_symmetry_group_IT_number 13
_symmetry_cell_setting 'monoclinic'
loop_
_space_group_symop_operation_xyz
x,y,z
-x,y,1/2-z
-x,-y,-z
x,-y,1/2+z
loop_
_atom_site_type_symbol
_atom_site_label
_atom_site_fract_x
_atom_site_fract_y
_atom_site_fract_z
Si Si1 0.500000 0.071790 0.250000
Si Si2 0.693204 0.882012 0.436741
Si Si3 0.356272 0.735390 0.489714
Si Si4 0.004547 0.383907 0.595629
Si Si5 0.318077 0.406086 0.198535
O O1 0.336133 0.216644 0.255652
O O2 0.571574 0.952026 0.339650
O O3 0.565668 0.735491 0.475796
O O4 0.881811 0.795676 0.419818
O O5 0.706224 0.056843 0.502900
O O6 0.344548 0.651606 0.592200
O O7 0.209183 0.651687 0.405829
O O8 0.130441 0.487126 0.680958
O O9 0.000000 0.500000 0.500000
O O10 0.500000 0.508501 0.250000
#
# Coordination Sequence:
#
# PCOD9228725 Si02
#       5
#     2   4   4   4   4
#     4   8  18  34  56  78 106 152 182 226 278 318
#     4  10  19  35  61  79 113 144 187 227 272 330
#     4   9  19  36  59  85 103 148 190 222 272 333
#     4  10  20  33  58  83 112 140 183 231 276 330
#     4   8  17  34  54  81 112 145 180 225 284 321
#
# _framework density 23.150541
#
# number of rings (size 3 to 8) (size 9 to 14) (size 15 to 20)
#    0.667    2.222    0.000    0.667    1.556    3.556 
#    0.000    1.111    4.889   12.000    0.000    0.000 
#    0.000    0.000    0.000    0.000    0.000    0.000 
#
# Total GULP energy -100345.290295 kJ/mol
# GULP energy per Si atom -5574.738350 kJ/mol
# Density = 2.309785 g / cm^3
# Si number density = 23.150541 Si / 1000 Ang^3
#
#
#
# Elastic Constant Matrix: (Units=GPa)
#
#
# Indices 1 2 3 4 5 6 
#
# 1 117.6157 17.8843 42.5205 0.0000 29.1441 0.0000
# 2 17.8843 59.9631 14.7983 0.0000 10.9228 0.0000
# 3 42.5205 14.7983 52.6663 0.0000 31.1081 0.0000
# 4 0.0000 0.0000 0.0000 28.2175 0.0000 28.7747
# 5 29.1441 10.9228 31.1081 0.0000 39.3839 0.0000
# 6 0.0000 0.0000 0.0000 28.7747 0.0000 23.2284
#
#
#
# Elastic Compliance Matrix: (Units=1/GPa)
#
#
# Indices 1 2 3 4 5 6 
#
# 1 0.012200 -0.001211 -0.008202 0.000000 -0.002214 0.000000
# 2 -0.001211 0.018113 -0.003137 0.000000 -0.001649 0.000000
# 3 -0.008202 -0.003137 0.041976 0.000000 -0.026216 0.000000
# 4 0.000000 0.000000 0.000000 -0.134629 0.000000 0.166775
# 5 -0.002214 -0.001649 -0.026216 0.000000 0.048193 0.000000
# 6 0.000000 0.000000 0.000000 0.166775 0.000000 -0.163545
#
#
# Mechanical properties :
#
#
# Convention : Reuss Voigt Hill
#
# Bulk Modulus (GPa) = 21.19229 42.29460 31.74344
# Shear Modulus (GPa) = -36.53336 28.50210 -4.01563
#
# Velocity S-wave (km/s) = -3.97681 3.51260 -1.31846
# Velocity P-wave (km/s) = 3.45148 5.89578 3.37990
#
# Compressibility (1/GPa) = 0.04718698
#
# Stress axis : x y z
#
# Youngs Moduli (GPa) = 81.96602 55.20938 23.82338
#
# Poissons Ratio (x) = 0.06688 0.19540
# Poissons Ratio (y) = 0.09929 0.07475
# Poissons Ratio (z) = 0.67228 0.17322
#
# Static dielectric constant tensor:
#      x y z
#    x 1.890320 0.000000 -0.035490 
#    y 0.000000 1.939470 0.000000 
#    z -0.035490 0.000000 1.880760 
# 
# From -- ./inp_files/62119.got.cif
#   From: 2010.05.17/outbox.cif.g08.bks.cpg/sg13_32_cif.got.tgz:62119.got - 2010.06.03 16:44:36.
