data_PCOD9228293
_publ_section_title
;
Structure prediction by ZEFSAII (Michael W. Deem and Ramdas Pophale) SiO2 
 PCOD9228293
Probable space group: P 2/C
;
_chemical_formula_sum "Si O2"
_cell_formula_units_Z 24
_cell_length_a 8.773546
_cell_length_b 10.031081
_cell_length_c 13.207790
_cell_angle_alpha 90.000000
_cell_angle_beta 87.071008
_cell_angle_gamma 90.000000
_cell_volume 1160.874654
_symmetry_space_group_name_H-M "P 2/C"
_symmetry_group_IT_number 13
_symmetry_cell_setting 'monoclinic'
loop_
_space_group_symop_operation_xyz
x,y,z
-x,y,1/2-z
-x,-y,-z
x,-y,1/2+z
loop_
_atom_site_type_symbol
_atom_site_label
_atom_site_fract_x
_atom_site_fract_y
_atom_site_fract_z
Si Si1 0.603324 0.797164 0.538271
Si Si2 0.744085 0.854138 0.253034
Si Si3 0.266141 0.230653 0.974852
Si Si4 0.500000 0.369168 0.750000
Si Si5 0.500000 0.086435 0.250000
Si Si6 0.147388 0.012761 0.565290
Si Si7 0.654137 0.507810 0.559154
O O1 0.450587 0.786411 0.475044
O O2 0.536960 0.827595 0.650986
O O3 0.287573 0.085529 0.502855
O O4 0.699697 0.660541 0.543981
O O5 0.783416 0.821351 0.134907
O O6 0.632691 0.730519 0.288232
O O7 0.640729 0.986280 0.258916
O O8 0.867631 0.897390 0.333217
O O9 0.236795 0.388733 0.981402
O O10 0.197768 0.142332 0.067203
O O11 0.594304 0.462919 0.671088
O O12 0.000000 0.000000 0.500000
O O13 0.500000 0.500000 0.500000
#
# Coordination Sequence:
#
# PCOD9228293 Si02
#       7
#     4   4   4   2   2   4   4
#     4  11  20  35  58  89 114 142 188 230 287 330
#     4  10  19  33  56  83 112 143 179 233 285 330
#     4  10  20  38  59  82 113 145 187 234 284 338
#     4   9  17  32  56  88 114 140 180 232 288 336
#     4  11  17  30  60  86 108 136 180 240 278 324
#     4  12  24  37  55  84 115 152 192 233 277 332
#     4   9  18  31  54  84 113 138 176 233 281 334
#
# _framework density 20.674067999999998
#
# number of rings (size 3 to 8) (size 9 to 14) (size 15 to 20)
#    0.000    1.667    3.333    5.000    0.000    0.667 
#    0.000    0.833    0.000    0.000    8.667    0.000 
#    0.000    0.000    0.000    0.000    0.000    0.000 
#
# Total GULP energy -133693.494776 kJ/mol
# GULP energy per Si atom -5570.562282 kJ/mol
# Density = 2.062701 g / cm^3
# Si number density = 20.674068 Si / 1000 Ang^3
#
#
#
# Elastic Constant Matrix: (Units=GPa)
#
#
# Indices 1 2 3 4 5 6 
#
# 1 40.7372 0.0651 8.5533 0.0000 23.7790 0.0000
# 2 0.0651 110.9190 14.4422 0.0000 7.6624 0.0000
# 3 8.5533 14.4422 91.9775 0.0000 12.7150 0.0000
# 4 0.0000 0.0000 0.0000 27.7181 0.0000 5.2641
# 5 23.7790 7.6624 12.7150 0.0000 30.9150 0.0000
# 6 0.0000 0.0000 0.0000 5.2641 0.0000 5.4263
#
#
#
# Elastic Compliance Matrix: (Units=1/GPa)
#
#
# Indices 1 2 3 4 5 6 
#
# 1 0.045186 0.002382 0.000329 0.000000 -0.035481 0.000000
# 2 0.002382 0.009424 -0.001193 0.000000 -0.003677 0.000000
# 3 0.000329 -0.001193 0.011688 0.000000 -0.004764 0.000000
# 4 0.000000 0.000000 0.000000 0.044225 0.000000 -0.042903
# 5 -0.035481 -0.003677 -0.004764 0.000000 0.062509 0.000000
# 6 0.000000 0.000000 0.000000 -0.042903 0.000000 0.225907
#
#
# Mechanical properties :
#
#
# Convention : Reuss Voigt Hill
#
# Bulk Modulus (GPa) = 14.42326 32.19501 23.30913
# Shear Modulus (GPa) = 11.93279 27.51675 19.72477
#
# Velocity S-wave (km/s) = 2.40508 3.65222 3.09217
# Velocity P-wave (km/s) = 3.83460 5.77853 4.90385
#
# Compressibility (1/GPa) = 0.06933245
#
# Stress axis : x y z
#
# Youngs Moduli (GPa) = 22.13089 106.11754 85.56114
#
# Poissons Ratio (x) = -0.25274 -0.02815
# Poissons Ratio (y) = -0.05271 0.10206
# Poissons Ratio (z) = -0.00728 0.12658
#
# Static dielectric constant tensor:
#      x y z
#    x 1.759490 0.000000 0.022750 
#    y 0.000000 1.798760 0.000000 
#    z 0.022750 0.000000 1.828490 
# 
# From -- ./inp_files/49314.got.cif
#   From: 2010.05.17/outbox.cif.g08.bks.cpg/sg13_25_cif.got.tgz:49314.got - 2010.06.03 16:44:36.
