data_PCOD9228836
_publ_section_title
;
Structure prediction by ZEFSAII (Michael W. Deem and Ramdas Pophale) SiO2 
 PCOD9228836
Probable space group: P 2/C
;
_chemical_formula_sum "Si O2"
_cell_formula_units_Z 28
_cell_length_a 8.015228
_cell_length_b 21.365785
_cell_length_c 12.274202
_cell_angle_alpha 90.000000
_cell_angle_beta 38.466130
_cell_angle_gamma 90.000000
_cell_volume 1307.538899
_symmetry_space_group_name_H-M "P 2/C"
_symmetry_group_IT_number 13
_symmetry_cell_setting 'monoclinic'
loop_
_space_group_symop_operation_xyz
x,y,z
-x,y,1/2-z
-x,-y,-z
x,-y,1/2+z
loop_
_atom_site_type_symbol
_atom_site_label
_atom_site_fract_x
_atom_site_fract_y
_atom_site_fract_z
Si Si1 0.163634 0.883896 0.062768
Si Si2 0.500000 0.086018 0.750000
Si Si3 0.983788 0.862854 0.917142
Si Si4 0.756143 0.487370 0.040969
Si Si5 0.507653 0.637006 0.875986
Si Si6 0.377379 0.024709 0.175551
Si Si7 0.449995 0.776452 0.644063
Si Si8 0.000000 0.579879 0.750000
O O1 0.000000 0.906477 0.250000
O O2 0.013747 0.858543 0.033306
O O3 0.363744 0.936387 0.916036
O O4 0.350949 0.827206 0.007651
O O5 0.666827 0.125079 0.575546
O O6 0.685351 0.036295 0.720817
O O7 0.137197 0.925058 0.795553
O O8 0.147454 0.803844 0.786031
O O9 0.500000 0.496022 0.250000
O O10 0.706424 0.420182 0.005817
O O11 0.000000 0.500000 0.000000
O O12 0.802453 0.537471 0.923201
O O13 0.500000 0.645318 0.750000
O O14 0.477606 0.707516 0.935365
O O15 0.798087 0.616110 0.772857
O O16 0.500000 0.000000 0.000000
O O17 0.500000 0.778685 0.750000
#
# Coordination Sequence:
#
# PCOD9228836 Si02
#       8
#     4   2   4   4   4   4   4   2
#     4  10  19  36  57  81 113 150 202 250 299 378
#     4  12  22  34  56  82 116 144 192 256 316 378
#     4  10  21  39  55  81 114 155 199 253 314 371
#     4  11  22  40  65 100 141 174 218 269 331 391
#     4  10  20  39  66  93 128 179 222 262 326 389
#     4  11  22  34  55  81 112 148 189 247 317 379
#     4   8  18  39  62  78 112 164 208 254 302 371
#     4  12  22  40  66 102 138 180 212 276 334 390
#
# _framework density 21.414277999999999
#
# number of rings (size 3 to 8) (size 9 to 14) (size 15 to 20)
#    0.000    1.714    4.286    2.571    2.000    0.000 
#    1.286    4.286    1.571    0.000    0.000    0.000 
#    0.000    0.000    0.000    0.000    0.000    0.000 
#
# Total GULP energy -155981.506835 kJ/mol
# GULP energy per Si atom -5570.768101 kJ/mol
# Density = 2.136554 g / cm^3
# Si number density = 21.414278 Si / 1000 Ang^3
#
#
#
# Elastic Constant Matrix: (Units=GPa)
#
#
# Indices 1 2 3 4 5 6 
#
# 1 83.6972 27.2354 15.4353 0.0000 -6.3332 0.0000
# 2 27.2354 106.3891 32.9027 0.0000 -16.2548 0.0000
# 3 15.4353 32.9027 106.7426 0.0000 -1.9525 0.0000
# 4 0.0000 0.0000 0.0000 3.4561 0.0000 -11.7383
# 5 -6.3332 -16.2548 -1.9525 0.0000 34.3367 0.0000
# 6 0.0000 0.0000 0.0000 -11.7383 0.0000 -21.1798
#
#
#
# Elastic Compliance Matrix: (Units=1/GPa)
#
#
# Indices 1 2 3 4 5 6 
#
# 1 0.013152 -0.002910 -0.000987 0.000000 0.000992 0.000000
# 2 -0.002910 0.011867 -0.003147 0.000000 0.004902 0.000000
# 3 -0.000987 -0.003147 0.010461 0.000000 -0.001077 0.000000
# 4 0.000000 0.000000 0.000000 0.100385 0.000000 -0.055635
# 5 0.000992 0.004902 -0.001077 0.000000 0.031566 0.000000
# 6 0.000000 0.000000 0.000000 -0.055635 0.000000 -0.016380
#
#
# Mechanical properties :
#
#
# Convention : Reuss Voigt Hill
#
# Bulk Modulus (GPa) = 46.74692 49.77508 48.26100
# Shear Modulus (GPa) = 29.02436 18.07295 23.54866
#
# Velocity S-wave (km/s) = 3.68553 2.90826 3.31973
# Velocity P-wave (km/s) = 6.32361 5.87977 6.10572
#
# Compressibility (1/GPa) = 0.02139178
#
# Stress axis : x y z
#
# Youngs Moduli (GPa) = 76.03514 84.26888 95.58904
#
# Poissons Ratio (x) = 0.24523 0.09431
# Poissons Ratio (y) = 0.22127 0.30085
# Poissons Ratio (z) = 0.07502 0.26523
#
# Static dielectric constant tensor:
#      x y z
#    x 1.885330 0.000000 -0.043480 
#    y 0.000000 1.802730 0.000000 
#    z -0.043480 0.000000 1.767730 
# 
# From -- ./inp_files/48225.got.cif
#   From: 2010.05.17/outbox.cif.g08.bks.cpg/sg13_25_cif.got.tgz:48225.got - 2010.06.03 16:44:36.
