data_PCOD9228958
_publ_section_title
;
Structure prediction by ZEFSAII (Michael W. Deem and Ramdas Pophale) SiO2 
 PCOD9228958
Probable space group: P 2/C
;
_chemical_formula_sum "Si O2"
_cell_formula_units_Z 28
_cell_length_a 19.516212
_cell_length_b 8.020337
_cell_length_c 22.147288
_cell_angle_alpha 90.000000
_cell_angle_beta 19.437137
_cell_angle_gamma 90.000000
_cell_volume 1153.602072
_symmetry_space_group_name_H-M "P 2/C"
_symmetry_group_IT_number 13
_symmetry_cell_setting 'monoclinic'
loop_
_space_group_symop_operation_xyz
x,y,z
-x,y,1/2-z
-x,-y,-z
x,-y,1/2+z
loop_
_atom_site_type_symbol
_atom_site_label
_atom_site_fract_x
_atom_site_fract_y
_atom_site_fract_z
Si Si1 0.578523 0.132502 0.513485
Si Si2 0.382796 0.372333 0.260451
Si Si3 0.661598 0.638538 0.845027
Si Si4 0.776376 0.803992 0.404293
Si Si5 0.648238 0.768355 0.184120
Si Si6 0.986959 0.258542 0.196424
Si Si7 0.014377 0.429652 0.854905
O O1 0.580567 0.183986 0.441287
O O2 0.396522 0.151585 0.713018
O O3 0.743598 0.278982 0.391939
O O4 0.699596 0.970311 0.434691
O O5 0.341592 0.350269 0.223823
O O6 0.387140 0.569897 0.273745
O O7 0.170276 0.317025 0.468315
O O8 0.591691 0.270140 0.099056
O O9 0.883822 0.555678 0.680282
O O10 0.500000 0.500000 0.000000
O O11 0.000000 0.816720 0.250000
O O12 0.811329 0.675175 0.321097
O O13 0.500000 0.812633 0.250000
O O14 0.126722 0.820882 0.528444
O O15 0.074094 0.445600 0.122999
O O16 0.000000 0.176435 0.250000
#
# Coordination Sequence:
#
# PCOD9228958 Si02
#       7
#     4   4   4   4   4   4   4
#     4  11  24  42  61  96 133 180 214 274 337 402
#     4  11  24  44  68 104 129 177 224 290 334 400
#     4  11  20  45  76  98 134 166 236 289 337 392
#     4  12  27  42  62  94 146 183 217 268 341 416
#     4  11  22  36  67  93 121 166 228 279 327 384
#     4  10  19  36  62  88 122 163 222 272 322 381
#     4  10  23  40  69  99 129 173 222 279 338 393
#
# _framework density 24.271801
#
# number of rings (size 3 to 8) (size 9 to 14) (size 15 to 20)
#    0.000    1.143    4.286    2.143    4.000    1.714 
#    0.000    0.714    0.000    0.000    0.000    0.000 
#    0.000    0.000    0.000    0.000    0.000    0.000 
#
# Total GULP energy -155928.886697 kJ/mol
# GULP energy per Si atom -5568.888811 kJ/mol
# Density = 2.421656 g / cm^3
# Si number density = 24.271801 Si / 1000 Ang^3
#
#
#
# Elastic Constant Matrix: (Units=GPa)
#
#
# Indices 1 2 3 4 5 6 
#
# 1 99.6583 7.4654 36.3387 0.0000 6.2771 0.0000
# 2 7.4654 75.2232 9.7857 0.0000 -4.3430 0.0000
# 3 36.3387 9.7857 165.6047 0.0000 20.3052 0.0000
# 4 0.0000 0.0000 0.0000 15.5046 0.0000 -7.1078
# 5 6.2771 -4.3430 20.3052 0.0000 44.0387 0.0000
# 6 0.0000 0.0000 0.0000 -7.1078 0.0000 24.0981
#
#
#
# Elastic Compliance Matrix: (Units=1/GPa)
#
#
# Indices 1 2 3 4 5 6 
#
# 1 0.010967 -0.000825 -0.002285 0.000000 -0.000591 0.000000
# 2 -0.000825 0.013593 -0.000849 0.000000 0.001850 0.000000
# 3 -0.002285 -0.000849 0.006954 0.000000 -0.002964 0.000000
# 4 0.000000 0.000000 0.000000 0.074582 0.000000 0.021998
# 5 -0.000591 0.001850 -0.002964 0.000000 0.024341 0.000000
# 6 0.000000 0.000000 0.000000 0.021998 0.000000 0.047986
#
#
# Mechanical properties :
#
#
# Convention : Reuss Voigt Hill
#
# Bulk Modulus (GPa) = 42.38300 49.74065 46.06183
# Shear Modulus (GPa) = 25.74610 35.85470 30.80040
#
# Velocity S-wave (km/s) = 3.26044 3.84763 3.56614
# Velocity P-wave (km/s) = 5.62794 6.34639 5.99793
#
# Compressibility (1/GPa) = 0.02359436
#
# Stress axis : x y z
#
# Youngs Moduli (GPa) = 91.18620 73.56791 143.81215
#
# Poissons Ratio (x) = 0.06071 0.32864
# Poissons Ratio (y) = 0.07525 0.12209
# Poissons Ratio (z) = 0.20838 0.06245
#
# Static dielectric constant tensor:
#      x y z
#    x 2.457350 0.000000 -0.027940 
#    y 0.000000 1.996400 0.000000 
#    z -0.027940 0.000000 2.020580 
# 
# From -- ./inp_files/88465.got.cif
#   From: 2010.05.17/outbox.cif.g08.bks.cpg/sg13_45_cif.got.tgz:88465.got - 2010.06.03 16:44:36.
