data_PCOD9228543
_publ_section_title
;
Structure prediction by ZEFSAII (Michael W. Deem and Ramdas Pophale) SiO2 
 PCOD9228543
Probable space group: P 2/C
;
_chemical_formula_sum "Si O2"
_cell_formula_units_Z 24
_cell_length_a 5.170439
_cell_length_b 10.733856
_cell_length_c 26.685967
_cell_angle_alpha 90.000000
_cell_angle_beta 58.268227
_cell_angle_gamma 90.000000
_cell_volume 1259.651607
_symmetry_space_group_name_H-M "P 2/C"
_symmetry_group_IT_number 13
_symmetry_cell_setting 'monoclinic'
loop_
_space_group_symop_operation_xyz
x,y,z
-x,y,1/2-z
-x,-y,-z
x,-y,1/2+z
loop_
_atom_site_type_symbol
_atom_site_label
_atom_site_fract_x
_atom_site_fract_y
_atom_site_fract_z
Si Si1 0.836768 0.328281 0.934945
Si Si2 0.521645 0.742070 0.882228
Si Si3 0.279002 0.083695 0.489667
Si Si4 0.319751 0.596495 0.316849
Si Si5 0.795865 0.308706 0.187159
Si Si6 0.375415 0.532031 0.419433
O O1 0.522228 0.382153 0.946725
O O2 0.051414 0.315588 0.863844
O O3 0.822132 0.202193 0.966949
O O4 0.022254 0.433638 0.947150
O O5 0.452067 0.857060 0.924784
O O6 0.288679 0.737382 0.859779
O O7 0.459303 0.611672 0.917799
O O8 0.874625 0.738998 0.829888
O O9 0.500000 0.000000 0.500000
O O10 0.000000 0.000000 0.500000
O O11 0.500000 0.641201 0.250000
O O12 0.190566 0.459542 0.316037
O O13 0.502935 0.569284 0.350202
O O14 0.500000 0.276212 0.250000
#
# Coordination Sequence:
#
# PCOD9228543 Si02
#       6
#     4   4   4   4   4   4
#     4  10  20  37  56  86 120 148 194 240 288 357
#     4  11  20  38  59  90 122 156 191 244 297 359
#     4  12  27  43  61  80 112 170 212 251 287 339
#     4   8  17  31  55  88 125 149 174 227 299 372
#     4  10  19  34  59  95 128 148 180 231 309 378
#     4   9  18  33  56  92 117 145 180 234 311 343
#
# _framework density 19.052885
#
# number of rings (size 3 to 8) (size 9 to 14) (size 15 to 20)
#    1.000    1.000    1.667    2.500    0.000    2.000 
#    0.000    0.000    0.000    6.000    0.000    0.000 
#    0.000    0.000    0.000    0.000    0.000    0.000 
#
# Total GULP energy -133805.800503 kJ/mol
# GULP energy per Si atom -5575.241688 kJ/mol
# Density = 1.900952 g / cm^3
# Si number density = 19.052885 Si / 1000 Ang^3
#
#
#
# Elastic Constant Matrix: (Units=GPa)
#
#
# Indices 1 2 3 4 5 6 
#
# 1 99.1708 19.3889 -3.4058 0.0000 -6.5297 0.0000
# 2 19.3889 62.2899 19.3245 0.0000 -0.2871 0.0000
# 3 -3.4058 19.3245 65.6514 0.0000 -7.6584 0.0000
# 4 0.0000 0.0000 0.0000 22.8319 0.0000 3.8004
# 5 -6.5297 -0.2871 -7.6584 0.0000 24.1633 0.0000
# 6 0.0000 0.0000 0.0000 3.8004 0.0000 29.3834
#
#
#
# Elastic Compliance Matrix: (Units=1/GPa)
#
#
# Indices 1 2 3 4 5 6 
#
# 1 0.011219 -0.004170 0.002240 0.000000 0.003692 0.000000
# 2 -0.004170 0.019269 -0.006223 0.000000 -0.002870 0.000000
# 3 0.002240 -0.006223 0.017904 0.000000 0.006206 0.000000
# 4 0.000000 0.000000 0.000000 0.044762 0.000000 -0.005789
# 5 0.003692 -0.002870 0.006206 0.000000 0.044316 0.000000
# 6 0.000000 0.000000 0.000000 -0.005789 0.000000 0.034782
#
#
# Mechanical properties :
#
#
# Convention : Reuss Voigt Hill
#
# Bulk Modulus (GPa) = 31.16606 33.08082 32.12344
# Shear Modulus (GPa) = 25.09374 28.06268 26.57821
#
# Velocity S-wave (km/s) = 3.63307 3.84198 3.73898
# Velocity P-wave (km/s) = 5.83027 6.08945 5.96127
#
# Compressibility (1/GPa) = 0.03208619
#
# Stress axis : x y z
#
# Youngs Moduli (GPa) = 89.13505 51.89585 55.85380
#
# Poissons Ratio (x) = 0.21641 -0.12512
# Poissons Ratio (y) = 0.37170 0.34758
# Poissons Ratio (z) = -0.19968 0.32295
#
# Static dielectric constant tensor:
#      x y z
#    x 1.667960 0.000000 0.001040 
#    y 0.000000 1.615890 0.000000 
#    z 0.001040 0.000000 1.753110 
# 
# From -- ./inp_files/73296.got.cif
#   From: 2010.05.17/outbox.cif.g08.bks.cpg/sg13_37_cif.got.tgz:73296.got - 2010.06.03 16:44:36.
