data_PCOD9228809
_publ_section_title
;
Structure prediction by ZEFSAII (Michael W. Deem and Ramdas Pophale) SiO2 
 PCOD9228809
Probable space group: P 2/C
;
_chemical_formula_sum "Si O2"
_cell_formula_units_Z 28
_cell_length_a 5.480525
_cell_length_b 11.524116
_cell_length_c 19.671213
_cell_angle_alpha 90.000000
_cell_angle_beta 111.151697
_cell_angle_gamma 90.000000
_cell_volume 1158.696064
_symmetry_space_group_name_H-M "P 2/C"
_symmetry_group_IT_number 13
_symmetry_cell_setting 'monoclinic'
loop_
_space_group_symop_operation_xyz
x,y,z
-x,y,1/2-z
-x,-y,-z
x,-y,1/2+z
loop_
_atom_site_type_symbol
_atom_site_label
_atom_site_fract_x
_atom_site_fract_y
_atom_site_fract_z
Si Si1 0.334236 0.982722 0.571631
Si Si2 0.907522 0.557273 0.581158
Si Si3 0.360620 0.387334 0.044635
Si Si4 0.290058 0.091352 0.282420
Si Si5 0.207197 0.620010 0.207596
Si Si6 0.859103 0.120539 0.821023
Si Si7 0.676070 0.831165 0.046907
O O1 0.585245 0.915671 0.630241
O O2 0.196796 0.030514 0.624197
O O3 0.420857 0.094663 0.537458
O O4 0.199554 0.896025 0.506118
O O5 0.752190 0.506051 0.499754
O O6 0.659856 0.603453 0.599602
O O7 0.137239 0.641852 0.577695
O O8 0.060165 0.456570 0.636453
O O9 0.364536 0.296803 0.983217
O O10 0.500000 0.141478 0.250000
O O11 0.240018 0.957318 0.251553
O O12 0.000000 0.144606 0.250000
O O13 0.500000 0.570782 0.250000
O O14 0.262558 0.752009 0.188490
O O15 0.000000 0.625866 0.250000
O O16 0.155527 0.157809 0.868377
#
# Coordination Sequence:
#
# PCOD9228809 Si02
#       7
#     4   4   4   4   4   4   4
#     4  10  23  37  58  90 133 172 211 264 320 379
#     4  10  22  42  62  92 125 163 207 261 326 379
#     4  10  22  39  65  88 125 167 206 264 315 384
#     4  10  19  36  55  79 118 162 198 245 310 370
#     4  12  25  39  68 100 130 166 208 266 333 392
#     4  11  22  36  60  91 131 164 207 269 326 387
#     4  11  22  38  61  94 128 169 217 268 318 384
#
# _framework density 24.165095999999998
#
# number of rings (size 3 to 8) (size 9 to 14) (size 15 to 20)
#    0.000    1.429    2.857    3.000    4.000    1.143 
#    0.000    0.000    0.000   10.286    0.000    0.000 
#    0.000    0.000    0.000    0.000    0.000    0.000 
#
# Total GULP energy -156067.167168 kJ/mol
# GULP energy per Si atom -5573.827399 kJ/mol
# Density = 2.411009 g / cm^3
# Si number density = 24.165096 Si / 1000 Ang^3
#
#
#
# Elastic Constant Matrix: (Units=GPa)
#
#
# Indices 1 2 3 4 5 6 
#
# 1 142.3543 0.1689 13.3403 0.0000 27.3661 0.0000
# 2 0.1689 24.3813 1.3196 0.0000 4.8240 0.0000
# 3 13.3403 1.3196 104.2703 0.0000 17.7632 0.0000
# 4 0.0000 0.0000 0.0000 32.5147 0.0000 0.7037
# 5 27.3661 4.8240 17.7632 0.0000 38.8700 0.0000
# 6 0.0000 0.0000 0.0000 0.7037 0.0000 12.9556
#
#
#
# Elastic Compliance Matrix: (Units=1/GPa)
#
#
# Indices 1 2 3 4 5 6 
#
# 1 0.008154 0.001104 -0.000061 0.000000 -0.005850 0.000000
# 2 0.001104 0.042212 0.000379 0.000000 -0.006189 0.000000
# 3 -0.000061 0.000379 0.010404 0.000000 -0.004759 0.000000
# 4 0.000000 0.000000 0.000000 0.030792 0.000000 -0.001672
# 5 -0.005850 -0.006189 -0.004759 0.000000 0.032788 0.000000
# 6 0.000000 0.000000 0.000000 -0.001672 0.000000 0.077277
#
#
# Mechanical properties :
#
#
# Convention : Reuss Voigt Hill
#
# Bulk Modulus (GPa) = 15.71971 33.40704 24.56338
# Shear Modulus (GPa) = 22.72869 33.94652 28.33761
#
# Velocity S-wave (km/s) = 3.07018 3.75210 3.42814
# Velocity P-wave (km/s) = 4.36890 5.71187 5.08492
#
# Compressibility (1/GPa) = 0.06361442
#
# Stress axis : x y z
#
# Youngs Moduli (GPa) = 122.64417 23.69022 96.11559
#
# Poissons Ratio (x) = -0.02616 0.00582
# Poissons Ratio (y) = -0.13543 -0.03642
# Poissons Ratio (z) = 0.00743 -0.00898
#
# Static dielectric constant tensor:
#      x y z
#    x 2.316740 0.000000 0.045300 
#    y 0.000000 1.934890 0.000000 
#    z 0.045300 0.000000 1.995920 
# 
# From -- ./inp_files/73672.got.cif
#   From: 2010.05.17/outbox.cif.g08.bks.cpg/sg13_37_cif.got.tgz:73672.got - 2010.06.03 16:44:36.
