data_PCOD9228220
_publ_section_title
;
Structure prediction by ZEFSAII (Michael W. Deem and Ramdas Pophale) SiO2 
 PCOD9228220
Probable space group: P 2/C
;
_chemical_formula_sum "Si O2"
_cell_formula_units_Z 20
_cell_length_a 7.184379
_cell_length_b 22.482869
_cell_length_c 5.300607
_cell_angle_alpha 90.000000
_cell_angle_beta 102.455662
_cell_angle_gamma 90.000000
_cell_volume 836.031139
_symmetry_space_group_name_H-M "P 2/C"
_symmetry_group_IT_number 13
_symmetry_cell_setting 'monoclinic'
loop_
_space_group_symop_operation_xyz
x,y,z
-x,y,1/2-z
-x,-y,-z
x,-y,1/2+z
loop_
_atom_site_type_symbol
_atom_site_label
_atom_site_fract_x
_atom_site_fract_y
_atom_site_fract_z
Si Si1 0.269134 0.534589 0.680361
Si Si2 0.228606 0.279883 0.761804
Si Si3 0.784343 0.670143 0.737721
Si Si4 0.871800 0.157721 0.962591
Si Si5 0.273414 0.970892 0.157311
O O1 0.500000 0.536042 0.750000
O O2 0.207736 0.498949 0.415618
O O3 0.206201 0.602816 0.664047
O O4 0.298087 0.325671 0.568467
O O5 0.254178 0.215598 0.640109
O O6 0.000000 0.286599 0.750000
O O7 0.306692 0.291440 0.064054
O O8 0.000000 0.691817 0.750000
O O9 0.762212 0.095709 0.948898
O O10 0.000000 0.151806 0.750000
O O11 0.000000 0.166854 0.250000
O O12 0.500000 0.979593 0.250000
O O13 0.198694 0.985046 0.416746
#
# Coordination Sequence:
#
# PCOD9228220 Si02
#       5
#     4   4   4   4   4
#     4  10  21  36  52  73 104 137 170 215 267 312
#     4   9  18  33  52  77 107 135 166 215 271 309
#     4  10  19  33  54  76 101 135 172 210 257 316
#     4  11  21  35  58  84 110 142 184 227 268 323
#     4  10  22  39  56  78 113 150 181 223 278 323
#
# _framework density 23.922554999999999
#
# number of rings (size 3 to 8) (size 9 to 14) (size 15 to 20)
#    0.000    2.000    0.000    5.400    0.000    3.200 
#    0.000    2.000    0.000    0.000    0.000    0.000 
#    0.000    0.000    0.000    0.000    0.000    0.000 
#
# Total GULP energy -111774.413550 kJ/mol
# GULP energy per Si atom -5588.720678 kJ/mol
# Density = 2.386811 g / cm^3
# Si number density = 23.922555 Si / 1000 Ang^3
#
#
#
# Elastic Constant Matrix: (Units=GPa)
#
#
# Indices 1 2 3 4 5 6 
#
# 1 52.3430 -17.1592 34.5298 0.0000 8.8503 0.0000
# 2 -17.1592 131.4113 71.3190 0.0000 -1.8371 0.0000
# 3 34.5298 71.3190 222.9145 0.0000 -13.7809 0.0000
# 4 0.0000 0.0000 0.0000 50.4656 0.0000 -8.5689
# 5 8.8503 -1.8371 -13.7809 0.0000 30.3351 0.0000
# 6 0.0000 0.0000 0.0000 -8.5689 0.0000 82.0737
#
#
#
# Elastic Compliance Matrix: (Units=1/GPa)
#
#
# Indices 1 2 3 4 5 6 
#
# 1 0.028529 0.007678 -0.007574 0.000000 -0.011299 0.000000
# 2 0.007678 0.011294 -0.005040 0.000000 -0.003846 0.000000
# 3 -0.007574 -0.005040 0.007603 0.000000 0.005359 0.000000
# 4 0.000000 0.000000 0.000000 0.020173 0.000000 0.002106
# 5 -0.011299 -0.003846 0.005359 0.000000 0.038463 0.000000
# 6 0.000000 0.000000 0.000000 0.002106 0.000000 0.012404
#
#
# Mechanical properties :
#
#
# Convention : Reuss Voigt Hill
#
# Bulk Modulus (GPa) = 26.62948 64.89422 45.76185
# Shear Modulus (GPa) = 35.49700 53.77350 44.63525
#
# Velocity S-wave (km/s) = 3.85623 4.74626 4.32420
# Velocity P-wave (km/s) = 5.56624 7.56450 6.64096
#
# Compressibility (1/GPa) = 0.03755237
#
# Stress axis : x y z
#
# Youngs Moduli (GPa) = 35.05242 88.54260 131.52409
#
# Poissons Ratio (x) = -0.67981 0.99618
# Poissons Ratio (y) = -0.26912 0.66294
# Poissons Ratio (z) = 0.26549 0.44629
#
# Static dielectric constant tensor:
#      x y z
#    x 1.987160 0.000000 -0.051300 
#    y 0.000000 1.896210 0.000000 
#    z -0.051300 0.000000 1.577400 
# 
# From -- ./inp_files/2127.got.cif
#   From: 2010.05.17/outbox.cif.g08.bks.cpg/sg13_2_cif.got.tgz:2127.got - 2010.06.03 16:44:36.
