data_PCOD9228803
_publ_section_title
;
Structure prediction by ZEFSAII (Michael W. Deem and Ramdas Pophale) SiO2 
 PCOD9228803
Probable space group: P 2/C
;
_chemical_formula_sum "Si O2"
_cell_formula_units_Z 32
_cell_length_a 18.650674
_cell_length_b 18.904011
_cell_length_c 17.945139
_cell_angle_alpha 90.000000
_cell_angle_beta 163.991693
_cell_angle_gamma 90.000000
_cell_volume 1744.829207
_symmetry_space_group_name_H-M "P 2/C"
_symmetry_group_IT_number 13
_symmetry_cell_setting 'monoclinic'
loop_
_space_group_symop_operation_xyz
x,y,z
-x,y,1/2-z
-x,-y,-z
x,-y,1/2+z
loop_
_atom_site_type_symbol
_atom_site_label
_atom_site_fract_x
_atom_site_fract_y
_atom_site_fract_z
Si Si1 0.750695 0.905251 0.950844
Si Si2 0.632930 0.335210 0.159180
Si Si3 0.868999 0.673191 0.436523
Si Si4 0.246839 0.925766 0.046740
Si Si5 0.366073 0.831646 0.821770
Si Si6 0.867884 0.159857 0.919344
Si Si7 0.010076 0.453159 0.171975
Si Si8 0.486899 0.477644 0.400205
O O1 0.500000 0.889900 0.750000
O O2 0.715779 0.866178 0.837649
O O3 0.759094 0.989782 0.945369
O O4 0.000000 0.885859 0.250000
O O5 0.634962 0.253742 0.186258
O O6 0.535318 0.392485 0.120956
O O7 0.923988 0.350104 0.420527
O O8 0.424637 0.341677 0.883475
O O9 0.881505 0.757597 0.456607
O O10 0.962236 0.628254 0.600041
O O11 0.500000 0.909185 0.250000
O O12 0.219875 0.885815 0.097912
O O13 0.000000 0.906912 0.750000
O O14 0.151495 0.855262 0.668507
O O15 0.651684 0.849662 0.138604
O O16 0.000000 0.460486 0.250000
O O17 0.271867 0.487288 0.400934
O O18 0.773772 0.493414 0.896703
O O19 0.500000 0.500000 0.500000
#
# Coordination Sequence:
#
# PCOD9228803 Si02
#       8
#     4   4   4   4   4   4   4   4
#     4  10  21  38  59  81 113 154 193 232 289 348
#     4  10  20  35  59  82 104 140 196 228 269 341
#     4  10  19  36  54  81 110 146 181 223 282 338
#     4  10  21  37  56  82 115 155 194 227 280 354
#     4  10  21  37  57  87 113 142 191 244 278 333
#     4  10  21  35  58  85 116 145 187 236 279 330
#     4  12  24  37  55  87 119 143 187 241 284 333
#     4  12  21  38  63  80 105 156 196 227 280 345
#
# _framework density 18.339903
#
# number of rings (size 3 to 8) (size 9 to 14) (size 15 to 20)
#    0.000    1.500    2.500    3.000    0.000    1.500 
#    0.000    3.125    0.000    0.000    0.000    0.000 
#    0.000    0.000    0.000    0.000    0.000    0.000 
#
# Total GULP energy -178618.681467 kJ/mol
# GULP energy per Si atom -5581.833796 kJ/mol
# Density = 1.829816 g / cm^3
# Si number density = 18.339903 Si / 1000 Ang^3
#
#
#
# Elastic Constant Matrix: (Units=GPa)
#
#
# Indices 1 2 3 4 5 6 
#
# 1 185.4142 83.0541 128.3899 0.0000 -34.9574 0.0000
# 2 83.0541 66.3585 66.7836 0.0000 -14.1954 0.0000
# 3 128.3899 66.7836 227.0009 0.0000 -20.8809 0.0000
# 4 0.0000 0.0000 0.0000 -82.2098 0.0000 -43.3801
# 5 -34.9574 -14.1954 -20.8809 0.0000 33.5356 0.0000
# 6 0.0000 0.0000 0.0000 -43.3801 0.0000 20.7369
#
#
#
# Elastic Compliance Matrix: (Units=1/GPa)
#
#
# Indices 1 2 3 4 5 6 
#
# 1 0.016363 -0.014430 -0.004245 0.000000 0.008305 0.000000
# 2 -0.014430 0.035118 -0.002319 0.000000 -0.001621 0.000000
# 3 -0.004245 -0.002319 0.007416 0.000000 -0.000789 0.000000
# 4 0.000000 0.000000 0.000000 -0.005782 0.000000 -0.012095
# 5 0.008305 -0.001621 -0.000789 0.000000 0.037298 0.000000
# 6 0.000000 0.000000 0.000000 -0.012095 0.000000 0.022921
#
#
# Mechanical properties :
#
#
# Convention : Reuss Voigt Hill
#
# Bulk Modulus (GPa) = 59.14682 115.02540 87.08611
# Shear Modulus (GPa) = 31.06378 7.78230 19.42304
#
# Velocity S-wave (km/s) = 4.12002 2.06218 3.25785
# Velocity P-wave (km/s) = 7.41304 8.27798 7.85742
#
# Compressibility (1/GPa) = 0.01690708
#
# Stress axis : x y z
#
# Youngs Moduli (GPa) = 61.11498 28.47557 134.84378
#
# Poissons Ratio (x) = 0.41091 0.57244
# Poissons Ratio (y) = 0.88191 0.31271
# Poissons Ratio (z) = 0.25945 0.06604
#
# Static dielectric constant tensor:
#      x y z
#    x 1.605760 0.000000 0.003350 
#    y 0.000000 1.663300 0.000000 
#    z 0.003350 0.000000 1.606370 
# 
# From -- ./inp_files/54016.got.cif
#   From: 2010.05.17/outbox.cif.g08.bks.cpg/sg13_28_cif.got.tgz:54016.got - 2010.06.03 16:44:36.
