data_PCOD9228858
_publ_section_title
;
Structure prediction by ZEFSAII (Michael W. Deem and Ramdas Pophale) SiO2 
 PCOD9228858
Probable space group: P 2/C
;
_chemical_formula_sum "Si O2"
_cell_formula_units_Z 20
_cell_length_a 11.571022
_cell_length_b 7.473221
_cell_length_c 28.018913
_cell_angle_alpha 90.000000
_cell_angle_beta 161.595994
_cell_angle_gamma 90.000000
_cell_volume 764.938581
_symmetry_space_group_name_H-M "P 2/C"
_symmetry_group_IT_number 13
_symmetry_cell_setting 'monoclinic'
loop_
_space_group_symop_operation_xyz
x,y,z
-x,y,1/2-z
-x,-y,-z
x,-y,1/2+z
loop_
_atom_site_type_symbol
_atom_site_label
_atom_site_fract_x
_atom_site_fract_y
_atom_site_fract_z
Si Si1 0.500002 0.284163 0.598150
Si Si2 0.379643 0.324028 0.350798
Si Si3 0.450330 0.283281 0.478131
Si Si4 0.410240 0.090253 0.664482
Si Si5 0.673743 0.290180 0.269916
O O1 0.723148 0.466710 0.686106
O O2 0.591883 0.196343 0.582702
O O3 0.490959 0.186997 0.645587
O O4 0.084561 0.356968 0.427669
O O5 0.588058 0.247114 0.478225
O O6 0.558277 0.317582 0.368848
O O7 0.981139 0.233309 0.191941
O O8 0.500000 0.500000 0.500000
O O9 0.500000 0.191236 0.750000
O O10 0.688834 0.924110 0.778572
O O11 0.000000 0.000000 0.500000
O O12 0.500000 0.359486 0.250000
#
# Coordination Sequence:
#
# PCOD9228858 Si02
#       5
#     4   4   4   4   4
#     4  10  19  36  58  83 109 153 196 233 289 352
#     4   9  18  33  58  84 111 145 184 243 294 341
#     4   8  16  34  56  81 112 142 182 236 293 337
#     4  11  21  40  57  77 118 163 192 234 288 345
#     4  10  20  36  54  80 119 148 189 240 289 340
#
# _framework density 26.145892
#
# number of rings (size 3 to 8) (size 9 to 14) (size 15 to 20)
#    0.000    2.400    4.000    0.000    0.000    1.600 
#   10.800    1.000    0.000   16.800    0.000    0.000 
#    0.000    0.000    0.000    0.000    0.000    0.000 
#
# Total GULP energy -111363.675629 kJ/mol
# GULP energy per Si atom -5568.183781 kJ/mol
# Density = 2.608638 g / cm^3
# Si number density = 26.145892 Si / 1000 Ang^3
#
#
#
# Elastic Constant Matrix: (Units=GPa)
#
#
# Indices 1 2 3 4 5 6 
#
# 1 301.2134 21.9785 58.4244 0.0000 -76.9536 0.0000
# 2 21.9785 45.0867 5.3876 0.0000 -8.8084 0.0000
# 3 58.4244 5.3876 100.1779 0.0000 -6.3371 -0.0001
# 4 0.0000 0.0000 0.0000 18.5199 0.0000 -3.6032
# 5 -76.9536 -8.8084 -6.3371 0.0000 49.6157 0.0000
# 6 0.0000 0.0000 -0.0001 -3.6032 0.0000 65.7091
#
#
#
# Elastic Compliance Matrix: (Units=1/GPa)
#
#
# Indices 1 2 3 4 5 6 
#
# 1 0.006361 -0.000915 -0.003072 0.000000 0.009312 0.000000
# 2 -0.000915 0.023205 -0.000548 0.000000 0.002631 0.000000
# 3 -0.003072 -0.000548 0.011589 0.000000 -0.003381 0.000000
# 4 0.000000 0.000000 0.000000 0.054578 0.000000 0.002993
# 5 0.009312 0.002631 -0.003381 0.000000 0.034633 0.000000
# 6 0.000000 0.000000 0.000000 0.002993 0.000000 0.015383
#
#
# Mechanical properties :
#
#
# Convention : Reuss Voigt Hill
#
# Bulk Modulus (GPa) = 31.16583 68.67321 49.91952
# Shear Modulus (GPa) = 30.20896 50.81478 40.51187
#
# Velocity S-wave (km/s) = 3.40280 4.41331 3.94058
# Velocity P-wave (km/s) = 5.23303 7.23133 6.31176
#
# Compressibility (1/GPa) = 0.03208642
#
# Stress axis : x y z
#
# Youngs Moduli (GPa) = 157.19739 43.09441 86.28654
#
# Poissons Ratio (x) = 0.03942 0.26505
# Poissons Ratio (y) = 0.14380 0.04729
# Poissons Ratio (z) = 0.48288 0.02362
#
# Static dielectric constant tensor:
#      x y z
#    x 2.336430 0.000000 0.015270 
#    y 0.000000 2.087110 0.000000 
#    z 0.015270 0.000000 2.196850 
# 
# From -- ./inp_files/31787.got.cif
#   From: 2010.05.17/outbox.cif.g08.bks.cpg/sg13_16_cif.got.tgz:31787.got - 2010.06.03 16:44:36.
