data_PCOD9228955
_publ_section_title
;
Structure prediction by ZEFSAII (Michael W. Deem and Ramdas Pophale) SiO2 
 PCOD9228955
Probable space group: P 2/C
;
_chemical_formula_sum "Si O2"
_cell_formula_units_Z 24
_cell_length_a 12.194737
_cell_length_b 11.783103
_cell_length_c 12.567213
_cell_angle_alpha 90.000000
_cell_angle_beta 141.090155
_cell_angle_gamma 90.000000
_cell_volume 1134.220911
_symmetry_space_group_name_H-M "P 2/C"
_symmetry_group_IT_number 13
_symmetry_cell_setting 'monoclinic'
loop_
_space_group_symop_operation_xyz
x,y,z
-x,y,1/2-z
-x,-y,-z
x,-y,1/2+z
loop_
_atom_site_type_symbol
_atom_site_label
_atom_site_fract_x
_atom_site_fract_y
_atom_site_fract_z
Si Si1 0.644737 0.032005 0.764458
Si Si2 0.515882 0.248364 0.943526
Si Si3 0.646221 0.772229 0.767908
Si Si4 0.854520 0.811918 0.559838
Si Si5 0.206927 0.395514 0.614907
Si Si6 0.074640 0.388643 0.923624
O O1 0.500000 0.029357 0.750000
O O2 0.582475 0.125217 0.631239
O O3 0.676063 0.903267 0.756499
O O4 0.809997 0.089037 0.944876
O O5 0.387115 0.337125 0.788028
O O6 0.573460 0.284659 0.104816
O O7 0.683996 0.226076 0.997525
O O8 0.500000 0.767857 0.750000
O O9 0.819761 0.716886 0.947633
O O10 0.902103 0.699690 0.531054
O O11 0.000000 0.849220 0.750000
O O12 0.208178 0.505962 0.541612
O O13 0.095752 0.420036 0.636137
O O14 0.000000 0.369837 0.750000
#
# Coordination Sequence:
#
# PCOD9228955 Si02
#       6
#     4   4   4   4   4   4
#     4   8  18  35  55  83 117 151 187 232 282 335
#     4  10  20  38  62  84 111 151 196 237 278 329
#     4  11  22  36  56  85 120 153 187 231 289 347
#     4  10  19  36  62  88 112 146 196 241 277 325
#     4  10  22  41  60  81 113 150 192 240 282 331
#     4  11  24  40  58  84 118 151 186 234 289 342
#
# _framework density 21.1599
#
# number of rings (size 3 to 8) (size 9 to 14) (size 15 to 20)
#    0.000    2.000    0.000    4.500    0.000    4.000 
#    0.000    9.167    0.000    0.000    0.000    0.000 
#    0.000    0.000    0.000    0.000    0.000    0.000 
#
# Total GULP energy -133959.455417 kJ/mol
# GULP energy per Si atom -5581.643976 kJ/mol
# Density = 2.111174 g / cm^3
# Si number density = 21.159900 Si / 1000 Ang^3
#
#
#
# Elastic Constant Matrix: (Units=GPa)
#
#
# Indices 1 2 3 4 5 6 
#
# 1 44.6244 -2.1899 30.4684 0.0000 -10.8264 0.0000
# 2 -2.1899 80.1100 48.6802 0.0000 -1.7202 0.0000
# 3 30.4684 48.6802 158.0462 0.0000 -26.3292 0.0000
# 4 0.0000 0.0000 0.0000 4.4977 0.0000 -3.7949
# 5 -10.8264 -1.7202 -26.3292 0.0000 36.7521 0.0000
# 6 0.0000 0.0000 0.0000 -3.7949 0.0000 15.8977
#
#
#
# Elastic Compliance Matrix: (Units=1/GPa)
#
#
# Indices 1 2 3 4 5 6 
#
# 1 0.027761 0.004538 -0.006077 0.000000 0.004036 0.000000
# 2 0.004538 0.016403 -0.006332 0.000000 -0.002432 0.000000
# 3 -0.006077 -0.006332 0.010335 0.000000 0.005317 0.000000
# 4 0.000000 0.000000 0.000000 0.278406 0.000000 0.066457
# 5 0.004036 -0.002432 0.005317 0.000000 0.032094 0.000000
# 6 0.000000 0.000000 0.000000 0.066457 0.000000 0.078766
#
#
# Mechanical properties :
#
#
# Convention : Reuss Voigt Hill
#
# Bulk Modulus (GPa) = 25.80230 48.52201 37.16216
# Shear Modulus (GPa) = 10.58369 25.15095 17.86732
#
# Velocity S-wave (km/s) = 2.23889 3.45137 2.90900
# Velocity P-wave (km/s) = 4.34787 6.23406 5.37436
#
# Compressibility (1/GPa) = 0.03875623
#
# Stress axis : x y z
#
# Youngs Moduli (GPa) = 36.02232 60.96605 96.75775
#
# Poissons Ratio (x) = -0.27669 0.58802
# Poissons Ratio (y) = -0.16348 0.61269
# Poissons Ratio (z) = 0.21891 0.38605
#
# Static dielectric constant tensor:
#      x y z
#    x 1.776430 0.000000 0.021700 
#    y 0.000000 1.787940 0.000000 
#    z 0.021700 0.000000 1.743350 
# 
# From -- ./inp_files/53576.got.cif
#   From: 2010.05.17/outbox.cif.g08.bks.cpg/sg13_27_cif.got.tgz:53576.got - 2010.06.03 16:44:36.
