data_PCOD9228199
_publ_section_title
;
Structure prediction by ZEFSAII (Michael W. Deem and Ramdas Pophale) SiO2 
 PCOD9228199
Probable space group: P 2/C
;
_chemical_formula_sum "Si O2"
_cell_formula_units_Z 30
_cell_length_a 13.795435
_cell_length_b 17.139348
_cell_length_c 5.205561
_cell_angle_alpha 90.000000
_cell_angle_beta 79.018572
_cell_angle_gamma 90.000000
_cell_volume 1208.289920
_symmetry_space_group_name_H-M "P 2/C"
_symmetry_group_IT_number 13
_symmetry_cell_setting 'monoclinic'
loop_
_space_group_symop_operation_xyz
x,y,z
-x,y,1/2-z
-x,-y,-z
x,-y,1/2+z
loop_
_atom_site_type_symbol
_atom_site_label
_atom_site_fract_x
_atom_site_fract_y
_atom_site_fract_z
Si Si1 0.637390 0.304349 0.592067
Si Si2 0.500000 0.446365 0.750000
Si Si3 0.125191 0.303220 0.020415
Si Si4 0.361076 0.785020 0.907734
Si Si5 0.120316 0.954994 0.840971
Si Si6 0.360701 0.955960 0.725271
Si Si7 0.890081 0.529720 0.223388
Si Si8 0.120634 0.215949 0.524527
O O1 0.592641 0.387361 0.688225
O O2 0.755825 0.305711 0.532390
O O3 0.606408 0.275865 0.326538
O O4 0.607924 0.242382 0.826599
O O5 0.500000 0.500000 0.500000
O O6 0.099417 0.385569 0.905756
O O7 0.093598 0.237917 0.829138
O O8 0.093445 0.281231 0.324918
O O9 0.391282 0.870889 0.804598
O O10 0.240873 0.785419 0.967766
O O11 0.240592 0.954273 0.780023
O O12 0.089115 0.869013 0.944072
O O13 0.092210 0.981418 0.570132
O O14 0.391231 0.981824 0.426453
O O15 0.840363 0.524191 0.529787
O O16 0.000000 0.502335 0.250000
#
# Coordination Sequence:
#
# PCOD9228199 Si02
#       8
#     4   2   4   4   4   4   4   4
#     4  10  21  36  54  75  99 133 167 205 256 298
#     4  12  26  42  58  78 100 122 164 218 256 300
#     4  10  19  33  53  75 103 133 165 204 247 296
#     4   9  17  31  49  72 102 134 170 204 245 301
#     4   9  15  23  37  61  99 137 164 200 249 286
#     4   9  15  23  40  69 100 130 163 202 243 281
#     4  10  21  36  54  77 104 132 162 198 244 303
#     4   9  17  28  45  72 103 134 170 210 243 286
#
# _framework density 24.828476999999999
#
# number of rings (size 3 to 8) (size 9 to 14) (size 15 to 20)
#    0.000    2.400    0.000    3.200    0.000    7.467 
#    0.000    0.000    0.000    0.000    0.000    9.333 
#    0.000   10.667    0.000    0.000    0.000    0.000 
#
# Total GULP energy -167961.622576 kJ/mol
# GULP energy per Si atom -5598.720753 kJ/mol
# Density = 2.477197 g / cm^3
# Si number density = 24.828477 Si / 1000 Ang^3
#
#
#
# Elastic Constant Matrix: (Units=GPa)
#
#
# Indices 1 2 3 4 5 6 
#
# 1 82.1502 0.4039 22.0559 0.0000 1.2629 0.0000
# 2 0.4039 124.5359 52.8153 0.0000 8.4369 0.0000
# 3 22.0559 52.8153 176.3068 0.0000 11.9449 0.0000
# 4 0.0000 0.0000 0.0000 47.4973 0.0000 6.0089
# 5 1.2629 8.4369 11.9449 0.0000 30.8713 0.0000
# 6 0.0000 0.0000 0.0000 6.0089 0.0000 45.3927
#
#
#
# Elastic Compliance Matrix: (Units=1/GPa)
#
#
# Indices 1 2 3 4 5 6 
#
# 1 0.012652 0.000723 -0.001798 0.000000 -0.000019 0.000000
# 2 0.000723 0.009307 -0.002777 0.000000 -0.001499 0.000000
# 3 -0.001798 -0.002777 0.006852 0.000000 -0.001819 0.000000
# 4 0.000000 0.000000 0.000000 0.021412 0.000000 -0.002834
# 5 -0.000019 -0.001499 -0.001819 0.000000 0.033507 0.000000
# 6 0.000000 0.000000 0.000000 -0.002834 0.000000 0.022405
#
#
# Mechanical properties :
#
#
# Convention : Reuss Voigt Hill
#
# Bulk Modulus (GPa) = 47.37810 59.28256 53.33033
# Shear Modulus (GPa) = 41.36514 45.26678 43.31596
#
# Velocity S-wave (km/s) = 4.08614 4.27450 4.18138
# Velocity P-wave (km/s) = 6.43317 6.94914 6.69612
#
# Compressibility (1/GPa) = 0.02110680
#
# Stress axis : x y z
#
# Youngs Moduli (GPa) = 79.03702 107.45016 145.94439
#
# Poissons Ratio (x) = -0.07767 0.26241
# Poissons Ratio (y) = -0.05713 0.40526
# Poissons Ratio (z) = 0.14211 0.29837
#
# Static dielectric constant tensor:
#      x y z
#    x 2.071670 0.000000 -0.057840 
#    y 0.000000 1.899960 0.000000 
#    z -0.057840 0.000000 1.974160 
# 
# From -- ./inp_files/6205.got.cif
#   From: 2010.05.17/outbox.cif.g08.bks.cpg/sg13_4_cif.got.tgz:6205.got - 2010.06.03 16:44:36.
