data_PCOD9228490
_publ_section_title
;
Structure prediction by ZEFSAII (Michael W. Deem and Ramdas Pophale) SiO2 
 PCOD9228490
Probable space group: P 2/C
;
_chemical_formula_sum "Si O2"
_cell_formula_units_Z 26
_cell_length_a 8.073709
_cell_length_b 11.330821
_cell_length_c 17.886229
_cell_angle_alpha 90.000000
_cell_angle_beta 45.820383
_cell_angle_gamma 90.000000
_cell_volume 1173.460447
_symmetry_space_group_name_H-M "P 2/C"
_symmetry_group_IT_number 13
_symmetry_cell_setting 'monoclinic'
loop_
_space_group_symop_operation_xyz
x,y,z
-x,y,1/2-z
-x,-y,-z
x,-y,1/2+z
loop_
_atom_site_type_symbol
_atom_site_label
_atom_site_fract_x
_atom_site_fract_y
_atom_site_fract_z
Si Si1 0.000000 0.432962 0.250000
Si Si2 0.149200 0.271575 0.503627
Si Si3 0.432905 0.200921 0.637273
Si Si4 0.065423 0.109275 0.031178
Si Si5 0.766423 0.049613 0.908727
Si Si6 0.258206 0.406686 0.792544
Si Si7 0.447624 0.366968 0.040746
O O1 0.142321 0.513896 0.264225
O O2 0.183062 0.357958 0.146148
O O3 0.167869 0.159736 0.556460
O O4 0.390069 0.335891 0.440689
O O5 0.100923 0.216070 0.438093
O O6 0.945281 0.364381 0.587608
O O7 0.679482 0.145716 0.577069
O O8 0.249272 0.103391 0.668929
O O9 0.335360 0.283963 0.730738
O O10 0.484129 0.283729 0.549346
O O11 0.083412 0.059940 0.109395
O O12 0.000000 0.000000 0.000000
O O13 0.500000 0.000000 0.000000
O O14 0.500000 0.455933 0.750000
O O15 0.500000 0.500000 0.000000
#
# Coordination Sequence:
#
# PCOD9228490 Si02
#       7
#     2   4   4   4   4   4   4
#     4  12  24  44  58  86 130 164 218 270 304 380
#     4  10  19  34  57  89 123 159 200 261 313 364
#     4  10  19  35  58  90 124 162 203 246 313 370
#     4   9  17  33  57  84 119 154 201 248 304 372
#     4   8  16  30  55  80 110 160 200 236 307 368
#     4  12  22  36  61  95 129 157 213 270 315 359
#     4  11  21  38  62  83 119 172 201 254 322 372
#
# _framework density 22.156690000000001
#
# number of rings (size 3 to 8) (size 9 to 14) (size 15 to 20)
#    0.000    1.846    4.615    0.923    0.000    0.000 
#    2.769    2.308    0.000   51.692    0.000    0.000 
#    0.000    0.000    0.000    0.000    0.000    0.000 
#
# Total GULP energy -145026.806236 kJ/mol
# GULP energy per Si atom -5577.954086 kJ/mol
# Density = 2.210626 g / cm^3
# Si number density = 22.156690 Si / 1000 Ang^3
#
#
#
# Elastic Constant Matrix: (Units=GPa)
#
#
# Indices 1 2 3 4 5 6 
#
# 1 148.8756 42.7938 13.1809 0.0000 -22.5745 0.0000
# 2 42.7938 53.4007 10.1769 0.0000 -8.7810 0.0000
# 3 13.1809 10.1769 53.5459 0.0000 -18.4435 0.0000
# 4 0.0000 0.0000 0.0000 22.6590 0.0000 -16.5278
# 5 -22.5745 -8.7810 -18.4435 0.0000 31.3129 0.0000
# 6 0.0000 0.0000 0.0000 -16.5278 0.0000 40.7603
#
#
#
# Elastic Compliance Matrix: (Units=1/GPa)
#
#
# Indices 1 2 3 4 5 6 
#
# 1 0.009418 -0.006823 0.000826 0.000000 0.005363 0.000000
# 2 -0.006823 0.024803 -0.002927 0.000000 0.000313 0.000000
# 3 0.000826 -0.002927 0.023774 0.000000 0.013778 0.000000
# 4 0.000000 0.000000 0.000000 0.062668 0.000000 0.025411
# 5 0.005363 0.000313 0.013778 0.000000 0.044005 0.000000
# 6 0.000000 0.000000 0.000000 0.025411 0.000000 0.034837
#
#
# Mechanical properties :
#
#
# Convention : Reuss Voigt Hill
#
# Bulk Modulus (GPa) = 24.90835 43.12504 34.01669
# Shear Modulus (GPa) = 21.66967 31.59115 26.63041
#
# Velocity S-wave (km/s) = 3.13072 3.78008 3.47062
# Velocity P-wave (km/s) = 4.93304 6.20950 5.60771
#
# Compressibility (1/GPa) = 0.04014718
#
# Stress axis : x y z
#
# Youngs Moduli (GPa) = 106.17499 40.31703 42.06240
#
# Poissons Ratio (x) = 0.27509 -0.03473
# Poissons Ratio (y) = 0.72445 0.12311
# Poissons Ratio (z) = -0.08766 0.11800
#
# Static dielectric constant tensor:
#      x y z
#    x 1.901310 0.000000 0.041050 
#    y 0.000000 1.828950 0.000000 
#    z 0.041050 0.000000 1.852900 
# 
# From -- ./inp_files/76353.got.cif
#   From: 2010.05.17/outbox.cif.g08.bks.cpg/sg13_39_cif.got.tgz:76353.got - 2010.06.03 16:44:36.
