data_PCOD9228489
_publ_section_title
;
Structure prediction by ZEFSAII (Michael W. Deem and Ramdas Pophale) SiO2 
 PCOD9228489
Probable space group: P 2/C
;
_chemical_formula_sum "Si O2"
_cell_formula_units_Z 30
_cell_length_a 13.524108
_cell_length_b 7.189594
_cell_length_c 15.246052
_cell_angle_alpha 90.000000
_cell_angle_beta 127.245965
_cell_angle_gamma 90.000000
_cell_volume 1180.070107
_symmetry_space_group_name_H-M "P 2/C"
_symmetry_group_IT_number 13
_symmetry_cell_setting 'monoclinic'
loop_
_space_group_symop_operation_xyz
x,y,z
-x,y,1/2-z
-x,-y,-z
x,-y,1/2+z
loop_
_atom_site_type_symbol
_atom_site_label
_atom_site_fract_x
_atom_site_fract_y
_atom_site_fract_z
Si Si1 0.758638 0.573047 0.426805
Si Si2 0.900963 0.742301 0.076007
Si Si3 0.333709 0.199393 0.372066
Si Si4 0.866477 0.144456 0.095466
Si Si5 0.869759 0.862180 0.856158
Si Si6 0.500000 0.323025 0.750000
Si Si7 0.423751 0.221611 0.901520
Si Si8 0.165545 0.301658 0.708663
O O1 0.807644 0.426938 0.522013
O O2 0.780170 0.783863 0.470524
O O3 0.616286 0.549435 0.332613
O O4 0.834182 0.571449 0.377682
O O5 0.903586 0.818015 0.975349
O O6 0.032514 0.665238 0.177549
O O7 0.864595 0.924121 0.109756
O O8 0.212296 0.230223 0.367559
O O9 0.265365 0.223568 0.242005
O O10 0.461087 0.290664 0.476584
O O11 0.377104 0.983441 0.403112
O O12 0.007768 0.186604 0.138599
O O13 0.845323 0.082544 0.824472
O O14 0.469182 0.214427 0.823692
O O15 0.294321 0.335903 0.827842
#
# Coordination Sequence:
#
# PCOD9228489 Si02
#       8
#     4   4   4   4   4   2   4   4
#     4  11  20  35  61  86 117 151 192 258 300 344
#     4  11  21  35  61  95 112 145 211 250 293 352
#     4  10  20  34  57  88 121 164 198 232 305 372
#     4  11  20  37  59  86 122 155 195 250 302 351
#     4  10  19  34  57  89 120 152 199 249 295 356
#     4  10  20  38  60  86 120 162 204 258 302 348
#     4   9  19  34  59  88 114 161 206 235 295 364
#     4   9  17  34  58  85 114 149 191 253 296 333
#
# _framework density 25.422215999999999
#
# number of rings (size 3 to 8) (size 9 to 14) (size 15 to 20)
#    0.000    1.867    4.000    1.600    0.000    0.000 
#    0.000    4.667    8.800    5.600    0.000    0.000 
#    0.000    0.000    0.000    0.000    0.000    0.000 
#
# Total GULP energy -167379.071632 kJ/mol
# GULP energy per Si atom -5579.302388 kJ/mol
# Density = 2.536435 g / cm^3
# Si number density = 25.422216 Si / 1000 Ang^3
#
#
#
# Elastic Constant Matrix: (Units=GPa)
#
#
# Indices 1 2 3 4 5 6 
#
# 1 89.6478 11.9662 54.2763 0.0000 17.1522 0.0000
# 2 11.9662 63.1415 4.9816 0.0000 11.2612 0.0000
# 3 54.2763 4.9816 157.2889 0.0000 45.1783 0.0000
# 4 0.0000 0.0000 0.0000 22.4523 0.0000 8.5171
# 5 17.1522 11.2612 45.1783 0.0000 45.2586 0.0000
# 6 0.0000 0.0000 0.0000 8.5171 0.0000 6.1784
#
#
#
# Elastic Compliance Matrix: (Units=1/GPa)
#
#
# Indices 1 2 3 4 5 6 
#
# 1 0.014440 -0.002352 -0.004913 0.000000 0.000017 0.000000
# 2 -0.002352 0.017052 0.001730 0.000000 -0.005079 0.000000
# 3 -0.004913 0.001730 0.010637 0.000000 -0.009187 0.000000
# 4 0.000000 0.000000 0.000000 0.093360 0.000000 -0.128699
# 5 0.000017 -0.005079 -0.009187 0.000000 0.032523 0.000000
# 6 0.000000 0.000000 0.000000 -0.128699 0.000000 0.339270
#
#
# Mechanical properties :
#
#
# Convention : Reuss Voigt Hill
#
# Bulk Modulus (GPa) = 32.19622 50.28071 41.23846
# Shear Modulus (GPa) = 9.45704 30.70145 20.07925
#
# Velocity S-wave (km/s) = 1.93082 3.47891 2.81344
# Velocity P-wave (km/s) = 4.20272 5.99653 5.17789
#
# Compressibility (1/GPa) = 0.03105955
#
# Stress axis : x y z
#
# Youngs Moduli (GPa) = 69.25118 58.64244 94.01032
#
# Poissons Ratio (x) = 0.13793 0.46191
# Poissons Ratio (y) = 0.16288 -0.16267
# Poissons Ratio (z) = 0.34026 -0.10147
#
# Static dielectric constant tensor:
#      x y z
#    x 2.038200 0.000000 -0.058000 
#    y 0.000000 2.022530 0.000000 
#    z -0.058000 0.000000 2.078060 
# 
# From -- ./inp_files/67965.got.cif
#   From: 2010.05.17/outbox.cif.g08.bks.cpg/sg13_34_cif.got.tgz:67965.got - 2010.06.03 16:44:36.
