data_PCOD9228596
_publ_section_title
;
Structure prediction by ZEFSAII (Michael W. Deem and Ramdas Pophale) SiO2 
 PCOD9228596
Probable space group: P 2/C
;
_chemical_formula_sum "Si O2"
_cell_formula_units_Z 20
_cell_length_a 5.396327
_cell_length_b 11.577668
_cell_length_c 14.414448
_cell_angle_alpha 90.000000
_cell_angle_beta 89.397628
_cell_angle_gamma 90.000000
_cell_volume 900.520003
_symmetry_space_group_name_H-M "P 2/C"
_symmetry_group_IT_number 13
_symmetry_cell_setting 'monoclinic'
loop_
_space_group_symop_operation_xyz
x,y,z
-x,y,1/2-z
-x,-y,-z
x,-y,1/2+z
loop_
_atom_site_type_symbol
_atom_site_label
_atom_site_fract_x
_atom_site_fract_y
_atom_site_fract_z
Si Si1 0.378363 0.702316 0.393274
Si Si2 0.875654 0.594526 0.375929
Si Si3 0.914393 0.648497 0.934537
Si Si4 0.004061 0.095483 0.138398
Si Si5 0.506802 0.967496 0.137425
O O1 0.613085 0.641557 0.347452
O O2 0.327597 0.659517 0.498840
O O3 0.119199 0.666025 0.345514
O O4 0.433809 0.837731 0.393582
O O5 0.900331 0.457555 0.363957
O O6 0.882863 0.615385 0.488230
O O7 0.964165 0.772948 0.892621
O O8 0.242164 0.019123 0.107550
O O9 0.000000 0.091756 0.250000
O O10 0.740236 0.045656 0.107328
O O11 0.500000 0.965543 0.250000
#
# Coordination Sequence:
#
# PCOD9228596 Si02
#       5
#     4   4   4   4   4
#     4  10  19  35  55  79 103 139 174 212 264 310
#     4   9  20  34  55  81 107 135 168 220 269 298
#     4   9  21  34  58  76 112 133 176 217 261 312
#     4  10  22  37  54  76 106 143 174 215 264 308
#     4  10  22  38  53  75 110 141 175 219 262 307
#
# _framework density 22.209388000000001
#
# number of rings (size 3 to 8) (size 9 to 14) (size 15 to 20)
#    1.200    1.200    0.000    1.800    2.800    1.600 
#    0.000    2.000    0.000    0.000    0.000    0.000 
#    0.000    0.000    0.000    0.000    0.000    0.000 
#
# Total GULP energy -111604.701147 kJ/mol
# GULP energy per Si atom -5580.235057 kJ/mol
# Density = 2.215884 g / cm^3
# Si number density = 22.209388 Si / 1000 Ang^3
#
#
#
# Elastic Constant Matrix: (Units=GPa)
#
#
# Indices 1 2 3 4 5 6 
#
# 1 152.2154 67.7099 36.6455 0.0000 -45.7883 0.0000
# 2 67.7099 174.2997 28.6919 0.0000 -29.1227 0.0000
# 3 36.6455 28.6919 63.9795 0.0000 -10.4545 0.0000
# 4 0.0000 0.0000 0.0000 121.6562 0.0000 -48.0317
# 5 -45.7883 -29.1227 -10.4545 0.0000 20.0524 0.0000
# 6 0.0000 0.0000 0.0000 -48.0317 0.0000 57.2381
#
#
#
# Elastic Compliance Matrix: (Units=1/GPa)
#
#
# Indices 1 2 3 4 5 6 
#
# 1 0.022297 0.000301 -0.004935 0.000000 0.048776 0.000000
# 2 0.000301 0.007763 -0.001857 0.000000 0.010992 0.000000
# 3 -0.004935 -0.001857 0.018591 0.000000 -0.004274 0.000000
# 4 0.000000 0.000000 0.000000 0.012293 0.000000 0.010315
# 5 0.048776 0.010992 -0.004274 0.000000 0.174983 0.000000
# 6 0.000000 0.000000 0.000000 0.010315 0.000000 0.026127
#
#
# Mechanical properties :
#
#
# Convention : Reuss Voigt Hill
#
# Bulk Modulus (GPa) = 28.03735 72.95436 50.49586
# Shear Modulus (GPa) = 17.42605 56.95250 37.18928
#
# Velocity S-wave (km/s) = 2.80416 5.06943 4.09649
# Velocity P-wave (km/s) = 4.80998 8.19666 6.72016
#
# Compressibility (1/GPa) = 0.03566671
#
# Stress axis : x y z
#
# Youngs Moduli (GPa) = 44.84984 128.81878 53.78852
#
# Poissons Ratio (x) = -0.03873 0.26547
# Poissons Ratio (y) = -0.01348 0.09990
# Poissons Ratio (z) = 0.22135 0.23925
#
# Static dielectric constant tensor:
#      x y z
#    x 1.810550 0.000000 0.049380 
#    y 0.000000 1.774090 0.000000 
#    z 0.049380 0.000000 1.826250 
# 
# From -- ./inp_files/72982.got.cif
#   From: 2010.05.17/outbox.cif.g08.bks.cpg/sg13_37_cif.got.tgz:72982.got - 2010.06.03 16:44:36.
