data_PCOD9228011
_publ_section_title
;
Structure prediction by ZEFSAII (Michael W. Deem and Ramdas Pophale) SiO2 
 PCOD9228011
Probable space group: P 2/C
;
_chemical_formula_sum "Si O2"
_cell_formula_units_Z 32
_cell_length_a 28.230939
_cell_length_b 9.638345
_cell_length_c 20.414205
_cell_angle_alpha 90.000000
_cell_angle_beta 162.115747
_cell_angle_gamma 90.000000
_cell_volume 1705.819644
_symmetry_space_group_name_H-M "P 2/C"
_symmetry_group_IT_number 13
_symmetry_cell_setting 'monoclinic'
loop_
_space_group_symop_operation_xyz
x,y,z
-x,y,1/2-z
-x,-y,-z
x,-y,1/2+z
loop_
_atom_site_type_symbol
_atom_site_label
_atom_site_fract_x
_atom_site_fract_y
_atom_site_fract_z
Si Si1 0.157990 0.643619 0.257181
Si Si2 0.763341 0.649089 0.600657
Si Si3 0.001372 0.854234 0.540494
Si Si4 0.478422 0.346722 0.827151
Si Si5 0.366078 0.190679 0.128202
Si Si6 0.307478 0.128670 0.782403
Si Si7 0.583936 0.039783 0.710023
Si Si8 0.434158 0.374447 0.013823
O O1 0.131244 0.486676 0.246179
O O2 0.228065 0.736346 0.407948
O O3 0.290410 0.631924 0.375526
O O4 0.025494 0.733112 0.048974
O O5 0.679343 0.627538 0.420668
O O6 0.621447 0.647331 0.464902
O O7 0.852434 0.794156 0.727468
O O8 0.857814 0.864241 0.401289
O O9 0.000000 0.000000 0.500000
O O10 0.466103 0.192554 0.836505
O O11 0.513696 0.467912 0.925247
O O12 0.500000 0.168384 0.250000
O O13 0.431232 0.295924 0.268801
O O14 0.337821 0.047143 0.128815
O O15 0.311921 0.058447 0.717446
O O16 0.380880 0.283422 0.882092
O O17 0.427593 0.041585 0.984807
#
# Coordination Sequence:
#
# PCOD9228011 Si02
#       8
#     4   4   4   4   4   4   4   4
#     4   9  17  32  52  76 105 140 177 217 275 320
#     4  10  20  33  52  81 113 133 176 225 270 322
#     4  11  22  34  55  80 109 144 178 224 273 326
#     4  10  19  31  54  84 105 133 180 225 267 309
#     4   9  16  28  51  78 107 139 174 219 272 315
#     4   9  20  38  51  77 113 145 179 212 280 327
#     4  10  20  32  55  80 109 142 177 228 261 316
#     4   8  15  31  52  76 106 138 170 222 266 321
#
# _framework density 18.759309999999999
#
# number of rings (size 3 to 8) (size 9 to 14) (size 15 to 20)
#    0.000    2.500    1.250    1.875    3.500    0.500 
#    0.000    0.625    0.000    0.000    3.250    0.000 
#    0.000    0.000    0.000    0.000    0.000    0.000 
#
# Total GULP energy -178266.806154 kJ/mol
# GULP energy per Si atom -5570.837692 kJ/mol
# Density = 1.871661 g / cm^3
# Si number density = 18.759310 Si / 1000 Ang^3
#
#
#
# Elastic Constant Matrix: (Units=GPa)
#
#
# Indices 1 2 3 4 5 6 
#
# 1 31.3951 17.7816 14.5396 0.0000 -5.1932 0.0000
# 2 17.7816 140.8181 29.1298 0.0000 -7.5295 0.0000
# 3 14.5396 29.1298 38.2727 0.0000 2.6029 0.0000
# 4 0.0000 0.0000 0.0000 9.5261 0.0000 13.6389
# 5 -5.1932 -7.5295 2.6029 0.0000 9.5045 0.0000
# 6 0.0000 0.0000 0.0000 13.6389 0.0000 8.3063
#
#
#
# Elastic Compliance Matrix: (Units=1/GPa)
#
#
# Indices 1 2 3 4 5 6 
#
# 1 0.045929 -0.000174 -0.019374 0.000000 0.030264 0.000000
# 2 -0.000174 0.009179 -0.007549 0.000000 0.009244 0.000000
# 3 -0.019374 -0.007549 0.041127 0.000000 -0.027829 0.000000
# 4 0.000000 0.000000 0.000000 -0.077708 0.000000 0.127595
# 5 0.030264 0.009244 -0.027829 0.000000 0.136693 0.000000
# 6 0.000000 0.000000 0.000000 0.127595 0.000000 -0.089120
#
#
# Mechanical properties :
#
#
# Convention : Reuss Voigt Hill
#
# Bulk Modulus (GPa) = 23.78628 37.04310 30.41469
# Shear Modulus (GPa) = 37.22764 15.40305 26.31534
#
# Velocity S-wave (km/s) = 4.45959 2.86857 3.74944
# Velocity P-wave (km/s) = 6.26295 5.54626 5.91547
#
# Compressibility (1/GPa) = 0.04204104
#
# Stress axis : x y z
#
# Youngs Moduli (GPa) = 21.77265 108.94204 24.31501
#
# Poissons Ratio (x) = 0.01892 0.47109
# Poissons Ratio (y) = 0.00378 0.18356
# Poissons Ratio (z) = 0.42183 0.82241
#
# Static dielectric constant tensor:
#      x y z
#    x 1.642820 0.000000 -0.028770 
#    y 0.000000 1.685280 0.000000 
#    z -0.028770 0.000000 1.663900 
# 
# From -- ./inp_files/82783.got.cif
#   From: 2010.05.17/outbox.cif.g08.bks.cpg/sg13_42_cif.got.tgz:82783.got - 2010.06.03 16:44:36.
