data_PCOD9228255
_publ_section_title
;
Structure prediction by ZEFSAII (Michael W. Deem and Ramdas Pophale) SiO2 
 PCOD9228255
Probable space group: P 2/C
;
_chemical_formula_sum "Si O2"
_cell_formula_units_Z 20
_cell_length_a 7.047260
_cell_length_b 22.508791
_cell_length_c 5.230835
_cell_angle_alpha 90.000000
_cell_angle_beta 80.397829
_cell_angle_gamma 90.000000
_cell_volume 818.117853
_symmetry_space_group_name_H-M "P 2/C"
_symmetry_group_IT_number 13
_symmetry_cell_setting 'monoclinic'
loop_
_space_group_symop_operation_xyz
x,y,z
-x,y,1/2-z
-x,-y,-z
x,-y,1/2+z
loop_
_atom_site_type_symbol
_atom_site_label
_atom_site_fract_x
_atom_site_fract_y
_atom_site_fract_z
Si Si1 0.624363 0.163596 0.968208
Si Si2 0.267749 0.343080 0.823057
Si Si3 0.768762 0.034080 0.800841
Si Si4 0.218058 0.477670 0.770090
Si Si5 0.735099 0.721020 0.671639
O O1 0.500000 0.186686 0.750000
O O2 0.712264 0.102013 0.855631
O O3 0.500000 0.150122 0.250000
O O4 0.769611 0.214008 0.041446
O O5 0.500000 0.339407 0.750000
O O6 0.219959 0.411499 0.881208
O O7 0.198578 0.325015 0.557620
O O8 0.200010 0.298823 0.062560
O O9 0.000000 0.031748 0.750000
O O10 0.702076 0.007916 0.546798
O O11 0.306792 0.480250 0.466417
O O12 0.000000 0.495904 0.750000
O O13 0.500000 0.719845 0.750000
#
# Coordination Sequence:
#
# PCOD9228255 Si02
#       5
#     4   4   4   4   4
#     4  11  21  35  59  86 112 144 188 234 275 330
#     4  10  19  33  55  77 103 137 175 216 263 321
#     4  10  22  39  57  80 116 155 186 227 284 333
#     4  10  21  36  53  75 106 140 173 216 268 315
#     4   9  18  33  52  78 107 137 171 219 276 315
#
# _framework density 24.446355000000001
#
# number of rings (size 3 to 8) (size 9 to 14) (size 15 to 20)
#    0.000    2.000    0.000    5.400    0.000    3.200 
#    0.000    1.000    0.000    7.200    0.000    0.000 
#    0.000    0.000    0.000    0.000    0.000    0.000 
#
# Total GULP energy -111813.986452 kJ/mol
# GULP energy per Si atom -5590.699323 kJ/mol
# Density = 2.439071 g / cm^3
# Si number density = 24.446355 Si / 1000 Ang^3
#
#
#
# Elastic Constant Matrix: (Units=GPa)
#
#
# Indices 1 2 3 4 5 6 
#
# 1 74.6988 -1.5722 29.5577 0.0000 15.1621 0.0000
# 2 -1.5722 153.8582 58.2552 0.0000 6.6090 0.0000
# 3 29.5577 58.2552 182.0134 0.0000 19.7368 0.0000
# 4 0.0000 0.0000 0.0000 50.5244 0.0000 -3.2038
# 5 15.1621 6.6090 19.7368 0.0000 27.5784 0.0000
# 6 0.0000 0.0000 0.0000 -3.2038 0.0000 33.0318
#
#
#
# Elastic Compliance Matrix: (Units=1/GPa)
#
#
# Indices 1 2 3 4 5 6 
#
# 1 0.015784 0.001304 -0.002174 0.000000 -0.007434 0.000000
# 2 0.001304 0.007504 -0.002538 0.000000 -0.000699 0.000000
# 3 -0.002174 -0.002538 0.007008 0.000000 -0.003212 0.000000
# 4 0.000000 0.000000 0.000000 0.019915 0.000000 0.001932
# 5 -0.007434 -0.000699 -0.003212 0.000000 0.042813 0.000000
# 6 0.000000 0.000000 0.000000 0.001932 0.000000 0.030461
#
#
# Mechanical properties :
#
#
# Convention : Reuss Voigt Hill
#
# Bulk Modulus (GPa) = 42.59121 64.78353 53.68737
# Shear Modulus (GPa) = 36.19858 43.84889 40.02373
#
# Velocity S-wave (km/s) = 3.85221 4.23978 4.05063
# Velocity P-wave (km/s) = 6.10296 7.10812 6.62463
#
# Compressibility (1/GPa) = 0.02347902
#
# Stress axis : x y z
#
# Youngs Moduli (GPa) = 63.35586 133.26873 142.70161
#
# Poissons Ratio (x) = -0.17377 0.31029
# Poissons Ratio (y) = -0.08261 0.36211
# Poissons Ratio (z) = 0.13776 0.33818
#
# Static dielectric constant tensor:
#      x y z
#    x 2.023430 0.000000 -0.056840 
#    y 0.000000 1.901500 0.000000 
#    z -0.056840 0.000000 1.983430 
# 
# From -- ./inp_files/2095.got.cif
#   From: 2010.05.17/outbox.cif.g08.bks.cpg/sg13_2_cif.got.tgz:2095.got - 2010.06.03 16:44:36.
