data_PCOD9228139
_publ_section_title
;
Structure prediction by ZEFSAII (Michael W. Deem and Ramdas Pophale) SiO2 
 PCOD9228139
Probable space group: P 2/C
;
_chemical_formula_sum "Si O2"
_cell_formula_units_Z 32
_cell_length_a 13.482566
_cell_length_b 9.325479
_cell_length_c 22.427521
_cell_angle_alpha 90.000000
_cell_angle_beta 35.648593
_cell_angle_gamma 90.000000
_cell_volume 1643.439524
_symmetry_space_group_name_H-M "P 2/C"
_symmetry_group_IT_number 13
_symmetry_cell_setting 'monoclinic'
loop_
_space_group_symop_operation_xyz
x,y,z
-x,y,1/2-z
-x,-y,-z
x,-y,1/2+z
loop_
_atom_site_type_symbol
_atom_site_label
_atom_site_fract_x
_atom_site_fract_y
_atom_site_fract_z
Si Si1 0.671406 0.858256 0.032636
Si Si2 0.296215 0.546079 0.534963
Si Si3 0.988069 0.662157 0.183529
Si Si4 0.949905 0.985800 0.343285
Si Si5 0.627157 0.918761 0.244263
Si Si6 0.177528 0.196415 0.313480
Si Si7 0.908879 0.850466 0.030187
Si Si8 0.316939 0.457450 0.167495
O O1 0.777171 0.879143 0.041378
O O2 0.475565 0.870883 0.146968
O O3 0.716561 0.702548 0.986514
O O4 0.751389 0.974590 0.949053
O O5 0.143933 0.441740 0.589208
O O6 0.482053 0.486996 0.426266
O O7 0.286702 0.565874 0.611321
O O8 0.000000 0.667986 0.250000
O O9 0.013980 0.825717 0.151161
O O10 0.808458 0.589463 0.255501
O O11 0.000000 0.994890 0.250000
O O12 0.060679 0.101566 0.325667
O O13 0.500000 0.916477 0.250000
O O14 0.689857 0.080870 0.225248
O O15 0.788106 0.820901 0.145656
O O16 0.260454 0.324162 0.235762
O O17 0.055262 0.245805 0.428247
O O18 0.000000 0.000000 0.000000
#
# Coordination Sequence:
#
# PCOD9228139 Si02
#       8
#     4   4   4   4   4   4   4   4
#     4  10  19  32  56  82 104 148 187 231 288 344
#     4  10  21  36  54  81 121 161 193 226 283 356
#     4   9  19  35  51  73 116 157 183 230 283 329
#     4  10  20  33  53  86 117 143 187 240 282 338
#     4   9  19  34  55  85 107 135 182 251 298 332
#     4  10  19  33  59  83 103 148 192 230 283 352
#     4   8  16  33  54  82 102 131 181 238 295 342
#     4  10  21  36  55  82 118 161 195 226 282 362
#
# _framework density 19.471357999999999
#
# number of rings (size 3 to 8) (size 9 to 14) (size 15 to 20)
#    0.000    2.500    0.000    2.250    3.500    1.000 
#    0.000    1.250    0.000    3.000    0.000    0.000 
#    0.000    0.000    0.000    0.000    0.000    0.000 
#
# Total GULP energy -178260.931880 kJ/mol
# GULP energy per Si atom -5570.654121 kJ/mol
# Density = 1.942704 g / cm^3
# Si number density = 19.471358 Si / 1000 Ang^3
#
#
#
# Elastic Constant Matrix: (Units=GPa)
#
#
# Indices 1 2 3 4 5 6 
#
# 1 36.8291 13.8800 27.7541 0.0000 -0.9289 0.0000
# 2 13.8800 94.8272 75.1852 0.0000 9.7446 0.0000
# 3 27.7541 75.1852 186.0142 0.0000 3.7498 0.0000
# 4 0.0000 0.0000 0.0000 22.9596 0.0000 2.2819
# 5 -0.9289 9.7446 3.7498 0.0000 15.5408 0.0000
# 6 0.0000 0.0000 0.0000 2.2819 0.0000 16.3722
#
#
#
# Elastic Compliance Matrix: (Units=1/GPa)
#
#
# Indices 1 2 3 4 5 6 
#
# 1 0.030916 -0.001778 -0.003973 0.000000 0.003921 0.000000
# 2 -0.001778 0.016752 -0.006323 0.000000 -0.009085 0.000000
# 3 -0.003973 -0.006323 0.008491 0.000000 0.001678 0.000000
# 4 0.000000 0.000000 0.000000 0.044166 0.000000 -0.006156
# 5 0.003921 -0.009085 0.001678 0.000000 0.069873 0.000000
# 6 0.000000 0.000000 0.000000 -0.006156 0.000000 0.061937
#
#
# Mechanical properties :
#
#
# Convention : Reuss Voigt Hill
#
# Bulk Modulus (GPa) = 31.23950 61.25658 46.24804
# Shear Modulus (GPa) = 18.72990 24.36461 21.54725
#
# Velocity S-wave (km/s) = 3.10485 3.54122 3.33019
# Velocity P-wave (km/s) = 5.37886 6.94611 6.21211
#
# Compressibility (1/GPa) = 0.03201076
#
# Stress axis : x y z
#
# Youngs Moduli (GPa) = 32.34617 59.69284 117.77861
#
# Poissons Ratio (x) = 0.10613 0.46795
# Poissons Ratio (y) = 0.05751 0.74468
# Poissons Ratio (z) = 0.12852 0.37742
#
# Static dielectric constant tensor:
#      x y z
#    x 1.688900 0.000000 -0.001140 
#    y 0.000000 1.648030 0.000000 
#    z -0.001140 0.000000 1.767380 
# 
# From -- ./inp_files/87391.got.cif
#   From: 2010.05.17/outbox.cif.g08.bks.cpg/sg13_44_cif.got.tgz:87391.got - 2010.06.03 16:44:36.
