data_PCOD9228938
_publ_section_title
;
Structure prediction by ZEFSAII (Michael W. Deem and Ramdas Pophale) SiO2 
 PCOD9228938
Probable space group: P 2/C
;
_chemical_formula_sum "Si O2"
_cell_formula_units_Z 24
_cell_length_a 8.824409
_cell_length_b 8.906323
_cell_length_c 29.156054
_cell_angle_alpha 90.000000
_cell_angle_beta 30.108500
_cell_angle_gamma 90.000000
_cell_volume 1149.487303
_symmetry_space_group_name_H-M "P 2/C"
_symmetry_group_IT_number 13
_symmetry_cell_setting 'monoclinic'
loop_
_space_group_symop_operation_xyz
x,y,z
-x,y,1/2-z
-x,-y,-z
x,-y,1/2+z
loop_
_atom_site_type_symbol
_atom_site_label
_atom_site_fract_x
_atom_site_fract_y
_atom_site_fract_z
Si Si1 0.855826 0.368965 0.660485
Si Si2 0.275670 0.277263 0.711641
Si Si3 0.222150 0.662650 0.544125
Si Si4 0.240296 0.082836 0.969325
Si Si5 0.649718 0.478160 0.076250
Si Si6 0.383296 0.781056 0.973786
O O1 0.500000 0.380905 0.750000
O O2 0.880633 0.263834 0.698518
O O3 0.995810 0.536675 0.623443
O O4 0.041985 0.277721 0.573467
O O5 0.523046 0.162979 0.626938
O O6 0.442683 0.438550 0.666787
O O7 0.000000 0.278375 0.750000
O O8 0.106026 0.795454 0.540784
O O9 0.403727 0.564673 0.458424
O O10 0.418245 0.729694 0.534430
O O11 0.396472 0.955468 0.959520
O O12 0.000000 0.000000 0.000000
O O13 0.549178 0.310737 0.090619
O O14 0.000000 0.500000 0.000000
#
# Coordination Sequence:
#
# PCOD9228938 Si02
#       6
#     4   4   4   4   4   4
#     4  11  21  37  61  89 116 150 199 257 298 339
#     4  11  22  39  61  90 120 153 200 258 302 345
#     4  10  21  38  59  86 116 157 201 237 292 366
#     4  11  23  41  62  86 121 165 201 240 302 377
#     4  10  19  36  61  88 117 158 203 241 293 367
#     4  11  21  39  62  85 118 163 200 241 299 368
#
# _framework density 20.878872000000001
#
# number of rings (size 3 to 8) (size 9 to 14) (size 15 to 20)
#    0.000    1.333    0.000   10.500    0.000    0.000 
#    0.000    8.333    0.000    0.000    0.000    0.000 
#    0.000    0.000    0.000    0.000    0.000    0.000 
#
# Total GULP energy -133786.709656 kJ/mol
# GULP energy per Si atom -5574.446236 kJ/mol
# Density = 2.083135 g / cm^3
# Si number density = 20.878872 Si / 1000 Ang^3
#
#
#
# Elastic Constant Matrix: (Units=GPa)
#
#
# Indices 1 2 3 4 5 6 
#
# 1 98.8780 19.5635 8.3579 0.0000 1.9773 0.0000
# 2 19.5635 101.2964 18.6276 0.0000 9.6723 0.0000
# 3 8.3579 18.6276 53.9323 0.0000 0.8939 0.0000
# 4 0.0000 0.0000 0.0000 31.0419 0.0000 3.0127
# 5 1.9773 9.6723 0.8939 0.0000 28.6596 0.0000
# 6 0.0000 0.0000 0.0000 3.0127 0.0000 34.9838
#
#
#
# Elastic Compliance Matrix: (Units=1/GPa)
#
#
# Indices 1 2 3 4 5 6 
#
# 1 0.010565 -0.001850 -0.000997 0.000000 -0.000073 0.000000
# 2 -0.001850 0.011217 -0.003529 0.000000 -0.003548 0.000000
# 3 -0.000997 -0.003529 0.019904 0.000000 0.000639 0.000000
# 4 0.000000 0.000000 0.000000 0.032486 0.000000 -0.002798
# 5 -0.000073 -0.003548 0.000639 0.000000 0.036075 0.000000
# 6 0.000000 0.000000 0.000000 -0.002798 0.000000 0.028826
#
#
# Mechanical properties :
#
#
# Convention : Reuss Voigt Hill
#
# Bulk Modulus (GPa) = 34.56031 38.57833 36.56932
# Shear Modulus (GPa) = 30.96550 32.77423 31.86987
#
# Velocity S-wave (km/s) = 3.85528 3.96628 3.91118
# Velocity P-wave (km/s) = 6.03377 6.28431 6.16031
#
# Compressibility (1/GPa) = 0.02893492
#
# Stress axis : x y z
#
# Youngs Moduli (GPa) = 94.64965 89.15035 50.23999
#
# Poissons Ratio (x) = 0.16494 0.05009
# Poissons Ratio (y) = 0.17511 0.17728
# Poissons Ratio (z) = 0.09437 0.31459
#
# Static dielectric constant tensor:
#      x y z
#    x 1.864900 0.000000 -0.002960 
#    y 0.000000 1.788020 0.000000 
#    z -0.002960 0.000000 1.749070 
# 
# From -- ./inp_files/68098.got.cif
#   From: 2010.05.17/outbox.cif.g08.bks.cpg/sg13_35_cif.got.tgz:68098.got - 2010.06.03 16:44:36.
