data_PCOD9228735
_publ_section_title
;
Structure prediction by ZEFSAII (Michael W. Deem and Ramdas Pophale) SiO2 
 PCOD9228735
Probable space group: P 2/C
;
_chemical_formula_sum "Si O2"
_cell_formula_units_Z 30
_cell_length_a 18.318236
_cell_length_b 14.607159
_cell_length_c 11.039916
_cell_angle_alpha 90.000000
_cell_angle_beta 148.724135
_cell_angle_gamma 90.000000
_cell_volume 1533.612635
_symmetry_space_group_name_H-M "P 2/C"
_symmetry_group_IT_number 13
_symmetry_cell_setting 'monoclinic'
loop_
_space_group_symop_operation_xyz
x,y,z
-x,y,1/2-z
-x,-y,-z
x,-y,1/2+z
loop_
_atom_site_type_symbol
_atom_site_label
_atom_site_fract_x
_atom_site_fract_y
_atom_site_fract_z
Si Si1 0.895507 0.914158 0.484629
Si Si2 0.288832 0.531650 0.691460
Si Si3 0.131488 0.619164 0.853319
Si Si4 0.792546 0.312725 0.275682
Si Si5 0.062167 0.874731 0.474728
Si Si6 0.326771 0.219928 0.731797
Si Si7 0.561163 0.383827 0.468419
Si Si8 0.500000 0.742833 0.250000
O O1 0.752602 0.864918 0.322410
O O2 0.000000 0.903212 0.750000
O O3 0.959538 0.874043 0.448848
O O4 0.876065 0.022536 0.435966
O O5 0.232575 0.468824 0.503636
O O6 0.195328 0.617035 0.597132
O O7 0.436609 0.578996 0.875338
O O8 0.311976 0.454973 0.828633
O O9 0.102035 0.647717 0.675443
O O10 0.000000 0.598085 0.750000
O O11 0.208691 0.709019 0.015722
O O12 0.829565 0.208275 0.354855
O O13 0.632728 0.314232 0.993071
O O14 0.000000 0.863762 0.250000
O O15 0.429941 0.203292 0.763642
O O16 0.403831 0.281712 0.940717
O O17 0.500000 0.387026 0.250000
#
# Coordination Sequence:
#
# PCOD9228735 Si02
#       8
#     4   4   4   4   4   4   4   2
#     4  10  20  41  68  93 120 161 210 251 305 382
#     4  10  21  34  53  82 115 159 204 249 295 360
#     4  10  21  35  56  86 114 156 209 251 300 357
#     4  11  21  37  60  84 121 159 204 257 307 367
#     4  10  23  40  65  96 126 160 202 259 319 370
#     4  10  19  35  61  86 115 154 205 256 295 364
#     4  10  20  34  53  79 114 161 200 241 300 360
#     4  10  20  36  60  88 114 160 214 250 306 368
#
# _framework density 19.561654999999998
#
# number of rings (size 3 to 8) (size 9 to 14) (size 15 to 20)
#    0.000    1.867    1.333    3.600    2.800    2.133 
#    0.000    0.667    1.467    0.000    0.000    0.000 
#    0.000    0.000    0.000    0.000    0.000    0.000 
#
# Total GULP energy -167113.807266 kJ/mol
# GULP energy per Si atom -5570.460242 kJ/mol
# Density = 1.951713 g / cm^3
# Si number density = 19.561655 Si / 1000 Ang^3
#
#
#
# Elastic Constant Matrix: (Units=GPa)
#
#
# Indices 1 2 3 4 5 6 
#
# 1 100.4841 52.3608 17.9568 0.0000 -3.6614 0.0000
# 2 52.3608 113.6229 32.2642 0.0000 5.7858 0.0000
# 3 17.9568 32.2642 30.2756 0.0000 -2.3566 0.0000
# 4 0.0000 0.0000 0.0000 28.7807 0.0000 12.4602
# 5 -3.6614 5.7858 -2.3566 0.0000 29.7450 0.0000
# 6 0.0000 0.0000 0.0000 12.4602 0.0000 32.4116
#
#
#
# Elastic Compliance Matrix: (Units=1/GPa)
#
#
# Indices 1 2 3 4 5 6 
#
# 1 0.013377 -0.005889 -0.001450 0.000000 0.002677 0.000000
# 2 -0.005889 0.015595 -0.013502 0.000000 -0.004828 0.000000
# 3 -0.001450 -0.013502 0.048770 0.000000 0.006312 0.000000
# 4 0.000000 0.000000 0.000000 0.041683 0.000000 -0.016025
# 5 0.002677 -0.004828 0.006312 0.000000 0.035388 0.000000
# 6 0.000000 0.000000 0.000000 -0.016025 0.000000 0.037014
#
#
# Mechanical properties :
#
#
# Convention : Reuss Voigt Hill
#
# Bulk Modulus (GPa) = 27.73156 49.94958 38.84057
# Shear Modulus (GPa) = 20.36427 27.64085 24.00256
#
# Velocity S-wave (km/s) = 3.23000 3.76308 3.50669
# Velocity P-wave (km/s) = 5.30262 6.66865 6.02448
#
# Compressibility (1/GPa) = 0.03605999
#
# Stress axis : x y z
#
# Youngs Moduli (GPa) = 74.75356 64.12370 20.50454
#
# Poissons Ratio (x) = 0.37765 0.02972
# Poissons Ratio (y) = 0.44025 0.27685
# Poissons Ratio (z) = 0.10837 0.86579
#
# Static dielectric constant tensor:
#      x y z
#    x 1.768890 0.000000 -0.011320 
#    y 0.000000 1.664120 0.000000 
#    z -0.011320 0.000000 1.732080 
# 
# From -- ./inp_files/39422.got.cif
#   From: 2010.05.17/outbox.cif.g08.bks.cpg/sg13_20_cif.got.tgz:39422.got - 2010.06.03 16:44:36.
