data_PCOD9228706
_publ_section_title
;
Structure prediction by ZEFSAII (Michael W. Deem and Ramdas Pophale) SiO2 
 PCOD9228706
Probable space group: P 2/C
;
_chemical_formula_sum "Si O2"
_cell_formula_units_Z 22
_cell_length_a 5.318298
_cell_length_b 9.682077
_cell_length_c 18.460747
_cell_angle_alpha 90.000000
_cell_angle_beta 104.258482
_cell_angle_gamma 90.000000
_cell_volume 921.300684
_symmetry_space_group_name_H-M "P 2/C"
_symmetry_group_IT_number 13
_symmetry_cell_setting 'monoclinic'
loop_
_space_group_symop_operation_xyz
x,y,z
-x,y,1/2-z
-x,-y,-z
x,-y,1/2+z
loop_
_atom_site_type_symbol
_atom_site_label
_atom_site_fract_x
_atom_site_fract_y
_atom_site_fract_z
Si Si1 0.500000 0.640878 0.250000
Si Si2 0.076595 0.052849 0.158681
Si Si3 0.145764 0.310497 0.446518
Si Si4 0.000000 0.180123 0.750000
Si Si5 0.715440 0.063124 0.961776
Si Si6 0.588105 0.420849 0.382126
Si Si7 0.500000 0.797765 0.750000
O O1 0.247864 0.729642 0.249041
O O2 0.562326 0.549191 0.325920
O O3 0.937123 0.915598 0.175769
O O4 0.302216 0.995482 0.120076
O O5 0.243592 0.113292 0.236218
O O6 0.920316 0.178494 0.111015
O O7 0.257141 0.227587 0.523854
O O8 0.363885 0.405776 0.425895
O O9 0.874612 0.391978 0.434551
O O10 0.500000 0.000000 0.000000
O O11 0.000000 0.000000 0.000000
O O12 0.536635 0.295390 0.322754
#
# Coordination Sequence:
#
# PCOD9228706 Si02
#       7
#     2   4   4   2   4   4   2
#     4  11  25  40  56  80 109 157 198 236 286 327
#     4  10  21  35  57  89 123 148 180 225 293 362
#     4  10  19  35  60  86 109 142 182 237 287 324
#     4  12  24  38  56  80 120 156 184 226 286 358
#     4  10  20  34  55  87 123 151 179 223 288 356
#     4  10  20  36  58  79 107 140 196 245 272 321
#     4   9  17  32  54  84 109 139 176 230 286 325
#
# _framework density 23.879282
#
# number of rings (size 3 to 8) (size 9 to 14) (size 15 to 20)
#    0.000    1.818    0.000    6.000    0.000   10.909 
#    0.000    0.000    0.000    6.545    0.000    0.000 
#    0.000    0.000    0.000    0.000    0.000    0.000 
#
# Total GULP energy -122930.790730 kJ/mol
# GULP energy per Si atom -5587.763215 kJ/mol
# Density = 2.382493 g / cm^3
# Si number density = 23.879282 Si / 1000 Ang^3
#
#
#
# Elastic Constant Matrix: (Units=GPa)
#
#
# Indices 1 2 3 4 5 6 
#
# 1 197.6557 57.8854 29.9865 0.0000 -16.4977 0.0000
# 2 57.8854 93.7152 39.1970 0.0000 -3.3991 0.0000
# 3 29.9865 39.1970 48.5238 0.0000 1.1120 0.0000
# 4 0.0000 0.0000 0.0000 51.2997 0.0000 -4.5074
# 5 -16.4977 -3.3991 1.1120 0.0000 34.1205 0.0000
# 6 0.0000 0.0000 0.0000 -4.5074 0.0000 39.6007
#
#
#
# Elastic Compliance Matrix: (Units=1/GPa)
#
#
# Indices 1 2 3 4 5 6 
#
# 1 0.006479 -0.003318 -0.001389 0.000000 0.002848 0.000000
# 2 -0.003318 0.017956 -0.012468 0.000000 0.000591 0.000000
# 3 -0.001389 -0.012468 0.031606 0.000000 -0.002944 0.000000
# 4 0.000000 0.000000 0.000000 0.019690 0.000000 0.002241
# 5 0.002848 0.000591 -0.002944 0.000000 0.030840 0.000000
# 6 0.000000 0.000000 0.000000 0.002241 0.000000 0.025507
#
#
# Mechanical properties :
#
#
# Convention : Reuss Voigt Hill
#
# Bulk Modulus (GPa) = 46.10135 66.00362 56.05248
# Shear Modulus (GPa) = 28.79200 39.19258 33.99229
#
# Velocity S-wave (km/s) = 3.47613 4.05567 3.77703
# Velocity P-wave (km/s) = 5.95477 7.04498 6.52269
#
# Compressibility (1/GPa) = 0.02169134
#
# Stress axis : x y z
#
# Youngs Moduli (GPa) = 154.33519 55.69100 31.63954
#
# Poissons Ratio (x) = 0.18477 0.04396
# Poissons Ratio (y) = 0.51205 0.39448
# Poissons Ratio (z) = 0.21442 0.69436
#
# Static dielectric constant tensor:
#      x y z
#    x 1.940450 0.000000 0.019220 
#    y 0.000000 1.914170 0.000000 
#    z 0.019220 0.000000 2.144850 
# 
# From -- ./inp_files/73071.got.cif
#   From: 2010.05.17/outbox.cif.g08.bks.cpg/sg13_37_cif.got.tgz:73071.got - 2010.06.03 16:44:36.
