data_PCOD9228524
_publ_section_title
;
Structure prediction by ZEFSAII (Michael W. Deem and Ramdas Pophale) SiO2 
 PCOD9228524
Probable space group: P 2/C
;
_chemical_formula_sum "Si O2"
_cell_formula_units_Z 24
_cell_length_a 14.931855
_cell_length_b 8.025843
_cell_length_c 19.331508
_cell_angle_alpha 90.000000
_cell_angle_beta 23.014075
_cell_angle_gamma 90.000000
_cell_volume 905.731394
_symmetry_space_group_name_H-M "P 2/C"
_symmetry_group_IT_number 13
_symmetry_cell_setting 'monoclinic'
loop_
_space_group_symop_operation_xyz
x,y,z
-x,y,1/2-z
-x,-y,-z
x,-y,1/2+z
loop_
_atom_site_type_symbol
_atom_site_label
_atom_site_fract_x
_atom_site_fract_y
_atom_site_fract_z
Si Si1 0.343110 0.555985 0.953020
Si Si2 0.368370 0.232627 0.755038
Si Si3 0.109355 0.428803 0.260620
Si Si4 0.181875 0.115438 0.758375
Si Si5 0.177791 0.102431 0.035344
Si Si6 0.581911 0.219149 0.368671
O O1 0.244428 0.503677 0.099449
O O2 0.115751 0.542656 0.067822
O O3 0.525166 0.413021 0.806176
O O4 0.474235 0.727902 0.872169
O O5 0.192479 0.235268 0.816850
O O6 0.261167 0.151833 0.899072
O O7 0.599558 0.123276 0.574814
O O8 0.278369 0.379684 0.202000
O O9 0.999500 0.248910 0.320710
O O10 0.378507 0.176423 0.566871
O O11 0.253439 0.939504 0.743599
O O12 0.957563 0.069468 0.874271
#
# Coordination Sequence:
#
# PCOD9228524 Si02
#       6
#     4   4   4   4   4   4
#     4  10  19  34  59  81 107 145 190 232 280 327
#     4  10  19  36  60  80 109 149 189 234 277 339
#     4   9  18  34  55  80 108 142 186 231 273 328
#     4  10  20  36  57  82 116 149 186 228 281 343
#     4   9  20  36  57  81 111 149 189 225 286 338
#     4  10  20  36  55  86 115 145 186 238 281 331
#
# _framework density 26.497919
#
# number of rings (size 3 to 8) (size 9 to 14) (size 15 to 20)
#    0.000    2.333    1.667    1.000    0.000    0.000 
#    6.000    3.333    3.667    2.000    0.000    0.000 
#    0.000    0.000    0.000    0.000    0.000    0.000 
#
# Total GULP energy -134256.885237 kJ/mol
# GULP energy per Si atom -5594.036885 kJ/mol
# Density = 2.643761 g / cm^3
# Si number density = 26.497919 Si / 1000 Ang^3
#
#
#
# Elastic Constant Matrix: (Units=GPa)
#
#
# Indices 1 2 3 4 5 6 
#
# 1 81.4800 24.1264 27.9549 0.0000 -40.2105 0.0000
# 2 24.1264 107.4114 20.8392 0.0000 -21.8777 0.0000
# 3 27.9549 20.8392 77.2379 0.0000 -15.7740 0.0000
# 4 0.0000 0.0000 0.0000 4.7595 0.0000 -14.0365
# 5 -40.2105 -21.8777 -15.7740 0.0000 43.4119 0.0000
# 6 0.0000 0.0000 0.0000 -14.0365 0.0000 34.5640
#
#
#
# Elastic Compliance Matrix: (Units=1/GPa)
#
#
# Indices 1 2 3 4 5 6 
#
# 1 0.023968 -0.000371 -0.004406 0.000000 0.020413 0.000000
# 2 -0.000371 0.010637 -0.001848 0.000000 0.004345 0.000000
# 3 -0.004406 -0.001848 0.015140 0.000000 0.000489 0.000000
# 4 0.000000 0.000000 0.000000 -1.063034 0.000000 -0.431700
# 5 0.020413 0.004345 0.000489 0.000000 0.044310 0.000000
# 6 0.000000 0.000000 0.000000 -0.431700 0.000000 -0.146382
#
#
# Mechanical properties :
#
#
# Convention : Reuss Voigt Hill
#
# Bulk Modulus (GPa) = 27.40117 45.77446 36.58781
# Shear Modulus (GPa) = -4.58738 29.42769 12.42015
#
# Velocity S-wave (km/s) = -1.31719 3.33613 2.16735
# Velocity P-wave (km/s) = 2.83725 5.67027 4.48341
#
# Compressibility (1/GPa) = 0.03649480
#
# Stress axis : x y z
#
# Youngs Moduli (GPa) = 41.72208 94.01162 66.04960
#
# Poissons Ratio (x) = 0.03489 0.29101
# Poissons Ratio (y) = 0.01549 0.12207
# Poissons Ratio (z) = 0.18382 0.17375
#
# Static dielectric constant tensor:
#      x y z
#    x 2.079300 0.000000 -0.064880 
#    y 0.000000 2.119280 0.000000 
#    z -0.064880 0.000000 2.078940 
# 
# From -- ./inp_files/87860.got.cif
#   From: 2010.05.17/outbox.cif.g08.bks.cpg/sg13_44_cif.got.tgz:87860.got - 2010.06.03 16:44:36.
