data_PCOD9228350
_publ_section_title
;
Structure prediction by ZEFSAII (Michael W. Deem and Ramdas Pophale) SiO2 
 PCOD9228350
Probable space group: P 2/C
;
_chemical_formula_sum "Si O2"
_cell_formula_units_Z 26
_cell_length_a 6.593105
_cell_length_b 13.973059
_cell_length_c 15.388085
_cell_angle_alpha 90.000000
_cell_angle_beta 46.487019
_cell_angle_gamma 90.000000
_cell_volume 1028.098853
_symmetry_space_group_name_H-M "P 2/C"
_symmetry_group_IT_number 13
_symmetry_cell_setting 'monoclinic'
loop_
_space_group_symop_operation_xyz
x,y,z
-x,y,1/2-z
-x,-y,-z
x,-y,1/2+z
loop_
_atom_site_type_symbol
_atom_site_label
_atom_site_fract_x
_atom_site_fract_y
_atom_site_fract_z
Si Si1 0.554299 0.120834 0.928104
Si Si2 0.770175 0.693699 0.144469
Si Si3 0.039437 0.209242 0.405167
Si Si4 0.410166 0.494621 0.902184
Si Si5 0.071043 0.420847 0.345857
Si Si6 0.703205 0.048900 0.072938
Si Si7 0.000000 0.278484 0.750000
O O1 0.239329 0.154534 0.043547
O O2 0.737280 0.210009 0.843996
O O3 0.529320 0.035719 0.863962
O O4 0.688224 0.086252 0.978471
O O5 0.500000 0.755663 0.250000
O O6 0.959004 0.750014 0.023432
O O7 0.627775 0.607575 0.133913
O O8 0.944854 0.665334 0.177639
O O9 0.072330 0.305066 0.337208
O O10 0.277097 0.134411 0.363228
O O11 0.723085 0.534334 0.788430
O O12 0.226674 0.562689 0.893307
O O13 0.232642 0.470897 0.042920
O O14 0.000000 0.000000 0.000000
#
# Coordination Sequence:
#
# PCOD9228350 Si02
#       7
#     4   4   4   4   4   4   2
#     4  10  20  34  56  86 115 148 197 253 313 374
#     4  11  19  33  54  85 116 148 203 256 311 361
#     4  10  19  33  60  83 113 159 198 253 308 374
#     4   9  18  33  57  86 118 166 206 257 311 375
#     4   9  17  31  59  88 117 161 213 250 311 375
#     4   9  19  37  57  80 114 155 198 248 316 377
#     4  12  22  30  58  90 114 144 202 266 310 374
#
# _framework density 25.289397999999998
#
# number of rings (size 3 to 8) (size 9 to 14) (size 15 to 20)
#    0.000    2.154    4.615    0.000    0.000    0.000 
#    0.000    0.000   23.692    2.769    0.000    0.000 
#    0.000    0.000    0.000    0.000    0.000    0.000 
#
# Total GULP energy -144930.968752 kJ/mol
# GULP energy per Si atom -5574.268029 kJ/mol
# Density = 2.523184 g / cm^3
# Si number density = 25.289398 Si / 1000 Ang^3
#
#
#
# Elastic Constant Matrix: (Units=GPa)
#
#
# Indices 1 2 3 4 5 6 
#
# 1 139.8852 53.9500 64.5626 0.0000 0.2894 0.0000
# 2 53.9500 140.8270 58.8857 0.0000 -15.3066 0.0000
# 3 64.5626 58.8857 163.7100 0.0000 -6.8816 0.0000
# 4 0.0000 0.0000 0.0000 6.4911 0.0000 -23.1405
# 5 0.2894 -15.3066 -6.8816 0.0000 29.4896 0.0000
# 6 0.0000 0.0000 0.0000 -23.1405 0.0000 8.3202
#
#
#
# Elastic Compliance Matrix: (Units=1/GPa)
#
#
# Indices 1 2 3 4 5 6 
#
# 1 0.009514 -0.002674 -0.002881 0.000000 -0.002154 0.000000
# 2 -0.002674 0.009523 -0.002183 0.000000 0.004460 0.000000
# 3 -0.002881 -0.002183 0.008062 0.000000 0.000776 0.000000
# 4 0.000000 0.000000 0.000000 -0.017281 0.000000 -0.048062
# 5 -0.002154 0.004460 0.000776 0.000000 0.036427 0.000000
# 6 0.000000 0.000000 0.000000 -0.048062 0.000000 -0.013482
#
#
# Mechanical properties :
#
#
# Convention : Reuss Voigt Hill
#
# Bulk Modulus (GPa) = 86.03631 88.80209 87.41920
# Shear Modulus (GPa) = 95.94016 26.66177 61.30096
#
# Velocity S-wave (km/s) = 6.16598 3.25047 4.92873
# Velocity P-wave (km/s) = 9.20798 7.01983 8.18733
#
# Compressibility (1/GPa) = 0.01162300
#
# Stress axis : x y z
#
# Youngs Moduli (GPa) = 105.10649 105.00792 124.03306
#
# Poissons Ratio (x) = 0.28083 0.35730
# Poissons Ratio (y) = 0.28109 0.27079
# Poissons Ratio (z) = 0.30278 0.22926
#
# Static dielectric constant tensor:
#      x y z
#    x 2.012680 0.000000 -0.014770 
#    y 0.000000 2.100520 0.000000 
#    z -0.014770 0.000000 2.060870 
# 
# From -- ./inp_files/61323.got.cif
#   From: 2010.05.17/outbox.cif.g08.bks.cpg/sg13_31_cif.got.tgz:61323.got - 2010.06.03 16:44:36.
