data_PCOD9228150
_publ_section_title
;
Structure prediction by ZEFSAII (Michael W. Deem and Ramdas Pophale) SiO2 
 PCOD9228150
Probable space group: P 2/C
;
_chemical_formula_sum "Si O2"
_cell_formula_units_Z 24
_cell_length_a 7.336539
_cell_length_b 12.534319
_cell_length_c 11.187296
_cell_angle_alpha 90.000000
_cell_angle_beta 75.585202
_cell_angle_gamma 90.000000
_cell_volume 996.380461
_symmetry_space_group_name_H-M "P 2/C"
_symmetry_group_IT_number 13
_symmetry_cell_setting 'monoclinic'
loop_
_space_group_symop_operation_xyz
x,y,z
-x,y,1/2-z
-x,-y,-z
x,-y,1/2+z
loop_
_atom_site_type_symbol
_atom_site_label
_atom_site_fract_x
_atom_site_fract_y
_atom_site_fract_z
Si Si1 0.128266 0.724083 0.381488
Si Si2 0.354338 0.579757 0.170771
Si Si3 0.186685 0.361433 0.135745
Si Si4 0.302109 0.226733 0.527492
Si Si5 0.780678 0.832655 0.732825
Si Si6 0.227231 0.925454 0.232332
O O1 0.200659 0.634024 0.281431
O O2 0.139011 0.680649 0.513154
O O3 0.240525 0.834137 0.333198
O O4 0.911088 0.746751 0.397009
O O5 0.500000 0.547208 0.250000
O O6 0.285126 0.475294 0.115528
O O7 0.413130 0.672128 0.066032
O O8 0.303138 0.263858 0.175706
O O9 0.000000 0.376931 0.250000
O O10 0.267007 0.201890 0.394664
O O11 0.338192 0.121236 0.600029
O O12 0.000000 0.835293 0.750000
O O13 0.712633 0.953662 0.755012
O O14 0.000000 0.933747 0.250000
#
# Coordination Sequence:
#
# PCOD9228150 Si02
#       6
#     4   4   4   4   4   4
#     4  10  20  39  61  89 119 151 194 240 291 348
#     4  11  26  42  59  82 114 161 205 244 292 344
#     4  11  22  37  60  89 121 150 194 242 292 343
#     4  10  19  38  61  88 121 154 192 239 294 347
#     4  10  19  32  57  94 125 148 187 235 294 345
#     4   8  18  30  56  90 123 153 181 230 291 350
#
# _framework density 24.087185000000002
#
# number of rings (size 3 to 8) (size 9 to 14) (size 15 to 20)
#    0.000    2.000    3.333    2.500    4.667    4.000 
#    0.000    0.000    0.000    8.000    0.000    0.000 
#    0.000    0.000    0.000    0.000    0.000    0.000 
#
# Total GULP energy -133902.056343 kJ/mol
# GULP energy per Si atom -5579.252348 kJ/mol
# Density = 2.403236 g / cm^3
# Si number density = 24.087185 Si / 1000 Ang^3
#
#
#
# Elastic Constant Matrix: (Units=GPa)
#
#
# Indices 1 2 3 4 5 6 
#
# 1 47.7875 -5.2145 -5.3003 0.0000 7.3377 0.0000
# 2 -5.2145 161.3650 39.5494 0.0000 0.4544 0.0000
# 3 -5.3003 39.5494 145.3697 0.0000 17.2614 0.0000
# 4 0.0000 0.0000 0.0000 104.6105 0.0000 120.4135
# 5 7.3377 0.4544 17.2614 0.0000 18.2503 0.0000
# 6 0.0000 0.0000 0.0000 120.4135 0.0000 169.6134
#
#
#
# Elastic Compliance Matrix: (Units=1/GPa)
#
#
# Indices 1 2 3 4 5 6 
#
# 1 0.022906 0.000258 0.002094 0.000000 -0.011197 0.000000
# 2 0.000258 0.006692 -0.002004 0.000000 0.001625 0.000000
# 3 0.002094 -0.002004 0.008556 0.000000 -0.008884 0.000000
# 4 0.000000 0.000000 0.000000 0.052286 0.000000 -0.037119
# 5 -0.011197 0.001625 -0.008884 0.000000 0.067658 0.000000
# 6 0.000000 0.000000 0.000000 -0.037119 0.000000 0.032248
#
#
# Mechanical properties :
#
#
# Convention : Reuss Voigt Hill
#
# Bulk Modulus (GPa) = 25.73968 45.84352 35.79160
# Shear Modulus (GPa) = 24.67936 80.19401 52.43669
#
# Velocity S-wave (km/s) = 3.20439 5.77629 4.67085
# Velocity P-wave (km/s) = 4.93964 7.97251 6.63178
#
# Compressibility (1/GPa) = 0.03885052
#
# Stress axis : x y z
#
# Youngs Moduli (GPa) = 43.65724 149.42943 116.88299
#
# Poissons Ratio (x) = -0.03861 -0.24480
# Poissons Ratio (y) = -0.01128 0.23426
# Poissons Ratio (z) = -0.09143 0.29949
#
# Static dielectric constant tensor:
#      x y z
#    x 2.060710 0.000000 0.009850 
#    y 0.000000 1.933340 0.000000 
#    z 0.009850 0.000000 1.954410 
# 
# From -- ./inp_files/29431.got.cif
#   From: 2010.05.17/outbox.cif.g08.bks.cpg/sg13_15_cif.got.tgz:29431.got - 2010.06.03 16:44:36.
