data_PCOD9228686
_publ_section_title
;
Structure prediction by ZEFSAII (Michael W. Deem and Ramdas Pophale) SiO2 
 PCOD9228686
Probable space group: P 2/C
;
_chemical_formula_sum "Si O2"
_cell_formula_units_Z 28
_cell_length_a 5.416580
_cell_length_b 10.546534
_cell_length_c 22.486133
_cell_angle_alpha 90.000000
_cell_angle_beta 58.395897
_cell_angle_gamma 90.000000
_cell_volume 1094.034306
_symmetry_space_group_name_H-M "P 2/C"
_symmetry_group_IT_number 13
_symmetry_cell_setting 'monoclinic'
loop_
_space_group_symop_operation_xyz
x,y,z
-x,y,1/2-z
-x,-y,-z
x,-y,1/2+z
loop_
_atom_site_type_symbol
_atom_site_label
_atom_site_fract_x
_atom_site_fract_y
_atom_site_fract_z
Si Si1 0.517451 0.933905 0.311582
Si Si2 0.036733 0.356296 0.976231
Si Si3 0.619374 0.381164 0.313750
Si Si4 0.127562 0.997773 0.117714
Si Si5 0.052532 0.716778 0.841967
Si Si6 0.420732 0.339481 0.667664
Si Si7 0.426238 0.239768 0.540331
O O1 0.500000 0.001265 0.250000
O O2 0.738390 0.989436 0.331738
O O3 0.626410 0.789260 0.290738
O O4 0.173741 0.934417 0.368785
O O5 0.740920 0.290739 0.995062
O O6 0.241430 0.354632 0.891627
O O7 0.760501 0.720340 0.003345
O O8 0.000000 0.500000 0.000000
O O9 0.766684 0.294928 0.243903
O O10 0.282785 0.345239 0.357322
O O11 0.668931 0.528913 0.292284
O O12 0.770367 0.360774 0.357886
O O13 0.366403 0.908953 0.055682
O O14 0.048747 0.145225 0.125069
O O15 0.298917 0.306784 0.616904
#
# Coordination Sequence:
#
# PCOD9228686 Si02
#       7
#     4   4   4   4   4   4   4
#     4  11  23  32  56  77 109 151 179 232 281 319
#     4  10  19  35  59  88 112 135 174 226 299 356
#     4  10  22  36  51  73 110 150 188 224 260 316
#     4  11  20  39  52  78 112 142 197 230 265 313
#     4  10  23  35  52  72 104 156 196 220 252 306
#     4   9  22  36  54  81 117 138 182 220 286 336
#     4   9  19  35  56  85 111 140 172 233 293 326
#
# _framework density 25.593347999999999
#
# number of rings (size 3 to 8) (size 9 to 14) (size 15 to 20)
#    0.857    1.143    1.429    1.714   10.000    0.000 
#    5.143    0.000    0.000    0.000    0.000    6.000 
#    0.000    0.000    0.000    0.000    0.000    0.000 
#
# Total GULP energy -156165.079039 kJ/mol
# GULP energy per Si atom -5577.324251 kJ/mol
# Density = 2.553510 g / cm^3
# Si number density = 25.593348 Si / 1000 Ang^3
#
#
#
# Elastic Constant Matrix: (Units=GPa)
#
#
# Indices 1 2 3 4 5 6 
#
# 1 238.4138 64.2675 26.6177 0.0000 5.2453 0.0000
# 2 64.2675 186.0338 29.7448 0.0000 10.2054 0.0000
# 3 26.6177 29.7448 56.3970 0.0000 -3.0475 0.0000
# 4 0.0000 0.0000 0.0000 17.0651 0.0000 -5.8276
# 5 5.2453 10.2054 -3.0475 0.0000 22.2780 0.0000
# 6 0.0000 0.0000 0.0000 -5.8276 0.0000 15.5139
#
#
#
# Elastic Compliance Matrix: (Units=1/GPa)
#
#
# Indices 1 2 3 4 5 6 
#
# 1 0.004749 -0.001351 -0.001568 0.000000 -0.000714 0.000000
# 2 -0.001351 0.006480 -0.002945 0.000000 -0.003053 0.000000
# 3 -0.001568 -0.002945 0.020267 0.000000 0.004491 0.000000
# 4 0.000000 0.000000 0.000000 0.067222 0.000000 0.025251
# 5 -0.000714 -0.003053 0.004491 0.000000 0.047069 0.000000
# 6 0.000000 0.000000 0.000000 0.025251 0.000000 0.073944
#
#
# Mechanical properties :
#
#
# Convention : Reuss Voigt Hill
#
# Bulk Modulus (GPa) = 50.58302 80.23382 65.40842
# Shear Modulus (GPa) = 21.00407 34.98569 27.99488
#
# Velocity S-wave (km/s) = 2.86787 3.70129 3.31090
# Velocity P-wave (km/s) = 5.54736 7.04866 6.34259
#
# Compressibility (1/GPa) = 0.01976948
#
# Stress axis : x y z
#
# Youngs Moduli (GPa) = 210.55931 154.30953 49.34034
#
# Poissons Ratio (x) = 0.20845 0.07735
# Poissons Ratio (y) = 0.28444 0.14532
# Poissons Ratio (z) = 0.33007 0.45449
#
# Static dielectric constant tensor:
#      x y z
#    x 2.054630 0.000000 -0.028380 
#    y 0.000000 1.967310 0.000000 
#    z -0.028380 0.000000 2.179470 
# 
# From -- ./inp_files/94959.got.cif
#   From: 2010.05.17/outbox.cif.g08.bks.cpg/sg13_48_cif.got.tgz:94959.got - 2010.06.03 16:44:36.
