data_PCOD9228511
_publ_section_title
;
Structure prediction by ZEFSAII (Michael W. Deem and Ramdas Pophale) SiO2 
 PCOD9228511
Probable space group: P 2/C
;
_chemical_formula_sum "Si O2"
_cell_formula_units_Z 32
_cell_length_a 5.090276
_cell_length_b 22.659582
_cell_length_c 12.863852
_cell_angle_alpha 90.000000
_cell_angle_beta 98.577276
_cell_angle_gamma 90.000000
_cell_volume 1467.167080
_symmetry_space_group_name_H-M "P 2/C"
_symmetry_group_IT_number 13
_symmetry_cell_setting 'monoclinic'
loop_
_space_group_symop_operation_xyz
x,y,z
-x,y,1/2-z
-x,-y,-z
x,-y,1/2+z
loop_
_atom_site_type_symbol
_atom_site_label
_atom_site_fract_x
_atom_site_fract_y
_atom_site_fract_z
Si Si1 0.862209 0.309105 0.538248
Si Si2 0.407937 0.499976 0.623418
Si Si3 0.088827 0.434990 0.875019
Si Si4 0.299228 0.115863 0.547742
Si Si5 0.400499 0.246022 0.625769
Si Si6 0.842710 0.054892 0.636810
Si Si7 0.226873 0.372350 0.176120
Si Si8 0.265996 0.081266 0.320521
O O1 0.805728 0.370481 0.593865
O O2 0.644209 0.262497 0.564217
O O3 0.849444 0.324750 0.415537
O O4 0.154339 0.288726 0.588400
O O5 0.500000 0.492362 0.750000
O O6 0.316108 0.517321 0.414274
O O7 0.287908 0.565735 0.620712
O O8 0.183615 0.451990 0.585003
O O9 0.000000 0.437611 0.750000
O O10 0.295901 0.180315 0.596990
O O11 0.552755 0.082461 0.610230
O O12 0.337986 0.118410 0.426202
O O13 0.032598 0.079033 0.557239
O O14 0.500000 0.251116 0.750000
O O15 0.000000 0.073191 0.750000
O O16 0.801168 0.984744 0.641876
O O17 0.500000 0.355986 0.250000
O O18 0.000000 0.381032 0.250000
O O19 0.500000 0.077483 0.250000
O O20 0.000000 0.104142 0.250000
#
# Coordination Sequence:
#
# PCOD9228511 Si02
#       8
#     4   4   4   4   4   4   4   4
#     4  12  26  43  66  93 125 171 217 263 322 374
#     4   9  18  33  58  89 122 155 195 249 312 379
#     4  10  19  34  58  89 123 158 196 250 318 384
#     4  12  24  42  67  95 130 177 220 261 319 378
#     4  12  26  46  68  96 127 162 215 274 319 371
#     4  11  21  38  65 100 133 170 214 263 322 385
#     4  11  23  43  65  91 128 166 210 262 313 379
#     4  11  23  41  64  99 140 173 210 262 318 379
#
# _framework density 21.810742000000001
#
# number of rings (size 3 to 8) (size 9 to 14) (size 15 to 20)
#    0.000    1.000    0.000    9.375    0.000    2.000 
#    0.000    3.750    0.000    2.250    0.000    0.000 
#    0.000    0.000    0.000    0.000    0.000    0.000 
#
# Total GULP energy -179058.469025 kJ/mol
# GULP energy per Si atom -5595.577157 kJ/mol
# Density = 2.176110 g / cm^3
# Si number density = 21.810742 Si / 1000 Ang^3
#
#
#
# Elastic Constant Matrix: (Units=GPa)
#
#
# Indices 1 2 3 4 5 6 
#
# 1 116.9230 20.3986 33.3362 0.0000 -5.7300 0.0000
# 2 20.3986 32.0525 39.3269 0.0000 7.1709 0.0000
# 3 33.3362 39.3269 95.2280 0.0000 -2.1029 0.0000
# 4 0.0000 0.0000 0.0000 -19.1143 0.0000 -14.7177
# 5 -5.7300 7.1709 -2.1029 0.0000 42.7630 0.0000
# 6 0.0000 0.0000 0.0000 -14.7177 0.0000 8.6161
#
#
#
# Elastic Compliance Matrix: (Units=1/GPa)
#
#
# Indices 1 2 3 4 5 6 
#
# 1 0.009934 -0.005261 -0.001258 0.000000 0.002151 0.000000
# 2 -0.005261 0.072723 -0.028507 0.000000 -0.014302 0.000000
# 3 -0.001258 -0.028507 0.022841 0.000000 0.005735 0.000000
# 4 0.000000 0.000000 0.000000 -0.022597 0.000000 -0.038599
# 5 0.002151 -0.014302 0.005735 0.000000 0.026353 0.000000
# 6 0.000000 0.000000 0.000000 -0.038599 0.000000 0.050129
#
#
# Mechanical properties :
#
#
# Convention : Reuss Voigt Hill
#
# Bulk Modulus (GPa) = 28.21066 47.81411 38.01238
# Shear Modulus (GPa) = 20.72523 16.52907 18.62715
#
# Velocity S-wave (km/s) = 3.08592 2.75588 2.92556
# Velocity P-wave (km/s) = 5.06553 5.66536 5.37382
#
# Compressibility (1/GPa) = 0.03544760
#
# Stress axis : x y z
#
# Youngs Moduli (GPa) = 100.66002 13.75071 43.78116
#
# Poissons Ratio (x) = 0.07234 0.05506
# Poissons Ratio (y) = 0.52953 1.24808
# Poissons Ratio (z) = 0.12660 0.39200
#
# Static dielectric constant tensor:
#      x y z
#    x 1.774730 0.000000 -0.031750 
#    y 0.000000 1.761030 0.000000 
#    z -0.031750 0.000000 1.887190 
# 
# From -- ./inp_files/26877.got.cif
#   From: 2010.05.17/outbox.cif.g08.bks.cpg/sg13_14_cif.got.tgz:26877.got - 2010.06.03 16:44:36.
