data_PCOD9228362
_publ_section_title
;
Structure prediction by ZEFSAII (Michael W. Deem and Ramdas Pophale) SiO2 
 PCOD9228362
Probable space group: P 2/C
;
_chemical_formula_sum "Si O2"
_cell_formula_units_Z 30
_cell_length_a 11.044983
_cell_length_b 7.839641
_cell_length_c 15.080763
_cell_angle_alpha 90.000000
_cell_angle_beta 91.911888
_cell_angle_gamma 90.000000
_cell_volume 1305.096755
_symmetry_space_group_name_H-M "P 2/C"
_symmetry_group_IT_number 13
_symmetry_cell_setting 'monoclinic'
loop_
_space_group_symop_operation_xyz
x,y,z
-x,y,1/2-z
-x,-y,-z
x,-y,1/2+z
loop_
_atom_site_type_symbol
_atom_site_label
_atom_site_fract_x
_atom_site_fract_y
_atom_site_fract_z
Si Si1 0.640262 0.544367 0.266646
Si Si2 0.956910 0.273932 0.559814
Si Si3 0.137390 0.118764 0.434943
Si Si4 0.363273 0.991556 0.528500
Si Si5 0.763465 0.353402 0.421485
Si Si6 0.000000 0.230760 0.750000
Si Si7 0.732022 0.097538 0.783013
Si Si8 0.204342 0.246836 0.265987
O O1 0.500000 0.509379 0.250000
O O2 0.688002 0.500516 0.368555
O O3 0.671341 0.736055 0.241361
O O4 0.719963 0.414871 0.211072
O O5 0.863867 0.382099 0.498685
O O6 0.972037 0.336648 0.660438
O O7 0.078829 0.234700 0.509299
O O8 0.908977 0.076990 0.566608
O O9 0.278224 0.091778 0.457847
O O10 0.112025 0.203901 0.340173
O O11 0.324422 0.076104 0.621089
O O12 0.500000 0.000000 0.500000
O O13 0.323100 0.793657 0.540911
O O14 0.832416 0.269593 0.337702
O O15 0.878065 0.128194 0.776325
O O16 0.708836 0.918487 0.735915
#
# Coordination Sequence:
#
# PCOD9228362 Si02
#       8
#     4   4   4   4   4   2   4   4
#     4  10  24  45  68  99 141 181 239 287 352 435
#     4  10  20  35  65  98 139 174 237 287 354 419
#     4  10  19  33  64 104 130 182 229 286 347 421
#     4  10  21  37  66  99 137 180 237 284 352 425
#     4   8  21  41  60  97 132 176 234 281 339 429
#     4  12  22  42  70 102 140 186 240 296 354 428
#     4  11  23  45  67 102 140 185 232 295 355 413
#     4   9  21  39  71  94 137 179 232 275 359 410
#
# _framework density 22.986802000000001
#
# number of rings (size 3 to 8) (size 9 to 14) (size 15 to 20)
#    0.800    1.333    2.667    0.000    3.733    2.133 
#    2.400    2.667    0.000    0.000    0.000    0.000 
#    0.000    0.000    0.000    0.000    0.000    0.000 
#
# Total GULP energy -167290.209239 kJ/mol
# GULP energy per Si atom -5576.340308 kJ/mol
# Density = 2.293448 g / cm^3
# Si number density = 22.986802 Si / 1000 Ang^3
#
#
#
# Elastic Constant Matrix: (Units=GPa)
#
#
# Indices 1 2 3 4 5 6 
#
# 1 122.9386 -2.6195 43.2876 0.0000 -9.0926 0.0000
# 2 -2.6195 80.8341 9.3543 0.0000 7.2894 0.0000
# 3 43.2876 9.3543 153.6373 0.0000 -4.4957 0.0000
# 4 0.0000 0.0000 0.0000 -5.7299 0.0000 -6.6790
# 5 -9.0926 7.2894 -4.4957 0.0000 29.9664 0.0000
# 6 0.0000 0.0000 0.0000 -6.6790 0.0000 -2.4908
#
#
#
# Elastic Compliance Matrix: (Units=1/GPa)
#
#
# Indices 1 2 3 4 5 6 
#
# 1 0.009212 0.000385 -0.002551 0.000000 0.002319 0.000000
# 2 0.000385 0.012780 -0.000978 0.000000 -0.003139 0.000000
# 3 -0.002551 -0.000978 0.007304 0.000000 0.000560 0.000000
# 4 0.000000 0.000000 0.000000 0.082102 0.000000 -0.220156
# 5 0.002319 -0.003139 0.000560 0.000000 0.034922 0.000000
# 6 0.000000 0.000000 0.000000 -0.220156 0.000000 0.188869
#
#
# Mechanical properties :
#
#
# Convention : Reuss Voigt Hill
#
# Bulk Modulus (GPa) = 43.46724 50.82832 47.14778
# Shear Modulus (GPa) = 14.32067 24.84166 19.58117
#
# Velocity S-wave (km/s) = 2.49870 3.29096 2.92180
# Velocity P-wave (km/s) = 5.22258 6.04983 5.65136
#
# Compressibility (1/GPa) = 0.02300583
#
# Stress axis : x y z
#
# Youngs Moduli (GPa) = 108.55281 78.24889 136.91973
#
# Poissons Ratio (x) = -0.03010 0.34929
# Poissons Ratio (y) = -0.04175 0.13395
# Poissons Ratio (z) = 0.27693 0.07655
#
# Static dielectric constant tensor:
#      x y z
#    x 1.835700 0.000000 0.016760 
#    y 0.000000 1.874780 0.000000 
#    z 0.016760 0.000000 1.944590 
# 
# From -- ./inp_files/50031.got.cif
#   From: 2010.05.17/outbox.cif.g08.bks.cpg/sg13_26_cif.got.tgz:50031.got - 2010.06.03 16:44:36.
