data_PCOD9228208
_publ_section_title
;
Structure prediction by ZEFSAII (Michael W. Deem and Ramdas Pophale) SiO2 
 PCOD9228208
Probable space group: P 2/C
;
_chemical_formula_sum "Si O2"
_cell_formula_units_Z 28
_cell_length_a 5.396092
_cell_length_b 20.717983
_cell_length_c 12.888950
_cell_angle_alpha 90.000000
_cell_angle_beta 108.159998
_cell_angle_gamma 90.000000
_cell_volume 1369.161751
_symmetry_space_group_name_H-M "P 2/C"
_symmetry_group_IT_number 13
_symmetry_cell_setting 'monoclinic'
loop_
_space_group_symop_operation_xyz
x,y,z
-x,y,1/2-z
-x,-y,-z
x,-y,1/2+z
loop_
_atom_site_type_symbol
_atom_site_label
_atom_site_fract_x
_atom_site_fract_y
_atom_site_fract_z
Si Si1 0.719255 0.917990 0.944224
Si Si2 0.616665 0.226281 0.506231
Si Si3 0.344817 0.448882 0.121862
Si Si4 0.747902 0.817503 0.249503
Si Si5 0.248305 0.584746 0.001921
Si Si6 0.831634 0.976402 0.631520
Si Si7 0.142575 0.275264 0.539410
O O1 0.675348 0.844236 0.969744
O O2 0.439314 0.943923 0.868644
O O3 0.975225 0.928220 0.907114
O O4 0.770098 0.963140 0.050432
O O5 0.676167 0.222858 0.637858
O O6 0.314632 0.246074 0.467670
O O7 0.831241 0.272633 0.483440
O O8 0.500000 0.443324 0.250000
O O9 0.528965 0.416625 0.057617
O O10 0.045583 0.423424 0.082838
O O11 0.310653 0.523892 0.083413
O O12 0.500000 0.858604 0.250000
O O13 0.810980 0.769590 0.352792
O O14 0.000000 0.855878 0.250000
O O15 0.242652 0.652028 0.062923
O O16 0.000000 0.996872 0.750000
#
# Coordination Sequence:
#
# PCOD9228208 Si02
#       7
#     4   4   4   4   4   4   4
#     4  10  21  37  58  86 114 145 189 232 280 338
#     4  10  19  33  53  79 114 144 175 222 279 336
#     4  10  21  38  60  83 111 150 190 235 280 324
#     4   8  16  28  44  72 104 138 168 200 264 328
#     4  10  21  37  58  86 114 145 189 232 280 338
#     4  10  21  38  60  83 111 150 190 235 280 324
#     4  10  19  33  53  79 114 144 175 222 279 336
#
# _framework density 20.450469999999999
#
# number of rings (size 3 to 8) (size 9 to 14) (size 15 to 20)
#    0.000    2.286    0.000    2.571    0.000    3.429 
#    0.000   14.286    0.000   17.143    0.000    0.000 
#    0.000    0.000    0.000    0.000    0.000    0.000 
#
# Total GULP energy -155982.598705 kJ/mol
# GULP energy per Si atom -5570.807097 kJ/mol
# Density = 2.040392 g / cm^3
# Si number density = 20.450470 Si / 1000 Ang^3
#
#
#
# Elastic Constant Matrix: (Units=GPa)
#
#
# Indices 1 2 3 4 5 6 
#
# 1 162.9675 17.1478 10.8716 0.0000 -1.4264 0.0000
# 2 17.1478 76.9963 2.1462 0.0000 -7.5731 0.0000
# 3 10.8716 2.1462 45.6351 0.0000 12.3288 0.0000
# 4 0.0000 0.0000 0.0000 3.4178 0.0000 8.4336
# 5 -1.4264 -7.5731 12.3288 0.0000 24.0363 0.0000
# 6 0.0000 0.0000 0.0000 8.4336 0.0000 -0.9929
#
#
#
# Elastic Compliance Matrix: (Units=1/GPa)
#
#
# Indices 1 2 3 4 5 6 
#
# 1 0.006392 -0.001294 -0.001688 0.000000 0.000838 0.000000
# 2 -0.001294 0.013833 -0.001740 0.000000 0.005174 0.000000
# 3 -0.001688 -0.001740 0.026203 0.000000 -0.014089 0.000000
# 4 0.000000 0.000000 0.000000 0.013325 0.000000 0.113173
# 5 0.000838 0.005174 -0.014089 0.000000 0.050510 0.000000
# 6 0.000000 0.000000 0.000000 0.113173 0.000000 -0.045865
#
#
# Mechanical properties :
#
#
# Convention : Reuss Voigt Hill
#
# Bulk Modulus (GPa) = 27.03895 38.43668 32.73782
# Shear Modulus (GPa) = 58.02387 22.32113 40.17250
#
# Velocity S-wave (km/s) = 5.33240 3.30733 4.43694
# Velocity P-wave (km/s) = 7.15283 5.78104 6.50321
#
# Compressibility (1/GPa) = 0.03698368
#
# Stress axis : x y z
#
# Youngs Moduli (GPa) = 156.43759 72.28944 38.16338
#
# Poissons Ratio (x) = 0.09356 0.06443
# Poissons Ratio (y) = 0.20246 0.06641
# Poissons Ratio (z) = 0.26410 0.12579
#
# Static dielectric constant tensor:
#      x y z
#    x 1.863940 0.000000 0.031810 
#    y 0.000000 1.693530 0.000000 
#    z 0.031810 0.000000 1.730530 
# 
# From -- ./inp_files/26763.got.cif
#   From: 2010.05.17/outbox.cif.g08.bks.cpg/sg13_14_cif.got.tgz:26763.got - 2010.06.03 16:44:36.
