data_PCOD9228447
_publ_section_title
;
Structure prediction by ZEFSAII (Michael W. Deem and Ramdas Pophale) SiO2 
 PCOD9228447
Probable space group: P 2/C
;
_chemical_formula_sum "Si O2"
_cell_formula_units_Z 30
_cell_length_a 30.648957
_cell_length_b 11.903978
_cell_length_c 24.523445
_cell_angle_alpha 90.000000
_cell_angle_beta 10.199576
_cell_angle_gamma 90.000000
_cell_volume 1584.355263
_symmetry_space_group_name_H-M "P 2/C"
_symmetry_group_IT_number 13
_symmetry_cell_setting 'monoclinic'
loop_
_space_group_symop_operation_xyz
x,y,z
-x,y,1/2-z
-x,-y,-z
x,-y,1/2+z
loop_
_atom_site_type_symbol
_atom_site_label
_atom_site_fract_x
_atom_site_fract_y
_atom_site_fract_z
Si Si1 0.980849 0.886469 0.560019
Si Si2 0.417308 0.286515 0.501124
Si Si3 0.143632 0.816747 0.969162
Si Si4 0.610237 0.784034 0.945456
Si Si5 0.314527 0.326226 0.433406
Si Si6 0.520646 0.529724 0.409641
Si Si7 0.000000 0.502439 0.250000
Si Si8 0.747575 0.051111 0.666346
O O1 0.180147 0.790005 0.300351
O O2 0.055848 0.914162 0.529718
O O3 0.717222 0.832621 0.869931
O O4 0.000000 0.000000 0.500000
O O5 0.628500 0.250946 0.284591
O O6 0.527028 0.263182 0.306949
O O7 0.392227 0.421045 0.539458
O O8 0.198923 0.821208 0.836868
O O9 0.146797 0.940145 0.991977
O O10 0.890150 0.754715 0.290375
O O11 0.600208 0.650015 0.953732
O O12 0.354929 0.845908 0.243040
O O13 0.500000 0.371851 0.250000
O O14 0.168085 0.422114 0.582252
O O15 0.500000 0.500000 0.500000
O O16 0.794809 0.545710 0.045167
O O17 0.500000 0.000000 0.000000
#
# Coordination Sequence:
#
# PCOD9228447 Si02
#       8
#     4   4   4   4   4   4   2   4
#     4  12  20  34  57  86 116 154 194 253 294 355
#     4  11  21  35  58  90 117 150 204 244 302 368
#     4  11  17  36  57  83 116 147 193 255 292 350
#     4  11  21  35  58  86 119 156 199 240 302 355
#     4  11  21  35  57  85 116 152 192 251 312 347
#     4  11  20  38  66  89 122 164 202 252 307 369
#     4  10  22  42  60  86 128 156 200 254 300 362
#     4  10  19  34  56  81 112 151 196 240 301 356
#
# _framework density 18.935146
#
# number of rings (size 3 to 8) (size 9 to 14) (size 15 to 20)
#    0.000    1.067    9.333    0.800    0.000    0.533 
#    0.000    4.000    5.867    0.000    0.000    0.000 
#    0.000    0.000    0.000    0.000    0.000    0.000 
#
# Total GULP energy -167067.265553 kJ/mol
# GULP energy per Si atom -5568.908852 kJ/mol
# Density = 1.889205 g / cm^3
# Si number density = 18.935146 Si / 1000 Ang^3
#
#
#
# Elastic Constant Matrix: (Units=GPa)
#
#
# Indices 1 2 3 4 5 6 
#
# 1 75.2811 20.0377 33.8924 0.0000 -30.2297 0.0000
# 2 20.0377 134.7324 32.1220 0.0000 -23.6536 0.0000
# 3 33.8924 32.1220 48.6447 0.0000 -8.3142 0.0000
# 4 0.0000 0.0000 0.0000 34.2417 0.0000 -8.8921
# 5 -30.2297 -23.6536 -8.3142 0.0000 42.6937 0.0000
# 6 0.0000 0.0000 0.0000 -8.8921 0.0000 14.0109
#
#
#
# Elastic Compliance Matrix: (Units=1/GPa)
#
#
# Indices 1 2 3 4 5 6 
#
# 1 0.028111 0.003489 -0.018783 0.000000 0.018180 0.000000
# 2 0.003489 0.009909 -0.007876 0.000000 0.006427 0.000000
# 3 -0.018783 -0.007876 0.037059 0.000000 -0.010446 0.000000
# 4 0.000000 0.000000 0.000000 0.034967 0.000000 0.022192
# 5 0.018180 0.006427 -0.010446 0.000000 0.037821 0.000000
# 6 0.000000 0.000000 0.000000 0.022192 0.000000 0.085458
#
#
# Mechanical properties :
#
#
# Convention : Reuss Voigt Hill
#
# Bulk Modulus (GPa) = 34.79435 47.86249 41.32842
# Shear Modulus (GPa) = 17.28638 29.69633 23.49135
#
# Velocity S-wave (km/s) = 3.02474 3.96450 3.52607
# Velocity P-wave (km/s) = 5.53301 6.80355 6.20090
#
# Compressibility (1/GPa) = 0.02874029
#
# Stress axis : x y z
#
# Youngs Moduli (GPa) = 35.57289 100.91619 26.98389
#
# Poissons Ratio (x) = -0.35209 0.50683
# Poissons Ratio (y) = -0.12411 0.21252
# Poissons Ratio (z) = 0.66816 0.79480
#
# Static dielectric constant tensor:
#      x y z
#    x 1.710560 0.000000 -0.012530 
#    y 0.000000 1.684970 0.000000 
#    z -0.012530 0.000000 1.687880 
# 
# From -- ./inp_files/89714.got.cif
#   From: 2010.05.17/outbox.cif.g08.bks.cpg/sg13_45_cif.got.tgz:89714.got - 2010.06.03 16:44:36.
