data_PCOD9228303
_publ_section_title
;
Structure prediction by ZEFSAII (Michael W. Deem and Ramdas Pophale) SiO2 
 PCOD9228303
Probable space group: P 2/C
;
_chemical_formula_sum "Si O2"
_cell_formula_units_Z 26
_cell_length_a 7.667740
_cell_length_b 21.337251
_cell_length_c 10.529107
_cell_angle_alpha 90.000000
_cell_angle_beta 45.446362
_cell_angle_gamma 90.000000
_cell_volume 1227.550956
_symmetry_space_group_name_H-M "P 2/C"
_symmetry_group_IT_number 13
_symmetry_cell_setting 'monoclinic'
loop_
_space_group_symop_operation_xyz
x,y,z
-x,y,1/2-z
-x,-y,-z
x,-y,1/2+z
loop_
_atom_site_type_symbol
_atom_site_label
_atom_site_fract_x
_atom_site_fract_y
_atom_site_fract_z
Si Si1 0.357956 0.596539 0.028611
Si Si2 0.989010 0.929087 0.552529
Si Si3 0.000000 0.510493 0.750000
Si Si4 0.130893 0.610402 0.866460
Si Si5 0.286075 0.835796 0.250392
Si Si6 0.757884 0.693486 0.191114
Si Si7 0.406616 0.928465 0.554770
O O1 0.237993 0.596148 0.950150
O O2 0.641569 0.612124 0.849524
O O3 0.243079 0.532074 0.143112
O O4 0.262811 0.648031 0.176825
O O5 0.064973 0.878652 0.410895
O O6 0.195155 0.924028 0.556215
O O7 0.725245 0.917629 0.745487
O O8 0.000000 0.000000 0.500000
O O9 0.028966 0.554644 0.611831
O O10 0.962966 0.670485 0.984919
O O11 0.500000 0.835501 0.250000
O O12 0.208128 0.764184 0.277180
O O13 0.400829 0.874611 0.075886
O O14 0.500000 0.689720 0.250000
O O15 0.500000 0.000000 0.500000
#
# Coordination Sequence:
#
# PCOD9228303 Si02
#       7
#     4   4   2   4   4   4   4
#     4  11  24  42  65  94 130 163 205 265 320 376
#     4  10  19  33  56  86 116 150 195 248 301 357
#     4  12  22  44  68  98 126 166 208 262 326 382
#     4  11  24  42  65  96 128 162 209 262 316 382
#     4   9  20  37  58  84 119 160 203 250 304 368
#     4  11  23  42  64  89 125 172 216 260 316 384
#     4  10  19  33  56  86 116 150 195 249 301 354
#
# _framework density 21.180385000000001
#
# number of rings (size 3 to 8) (size 9 to 14) (size 15 to 20)
#    0.000    1.538    3.077    1.846    0.000    1.231 
#    0.000    7.692    0.000    0.000    0.000    0.000 
#    0.000    0.000    0.000    0.000    0.000    0.000 
#
# Total GULP energy -145059.925590 kJ/mol
# GULP energy per Si atom -5579.227907 kJ/mol
# Density = 2.113218 g / cm^3
# Si number density = 21.180385 Si / 1000 Ang^3
#
#
#
# Elastic Constant Matrix: (Units=GPa)
#
#
# Indices 1 2 3 4 5 6 
#
# 1 55.5602 27.8998 19.8971 0.0000 4.5219 0.0000
# 2 27.8998 193.7394 103.6995 0.0000 1.2490 0.0000
# 3 19.8971 103.6995 190.2274 0.0000 -9.6573 0.0000
# 4 0.0000 0.0000 0.0000 35.3940 0.0000 0.3041
# 5 4.5219 1.2490 -9.6573 0.0000 24.3912 0.0000
# 6 0.0000 0.0000 0.0000 0.3041 0.0000 28.6591
#
#
#
# Elastic Compliance Matrix: (Units=1/GPa)
#
#
# Indices 1 2 3 4 5 6 
#
# 1 0.019836 -0.002277 -0.001035 0.000000 -0.003971 0.000000
# 2 -0.002277 0.007645 -0.004008 0.000000 -0.001556 0.000000
# 3 -0.001035 -0.004008 0.007726 0.000000 0.003456 0.000000
# 4 0.000000 0.000000 0.000000 0.028256 0.000000 -0.000300
# 5 -0.003971 -0.001556 0.003456 0.000000 0.043183 0.000000
# 6 0.000000 0.000000 0.000000 -0.000300 0.000000 0.034896
#
#
# Mechanical properties :
#
#
# Convention : Reuss Voigt Hill
#
# Bulk Modulus (GPa) = 48.62479 82.50219 65.56349
# Shear Modulus (GPa) = 30.66787 36.89089 33.77938
#
# Velocity S-wave (km/s) = 3.80931 4.17795 3.99788
# Velocity P-wave (km/s) = 6.50808 7.89370 7.23414
#
# Compressibility (1/GPa) = 0.02056564
#
# Stress axis : x y z
#
# Youngs Moduli (GPa) = 50.41419 130.80434 129.43772
#
# Poissons Ratio (x) = 0.29782 0.13399
# Poissons Ratio (y) = 0.11478 0.51884
# Poissons Ratio (z) = 0.05219 0.52432
#
# Static dielectric constant tensor:
#      x y z
#    x 1.831050 0.000000 -0.042720 
#    y 0.000000 1.723380 0.000000 
#    z -0.042720 0.000000 1.780050 
# 
# From -- ./inp_files/30779.got.cif
#   From: 2010.05.17/outbox.cif.g08.bks.cpg/sg13_16_cif.got.tgz:30779.got - 2010.06.03 16:44:36.
