data_PCOD9228246
_publ_section_title
;
Structure prediction by ZEFSAII (Michael W. Deem and Ramdas Pophale) SiO2 
 PCOD9228246
Probable space group: P 2/C
;
_chemical_formula_sum "Si O2"
_cell_formula_units_Z 28
_cell_length_a 14.277983
_cell_length_b 18.540354
_cell_length_c 5.483969
_cell_angle_alpha 90.000000
_cell_angle_beta 111.451491
_cell_angle_gamma 90.000000
_cell_volume 1351.146479
_symmetry_space_group_name_H-M "P 2/C"
_symmetry_group_IT_number 13
_symmetry_cell_setting 'monoclinic'
loop_
_space_group_symop_operation_xyz
x,y,z
-x,y,1/2-z
-x,-y,-z
x,-y,1/2+z
loop_
_atom_site_type_symbol
_atom_site_label
_atom_site_fract_x
_atom_site_fract_y
_atom_site_fract_z
Si Si1 0.500000 0.455004 0.250000
Si Si2 0.238282 0.653496 0.082565
Si Si3 0.190858 0.851054 0.419464
Si Si4 0.618389 0.046636 0.363420
Si Si5 0.000000 0.044190 0.750000
Si Si6 0.118377 0.219821 0.350133
Si Si7 0.149596 0.496808 0.024283
Si Si8 0.302942 0.364376 0.145404
O O1 0.500000 0.500000 0.500000
O O2 0.402534 0.405923 0.169291
O O3 0.274700 0.681088 0.380331
O O4 0.136560 0.695031 0.914560
O O5 0.222989 0.567264 0.092912
O O6 0.310669 0.668909 0.922023
O O7 0.299304 0.889343 0.549823
O O8 0.165140 0.800974 0.631524
O O9 0.101634 0.909643 0.350405
O O10 0.174023 0.817749 0.132694
O O11 0.500000 0.069434 0.250000
O O12 0.633686 0.998837 0.625708
O O13 0.000000 0.000000 0.500000
O O14 0.000000 0.201942 0.250000
O O15 0.093125 0.498609 0.720146
O O16 0.214929 0.424037 0.089999
#
# Coordination Sequence:
#
# PCOD9228246 Si02
#       8
#     2   4   4   4   2   4   4   4
#     4  12  20  30  54  88 120 148 188 248 330 404
#     4  10  20  35  56  75 109 156 201 240 298 362
#     4  12  23  41  63  94 131 164 207 257 308 372
#     4  10  21  40  68  99 128 162 205 248 301 372
#     4  12  22  36  62  96 134 158 186 250 326 364
#     4  12  24  42  62  86 120 170 219 255 302 375
#     4   8  14  27  47  73  97 131 177 232 299 345
#     4  10  19  33  54  82 113 147 191 254 320 369
#
# _framework density 20.723140999999998
#
# number of rings (size 3 to 8) (size 9 to 14) (size 15 to 20)
#    0.000    1.429    1.429    6.857    0.000    0.000 
#    0.000    0.000    9.429    7.714    0.000    0.000 
#    0.000    0.000    0.000    0.000    0.000    0.000 
#
# Total GULP energy -156058.484717 kJ/mol
# GULP energy per Si atom -5573.517311 kJ/mol
# Density = 2.067597 g / cm^3
# Si number density = 20.723141 Si / 1000 Ang^3
#
#
#
# Elastic Constant Matrix: (Units=GPa)
#
#
# Indices 1 2 3 4 5 6 
#
# 1 105.8979 3.2339 60.6096 0.0000 -9.9510 0.0000
# 2 3.2339 25.8490 18.9823 0.0000 2.6615 0.0000
# 3 60.6096 18.9823 170.0609 0.0000 -40.1528 0.0000
# 4 0.0000 0.0000 0.0000 38.3655 0.0000 3.3410
# 5 -9.9510 2.6615 -40.1528 0.0000 54.1138 0.0000
# 6 0.0000 0.0000 0.0000 3.3410 0.0000 29.5338
#
#
#
# Elastic Compliance Matrix: (Units=1/GPa)
#
#
# Indices 1 2 3 4 5 6 
#
# 1 0.012037 0.002254 -0.004904 0.000000 -0.001536 0.000000
# 2 0.002254 0.044695 -0.007533 0.000000 -0.007373 0.000000
# 3 -0.004904 -0.007533 0.010116 0.000000 0.006975 0.000000
# 4 0.000000 0.000000 0.000000 0.026324 0.000000 -0.002978
# 5 -0.001536 -0.007373 0.006975 0.000000 0.023735 0.000000
# 6 0.000000 0.000000 0.000000 -0.002978 0.000000 0.034196
#
#
# Mechanical properties :
#
#
# Convention : Reuss Voigt Hill
#
# Bulk Modulus (GPa) = 21.51430 51.93994 36.72712
# Shear Modulus (GPa) = 26.74308 39.00140 32.87224
#
# Velocity S-wave (km/s) = 3.59624 4.34293 3.98711
# Velocity P-wave (km/s) = 5.25816 7.08987 6.24157
#
# Compressibility (1/GPa) = 0.04648070
#
# Stress axis : x y z
#
# Youngs Moduli (GPa) = 83.07900 22.37368 98.85628
#
# Poissons Ratio (x) = -0.05042 0.48481
# Poissons Ratio (y) = -0.18724 0.74469
# Poissons Ratio (z) = 0.40744 0.16854
#
# Static dielectric constant tensor:
#      x y z
#    x 1.707560 0.000000 -0.017560 
#    y 0.000000 1.791900 0.000000 
#    z -0.017560 0.000000 1.816550 
# 
# From -- ./inp_files/5396.got.cif
#   From: 2010.05.17/outbox.cif.g08.bks.cpg/sg13_3_cif.got.tgz:5396.got - 2010.06.03 16:44:36.
