data_PCOD9228390
_publ_section_title
;
Structure prediction by ZEFSAII (Michael W. Deem and Ramdas Pophale) SiO2 
 PCOD9228390
Probable space group: P 2/C
;
_chemical_formula_sum "Si O2"
_cell_formula_units_Z 30
_cell_length_a 7.199614
_cell_length_b 11.104355
_cell_length_c 19.120257
_cell_angle_alpha 90.000000
_cell_angle_beta 87.401977
_cell_angle_gamma 90.000000
_cell_volume 1527.037315
_symmetry_space_group_name_H-M "P 2/C"
_symmetry_group_IT_number 13
_symmetry_cell_setting 'monoclinic'
loop_
_space_group_symop_operation_xyz
x,y,z
-x,y,1/2-z
-x,-y,-z
x,-y,1/2+z
loop_
_atom_site_type_symbol
_atom_site_label
_atom_site_fract_x
_atom_site_fract_y
_atom_site_fract_z
Si Si1 0.225977 0.434106 0.742977
Si Si2 0.764875 0.124197 0.001665
Si Si3 0.790053 0.701900 0.122055
Si Si4 0.206194 0.669513 0.097235
Si Si5 0.490472 0.244777 0.398074
Si Si6 0.304025 0.529465 0.968282
Si Si7 0.500000 0.652372 0.750000
Si Si8 0.798274 0.846603 0.990954
O O1 0.281033 0.333625 0.799989
O O2 0.289592 0.393171 0.664173
O O3 0.326198 0.559856 0.758146
O O4 0.000000 0.448448 0.750000
O O5 0.695551 0.219260 0.943862
O O6 0.764150 0.987151 0.977075
O O7 0.632811 0.134963 0.071080
O O8 0.976991 0.165232 0.015405
O O9 0.761116 0.581617 0.076250
O O10 0.010468 0.719448 0.126927
O O11 0.734291 0.808812 0.070502
O O12 0.180120 0.571666 0.035889
O O13 0.356873 0.356614 0.420428
O O14 0.526605 0.263643 0.316660
O O15 0.682053 0.235134 0.438903
O O16 0.500000 0.500000 0.000000
#
# Coordination Sequence:
#
# PCOD9228390 Si02
#       8
#     4   4   4   4   4   4   2   4
#     4  10  22  36  52  80 117 151 181 226 286 349
#     4   9  21  39  60  85 109 145 198 238 284 331
#     4  10  19  34  53  81 109 142 187 227 284 337
#     4   9  20  34  54  76 110 147 182 231 277 337
#     4  11  22  36  57  80 115 148 187 232 282 341
#     4  11  18  31  51  81 107 139 184 227 282 332
#     4  12  24  38  54  82 120 156 180 226 284 350
#     4  10  20  38  62  84 110 147 190 245 283 331
#
# _framework density 19.645885
#
# number of rings (size 3 to 8) (size 9 to 14) (size 15 to 20)
#    0.000    1.867    2.667    1.600    0.000    1.067 
#    0.000    1.333    0.000    3.200    0.000    0.000 
#    0.000    0.000    0.000    0.000    0.000    0.000 
#
# Total GULP energy -167130.159738 kJ/mol
# GULP energy per Si atom -5571.005325 kJ/mol
# Density = 1.960117 g / cm^3
# Si number density = 19.645885 Si / 1000 Ang^3
#
#
#
# Elastic Constant Matrix: (Units=GPa)
#
#
# Indices 1 2 3 4 5 6 
#
# 1 81.1870 5.1161 9.5335 0.0000 2.6179 0.0000
# 2 5.1161 49.1293 20.2287 0.0000 3.1773 0.0000
# 3 9.5335 20.2287 128.4193 0.0000 7.9013 0.0000
# 4 0.0000 0.0000 0.0000 20.2490 0.0000 2.3863
# 5 2.6179 3.1773 7.9013 0.0000 20.8164 0.0000
# 6 0.0000 0.0000 0.0000 2.3863 0.0000 12.6262
#
#
#
# Elastic Compliance Matrix: (Units=1/GPa)
#
#
# Indices 1 2 3 4 5 6 
#
# 1 0.012497 -0.000934 -0.000709 0.000000 -0.001160 0.000000
# 2 -0.000934 0.021923 -0.003262 0.000000 -0.001991 0.000000
# 3 -0.000709 -0.003262 0.008516 0.000000 -0.002645 0.000000
# 4 0.000000 0.000000 0.000000 0.050510 0.000000 -0.009546
# 5 -0.001160 -0.001991 -0.002645 0.000000 0.049493 0.000000
# 6 0.000000 0.000000 0.000000 -0.009546 0.000000 0.081005
#
#
# Mechanical properties :
#
#
# Convention : Reuss Voigt Hill
#
# Bulk Modulus (GPa) = 30.18755 36.49912 33.34333
# Shear Modulus (GPa) = 20.42517 25.66215 23.04366
#
# Velocity S-wave (km/s) = 3.22788 3.61811 3.42855
# Velocity P-wave (km/s) = 5.41216 6.00609 5.71684
#
# Compressibility (1/GPa) = 0.03312624
#
# Stress axis : x y z
#
# Youngs Moduli (GPa) = 80.02052 45.61330 117.42366
#
# Poissons Ratio (x) = 0.04262 0.08328
# Poissons Ratio (y) = 0.07477 0.38298
# Poissons Ratio (z) = 0.05675 0.14877
#
# Static dielectric constant tensor:
#      x y z
#    x 1.728100 0.000000 0.035310 
#    y 0.000000 1.745500 0.000000 
#    z 0.035310 0.000000 1.644450 
# 
# From -- ./inp_files/64262.got.cif
#   From: 2010.05.17/outbox.cif.g08.bks.cpg/sg13_33_cif.got.tgz:64262.got - 2010.06.03 16:44:36.
