data_PCOD9228568
_publ_section_title
;
Structure prediction by ZEFSAII (Michael W. Deem and Ramdas Pophale) SiO2 
 PCOD9228568
Probable space group: P 2/C
;
_chemical_formula_sum "Si O2"
_cell_formula_units_Z 22
_cell_length_a 9.197792
_cell_length_b 14.741600
_cell_length_c 7.940170
_cell_angle_alpha 90.000000
_cell_angle_beta 77.794981
_cell_angle_gamma 90.000000
_cell_volume 1052.274819
_symmetry_space_group_name_H-M "P 2/C"
_symmetry_group_IT_number 13
_symmetry_cell_setting 'monoclinic'
loop_
_space_group_symop_operation_xyz
x,y,z
-x,y,1/2-z
-x,-y,-z
x,-y,1/2+z
loop_
_atom_site_type_symbol
_atom_site_label
_atom_site_fract_x
_atom_site_fract_y
_atom_site_fract_z
Si Si1 0.911703 0.697590 0.938803
Si Si2 0.000000 0.034916 0.750000
Si Si3 0.882374 0.871064 0.567050
Si Si4 0.325974 0.275032 0.254979
Si Si5 0.708244 0.571669 0.484576
Si Si6 0.000000 0.414332 0.750000
Si Si7 0.500000 0.562723 0.250000
O O1 0.741099 0.703226 0.913243
O O2 0.000000 0.662121 0.750000
O O3 0.982105 0.798829 0.943400
O O4 0.936134 0.644638 0.107846
O O5 0.114803 0.099904 0.626679
O O6 0.912193 0.964963 0.654047
O O7 0.738893 0.821361 0.673512
O O8 0.500000 0.282901 0.250000
O O9 0.253435 0.346972 0.401413
O O10 0.858714 0.533944 0.363929
O O11 0.602122 0.609695 0.363041
O O12 0.613537 0.500343 0.615112
#
# Coordination Sequence:
#
# PCOD9228568 Si02
#       7
#     4   2   4   4   4   2   2
#     4  10  20  39  61  98 129 156 225 273 313 379
#     4  10  19  34  66  85 132 166 212 272 329 370
#     4  10  19  37  61  92 121 173 214 262 325 384
#     4  11  22  40  64  93 130 175 213 270 328 392
#     4  11  24  43  69  94 133 180 214 279 322 411
#     4  12  23  38  74  99 120 172 230 276 313 378
#     4  10  26  48  62  96 142 176 216 252 374 398
#
# _framework density 20.907084000000001
#
# number of rings (size 3 to 8) (size 9 to 14) (size 15 to 20)
#    0.000    1.455    7.273    0.545    2.545    0.727 
#    0.000    0.909    0.000    0.000    0.000    0.000 
#    0.000    0.000    0.000    0.000    0.000    0.000 
#
# Total GULP energy -122725.436346 kJ/mol
# GULP energy per Si atom -5578.428925 kJ/mol
# Density = 2.085950 g / cm^3
# Si number density = 20.907084 Si / 1000 Ang^3
#
#
#
# Elastic Constant Matrix: (Units=GPa)
#
#
# Indices 1 2 3 4 5 6 
#
# 1 134.9167 17.4765 49.7571 0.0000 5.6741 0.0000
# 2 17.4765 48.0311 35.6742 0.0000 4.2202 0.0000
# 3 49.7571 35.6742 116.8027 0.0000 9.8226 0.0000
# 4 0.0000 0.0000 0.0000 8.3188 0.0000 0.8917
# 5 5.6741 4.2202 9.8226 0.0000 51.7453 0.0000
# 6 0.0000 0.0000 0.0000 0.8917 0.0000 25.0025
#
#
#
# Elastic Compliance Matrix: (Units=1/GPa)
#
#
# Indices 1 2 3 4 5 6 
#
# 1 0.008807 -0.000533 -0.003569 0.000000 -0.000245 0.000000
# 2 -0.000533 0.026982 -0.007961 0.000000 -0.000631 0.000000
# 3 -0.003569 -0.007961 0.012627 0.000000 -0.001356 0.000000
# 4 0.000000 0.000000 0.000000 0.120671 0.000000 -0.004304
# 5 -0.000245 -0.000631 -0.001356 0.000000 0.019661 0.000000
# 6 0.000000 0.000000 0.000000 -0.004304 0.000000 0.040149
#
#
# Mechanical properties :
#
#
# Convention : Reuss Voigt Hill
#
# Bulk Modulus (GPa) = 41.16554 56.17399 48.66977
# Shear Modulus (GPa) = 19.14828 30.13616 24.64222
#
# Velocity S-wave (km/s) = 3.02963 3.80074 3.43688
# Velocity P-wave (km/s) = 5.65426 6.79614 6.25133
#
# Compressibility (1/GPa) = 0.02429216
#
# Stress axis : x y z
#
# Youngs Moduli (GPa) = 113.54124 37.06187 79.19432
#
# Poissons Ratio (x) = 0.01974 0.28261
# Poissons Ratio (y) = 0.06047 0.63046
# Poissons Ratio (z) = 0.40519 0.29505
#
# Static dielectric constant tensor:
#      x y z
#    x 1.822700 0.000000 -0.008140 
#    y 0.000000 1.720820 0.000000 
#    z -0.008140 0.000000 1.824940 
# 
# From -- ./inp_files/12281.got.cif
#   From: 2010.05.17/outbox.cif.g08.bks.cpg/sg13_7_cif.got.tgz:12281.got - 2010.06.03 16:44:36.
