data_PCOD9228831
_publ_section_title
;
Structure prediction by ZEFSAII (Michael W. Deem and Ramdas Pophale) SiO2 
 PCOD9228831
Probable space group: P 2/C
;
_chemical_formula_sum "Si O2"
_cell_formula_units_Z 22
_cell_length_a 7.497869
_cell_length_b 5.019675
_cell_length_c 20.160700
_cell_angle_alpha 90.000000
_cell_angle_beta 88.586678
_cell_angle_gamma 90.000000
_cell_volume 758.554719
_symmetry_space_group_name_H-M "P 2/C"
_symmetry_group_IT_number 13
_symmetry_cell_setting 'monoclinic'
loop_
_space_group_symop_operation_xyz
x,y,z
-x,y,1/2-z
-x,-y,-z
x,-y,1/2+z
loop_
_atom_site_type_symbol
_atom_site_label
_atom_site_fract_x
_atom_site_fract_y
_atom_site_fract_z
Si Si1 0.310183 0.413106 0.737996
Si Si2 0.086447 0.769765 0.611579
Si Si3 0.284415 0.062076 0.496486
Si Si4 0.206954 0.712818 0.377393
Si Si5 0.601027 0.427914 0.897640
Si Si6 0.000000 0.159055 0.250000
O O1 0.500000 0.540938 0.750000
O O2 0.259490 0.228827 0.800458
O O3 0.340272 0.262115 0.668274
O O4 0.162825 0.635168 0.747661
O O5 0.136631 0.907860 0.542160
O O6 0.293470 0.688495 0.624184
O O7 0.957118 0.502068 0.611580
O O8 0.020749 0.950628 0.674387
O O9 0.222030 0.976868 0.423659
O O10 0.389207 0.559127 0.401775
O O11 0.500000 0.000000 0.500000
O O12 0.301136 0.340168 0.535862
#
# Coordination Sequence:
#
# PCOD9228831 Si02
#       6
#     4   4   4   4   4   2
#     4   8  14  29  53  74 100 141 182 227 282 334
#     4  10  19  36  57  77 111 149 186 237 290 336
#     4  10  21  35  54  85 116 146 190 233 281 348
#     4   9  18  33  55  81 109 147 192 232 282 348
#     4   9  19  35  56  78 108 148 188 236 288 337
#     4   8  16  30  52  78  98 136 190 230 276 338
#
# _framework density 29.002524000000001
#
# number of rings (size 3 to 8) (size 9 to 14) (size 15 to 20)
#    0.000    2.909    0.000    0.545    0.000    3.636 
#    0.000    9.091    0.000   54.545    0.000    0.000 
#    0.000    0.000    0.000    0.000    0.000    0.000 
#
# Total GULP energy -122492.720057 kJ/mol
# GULP energy per Si atom -5567.850912 kJ/mol
# Density = 2.893651 g / cm^3
# Si number density = 29.002524 Si / 1000 Ang^3
#
#
#
# Elastic Constant Matrix: (Units=GPa)
#
#
# Indices 1 2 3 4 5 6 
#
# 1 160.2228 30.8419 11.3076 0.0000 -42.3573 0.0000
# 2 30.8419 53.9921 10.5629 0.0000 -21.6557 0.0000
# 3 11.3076 10.5629 243.6970 0.0000 -14.1182 0.0000
# 4 0.0000 0.0000 0.0000 56.4050 0.0000 -70.7978
# 5 -42.3573 -21.6557 -14.1182 0.0000 46.9405 0.0000
# 6 0.0000 0.0000 0.0000 -70.7978 0.0000 45.8148
#
#
#
# Elastic Compliance Matrix: (Units=1/GPa)
#
#
# Indices 1 2 3 4 5 6 
#
# 1 0.008398 -0.002165 0.000087 0.000000 0.006606 0.000000
# 2 -0.002165 0.023320 -0.000407 0.000000 0.008683 0.000000
# 3 0.000087 -0.000407 0.004184 0.000000 0.001149 0.000000
# 4 0.000000 0.000000 0.000000 -0.018868 0.000000 -0.029157
# 5 0.006606 0.008683 0.001149 0.000000 0.031615 0.000000
# 6 0.000000 0.000000 0.000000 -0.029157 0.000000 -0.023230
#
#
# Mechanical properties :
#
#
# Convention : Reuss Voigt Hill
#
# Bulk Modulus (GPa) = 32.32982 62.59296 47.46139
# Shear Modulus (GPa) = 122.84873 56.84537 89.84705
#
# Velocity S-wave (km/s) = 6.51536 4.43201 5.57192
# Velocity P-wave (km/s) = 8.23233 6.91513 7.60231
#
# Compressibility (1/GPa) = 0.03093120
#
# Stress axis : x y z
#
# Youngs Moduli (GPa) = 119.07341 42.88153 239.02670
#
# Poissons Ratio (x) = 0.09283 -0.02076
# Poissons Ratio (y) = 0.25778 0.09736
# Poissons Ratio (z) = -0.01034 0.01747
#
# Static dielectric constant tensor:
#      x y z
#    x 2.381750 0.000000 0.356630 
#    y 0.000000 2.461790 0.000000 
#    z 0.356630 0.000000 2.862060 
# 
# From -- ./inp_files/62870.got.cif
#   From: 2010.05.17/outbox.cif.g08.bks.cpg/sg13_32_cif.got.tgz:62870.got - 2010.06.03 16:44:36.
