data_PCOD9228512
_publ_section_title
;
Structure prediction by ZEFSAII (Michael W. Deem and Ramdas Pophale) SiO2 
 PCOD9228512
Probable space group: P 2/C
;
_chemical_formula_sum "Si O2"
_cell_formula_units_Z 16
_cell_length_a 13.464691
_cell_length_b 11.346697
_cell_length_c 10.538107
_cell_angle_alpha 90.000000
_cell_angle_beta 23.172773
_cell_angle_gamma 90.000000
_cell_volume 633.546956
_symmetry_space_group_name_H-M "P 2/C"
_symmetry_group_IT_number 13
_symmetry_cell_setting 'monoclinic'
loop_
_space_group_symop_operation_xyz
x,y,z
-x,y,1/2-z
-x,-y,-z
x,-y,1/2+z
loop_
_atom_site_type_symbol
_atom_site_label
_atom_site_fract_x
_atom_site_fract_y
_atom_site_fract_z
Si Si1 0.842646 0.052361 0.567730
Si Si2 0.694039 0.821192 0.634483
Si Si3 0.125817 0.325898 0.962688
Si Si4 0.802624 0.582082 0.599993
O O1 0.787332 0.190437 0.662216
O O2 0.000000 0.060580 0.250000
O O3 0.665964 0.939551 0.747266
O O4 0.000000 0.000000 0.500000
O O5 0.500000 0.839421 0.750000
O O6 0.632870 0.691740 0.758252
O O7 0.000000 0.815908 0.250000
O O8 0.287309 0.446865 0.783724
O O9 0.000000 0.317810 0.250000
O O10 0.936090 0.367407 0.071826
O O11 0.000000 0.573021 0.250000
#
# Coordination Sequence:
#
# PCOD9228512 Si02
#       4
#     4   4   4   4
#     4  10  19  34  58  89 123 160 203 255 307 366
#     4  10  21  39  63  90 122 166 209 251 309 378
#     4   9  17  30  56  88 123 154 202 255 309 357
#     4   9  17  32  58  86 117 161 201 249 304 372
#
# _framework density 25.254640999999999
#
# number of rings (size 3 to 8) (size 9 to 14) (size 15 to 20)
#    0.000    2.500    2.500    0.000    0.000    0.000 
#    0.000    6.250    0.000   37.500    0.000    0.000 
#    0.000    0.000    0.000    0.000    0.000    0.000 
#
# Total GULP energy -89100.853565 kJ/mol
# GULP energy per Si atom -5568.803348 kJ/mol
# Density = 2.519716 g / cm^3
# Si number density = 25.254641 Si / 1000 Ang^3
#
#
#
# Elastic Constant Matrix: (Units=GPa)
#
#
# Indices 1 2 3 4 5 6 
#
# 1 193.6690 79.2823 42.9790 0.0000 -9.0506 0.0000
# 2 79.2823 417.1378 93.0112 0.0000 -13.3389 0.0000
# 3 42.9790 93.0112 62.3640 0.0000 3.6082 0.0000
# 4 0.0000 0.0000 0.0000 89.9418 0.0000 18.7772
# 5 -9.0506 -13.3389 3.6082 0.0000 35.8010 0.0000
# 6 0.0000 0.0000 0.0000 18.7772 0.0000 72.9430
#
#
#
# Elastic Compliance Matrix: (Units=1/GPa)
#
#
# Indices 1 2 3 4 5 6 
#
# 1 0.006250 -0.000212 -0.004102 0.000000 0.001914 0.000000
# 2 -0.000212 0.003731 -0.005527 0.000000 0.001893 0.000000
# 3 -0.004102 -0.005527 0.027444 0.000000 -0.005862 0.000000
# 4 0.000000 0.000000 0.000000 0.011750 0.000000 -0.003025
# 5 0.001914 0.001893 -0.005862 0.000000 0.029712 0.000000
# 6 0.000000 0.000000 0.000000 -0.003025 0.000000 0.014488
#
#
# Mechanical properties :
#
#
# Convention : Reuss Voigt Hill
#
# Bulk Modulus (GPa) = 56.36106 122.63509 89.49808
# Shear Modulus (GPa) = 42.02695 70.26373 56.14534
#
# Velocity S-wave (km/s) = 4.08380 5.28039 4.72016
# Velocity P-wave (km/s) = 6.67848 9.26507 8.07600
#
# Compressibility (1/GPa) = 0.01774275
#
# Stress axis : x y z
#
# Youngs Moduli (GPa) = 160.00037 268.05438 36.43747
#
# Poissons Ratio (x) = 0.05685 0.14946
# Poissons Ratio (y) = 0.03394 0.20140
# Poissons Ratio (z) = 0.65627 1.48161
#
# Static dielectric constant tensor:
#      x y z
#    x 1.924510 0.000000 -0.087510 
#    y 0.000000 1.834230 0.000000 
#    z -0.087510 0.000000 0.965760 
# 
# From -- ./inp_files/25445.got.cif
#   From: 2010.05.17/outbox.cif.g08.bks.cpg/sg13_13_cif.got.tgz:25445.got - 2010.06.03 16:44:36.
