data_PCOD9228077
_publ_section_title
;
Structure prediction by ZEFSAII (Michael W. Deem and Ramdas Pophale) SiO2 
 PCOD9228077
Probable space group: P 2/C
;
_chemical_formula_sum "Si O2"
_cell_formula_units_Z 28
_cell_length_a 23.190325
_cell_length_b 7.032544
_cell_length_c 9.502122
_cell_angle_alpha 90.000000
_cell_angle_beta 47.005570
_cell_angle_gamma 90.000000
_cell_volume 1133.461377
_symmetry_space_group_name_H-M "P 2/C"
_symmetry_group_IT_number 13
_symmetry_cell_setting 'monoclinic'
loop_
_space_group_symop_operation_xyz
x,y,z
-x,y,1/2-z
-x,-y,-z
x,-y,1/2+z
loop_
_atom_site_type_symbol
_atom_site_label
_atom_site_fract_x
_atom_site_fract_y
_atom_site_fract_z
Si Si1 0.848892 0.808405 0.042334
Si Si2 0.482672 0.195427 0.444218
Si Si3 0.328722 0.897384 0.101317
Si Si4 0.904800 0.718385 0.666457
Si Si5 0.927577 0.733341 0.190584
Si Si6 0.358118 0.248946 0.234586
Si Si7 0.198803 0.367726 0.388966
O O1 0.761455 0.891266 0.199763
O O2 0.899570 0.839807 0.096692
O O3 0.831764 0.581616 0.070456
O O4 0.898332 0.838349 0.818940
O O5 0.500000 0.165513 0.250000
O O6 0.389221 0.236098 0.591622
O O7 0.553624 0.325875 0.385801
O O8 0.500000 0.000000 0.500000
O O9 0.358967 0.103422 0.100950
O O10 0.335669 0.849386 0.923489
O O11 0.921540 0.497058 0.677079
O O12 0.819294 0.718540 0.734346
O O13 0.979817 0.770714 0.445694
O O14 0.859357 0.756783 0.418139
O O15 0.284423 0.376320 0.314068
#
# Coordination Sequence:
#
# PCOD9228077 Si02
#       7
#     4   4   4   4   4   4   4
#     4  10  19  32  52  78 105 132 168 213 256 300
#     4   8  16  32  53  74  96 130 172 210 245 294
#     4  10  20  35  55  77 103 134 171 211 254 304
#     4   9  18  28  51  76 101 132 174 209 251 295
#     4   9  16  32  49  74 101 134 172 215 247 293
#     4  10  20  35  55  77 103 134 171 211 254 304
#     4  10  19  32  52  78 105 132 168 213 256 300
#
# _framework density 24.70309
#
# number of rings (size 3 to 8) (size 9 to 14) (size 15 to 20)
#    0.000    2.571    1.429    0.857    2.000    3.429 
#    0.000    0.714    0.000    5.143    0.000    0.000 
#    0.000    0.000    0.000    0.000    0.000    0.000 
#
# Total GULP energy -156126.379008 kJ/mol
# GULP energy per Si atom -5575.942107 kJ/mol
# Density = 2.464686 g / cm^3
# Si number density = 24.703090 Si / 1000 Ang^3
#
#
#
# Elastic Constant Matrix: (Units=GPa)
#
#
# Indices 1 2 3 4 5 6 
#
# 1 139.1935 17.2914 18.9281 0.0000 -23.1898 0.0000
# 2 17.2914 48.5104 4.6744 0.0000 -5.5950 0.0000
# 3 18.9281 4.6744 49.7412 0.0000 -21.3658 0.0000
# 4 0.0000 0.0000 0.0000 18.2357 0.0000 -9.9020
# 5 -23.1898 -5.5950 -21.3658 0.0000 39.8899 0.0000
# 6 0.0000 0.0000 0.0000 -9.9020 0.0000 29.0545
#
#
#
# Elastic Compliance Matrix: (Units=1/GPa)
#
#
# Indices 1 2 3 4 5 6 
#
# 1 0.008289 -0.002393 -0.001304 0.000000 0.003785 0.000000
# 2 -0.002393 0.021676 -0.000543 0.000000 0.001359 0.000000
# 3 -0.001304 -0.000543 0.026357 0.000000 0.013283 0.000000
# 4 0.000000 0.000000 0.000000 0.067290 0.000000 0.022933
# 5 0.003785 0.001359 0.013283 0.000000 0.034575 0.000000
# 6 0.000000 0.000000 0.000000 0.022933 0.000000 0.042234
#
#
# Mechanical properties :
#
#
# Convention : Reuss Voigt Hill
#
# Bulk Modulus (GPa) = 20.90133 35.47030 28.18582
# Shear Modulus (GPa) = 22.23733 30.53943 26.38838
#
# Velocity S-wave (km/s) = 3.00356 3.51986 3.27191
# Velocity P-wave (km/s) = 4.52856 5.55959 5.07035
#
# Compressibility (1/GPa) = 0.04784384
#
# Stress axis : x y z
#
# Youngs Moduli (GPa) = 120.63684 46.13403 37.94080
#
# Poissons Ratio (x) = 0.11038 0.04946
# Poissons Ratio (y) = 0.28863 0.02060
# Poissons Ratio (z) = 0.15727 0.02505
#
# Static dielectric constant tensor:
#      x y z
#    x 1.974880 0.000000 -0.025680 
#    y 0.000000 2.129930 0.000000 
#    z -0.025680 0.000000 1.988240 
# 
# From -- ./inp_files/22524.got.cif
#   From: 2010.05.17/outbox.cif.g08.bks.cpg/sg13_12_cif.got.tgz:22524.got - 2010.06.03 16:44:36.
