data_PCOD9228060
_publ_section_title
;
Structure prediction by ZEFSAII (Michael W. Deem and Ramdas Pophale) SiO2 
 PCOD9228060
Probable space group: P 2/C
;
_chemical_formula_sum "Si O2"
_cell_formula_units_Z 32
_cell_length_a 19.773306
_cell_length_b 9.277899
_cell_length_c 10.695167
_cell_angle_alpha 90.000000
_cell_angle_beta 57.490963
_cell_angle_gamma 90.000000
_cell_volume 1654.634378
_symmetry_space_group_name_H-M "P 2/C"
_symmetry_group_IT_number 13
_symmetry_cell_setting 'monoclinic'
loop_
_space_group_symop_operation_xyz
x,y,z
-x,y,1/2-z
-x,-y,-z
x,-y,1/2+z
loop_
_atom_site_type_symbol
_atom_site_label
_atom_site_fract_x
_atom_site_fract_y
_atom_site_fract_z
Si Si1 0.104053 0.600209 0.520885
Si Si2 0.279381 0.723658 0.381919
Si Si3 0.228306 0.765669 0.713304
Si Si4 0.335778 0.512922 0.663915
Si Si5 0.665260 0.015367 0.837051
Si Si6 0.621564 0.743016 0.540935
Si Si7 0.927534 0.366414 0.164700
Si Si8 0.555118 0.756784 0.885643
O O1 0.188806 0.683563 0.422325
O O2 0.091433 0.471514 0.433391
O O3 0.096832 0.560867 0.676776
O O4 0.019684 0.682234 0.580423
O O5 0.269696 0.751573 0.536973
O O6 0.333376 0.587053 0.288924
O O7 0.321438 0.861556 0.278599
O O8 0.261201 0.621885 0.747003
O O9 0.261252 0.906137 0.745409
O O10 0.134128 0.763333 0.789659
O O11 0.331583 0.396357 0.556365
O O12 0.411607 0.618637 0.572791
O O13 0.588698 0.908773 0.903494
O O14 0.665191 0.107689 0.964693
O O15 0.596457 0.737856 0.708771
O O16 0.539329 0.751283 0.541423
#
# Coordination Sequence:
#
# PCOD9228060 Si02
#       8
#     4   4   4   4   4   4   4   4
#     4   9  17  31  52  78 106 135 168 209 256 304
#     4  10  19  33  51  74 102 133 168 207 253 302
#     4  10  19  33  51  74 102 133 168 207 253 302
#     4  10  19  32  51  76  98 124 162 212 257 302
#     4  10  21  34  49  70 100 134 170 202 247 300
#     4  10  20  34  51  71  96 128 165 207 254 302
#     4   9  17  31  52  78 106 135 168 209 256 304
#     4  10  20  34  51  71  96 128 165 207 254 302
#
# _framework density 19.339618999999999
#
# number of rings (size 3 to 8) (size 9 to 14) (size 15 to 20)
#    0.000    2.250    1.250    2.250    0.000    0.000 
#    0.000    1.875    0.000   12.000    0.000    0.000 
#    0.000    0.000    0.000    0.000    0.000    0.000 
#
# Total GULP energy -178192.017945 kJ/mol
# GULP energy per Si atom -5568.500561 kJ/mol
# Density = 1.929560 g / cm^3
# Si number density = 19.339619 Si / 1000 Ang^3
#
#
#
# Elastic Constant Matrix: (Units=GPa)
#
#
# Indices 1 2 3 4 5 6 
#
# 1 55.3242 15.8223 -9.2058 0.0000 -4.7149 0.0000
# 2 15.8223 108.7827 8.8656 0.0000 -1.3443 0.0000
# 3 -9.2058 8.8656 31.0402 0.0000 -2.7175 0.0000
# 4 0.0000 0.0000 0.0000 14.6125 0.0000 -0.3305
# 5 -4.7149 -1.3443 -2.7175 0.0000 23.4889 0.0000
# 6 0.0000 0.0000 0.0000 -0.3305 0.0000 10.7187
#
#
#
# Elastic Compliance Matrix: (Units=1/GPa)
#
#
# Indices 1 2 3 4 5 6 
#
# 1 0.020779 -0.003583 0.007610 0.000000 0.004846 0.000000
# 2 -0.003583 0.010031 -0.003980 0.000000 -0.000606 0.000000
# 3 0.007610 -0.003980 0.036089 0.000000 0.005475 0.000000
# 4 0.000000 0.000000 0.000000 0.068482 0.000000 0.002111
# 5 0.004846 -0.000606 0.005475 0.000000 0.044145 0.000000
# 6 0.000000 0.000000 0.000000 0.002111 0.000000 0.093360
#
#
# Mechanical properties :
#
#
# Convention : Reuss Voigt Hill
#
# Bulk Modulus (GPa) = 14.92682 25.12349 20.02516
# Shear Modulus (GPa) = 16.94202 21.74167 19.34185
#
# Velocity S-wave (km/s) = 2.96299 3.35655 3.16589
# Velocity P-wave (km/s) = 4.40916 5.29536 4.87245
#
# Compressibility (1/GPa) = 0.06699350
#
# Stress axis : x y z
#
# Youngs Moduli (GPa) = 48.12504 99.69450 27.70890
#
# Poissons Ratio (x) = 0.35717 -0.21087
# Poissons Ratio (y) = 0.17241 0.11029
# Poissons Ratio (z) = -0.36624 0.39683
#
# Static dielectric constant tensor:
#      x y z
#    x 1.714710 0.000000 0.001420 
#    y 0.000000 1.662620 0.000000 
#    z 0.001420 0.000000 1.697880 
# 
# From -- ./inp_files/40415.got.cif
#   From: 2010.05.17/outbox.cif.g08.bks.cpg/sg13_21_cif.got.tgz:40415.got - 2010.06.03 16:44:36.
