data_PCOD9228814
_publ_section_title
;
Structure prediction by ZEFSAII (Michael W. Deem and Ramdas Pophale) SiO2 
 PCOD9228814
Probable space group: P 2/C
;
_chemical_formula_sum "Si O2"
_cell_formula_units_Z 32
_cell_length_a 23.128410
_cell_length_b 13.626688
_cell_length_c 9.544239
_cell_angle_alpha 90.000000
_cell_angle_beta 143.458088
_cell_angle_gamma 90.000000
_cell_volume 1790.993440
_symmetry_space_group_name_H-M "P 2/C"
_symmetry_group_IT_number 13
_symmetry_cell_setting 'monoclinic'
loop_
_space_group_symop_operation_xyz
x,y,z
-x,y,1/2-z
-x,-y,-z
x,-y,1/2+z
loop_
_atom_site_type_symbol
_atom_site_label
_atom_site_fract_x
_atom_site_fract_y
_atom_site_fract_z
Si Si1 0.619940 0.117908 0.216691
Si Si2 0.285151 0.223811 0.334112
Si Si3 0.612237 0.579322 0.441137
Si Si4 0.884258 0.499357 0.290687
Si Si5 0.391184 0.764778 0.529044
Si Si6 0.113829 0.632971 0.447041
Si Si7 0.602262 0.108065 0.722767
Si Si8 0.295873 0.587516 0.189607
O O1 0.697089 0.141912 0.247848
O O2 0.635449 0.195319 0.371162
O O3 0.625162 0.006426 0.280371
O O4 0.508712 0.127488 0.944107
O O5 0.359666 0.312921 0.449851
O O6 0.320190 0.174353 0.545610
O O7 0.181982 0.278137 0.128877
O O8 0.500000 0.560360 0.250000
O O9 0.643385 0.578510 0.338070
O O10 0.671368 0.500045 0.645197
O O11 0.859817 0.601198 0.161607
O O12 0.868931 0.463280 0.420188
O O13 0.000000 0.500000 0.500000
O O14 0.815972 0.422456 0.074983
O O15 0.500000 0.720353 0.750000
O O16 0.398857 0.857984 0.440691
O O17 0.321441 0.686024 0.322365
O O18 0.000000 0.656398 0.250000
#
# Coordination Sequence:
#
# PCOD9228814 Si02
#       8
#     4   4   4   4   4   4   4   4
#     4  10  22  33  58  82 111 148 185 232 272 330
#     4  12  21  36  59  82 110 145 189 230 279 331
#     4  12  25  35  53  77 116 154 185 217 270 339
#     4  10  19  36  56  78 106 146 192 235 274 317
#     4  10  21  34  51  77 114 151 186 223 272 328
#     4  10  21  37  58  82 108 143 188 236 282 327
#     4  10  19  39  54  81 113 146 188 228 276 323
#     4  12  22  38  51  79 112 152 183 230 270 332
#
# _framework density 17.867179
#
# number of rings (size 3 to 8) (size 9 to 14) (size 15 to 20)
#    0.000    1.250    3.750    2.625    3.500    3.000 
#    0.000    0.000    0.000    0.750    0.000    0.000 
#    0.000    0.000    0.000    0.000    0.000    0.000 
#
# Total GULP energy -178367.398724 kJ/mol
# GULP energy per Si atom -5573.981210 kJ/mol
# Density = 1.782651 g / cm^3
# Si number density = 17.867179 Si / 1000 Ang^3
#
#
#
# Elastic Constant Matrix: (Units=GPa)
#
#
# Indices 1 2 3 4 5 6 
#
# 1 68.9146 22.1290 39.7207 0.0000 1.6198 0.0000
# 2 22.1290 68.9435 35.6685 0.0000 1.4649 0.0000
# 3 39.7207 35.6685 111.3071 0.0000 12.5380 0.0000
# 4 0.0000 0.0000 0.0000 27.5759 0.0000 -3.4211
# 5 1.6198 1.4649 12.5380 0.0000 28.3504 0.0000
# 6 0.0000 0.0000 0.0000 -3.4211 0.0000 19.6124
#
#
#
# Elastic Compliance Matrix: (Units=1/GPa)
#
#
# Indices 1 2 3 4 5 6 
#
# 1 0.018874 -0.003009 -0.005964 0.000000 0.001715 0.000000
# 2 -0.003009 0.017940 -0.004831 0.000000 0.001381 0.000000
# 3 -0.005964 -0.004831 0.013254 0.000000 -0.005271 0.000000
# 4 0.000000 0.000000 0.000000 0.037066 0.000000 0.006466
# 5 0.001715 0.001381 -0.005271 0.000000 0.037435 0.000000
# 6 0.000000 0.000000 0.000000 0.006466 0.000000 0.052116
#
#
# Mechanical properties :
#
#
# Convention : Reuss Voigt Hill
#
# Bulk Modulus (GPa) = 44.52197 49.35573 46.93885
# Shear Modulus (GPa) = 23.60932 25.21752 24.41342
#
# Velocity S-wave (km/s) = 3.63902 3.76092 3.70047
# Velocity P-wave (km/s) = 6.52909 6.82224 6.67728
#
# Compressibility (1/GPa) = 0.02246082
#
# Stress axis : x y z
#
# Youngs Moduli (GPa) = 52.98207 55.74031 75.44652
#
# Poissons Ratio (x) = 0.16772 0.44999
# Poissons Ratio (y) = 0.15942 0.36447
# Poissons Ratio (z) = 0.31601 0.26927
#
# Static dielectric constant tensor:
#      x y z
#    x 1.648530 0.000000 -0.019400 
#    y 0.000000 1.598670 0.000000 
#    z -0.019400 0.000000 1.641010 
# 
# From -- ./inp_files/23554.got.cif
#   From: 2010.05.17/outbox.cif.g08.bks.cpg/sg13_12_cif.got.tgz:23554.got - 2010.06.03 16:44:36.
