data_PCOD9228312
_publ_section_title
;
Structure prediction by ZEFSAII (Michael W. Deem and Ramdas Pophale) SiO2 
 PCOD9228312
Probable space group: P 2/C
;
_chemical_formula_sum "Si O2"
_cell_formula_units_Z 22
_cell_length_a 5.376348
_cell_length_b 11.768336
_cell_length_c 16.547369
_cell_angle_alpha 90.000000
_cell_angle_beta 58.176842
_cell_angle_gamma 90.000000
_cell_volume 889.583242
_symmetry_space_group_name_H-M "P 2/C"
_symmetry_group_IT_number 13
_symmetry_cell_setting 'monoclinic'
loop_
_space_group_symop_operation_xyz
x,y,z
-x,y,1/2-z
-x,-y,-z
x,-y,1/2+z
loop_
_atom_site_type_symbol
_atom_site_label
_atom_site_fract_x
_atom_site_fract_y
_atom_site_fract_z
Si Si1 0.779915 0.915318 0.142465
Si Si2 0.913003 0.353721 0.095310
Si Si3 0.527564 0.779580 0.035483
Si Si4 0.197085 0.567776 0.067608
Si Si5 0.576819 0.141184 0.118128
Si Si6 0.000000 0.001524 0.250000
O O1 0.500000 0.901435 0.250000
O O2 0.692985 0.837782 0.081961
O O3 0.801968 0.044638 0.107513
O O4 0.029127 0.917041 0.168472
O O5 0.652080 0.262954 0.143883
O O6 0.956784 0.473135 0.135087
O O7 0.910391 0.386907 0.000746
O O8 0.207725 0.283445 0.058507
O O9 0.297143 0.679701 0.099021
O O10 0.402347 0.852277 0.982321
O O11 0.500000 0.500000 0.000000
O O12 0.273609 0.086444 0.198532
#
# Coordination Sequence:
#
# PCOD9228312 Si02
#       6
#     4   4   4   4   4   2
#     4  10  22  37  52  79 117 157 196 237 295 362
#     4   9  17  30  53  85 111 141 185 238 294 349
#     4  10  19  33  57  85 111 149 195 243 295 357
#     4   8  16  31  51  82 113 138 182 236 288 344
#     4  10  20  34  54  80 116 153 193 239 296 360
#     4  10  22  36  48  74 120 164 198 242 292 358
#
# _framework density 24.730681000000001
#
# number of rings (size 3 to 8) (size 9 to 14) (size 15 to 20)
#    0.000    2.545    0.000    1.636    0.000    8.727 
#    0.000    0.000    0.000    0.000    0.000  269.818 
#    0.000    0.000    0.000    0.000    0.000    2.182 
#
# Total GULP energy -122586.095046 kJ/mol
# GULP energy per Si atom -5572.095229 kJ/mol
# Density = 2.467439 g / cm^3
# Si number density = 24.730681 Si / 1000 Ang^3
#
#
#
# Elastic Constant Matrix: (Units=GPa)
#
#
# Indices 1 2 3 4 5 6 
#
# 1 78.1141 46.0175 23.5263 0.0000 31.8514 0.0000
# 2 46.0175 162.6546 52.2562 0.0000 26.9014 0.0000
# 3 23.5263 52.2562 92.0376 0.0000 16.1951 0.0000
# 4 0.0000 0.0000 0.0000 1.1083 0.0000 -8.4141
# 5 31.8514 26.9014 16.1951 0.0000 36.5270 0.0000
# 6 0.0000 0.0000 0.0000 -8.4141 0.0000 55.5196
#
#
#
# Elastic Compliance Matrix: (Units=1/GPa)
#
#
# Indices 1 2 3 4 5 6 
#
# 1 0.021436 -0.003135 -0.000885 0.000000 -0.015990 0.000000
# 2 -0.003135 0.008544 -0.003713 0.000000 -0.001912 0.000000
# 3 -0.000885 -0.003713 0.013647 0.000000 -0.002544 0.000000
# 4 0.000000 0.000000 0.000000 -5.992937 0.000000 -0.908244
# 5 -0.015990 -0.001912 -0.002544 0.000000 0.043857 0.000000
# 6 0.000000 0.000000 0.000000 -0.908244 0.000000 -0.119635
#
#
# Mechanical properties :
#
#
# Convention : Reuss Voigt Hill
#
# Bulk Modulus (GPa) = 35.51265 64.04514 49.77889
# Shear Modulus (GPa) = -0.83330 32.69806 15.93238
#
# Velocity S-wave (km/s) = -0.58110 3.64010 2.54093
# Velocity P-wave (km/s) = 3.73372 6.60457 5.36475
#
# Compressibility (1/GPa) = 0.02815898
#
# Stress axis : x y z
#
# Youngs Moduli (GPa) = 46.65149 117.03746 73.27410
#
# Poissons Ratio (x) = 0.36696 0.06488
# Poissons Ratio (y) = 0.14627 0.27208
# Poissons Ratio (z) = 0.04131 0.43459
#
# Static dielectric constant tensor:
#      x y z
#    x 2.293980 0.000000 -0.021570 
#    y 0.000000 2.068470 0.000000 
#    z -0.021570 0.000000 1.995600 
# 
# From -- ./inp_files/60930.got.cif
#   From: 2010.05.17/outbox.cif.g08.bks.cpg/sg13_31_cif.got.tgz:60930.got - 2010.06.03 16:44:36.
