data_PCOD9228558
_publ_section_title
;
Structure prediction by ZEFSAII (Michael W. Deem and Ramdas Pophale) SiO2 
 PCOD9228558
Probable space group: P 2/C
;
_chemical_formula_sum "Si O2"
_cell_formula_units_Z 24
_cell_length_a 23.270992
_cell_length_b 7.786900
_cell_length_c 11.639037
_cell_angle_alpha 90.000000
_cell_angle_beta 29.937084
_cell_angle_gamma 90.000000
_cell_volume 1052.542140
_symmetry_space_group_name_H-M "P 2/C"
_symmetry_group_IT_number 13
_symmetry_cell_setting 'monoclinic'
loop_
_space_group_symop_operation_xyz
x,y,z
-x,y,1/2-z
-x,-y,-z
x,-y,1/2+z
loop_
_atom_site_type_symbol
_atom_site_label
_atom_site_fract_x
_atom_site_fract_y
_atom_site_fract_z
Si Si1 0.771094 0.765232 0.327802
Si Si2 0.382964 0.264581 0.007204
Si Si3 0.746288 0.383579 0.475265
Si Si4 0.592184 0.349181 0.954008
Si Si5 0.990537 0.622903 0.632298
Si Si6 0.395072 0.881402 0.724033
O O1 0.758123 0.585282 0.422373
O O2 0.689719 0.747646 0.357766
O O3 0.713405 0.913528 0.505571
O O4 0.905594 0.759716 0.061426
O O5 0.414434 0.458729 0.988509
O O6 0.344875 0.176726 0.189547
O O7 0.500000 0.185499 0.750000
O O8 0.281337 0.284734 0.093218
O O9 0.637423 0.357632 0.745799
O O10 0.859353 0.319028 0.344281
O O11 0.468909 0.260616 0.166099
O O12 0.000000 0.553811 0.750000
O O13 0.000000 0.500000 0.500000
O O14 0.500000 0.000000 0.500000
#
# Coordination Sequence:
#
# PCOD9228558 Si02
#       6
#     4   4   4   4   4   4
#     4  10  21  36  59  89 126 159 207 260 318 385
#     4  11  21  35  60  88 121 161 207 260 320 388
#     4  10  19  34  61  92 120 159 201 259 314 383
#     4  11  19  37  60  86 122 156 204 255 323 378
#     4  10  20  34  59  97 133 169 211 269 332 390
#     4  12  25  39  57  87 125 165 208 266 325 388
#
# _framework density 22.801936999999999
#
# number of rings (size 3 to 8) (size 9 to 14) (size 15 to 20)
#    0.000    1.333    5.000    3.000    0.000    1.333 
#    0.000    0.000    0.000    1.000    4.333    0.000 
#    0.000    0.000    0.000    0.000    0.000    0.000 
#
# Total GULP energy -133894.565723 kJ/mol
# GULP energy per Si atom -5578.940238 kJ/mol
# Density = 2.275004 g / cm^3
# Si number density = 22.801937 Si / 1000 Ang^3
#
#
#
# Elastic Constant Matrix: (Units=GPa)
#
#
# Indices 1 2 3 4 5 6 
#
# 1 168.4166 13.4807 38.0838 0.0000 -2.6022 0.0000
# 2 13.4807 42.2657 16.4804 0.0000 4.8284 0.0000
# 3 38.0838 16.4804 97.0522 0.0000 -8.2214 0.0000
# 4 0.0000 0.0000 0.0000 27.6541 0.0000 3.5861
# 5 -2.6022 4.8284 -8.2214 0.0000 49.1255 0.0000
# 6 0.0000 0.0000 0.0000 3.5861 0.0000 2.4914
#
#
#
# Elastic Compliance Matrix: (Units=1/GPa)
#
#
# Indices 1 2 3 4 5 6 
#
# 1 0.006569 -0.001178 -0.002372 0.000000 0.000067 0.000000
# 2 -0.001178 0.026073 -0.004248 0.000000 -0.003336 0.000000
# 3 -0.002372 -0.004248 0.012153 0.000000 0.002326 0.000000
# 4 0.000000 0.000000 0.000000 0.044460 0.000000 -0.063997
# 5 0.000067 -0.003336 0.002326 0.000000 0.021077 0.000000
# 6 0.000000 0.000000 0.000000 -0.063997 0.000000 0.493504
#
#
# Mechanical properties :
#
#
# Convention : Reuss Voigt Hill
#
# Bulk Modulus (GPa) = 34.24725 49.31379 41.78052
# Shear Modulus (GPa) = 7.94705 31.83350 19.89028
#
# Velocity S-wave (km/s) = 1.86891 3.74048 2.95669
# Velocity P-wave (km/s) = 4.43950 6.35050 5.47896
#
# Compressibility (1/GPa) = 0.02919943
#
# Stress axis : x y z
#
# Youngs Moduli (GPa) = 152.22103 38.35388 82.28481
#
# Poissons Ratio (x) = 0.04518 0.19519
# Poissons Ratio (y) = 0.17931 0.34953
# Poissons Ratio (z) = 0.36109 0.16292
#
# Static dielectric constant tensor:
#      x y z
#    x 1.778180 0.000000 0.064330 
#    y 0.000000 1.945420 0.000000 
#    z 0.064330 0.000000 1.921770 
# 
# From -- ./inp_files/41554.got.cif
#   From: 2010.05.17/outbox.cif.g08.bks.cpg/sg13_21_cif.got.tgz:41554.got - 2010.06.03 16:44:36.
