data_PCOD9228155
_publ_section_title
;
Structure prediction by ZEFSAII (Michael W. Deem and Ramdas Pophale) SiO2 
 PCOD9228155
Probable space group: P 2/C
;
_chemical_formula_sum "Si O2"
_cell_formula_units_Z 24
_cell_length_a 9.062585
_cell_length_b 12.240914
_cell_length_c 14.628762
_cell_angle_alpha 90.000000
_cell_angle_beta 39.077584
_cell_angle_gamma 90.000000
_cell_volume 1022.987973
_symmetry_space_group_name_H-M "P 2/C"
_symmetry_group_IT_number 13
_symmetry_cell_setting 'monoclinic'
loop_
_space_group_symop_operation_xyz
x,y,z
-x,y,1/2-z
-x,-y,-z
x,-y,1/2+z
loop_
_atom_site_type_symbol
_atom_site_label
_atom_site_fract_x
_atom_site_fract_y
_atom_site_fract_z
Si Si1 0.382607 0.177728 0.707413
Si Si2 0.879505 0.166263 0.399911
Si Si3 0.486131 0.733303 0.867962
Si Si4 0.944525 0.608110 0.641763
Si Si5 0.992870 0.359638 0.608255
Si Si6 0.701290 0.056302 0.230933
O O1 0.500000 0.200284 0.750000
O O2 0.609844 0.143520 0.540587
O O3 0.226541 0.283373 0.761393
O O4 0.232761 0.066725 0.775690
O O5 0.000000 0.123249 0.250000
O O6 0.895579 0.297708 0.392978
O O7 0.048611 0.119668 0.399858
O O8 0.500000 0.737389 0.750000
O O9 0.682391 0.644059 0.795108
O O10 0.566787 0.854002 0.858020
O O11 0.231581 0.699990 0.021680
O O12 0.984366 0.483284 0.647757
O O13 0.986603 0.624499 0.512245
O O14 0.500000 0.039667 0.250000
#
# Coordination Sequence:
#
# PCOD9228155 Si02
#       6
#     4   4   4   4   4   4
#     4  11  23  35  64  97 123 156 223 267 299 363
#     4  11  24  43  62  91 134 170 200 254 331 382
#     4   8  16  31  51  83 117 152 190 248 313 352
#     4   9  19  35  57  88 120 165 199 258 313 371
#     4  10  19  32  62  91 121 149 218 263 302 356
#     4   9  21  38  64  90 124 165 213 257 308 364
#
# _framework density 23.460687
#
# number of rings (size 3 to 8) (size 9 to 14) (size 15 to 20)
#    0.000    2.333    1.667    1.000    4.667    2.667 
#    0.000    0.833    0.000    0.000    0.000    0.000 
#    0.000    0.000    0.000    0.000    0.000    0.000 
#
# Total GULP energy -133805.873877 kJ/mol
# GULP energy per Si atom -5575.244745 kJ/mol
# Density = 2.340729 g / cm^3
# Si number density = 23.460687 Si / 1000 Ang^3
#
#
#
# Elastic Constant Matrix: (Units=GPa)
#
#
# Indices 1 2 3 4 5 6 
#
# 1 55.0681 1.1891 25.5552 0.0000 6.2386 0.0000
# 2 1.1891 148.9994 19.8882 0.0000 -19.0469 0.0000
# 3 25.5552 19.8882 98.0543 0.0000 -14.7228 0.0000
# 4 0.0000 0.0000 0.0000 -2.8967 0.0000 -11.5328
# 5 6.2386 -19.0469 -14.7228 0.0000 31.9908 0.0000
# 6 0.0000 0.0000 0.0000 -11.5328 0.0000 -2.6606
#
#
#
# Elastic Compliance Matrix: (Units=1/GPa)
#
#
# Indices 1 2 3 4 5 6 
#
# 1 0.022230 -0.000235 -0.006894 0.000000 -0.007648 0.000000
# 2 -0.000235 0.007339 -0.000821 0.000000 0.004037 0.000000
# 3 -0.006894 -0.000821 0.013203 0.000000 0.006932 0.000000
# 4 0.000000 0.000000 0.000000 0.021234 0.000000 -0.092042
# 5 -0.007648 0.004037 0.006932 0.000000 0.038344 0.000000
# 6 0.000000 0.000000 0.000000 -0.092042 0.000000 0.023118
#
#
# Mechanical properties :
#
#
# Convention : Reuss Voigt Hill
#
# Bulk Modulus (GPa) = 37.21463 43.93189 40.57326
# Shear Modulus (GPa) = 33.26098 22.31933 27.79016
#
# Velocity S-wave (km/s) = 3.76936 3.08774 3.44545
# Velocity P-wave (km/s) = 5.90264 5.61058 5.75846
#
# Compressibility (1/GPa) = 0.02687115
#
# Stress axis : x y z
#
# Youngs Moduli (GPa) = 44.98369 136.25782 75.74260
#
# Poissons Ratio (x) = 0.03199 0.52220
# Poissons Ratio (y) = 0.01056 0.06220
# Poissons Ratio (z) = 0.31014 0.11189
#
# Static dielectric constant tensor:
#      x y z
#    x 2.068110 0.000000 0.110490 
#    y 0.000000 1.863940 0.000000 
#    z 0.110490 0.000000 1.931910 
# 
# From -- ./inp_files/78445.got.cif
#   From: 2010.05.17/outbox.cif.g08.bks.cpg/sg13_40_cif.got.tgz:78445.got - 2010.06.03 16:44:36.
