data_PCOD9228405
_publ_section_title
;
Structure prediction by ZEFSAII (Michael W. Deem and Ramdas Pophale) SiO2 
 PCOD9228405
Probable space group: P 2/C
;
_chemical_formula_sum "Si O2"
_cell_formula_units_Z 28
_cell_length_a 28.591200
_cell_length_b 8.201952
_cell_length_c 8.556170
_cell_angle_alpha 90.000000
_cell_angle_beta 42.864374
_cell_angle_gamma 90.000000
_cell_volume 1364.920314
_symmetry_space_group_name_H-M "P 2/C"
_symmetry_group_IT_number 13
_symmetry_cell_setting 'monoclinic'
loop_
_space_group_symop_operation_xyz
x,y,z
-x,y,1/2-z
-x,-y,-z
x,-y,1/2+z
loop_
_atom_site_type_symbol
_atom_site_label
_atom_site_fract_x
_atom_site_fract_y
_atom_site_fract_z
Si Si1 0.730909 0.647240 0.854876
Si Si2 0.934628 0.142757 0.509398
Si Si3 0.151635 0.381912 0.994889
Si Si4 0.356710 0.420643 0.215425
Si Si5 0.056408 0.652177 0.228897
Si Si6 0.836076 0.156398 0.250494
Si Si7 0.547083 0.602918 0.763692
O O1 0.787312 0.499358 0.712624
O O2 0.700476 0.662141 0.754588
O O3 0.766098 0.815098 0.824605
O O4 0.676363 0.576598 0.113910
O O5 0.891959 0.282836 0.524818
O O6 0.967691 0.221958 0.582238
O O7 0.000000 0.081344 0.250000
O O8 0.875600 0.010490 0.689345
O O9 0.097003 0.504236 0.207432
O O10 0.177203 0.252642 0.057465
O O11 0.396033 0.321677 0.256918
O O12 0.410994 0.483097 0.953708
O O13 0.000000 0.586718 0.250000
O O14 0.109204 0.748864 0.990643
O O15 0.500000 0.697132 0.750000
O O16 0.500000 0.500000 0.000000
#
# Coordination Sequence:
#
# PCOD9228405 Si02
#       7
#     4   4   4   4   4   4   4
#     4  10  19  34  54  80 108 156 201 231 274 337
#     4  12  26  42  60  80 105 139 181 243 317 356
#     4  11  23  39  58  81 105 139 192 235 290 355
#     4   9  16  28  51  77 115 162 199 228 270 327
#     4  11  23  40  62  79 100 132 180 236 294 367
#     4  11  23  38  55  77 109 140 183 238 289 350
#     4   8  14  25  45  81 122 159 188 225 284 319
#
# _framework density 20.514019000000001
#
# number of rings (size 3 to 8) (size 9 to 14) (size 15 to 20)
#    0.000    1.714    1.429    4.286    2.000    3.429 
#    0.000    1.429    0.000    0.000    0.000    0.000 
#    0.000    0.000    0.000  324.000    0.000    0.000 
#
# Total GULP energy -156005.395633 kJ/mol
# GULP energy per Si atom -5571.621273 kJ/mol
# Density = 2.046733 g / cm^3
# Si number density = 20.514019 Si / 1000 Ang^3
#
#
#
# Elastic Constant Matrix: (Units=GPa)
#
#
# Indices 1 2 3 4 5 6 
#
# 1 160.1925 16.6307 12.0524 0.0000 5.2100 0.0000
# 2 16.6307 54.3334 12.0264 0.0000 -0.4943 0.0000
# 3 12.0524 12.0264 81.6947 0.0000 6.3322 0.0000
# 4 0.0000 0.0000 0.0000 7.8860 0.0000 8.2607
# 5 5.2100 -0.4943 6.3322 0.0000 26.4353 0.0000
# 6 0.0000 0.0000 0.0000 8.2607 0.0000 9.8267
#
#
#
# Elastic Compliance Matrix: (Units=1/GPa)
#
#
# Indices 1 2 3 4 5 6 
#
# 1 0.006520 -0.001875 -0.000595 0.000000 -0.001178 0.000000
# 2 -0.001875 0.019592 -0.002715 0.000000 0.001386 0.000000
# 3 -0.000595 -0.002715 0.012964 0.000000 -0.003039 0.000000
# 4 0.000000 0.000000 0.000000 1.061942 0.000000 -0.892715
# 5 -0.001178 0.001386 -0.003039 0.000000 0.038814 0.000000
# 6 0.000000 0.000000 0.000000 -0.892715 0.000000 0.852219
#
#
# Mechanical properties :
#
#
# Convention : Reuss Voigt Hill
#
# Bulk Modulus (GPa) = 34.83463 41.95996 38.39730
# Shear Modulus (GPa) = 2.48510 25.86366 14.17438
#
# Velocity S-wave (km/s) = 1.10184 3.55460 2.63146
# Velocity P-wave (km/s) = 4.31700 6.11110 5.29066
#
# Compressibility (1/GPa) = 0.02870706
#
# Stress axis : x y z
#
# Youngs Moduli (GPa) = 153.37026 51.04042 77.13878
#
# Poissons Ratio (x) = 0.09569 0.04587
# Poissons Ratio (y) = 0.28754 0.20944
# Poissons Ratio (z) = 0.09120 0.13858
#
# Static dielectric constant tensor:
#      x y z
#    x 1.854340 0.000000 -0.031620 
#    y 0.000000 1.718840 0.000000 
#    z -0.031620 0.000000 1.760050 
# 
# From -- ./inp_files/24862.got.cif
#   From: 2010.05.17/outbox.cif.g08.bks.cpg/sg13_13_cif.got.tgz:24862.got - 2010.06.03 16:44:36.
