data_PCOD9228050
_publ_section_title
;
Structure prediction by ZEFSAII (Michael W. Deem and Ramdas Pophale) SiO2 
 PCOD9228050
Probable space group: P 2/C
;
_chemical_formula_sum "Si O2"
_cell_formula_units_Z 22
_cell_length_a 16.296921
_cell_length_b 12.005451
_cell_length_c 10.302004
_cell_angle_alpha 90.000000
_cell_angle_beta 149.159919
_cell_angle_gamma 90.000000
_cell_volume 1033.287824
_symmetry_space_group_name_H-M "P 2/C"
_symmetry_group_IT_number 13
_symmetry_cell_setting 'monoclinic'
loop_
_space_group_symop_operation_xyz
x,y,z
-x,y,1/2-z
-x,-y,-z
x,-y,1/2+z
loop_
_atom_site_type_symbol
_atom_site_label
_atom_site_fract_x
_atom_site_fract_y
_atom_site_fract_z
Si Si1 0.349691 0.952961 0.642323
Si Si2 0.447009 0.174527 0.891428
Si Si3 0.671391 0.594199 0.018168
Si Si4 0.678605 0.394320 0.826601
Si Si5 0.000000 0.250252 0.250000
Si Si6 0.833956 0.192876 0.781528
O O1 0.500000 0.938563 0.750000
O O2 0.193864 0.901747 0.362725
O O3 0.355823 0.083742 0.680118
O O4 0.395973 0.884786 0.836427
O O5 0.456612 0.297333 0.844539
O O6 0.325267 0.190673 0.845283
O O7 0.500000 0.649398 0.750000
O O8 0.679063 0.489827 0.933251
O O9 0.667413 0.559702 0.164002
O O10 0.814544 0.683515 0.194181
O O11 0.846112 0.328135 0.061504
O O12 0.029025 0.184370 0.424177
#
# Coordination Sequence:
#
# PCOD9228050 Si02
#       6
#     4   4   4   4   2   4
#     4   9  15  27  48  70  93 123 157 200 248 297
#     4   8  16  29  45  69  95 119 158 201 247 296
#     4  10  19  32  51  74 101 129 161 207 258 301
#     4  10  20  33  50  73 100 133 166 203 248 297
#     4   8  18  34  50  68  96 134 172 200 236 296
#     4   9  17  31  48  66  93 130 164 196 244 297
#
# _framework density 21.291260000000001
#
# number of rings (size 3 to 8) (size 9 to 14) (size 15 to 20)
#    0.000    3.273    0.000    3.273    0.000    3.636 
#    0.000    7.273    0.000    0.000    0.000   10.182 
#    0.000    0.000    0.000    0.000    0.000    0.000 
#
# Total GULP energy -122485.581849 kJ/mol
# GULP energy per Si atom -5567.526448 kJ/mol
# Density = 2.124280 g / cm^3
# Si number density = 21.291260 Si / 1000 Ang^3
#
#
#
# Elastic Constant Matrix: (Units=GPa)
#
#
# Indices 1 2 3 4 5 6 
#
# 1 26.2372 29.4413 17.4045 0.0000 -25.1240 0.0000
# 2 29.4413 134.0357 58.7393 0.0000 -46.4764 0.0000
# 3 17.4045 58.7393 134.7277 0.0000 -43.4013 0.0000
# 4 0.0000 0.0000 0.0000 41.3213 0.0000 -22.0140
# 5 -25.1240 -46.4764 -43.4013 0.0000 35.3514 0.0000
# 6 0.0000 0.0000 0.0000 -22.0140 0.0000 24.6033
#
#
#
# Elastic Compliance Matrix: (Units=1/GPa)
#
#
# Indices 1 2 3 4 5 6 
#
# 1 0.166304 0.007556 0.027289 0.000000 0.161628 0.000000
# 2 0.007556 0.014061 0.000957 0.000000 0.025031 0.000000
# 3 0.027289 0.000957 0.016762 0.000000 0.041232 0.000000
# 4 0.000000 0.000000 0.000000 0.046245 0.000000 0.041378
# 5 0.161628 0.025031 0.041232 0.000000 0.226684 0.000000
# 6 0.000000 0.000000 0.000000 0.041378 0.000000 0.077668
#
#
# Mechanical properties :
#
#
# Convention : Reuss Voigt Hill
#
# Bulk Modulus (GPa) = 3.72120 56.24118 29.98119
# Shear Modulus (GPa) = 8.83867 32.88290 20.86078
#
# Velocity S-wave (km/s) = 2.03969 3.93419 3.13354
# Velocity P-wave (km/s) = 2.70160 6.86364 5.21576
#
# Compressibility (1/GPa) = 0.26873075
#
# Stress axis : x y z
#
# Youngs Moduli (GPa) = 6.01310 71.11895 59.65771
#
# Poissons Ratio (x) = -0.53736 -1.62802
# Poissons Ratio (y) = -0.04543 -0.05709
# Poissons Ratio (z) = -0.16409 -0.06806
#
# Static dielectric constant tensor:
#      x y z
#    x 1.746210 0.000000 -0.057800 
#    y 0.000000 1.889980 0.000000 
#    z -0.057800 0.000000 1.843660 
# 
# From -- ./inp_files/40652.got.cif
#   From: 2010.05.17/outbox.cif.g08.bks.cpg/sg13_21_cif.got.tgz:40652.got - 2010.06.03 16:44:36.
