data_PCOD9228206
_publ_section_title
;
Structure prediction by ZEFSAII (Michael W. Deem and Ramdas Pophale) SiO2 
 PCOD9228206
Probable space group: P 2/C
;
_chemical_formula_sum "Si O2"
_cell_formula_units_Z 32
_cell_length_a 17.385181
_cell_length_b 12.670205
_cell_length_c 23.580501
_cell_angle_alpha 90.000000
_cell_angle_beta 160.674837
_cell_angle_gamma 90.000000
_cell_volume 1718.899658
_symmetry_space_group_name_H-M "P 2/C"
_symmetry_group_IT_number 13
_symmetry_cell_setting 'monoclinic'
loop_
_space_group_symop_operation_xyz
x,y,z
-x,y,1/2-z
-x,-y,-z
x,-y,1/2+z
loop_
_atom_site_type_symbol
_atom_site_label
_atom_site_fract_x
_atom_site_fract_y
_atom_site_fract_z
Si Si1 0.907727 0.154553 0.411805
Si Si2 0.249043 0.034737 0.849673
Si Si3 0.323541 0.410801 0.759615
Si Si4 0.511127 0.990823 0.375736
Si Si5 0.301924 0.660932 0.063181
Si Si6 0.075691 0.383979 0.115406
Si Si7 0.771717 0.190412 0.761215
Si Si8 0.831684 0.102556 0.015513
O O1 0.705664 0.069401 0.273390
O O2 0.832366 0.265238 0.330661
O O3 0.008035 0.174021 0.544028
O O4 0.114230 0.114228 0.513666
O O5 0.188038 0.140207 0.772294
O O6 0.290261 0.039282 0.945168
O O7 0.064860 0.946090 0.704080
O O8 0.500000 0.000000 0.000000
O O9 0.569403 0.394930 0.899255
O O10 0.268415 0.525937 0.745379
O O11 0.293876 0.313042 0.781869
O O12 0.119146 0.395807 0.569970
O O13 0.424949 0.881039 0.344351
O O14 0.624148 0.969597 0.393731
O O15 0.500000 0.666119 0.250000
O O16 0.225456 0.781402 0.000475
O O17 0.075229 0.606776 0.932321
#
# Coordination Sequence:
#
# PCOD9228206 Si02
#       8
#     4   4   4   4   4   4   4   4
#     4  10  20  34  52  81 112 140 181 229 274 326
#     4  10  21  36  49  74 110 145 172 219 278 332
#     4   9  15  31  50  74 105 139 181 220 268 325
#     4  11  21  34  53  77 108 146 178 224 274 329
#     4   9  17  28  48  81 104 132 181 232 267 312
#     4   8  17  29  50  74 105 144 171 220 281 320
#     4  10  19  33  53  78 110 143 177 228 277 316
#     4  11  20  31  55  76 104 141 187 224 269 324
#
# _framework density 18.61656
#
# number of rings (size 3 to 8) (size 9 to 14) (size 15 to 20)
#    0.000    2.250    3.750    1.500    0.000    0.000 
#    0.000    1.250    0.000    3.750    0.000    0.000 
#    0.000    0.000    0.000    0.000    0.000    0.000 
#
# Total GULP energy -178375.118583 kJ/mol
# GULP energy per Si atom -5574.222456 kJ/mol
# Density = 1.857419 g / cm^3
# Si number density = 18.616560 Si / 1000 Ang^3
#
#
#
# Elastic Constant Matrix: (Units=GPa)
#
#
# Indices 1 2 3 4 5 6 
#
# 1 77.1723 62.9878 27.0750 0.0000 11.7485 0.0000
# 2 62.9878 123.5574 33.1968 0.0000 20.2379 0.0000
# 3 27.0750 33.1968 41.7363 0.0000 13.1628 0.0000
# 4 0.0000 0.0000 0.0000 15.2600 0.0000 13.1345
# 5 11.7485 20.2379 13.1628 0.0000 31.7753 0.0000
# 6 0.0000 0.0000 0.0000 13.1345 0.0000 28.9437
#
#
#
# Elastic Compliance Matrix: (Units=1/GPa)
#
#
# Indices 1 2 3 4 5 6 
#
# 1 0.023874 -0.010273 -0.007587 0.000000 0.000859 0.000000
# 2 -0.010273 0.015093 -0.004034 0.000000 -0.004143 0.000000
# 3 -0.007587 -0.004034 0.034963 0.000000 -0.009109 0.000000
# 4 0.000000 0.000000 0.000000 0.107532 0.000000 -0.048797
# 5 0.000859 -0.004143 -0.009109 0.000000 0.037566 0.000000
# 6 0.000000 0.000000 0.000000 -0.048797 0.000000 0.056694
#
#
# Mechanical properties :
#
#
# Convention : Reuss Voigt Hill
#
# Bulk Modulus (GPa) = 33.17622 54.33169 43.75396
# Shear Modulus (GPa) = 15.17193 23.14288 19.15741
#
# Velocity S-wave (km/s) = 2.85786 3.52964 3.21136
# Velocity P-wave (km/s) = 5.36184 6.77193 6.10772
#
# Compressibility (1/GPa) = 0.03014207
#
# Stress axis : x y z
#
# Youngs Moduli (GPa) = 41.88718 66.25724 28.60147
#
# Poissons Ratio (x) = 0.68063 0.21701
# Poissons Ratio (y) = 0.43029 0.11538
# Poissons Ratio (z) = 0.31781 0.26727
#
# Static dielectric constant tensor:
#      x y z
#    x 1.692900 0.000000 -0.029600 
#    y 0.000000 1.644110 0.000000 
#    z -0.029600 0.000000 1.668900 
# 
# From -- ./inp_files/88202.got.cif
#   From: 2010.05.17/outbox.cif.g08.bks.cpg/sg13_45_cif.got.tgz:88202.got - 2010.06.03 16:44:36.
