data_PCOD9228146
_publ_section_title
;
Structure prediction by ZEFSAII (Michael W. Deem and Ramdas Pophale) SiO2 
 PCOD9228146
Probable space group: P 2/C
;
_chemical_formula_sum "Si O2"
_cell_formula_units_Z 28
_cell_length_a 19.362205
_cell_length_b 15.540242
_cell_length_c 8.037335
_cell_angle_alpha 90.000000
_cell_angle_beta 34.791245
_cell_angle_gamma 90.000000
_cell_volume 1379.899196
_symmetry_space_group_name_H-M "P 2/C"
_symmetry_group_IT_number 13
_symmetry_cell_setting 'monoclinic'
loop_
_space_group_symop_operation_xyz
x,y,z
-x,y,1/2-z
-x,-y,-z
x,-y,1/2+z
loop_
_atom_site_type_symbol
_atom_site_label
_atom_site_fract_x
_atom_site_fract_y
_atom_site_fract_z
Si Si1 0.500000 0.215177 0.750000
Si Si2 0.100410 0.292421 0.682852
Si Si3 0.547797 0.907865 0.845609
Si Si4 0.716471 0.459119 0.649062
Si Si5 0.000000 0.991131 0.750000
Si Si6 0.835177 0.896709 0.341588
Si Si7 0.670012 0.373391 0.421313
Si Si8 0.891076 0.566984 0.075936
O O1 0.498174 0.158237 0.585621
O O2 0.607305 0.283331 0.512482
O O3 0.154781 0.204576 0.644654
O O4 0.192625 0.352098 0.397377
O O5 0.061504 0.352489 0.913288
O O6 0.000000 0.267563 0.750000
O O7 0.500000 0.890697 0.750000
O O8 0.694766 0.912225 0.571193
O O9 0.500000 0.000000 0.000000
O O10 0.647970 0.399467 0.655335
O O11 0.643018 0.541095 0.865731
O O12 0.827534 0.498233 0.321151
O O13 0.779092 0.409151 0.676386
O O14 0.071917 0.929500 0.482245
O O15 0.106904 0.050647 0.617036
O O16 0.000000 0.531295 0.750000
#
# Coordination Sequence:
#
# PCOD9228146 Si02
#       8
#     2   4   4   4   2   4   4   4
#     4  12  26  46  72 100 136 186 234 302 350 402
#     4  11  22  38  59  91 135 165 217 276 331 406
#     4  12  26  48  76 107 138 185 239 294 356 413
#     4   9  20  38  59  87 130 171 218 282 336 404
#     4  10  24  42  72  96 136 180 214 274 362 430
#     4  11  23  45  65 101 135 174 225 275 347 429
#     4  10  22  42  64  95 130 176 229 281 347 411
#     4  10  19  32  57  87 122 169 217 259 328 397
#
# _framework density 20.291338
#
# number of rings (size 3 to 8) (size 9 to 14) (size 15 to 20)
#    0.000    1.429    2.857    2.143    1.000    5.714 
#    5.143    0.000    0.000    0.000    0.000    0.000 
#    0.000    0.000    0.000    0.000    0.000    0.000 
#
# Total GULP energy -156076.959790 kJ/mol
# GULP energy per Si atom -5574.177135 kJ/mol
# Density = 2.024515 g / cm^3
# Si number density = 20.291338 Si / 1000 Ang^3
#
#
#
# Elastic Constant Matrix: (Units=GPa)
#
#
# Indices 1 2 3 4 5 6 
#
# 1 117.6656 50.2551 29.6860 0.0000 11.0889 0.0000
# 2 50.2551 107.3529 13.4969 0.0000 6.2742 0.0000
# 3 29.6860 13.4969 55.7247 0.0000 -4.8995 0.0000
# 4 0.0000 0.0000 0.0000 7.3726 0.0000 -1.3210
# 5 11.0889 6.2742 -4.8995 0.0000 33.1621 0.0000
# 6 0.0000 0.0000 0.0000 -1.3210 0.0000 37.0531
#
#
#
# Elastic Compliance Matrix: (Units=1/GPa)
#
#
# Indices 1 2 3 4 5 6 
#
# 1 0.012417 -0.004844 -0.005801 0.000000 -0.004093 0.000000
# 2 -0.004844 0.011657 -0.000298 0.000000 -0.000630 0.000000
# 3 -0.005801 -0.000298 0.021564 0.000000 0.005182 0.000000
# 4 0.000000 0.000000 0.000000 0.136509 0.000000 0.004867
# 5 -0.004093 -0.000630 0.005182 0.000000 0.032408 0.000000
# 6 0.000000 0.000000 0.000000 0.004867 0.000000 0.027162
#
#
# Mechanical properties :
#
#
# Convention : Reuss Voigt Hill
#
# Bulk Modulus (GPa) = 42.10469 51.95770 47.03120
# Shear Modulus (GPa) = 18.41479 28.00460 23.20969
#
# Velocity S-wave (km/s) = 3.01578 3.71903 3.38571
# Velocity P-wave (km/s) = 5.73774 6.64101 6.20583
#
# Compressibility (1/GPa) = 0.02375032
#
# Stress axis : x y z
#
# Youngs Moduli (GPa) = 80.53518 85.78491 46.37411
#
# Poissons Ratio (x) = 0.41556 0.26903
# Poissons Ratio (y) = 0.39013 0.01383
# Poissons Ratio (z) = 0.46721 0.02558
#
# Static dielectric constant tensor:
#      x y z
#    x 1.850550 0.000000 -0.046470 
#    y 0.000000 1.681920 0.000000 
#    z -0.046470 0.000000 1.831130 
# 
# From -- ./inp_files/23621.got.cif
#   From: 2010.05.17/outbox.cif.g08.bks.cpg/sg13_12_cif.got.tgz:23621.got - 2010.06.03 16:44:36.
