data_PCOD9228546
_publ_section_title
;
Structure prediction by ZEFSAII (Michael W. Deem and Ramdas Pophale) SiO2 
 PCOD9228546
Probable space group: P 2/C
;
_chemical_formula_sum "Si O2"
_cell_formula_units_Z 32
_cell_length_a 14.703457
_cell_length_b 12.937044
_cell_length_c 16.237258
_cell_angle_alpha 90.000000
_cell_angle_beta 29.163380
_cell_angle_gamma 90.000000
_cell_volume 1505.099030
_symmetry_space_group_name_H-M "P 2/C"
_symmetry_group_IT_number 13
_symmetry_cell_setting 'monoclinic'
loop_
_space_group_symop_operation_xyz
x,y,z
-x,y,1/2-z
-x,-y,-z
x,-y,1/2+z
loop_
_atom_site_type_symbol
_atom_site_label
_atom_site_fract_x
_atom_site_fract_y
_atom_site_fract_z
Si Si1 0.276780 0.452488 0.089775
Si Si2 0.177041 0.187403 0.548341
Si Si3 0.213373 0.002017 0.114798
Si Si4 0.731093 0.479532 0.724068
Si Si5 0.283696 0.582956 0.927740
Si Si6 0.746260 0.738867 0.138547
Si Si7 0.303813 0.765781 0.505966
Si Si8 0.076268 0.092026 0.885534
O O1 0.206437 0.496231 0.232478
O O2 0.503365 0.470048 0.910194
O O3 0.207312 0.511571 0.062367
O O4 0.237374 0.330217 0.113768
O O5 0.270843 0.297737 0.463634
O O6 0.000000 0.203662 0.750000
O O7 0.089610 0.148724 0.532296
O O8 0.293300 0.091409 0.494992
O O9 0.000000 0.011934 0.250000
O O10 0.206828 0.957184 0.211688
O O11 0.290212 0.117214 0.048593
O O12 0.785551 0.562013 0.610384
O O13 0.801230 0.371314 0.631986
O O14 0.500000 0.552495 0.750000
O O15 0.522229 0.743899 0.319850
O O16 0.796061 0.756968 0.003872
O O17 0.823639 0.827574 0.135161
O O18 0.000000 0.000000 0.000000
#
# Coordination Sequence:
#
# PCOD9228546 Si02
#       8
#     4   4   4   4   4   4   4   4
#     4   9  18  32  56  83 118 147 180 239 293 338
#     4   9  21  39  57  79 114 158 190 224 296 353
#     4   9  20  38  57  78 113 154 185 228 293 342
#     4   9  18  32  55  87 112 149 188 227 297 346
#     4  10  19  37  60  86 116 150 193 243 286 338
#     4  10  19  34  60  82 110 153 190 234 283 347
#     4  10  19  36  57  87 112 142 195 236 283 340
#     4  10  21  38  57  76 110 157 189 230 285 341
#
# _framework density 21.261060000000001
#
# number of rings (size 3 to 8) (size 9 to 14) (size 15 to 20)
#    0.000    2.750    1.250    1.500    3.500    1.500 
#    4.500    1.250    0.000    0.000    0.000    0.000 
#    0.000    0.000    0.000    0.000    0.000    0.000 
#
# Total GULP energy -178561.140406 kJ/mol
# GULP energy per Si atom -5580.035638 kJ/mol
# Density = 2.121267 g / cm^3
# Si number density = 21.261060 Si / 1000 Ang^3
#
#
#
# Elastic Constant Matrix: (Units=GPa)
#
#
# Indices 1 2 3 4 5 6 
#
# 1 87.5208 31.5956 27.7394 0.0000 41.0104 0.0000
# 2 31.5956 148.1684 20.0755 0.0000 31.7604 0.0000
# 3 27.7394 20.0755 33.2336 0.0000 11.6353 0.0000
# 4 0.0000 0.0000 0.0000 19.6668 0.0000 12.4757
# 5 41.0104 31.7604 11.6353 0.0000 33.7351 0.0000
# 6 0.0000 0.0000 0.0000 12.4757 0.0000 23.8135
#
#
#
# Elastic Compliance Matrix: (Units=1/GPa)
#
#
# Indices 1 2 3 4 5 6 
#
# 1 0.033065 0.003225 -0.016391 0.000000 -0.037580 0.000000
# 2 0.003225 0.008979 -0.004303 0.000000 -0.010890 0.000000
# 3 -0.016391 -0.004303 0.043191 0.000000 0.009080 0.000000
# 4 0.000000 0.000000 0.000000 0.076156 0.000000 -0.039898
# 5 -0.037580 -0.010890 0.009080 0.000000 0.082447 0.000000
# 6 0.000000 0.000000 0.000000 -0.039898 0.000000 0.062895
#
#
# Mechanical properties :
#
#
# Convention : Reuss Voigt Hill
#
# Bulk Modulus (GPa) = 19.88136 47.52710 33.70423
# Shear Modulus (GPa) = 13.94943 28.07723 21.01333
#
# Velocity S-wave (km/s) = 2.56423 3.63794 3.14721
# Velocity P-wave (km/s) = 4.25892 6.32841 5.39384
#
# Compressibility (1/GPa) = 0.05029836
#
# Stress axis : x y z
#
# Youngs Moduli (GPa) = 30.24307 111.37592 23.15271
#
# Poissons Ratio (x) = -0.35921 0.37948
# Poissons Ratio (y) = -0.09754 0.09963
# Poissons Ratio (z) = 0.49570 0.47928
#
# Static dielectric constant tensor:
#      x y z
#    x 1.777350 0.000000 -0.011130 
#    y 0.000000 1.765870 0.000000 
#    z -0.011130 0.000000 1.801370 
# 
# From -- ./inp_files/53685.got.cif
#   From: 2010.05.17/outbox.cif.g08.bks.cpg/sg13_27_cif.got.tgz:53685.got - 2010.06.03 16:44:36.
