data_PCOD9228624
_publ_section_title
;
Structure prediction by ZEFSAII (Michael W. Deem and Ramdas Pophale) SiO2 
 PCOD9228624
Probable space group: P 2/C
;
_chemical_formula_sum "Si O2"
_cell_formula_units_Z 30
_cell_length_a 24.902083
_cell_length_b 9.079402
_cell_length_c 15.662125
_cell_angle_alpha 90.000000
_cell_angle_beta 29.045123
_cell_angle_gamma 90.000000
_cell_volume 1719.219372
_symmetry_space_group_name_H-M "P 2/C"
_symmetry_group_IT_number 13
_symmetry_cell_setting 'monoclinic'
loop_
_space_group_symop_operation_xyz
x,y,z
-x,y,1/2-z
-x,-y,-z
x,-y,1/2+z
loop_
_atom_site_type_symbol
_atom_site_label
_atom_site_fract_x
_atom_site_fract_y
_atom_site_fract_z
Si Si1 0.429240 0.678772 0.428239
Si Si2 0.807169 0.364708 0.710065
Si Si3 0.557459 0.330014 0.083678
Si Si4 0.771829 0.316054 0.570414
Si Si5 0.999025 0.127664 0.068629
Si Si6 0.803001 0.363302 0.333230
Si Si7 0.535362 0.830838 0.439487
Si Si8 0.000000 0.131953 0.250000
O O1 0.500000 0.735335 0.250000
O O2 0.458879 0.506385 0.400945
O O3 0.303620 0.686331 0.572152
O O4 0.459230 0.763825 0.471490
O O5 0.782816 0.409234 0.643937
O O6 0.895700 0.234782 0.585533
O O7 0.843442 0.493772 0.724206
O O8 0.689015 0.308085 0.907299
O O9 0.500000 0.278662 0.250000
O O10 0.516865 0.250311 0.055283
O O11 0.766827 0.391086 0.483075
O O12 0.663221 0.211738 0.734947
O O13 0.888190 0.229072 0.405936
O O14 0.894176 0.235925 0.207089
O O15 0.999206 0.051767 0.161461
O O16 0.000000 0.000000 0.000000
O O17 0.500000 0.000000 0.500000
#
# Coordination Sequence:
#
# PCOD9228624 Si02
#       8
#     4   4   4   4   4   4   4   2
#     4  10  19  35  57  81 110 143 188 230 275 335
#     4   9  19  36  58  83 107 140 188 235 270 334
#     4   9  20  38  56  80 111 148 185 232 285 327
#     4   9  18  36  57  80 112 146 184 227 283 333
#     4  10  20  36  57  80 113 148 182 229 281 335
#     4  10  19  35  59  83 105 148 189 226 275 331
#     4  11  22  35  54  84 115 149 185 232 280 345
#     4   8  18  36  56  74 104 152 182 214 274 338
#
# _framework density 17.449778999999999
#
# number of rings (size 3 to 8) (size 9 to 14) (size 15 to 20)
#    0.000    2.400    1.333    0.800    0.000    3.733 
#    4.800    1.333    0.000    0.000    0.000    0.000 
#    0.000    0.000    0.000    0.000    0.000    0.000 
#
# Total GULP energy -167005.459998 kJ/mol
# GULP energy per Si atom -5566.848667 kJ/mol
# Density = 1.741006 g / cm^3
# Si number density = 17.449779 Si / 1000 Ang^3
#
#
#
# Elastic Constant Matrix: (Units=GPa)
#
#
# Indices 1 2 3 4 5 6 
#
# 1 155.5675 68.3753 58.7151 0.0000 35.0016 0.0000
# 2 68.3753 67.5364 34.3672 0.0000 21.1018 0.0000
# 3 58.7151 34.3672 88.2717 0.0000 28.7085 0.0000
# 4 0.0000 0.0000 0.0000 -34.8663 0.0000 228.3682
# 5 35.0016 21.1018 28.7085 0.0000 31.0804 0.0000
# 6 0.0000 0.0000 0.0000 228.3682 0.0000 -987.4530
#
#
#
# Elastic Compliance Matrix: (Units=1/GPa)
#
#
# Indices 1 2 3 4 5 6 
#
# 1 0.013265 -0.010226 -0.003204 0.000000 -0.005036 0.000000
# 2 -0.010226 0.028033 -0.002384 0.000000 -0.005315 0.000000
# 3 -0.003204 -0.002384 0.018137 0.000000 -0.011525 0.000000
# 4 0.000000 0.000000 0.000000 0.055715 0.000000 0.012885
# 5 -0.005036 -0.005315 -0.011525 0.000000 0.052101 0.000000
# 6 0.000000 0.000000 0.000000 0.012885 0.000000 0.001967
#
#
# Mechanical properties :
#
#
# Convention : Reuss Voigt Hill
#
# Bulk Modulus (GPa) = 35.96191 70.47677 53.21934
# Shear Modulus (GPa) = 23.79649 -188.25327 -82.22839
#
# Velocity S-wave (km/s) = 3.69685 -10.39794 -6.87206
# Velocity P-wave (km/s) = 6.23505 10.18234 5.69229
#
# Compressibility (1/GPa) = 0.02780720
#
# Stress axis : x y z
#
# Youngs Moduli (GPa) = 75.38682 35.67184 55.13724
#
# Poissons Ratio (x) = 0.36477 0.17667
# Poissons Ratio (y) = 0.77087 0.13144
# Poissons Ratio (z) = 0.24156 0.08504
#
# Static dielectric constant tensor:
#      x y z
#    x 1.612360 0.000000 0.015990 
#    y 0.000000 1.571850 0.000000 
#    z 0.015990 0.000000 1.617240 
# 
# From -- ./inp_files/58667.got.cif
#   From: 2010.05.17/outbox.cif.g08.bks.cpg/sg13_30_cif.got.tgz:58667.got - 2010.06.03 16:44:36.
