data_PCOD9228194
_publ_section_title
;
Structure prediction by ZEFSAII (Michael W. Deem and Ramdas Pophale) SiO2 
 PCOD9228194
Probable space group: P 2/C
;
_chemical_formula_sum "Si O2"
_cell_formula_units_Z 28
_cell_length_a 19.061436
_cell_length_b 14.144483
_cell_length_c 10.301743
_cell_angle_alpha 90.000000
_cell_angle_beta 145.340052
_cell_angle_gamma 90.000000
_cell_volume 1579.574819
_symmetry_space_group_name_H-M "P 2/C"
_symmetry_group_IT_number 13
_symmetry_cell_setting 'monoclinic'
loop_
_space_group_symop_operation_xyz
x,y,z
-x,y,1/2-z
-x,-y,-z
x,-y,1/2+z
loop_
_atom_site_type_symbol
_atom_site_label
_atom_site_fract_x
_atom_site_fract_y
_atom_site_fract_z
Si Si1 0.352930 0.582724 0.671405
Si Si2 0.119864 0.088392 0.493905
Si Si3 0.347857 0.432233 0.873588
Si Si4 0.196689 0.961786 0.379046
Si Si5 0.639144 0.865075 0.467856
Si Si6 0.367699 0.800225 0.749663
Si Si7 0.653246 0.222790 0.719532
O O1 0.306267 0.514636 0.713896
O O2 0.307624 0.553426 0.460274
O O3 0.328726 0.693512 0.656839
O O4 0.502079 0.570781 0.898198
O O5 0.105581 0.068761 0.624748
O O6 0.243785 0.149531 0.669348
O O7 0.000000 0.137607 0.250000
O O8 0.139671 0.998031 0.428297
O O9 0.312909 0.327971 0.771768
O O10 0.293114 0.878054 0.555738
O O11 0.268637 0.051451 0.428277
O O12 0.500000 0.904850 0.250000
O O13 0.657984 0.822638 0.638295
O O14 0.645682 0.787114 0.364096
O O15 0.516644 0.803833 0.958916
#
# Coordination Sequence:
#
# PCOD9228194 Si02
#       7
#     4   4   4   4   4   4   4
#     4   9  18  28  48  72 109 134 168 202 255 321
#     4  11  23  37  52  74 101 141 180 216 257 304
#     4   9  17  31  45  75 101 142 163 205 256 309
#     4  11  21  35  55  74 105 134 176 219 259 315
#     4   9  19  30  48  78 105 138 167 212 266 310
#     4  10  19  33  52  82 107 139 171 214 271 311
#     4   9  20  33  53  75 108 136 177 214 257 319
#
# _framework density 17.726289999999999
#
# number of rings (size 3 to 8) (size 9 to 14) (size 15 to 20)
#    0.000    2.286    1.429    1.286    4.000    2.857 
#    0.000    0.000    0.000    0.000    0.000    5.000 
#    0.000    0.000    0.000    0.000    0.000    0.000 
#
# Total GULP energy -156112.756037 kJ/mol
# GULP energy per Si atom -5575.455573 kJ/mol
# Density = 1.768594 g / cm^3
# Si number density = 17.726290 Si / 1000 Ang^3
#
#
#
# Elastic Constant Matrix: (Units=GPa)
#
#
# Indices 1 2 3 4 5 6 
#
# 1 53.5113 36.1260 36.4864 0.0000 -19.2186 0.0000
# 2 36.1260 90.3902 42.6753 0.0000 -16.9531 0.0000
# 3 36.4864 42.6753 85.3474 0.0000 -28.5970 0.0000
# 4 0.0000 0.0000 0.0000 13.9597 0.0000 -8.6530
# 5 -19.2186 -16.9531 -28.5970 0.0000 30.0650 0.0000
# 6 0.0000 0.0000 0.0000 -8.6530 0.0000 12.0685
#
#
#
# Elastic Compliance Matrix: (Units=1/GPa)
#
#
# Indices 1 2 3 4 5 6 
#
# 1 0.031917 -0.007886 -0.006393 0.000000 0.009875 0.000000
# 2 -0.007886 0.016503 -0.005066 0.000000 -0.000554 0.000000
# 3 -0.006393 -0.005066 0.021513 0.000000 0.013519 0.000000
# 4 0.000000 0.000000 0.000000 0.128939 0.000000 0.092447
# 5 0.009875 -0.000554 0.013519 0.000000 0.052120 0.000000
# 6 0.000000 0.000000 0.000000 0.092447 0.000000 0.149143
#
#
# Mechanical properties :
#
#
# Convention : Reuss Voigt Hill
#
# Bulk Modulus (GPa) = 32.00714 51.09159 41.54937
# Shear Modulus (GPa) = 11.12995 18.81605 14.97300
#
# Velocity S-wave (km/s) = 2.50847 3.26157 2.90949
# Velocity P-wave (km/s) = 5.14640 6.56268 5.89721
#
# Compressibility (1/GPa) = 0.03124302
#
# Stress axis : x y z
#
# Youngs Moduli (GPa) = 31.33130 60.59591 46.48426
#
# Poissons Ratio (x) = 0.47785 0.29716
# Poissons Ratio (y) = 0.24707 0.23549
# Poissons Ratio (z) = 0.20029 0.30698
#
# Static dielectric constant tensor:
#      x y z
#    x 1.629400 0.000000 -0.019830 
#    y 0.000000 1.582100 0.000000 
#    z -0.019830 0.000000 1.617480 
# 
# From -- ./inp_files/21986.got.cif
#   From: 2010.05.17/outbox.cif.g08.bks.cpg/sg13_11_cif.got.tgz:21986.got - 2010.06.03 16:44:36.
