data_PCOD9228647
_publ_section_title
;
Structure prediction by ZEFSAII (Michael W. Deem and Ramdas Pophale) SiO2 
 PCOD9228647
Probable space group: P 2/C
;
_chemical_formula_sum "Si O2"
_cell_formula_units_Z 24
_cell_length_a 12.107444
_cell_length_b 11.503911
_cell_length_c 25.896754
_cell_angle_alpha 90.000000
_cell_angle_beta 157.340063
_cell_angle_gamma 90.000000
_cell_volume 1389.626945
_symmetry_space_group_name_H-M "P 2/C"
_symmetry_group_IT_number 13
_symmetry_cell_setting 'monoclinic'
loop_
_space_group_symop_operation_xyz
x,y,z
-x,y,1/2-z
-x,-y,-z
x,-y,1/2+z
loop_
_atom_site_type_symbol
_atom_site_label
_atom_site_fract_x
_atom_site_fract_y
_atom_site_fract_z
Si Si1 0.828335 0.526170 0.629902
Si Si2 0.189459 0.700694 0.971382
Si Si3 0.825887 0.474986 0.373397
Si Si4 0.838257 0.664380 0.286007
Si Si5 0.809603 0.126552 0.116427
Si Si6 0.814122 0.149089 0.617867
O O1 0.500000 0.500000 0.500000
O O2 0.805797 0.602707 0.570023
O O3 0.000000 0.587665 0.750000
O O4 0.032835 0.417613 0.703770
O O5 0.110690 0.813174 0.903434
O O6 0.950977 0.647127 0.906112
O O7 0.507911 0.702105 0.133887
O O8 0.500000 0.464979 0.250000
O O9 0.855326 0.581791 0.344360
O O10 0.000000 0.500000 0.500000
O O11 0.043329 0.777072 0.366904
O O12 0.000000 0.138121 0.250000
O O13 0.795085 0.988646 0.098757
O O14 0.506340 0.181689 0.003307
O O15 0.000000 0.164958 0.750000
#
# Coordination Sequence:
#
# PCOD9228647 Si02
#       6
#     4   4   4   4   4   4
#     4  11  20  30  48  81 116 142 176 222 272 335
#     4  11  21  35  58  80 109 150 190 227 280 344
#     4  11  24  41  60  85 108 141 192 249 300 334
#     4  11  21  35  59  79 108 154 187 225 283 345
#     4  10  21  34  54  89 120 154 186 226 268 326
#     4  10  19  35  58  82 121 156 188 219 268 341
#
# _framework density 17.270821000000002
#
# number of rings (size 3 to 8) (size 9 to 14) (size 15 to 20)
#    0.000    1.333    5.000    2.000    0.000    1.333 
#    0.000    0.000    0.000    2.000    0.000    0.000 
#    0.000    0.000    0.000    0.000    0.000    0.000 
#
# Total GULP energy -133630.420380 kJ/mol
# GULP energy per Si atom -5567.934183 kJ/mol
# Density = 1.723151 g / cm^3
# Si number density = 17.270821 Si / 1000 Ang^3
#
#
#
# Elastic Constant Matrix: (Units=GPa)
#
#
# Indices 1 2 3 4 5 6 
#
# 1 98.8685 36.2763 42.1033 0.0000 10.3412 0.0000
# 2 36.2763 78.5414 11.3532 0.0000 11.6123 0.0000
# 3 42.1033 11.3532 102.6877 0.0000 11.0383 0.0000
# 4 0.0000 0.0000 0.0000 15.3574 0.0000 7.0639
# 5 10.3412 11.6123 11.0383 0.0000 31.0754 0.0000
# 6 0.0000 0.0000 0.0000 7.0639 0.0000 29.9274
#
#
#
# Elastic Compliance Matrix: (Units=1/GPa)
#
#
# Indices 1 2 3 4 5 6 
#
# 1 0.014581 -0.005858 -0.005245 0.000000 -0.000800 0.000000
# 2 -0.005858 0.015927 0.001114 0.000000 -0.004398 0.000000
# 3 -0.005245 0.001114 0.012084 0.000000 -0.002963 0.000000
# 4 0.000000 0.000000 0.000000 0.073045 0.000000 -0.017241
# 5 -0.000800 -0.004398 -0.002963 0.000000 0.035142 0.000000
# 6 0.000000 0.000000 0.000000 -0.017241 0.000000 0.037484
#
#
# Mechanical properties :
#
#
# Convention : Reuss Voigt Hill
#
# Bulk Modulus (GPa) = 44.22053 51.06255 47.64154
# Shear Modulus (GPa) = 23.17179 27.96303 25.56741
#
# Velocity S-wave (km/s) = 3.66686 4.02816 3.85175
# Velocity P-wave (km/s) = 6.60209 7.15994 6.88666
#
# Compressibility (1/GPa) = 0.02261393
#
# Stress axis : x y z
#
# Youngs Moduli (GPa) = 68.58205 62.78602 82.75357
#
# Poissons Ratio (x) = 0.36781 0.43402
# Poissons Ratio (y) = 0.40177 -0.09217
# Poissons Ratio (z) = 0.35969 -0.06993
#
# Static dielectric constant tensor:
#      x y z
#    x 1.630440 0.000000 0.011210 
#    y 0.000000 1.688680 0.000000 
#    z 0.011210 0.000000 1.584330 
# 
# From -- ./inp_files/15847.got.cif
#   From: 2010.05.17/outbox.cif.g08.bks.cpg/sg13_8_cif.got.tgz:15847.got - 2010.06.03 16:44:36.
