data_PCOD9228123
_publ_section_title
;
Structure prediction by ZEFSAII (Michael W. Deem and Ramdas Pophale) SiO2 
 PCOD9228123
Probable space group: P 2/C
;
_chemical_formula_sum "Si O2"
_cell_formula_units_Z 24
_cell_length_a 26.828694
_cell_length_b 6.419032
_cell_length_c 17.739148
_cell_angle_alpha 90.000000
_cell_angle_beta 19.465235
_cell_angle_gamma 90.000000
_cell_volume 1018.010429
_symmetry_space_group_name_H-M "P 2/C"
_symmetry_group_IT_number 13
_symmetry_cell_setting 'monoclinic'
loop_
_space_group_symop_operation_xyz
x,y,z
-x,y,1/2-z
-x,-y,-z
x,-y,1/2+z
loop_
_atom_site_type_symbol
_atom_site_label
_atom_site_fract_x
_atom_site_fract_y
_atom_site_fract_z
Si Si1 0.406137 0.176312 0.490429
Si Si2 0.109965 0.187820 0.318568
Si Si3 0.490630 0.811019 0.453768
Si Si4 0.717694 0.559346 0.196564
Si Si5 0.728104 0.178351 0.977192
Si Si6 0.023066 0.566447 0.083149
O O1 0.319185 0.284108 0.681748
O O2 0.322559 0.247358 0.534249
O O3 0.419321 0.926078 0.483531
O O4 0.582348 0.227594 0.234196
O O5 0.127961 0.316965 0.371001
O O6 0.029886 0.350602 0.378049
O O7 0.236159 0.064940 0.091215
O O8 0.000000 0.000000 0.500000
O O9 0.650148 0.690037 0.222759
O O10 0.381797 0.642159 0.644862
O O11 0.500000 0.000000 0.500000
O O12 0.884642 0.483302 0.973402
O O13 0.874147 0.291741 0.801020
#
# Coordination Sequence:
#
# PCOD9228123 Si02
#       6
#     4   4   4   4   4   4
#     4  10  20  35  53  80 115 146 180 223 278 336
#     4   9  17  30  48  75 108 139 172 213 264 325
#     4   9  20  36  57  78 100 141 191 230 268 322
#     4  10  19  35  59  79 103 142 190 234 267 320
#     4  10  21  33  52  83 117 146 173 223 285 334
#     4  10  19  32  54  82 108 139 183 225 270 325
#
# _framework density 23.575398
#
# number of rings (size 3 to 8) (size 9 to 14) (size 15 to 20)
#    0.000    2.333    0.000    4.000    0.000    5.333 
#    0.000    3.333    0.000   24.000    0.000    0.000 
#    0.000    0.000    0.000    0.000    0.000    0.000 
#
# Total GULP energy -133797.536818 kJ/mol
# GULP energy per Si atom -5574.897367 kJ/mol
# Density = 2.352174 g / cm^3
# Si number density = 23.575398 Si / 1000 Ang^3
#
#
#
# Elastic Constant Matrix: (Units=GPa)
#
#
# Indices 1 2 3 4 5 6 
#
# 1 57.1269 20.7970 39.9268 0.0000 -16.5949 0.0000
# 2 20.7970 101.3318 30.9142 0.0000 -17.4605 0.0000
# 3 39.9268 30.9142 118.7020 0.0000 -23.2813 0.0000
# 4 0.0000 0.0000 0.0000 32.4434 0.0000 -17.1145
# 5 -16.5949 -17.4605 -23.2813 0.0000 33.2823 0.0000
# 6 0.0000 0.0000 0.0000 -17.1145 0.0000 19.7511
#
#
#
# Elastic Compliance Matrix: (Units=1/GPa)
#
#
# Indices 1 2 3 4 5 6 
#
# 1 0.024702 -0.001926 -0.006478 0.000000 0.006774 0.000000
# 2 -0.001926 0.011417 -0.001552 0.000000 0.003943 0.000000
# 3 -0.006478 -0.001552 0.011839 0.000000 0.004237 0.000000
# 4 0.000000 0.000000 0.000000 0.056775 0.000000 0.049196
# 5 0.006774 0.003943 0.004237 0.000000 0.038456 0.000000
# 6 0.000000 0.000000 0.000000 0.049196 0.000000 0.093259
#
#
# Mechanical properties :
#
#
# Convention : Reuss Voigt Hill
#
# Bulk Modulus (GPa) = 35.65777 51.15966 43.40871
# Shear Modulus (GPa) = 18.81763 29.46353 24.14058
#
# Velocity S-wave (km/s) = 2.82829 3.53903 3.20343
# Velocity P-wave (km/s) = 5.08168 6.20058 5.66880
#
# Compressibility (1/GPa) = 0.02804438
#
# Stress axis : x y z
#
# Youngs Moduli (GPa) = 40.48282 87.58975 84.46821
#
# Poissons Ratio (x) = 0.16870 0.54722
# Poissons Ratio (y) = 0.07797 0.13110
# Poissons Ratio (z) = 0.26227 0.13595
#
# Static dielectric constant tensor:
#      x y z
#    x 1.976260 0.000000 -0.009180 
#    y 0.000000 1.895820 0.000000 
#    z -0.009180 0.000000 2.006450 
# 
# From -- ./inp_files/82643.got.cif
#   From: 2010.05.17/outbox.cif.g08.bks.cpg/sg13_42_cif.got.tgz:82643.got - 2010.06.03 16:44:36.
