data_PCOD9228299
_publ_section_title
;
Structure prediction by ZEFSAII (Michael W. Deem and Ramdas Pophale) SiO2 
 PCOD9228299
Probable space group: P 2/C
;
_chemical_formula_sum "Si O2"
_cell_formula_units_Z 32
_cell_length_a 9.856612
_cell_length_b 21.302591
_cell_length_c 8.080543
_cell_angle_alpha 90.000000
_cell_angle_beta 123.843050
_cell_angle_gamma 90.000000
_cell_volume 1409.207409
_symmetry_space_group_name_H-M "P 2/C"
_symmetry_group_IT_number 13
_symmetry_cell_setting 'monoclinic'
loop_
_space_group_symop_operation_xyz
x,y,z
-x,y,1/2-z
-x,-y,-z
x,-y,1/2+z
loop_
_atom_site_type_symbol
_atom_site_label
_atom_site_fract_x
_atom_site_fract_y
_atom_site_fract_z
Si Si1 0.823107 0.180067 0.052292
Si Si2 0.817899 0.463804 0.685685
Si Si3 0.314825 0.946776 0.054712
Si Si4 0.325805 0.708666 0.180658
Si Si5 0.688290 0.785796 0.812059
Si Si6 0.675710 0.658884 0.949103
Si Si7 0.181594 0.588412 0.940511
Si Si8 0.307441 0.920734 0.659492
O O1 0.708418 0.201850 0.129775
O O2 0.000000 0.171699 0.250000
O O3 0.768941 0.115395 0.930176
O O4 0.810791 0.238169 0.920940
O O5 0.760201 0.408392 0.525401
O O6 0.736608 0.532368 0.610649
O O7 0.000000 0.477888 0.750000
O O8 0.822535 0.439202 0.875525
O O9 0.500000 0.948240 0.250000
O O10 0.240469 0.015572 0.033916
O O11 0.303136 0.933283 0.852274
O O12 0.500000 0.736421 0.250000
O O13 0.339288 0.682605 0.373506
O O14 0.283641 0.652023 0.027173
O O15 0.500000 0.782649 0.750000
O O16 0.758626 0.717580 0.908577
O O17 0.760169 0.851752 0.931297
O O18 0.500000 0.648594 0.750000
O O19 0.000000 0.604341 0.750000
O O20 0.500000 0.917451 0.750000
#
# Coordination Sequence:
#
# PCOD9228299 Si02
#       8
#     4   4   4   4   4   4   4   4
#     4  11  24  40  59  87 121 156 194 244 299 351
#     4  10  21  36  57  82 111 151 191 229 286 351
#     4  10  19  33  56  84 113 151 197 241 287 347
#     4  11  23  38  60  87 113 151 196 240 293 351
#     4   9  19  37  59  83 114 153 194 237 287 344
#     4  10  22  37  57  85 114 145 188 241 291 340
#     4  10  21  37  57  83 113 149 191 236 286 345
#     4   9  17  30  54  85 110 144 194 240 283 339
#
# _framework density 22.707801
#
# number of rings (size 3 to 8) (size 9 to 14) (size 15 to 20)
#    0.000    2.000    0.000    5.250    0.000   10.500 
#    0.000    5.000    0.000    0.750    0.000    0.000 
#    0.000    0.000    0.000    0.000    0.000    0.000 
#
# Total GULP energy -178538.101102 kJ/mol
# GULP energy per Si atom -5579.315659 kJ/mol
# Density = 2.265612 g / cm^3
# Si number density = 22.707801 Si / 1000 Ang^3
#
#
#
# Elastic Constant Matrix: (Units=GPa)
#
#
# Indices 1 2 3 4 5 6 
#
# 1 18.7954 -6.2141 -0.2529 0.0000 -4.4424 0.0000
# 2 -6.2141 157.7732 60.8982 0.0000 14.5118 0.0000
# 3 -0.2529 60.8982 76.1434 0.0000 6.8398 0.0000
# 4 0.0000 0.0000 0.0000 59.7188 0.0000 12.1673
# 5 -4.4424 14.5118 6.8398 0.0000 21.9940 0.0000
# 6 0.0000 0.0000 0.0000 12.1673 0.0000 32.5184
#
#
#
# Elastic Compliance Matrix: (Units=1/GPa)
#
#
# Indices 1 2 3 4 5 6 
#
# 1 0.056440 0.002222 -0.002553 0.000000 0.010728 0.000000
# 2 0.002222 0.009589 -0.007339 0.000000 -0.003596 0.000000
# 3 -0.002553 -0.007339 0.019140 0.000000 -0.001626 0.000000
# 4 0.000000 0.000000 0.000000 0.018127 0.000000 -0.006783
# 5 0.010728 -0.003596 -0.001626 0.000000 0.050512 0.000000
# 6 0.000000 0.000000 0.000000 -0.006783 0.000000 0.033290
#
#
# Mechanical properties :
#
#
# Convention : Reuss Voigt Hill
#
# Bulk Modulus (GPa) = 14.32066 40.17493 27.24779
# Shear Modulus (GPa) = 22.15179 36.06496 29.10838
#
# Velocity S-wave (km/s) = 3.12671 3.98957 3.58420
# Velocity P-wave (km/s) = 4.39946 6.24121 5.39945
#
# Compressibility (1/GPa) = 0.06982917
#
# Stress axis : x y z
#
# Youngs Moduli (GPa) = 17.71782 104.28451 52.24625
#
# Poissons Ratio (x) = -0.23168 0.13339
# Poissons Ratio (y) = -0.03936 0.38343
# Poissons Ratio (z) = 0.04523 0.76533
#
# Static dielectric constant tensor:
#      x y z
#    x 1.906990 0.000000 -0.011740 
#    y 0.000000 1.936300 0.000000 
#    z -0.011740 0.000000 1.840360 
# 
# From -- ./inp_files/17300.got.cif
#   From: 2010.05.17/outbox.cif.g08.bks.cpg/sg13_9_cif.got.tgz:17300.got - 2010.06.03 16:44:36.
