data_PCOD9228753
_publ_section_title
;
Structure prediction by ZEFSAII (Michael W. Deem and Ramdas Pophale) SiO2 
 PCOD9228753
Probable space group: P 2/C
;
_chemical_formula_sum "Si O2"
_cell_formula_units_Z 24
_cell_length_a 14.871296
_cell_length_b 8.342534
_cell_length_c 15.083676
_cell_angle_alpha 90.000000
_cell_angle_beta 38.370098
_cell_angle_gamma 90.000000
_cell_volume 1161.616621
_symmetry_space_group_name_H-M "P 2/C"
_symmetry_group_IT_number 13
_symmetry_cell_setting 'monoclinic'
loop_
_space_group_symop_operation_xyz
x,y,z
-x,y,1/2-z
-x,-y,-z
x,-y,1/2+z
loop_
_atom_site_type_symbol
_atom_site_label
_atom_site_fract_x
_atom_site_fract_y
_atom_site_fract_z
Si Si1 0.864562 0.655535 0.417591
Si Si2 0.656600 0.386559 0.628441
Si Si3 0.397935 0.088377 0.696368
Si Si4 0.319851 0.899611 0.056837
Si Si5 0.156264 0.175938 0.119451
Si Si6 0.117977 0.049425 0.479170
O O1 0.784336 0.515948 0.534538
O O2 0.746999 0.752569 0.447049
O O3 0.919384 0.783794 0.446625
O O4 0.000000 0.612169 0.250000
O O5 0.500000 0.469122 0.750000
O O6 0.631807 0.244766 0.719817
O O7 0.710766 0.296446 0.496936
O O8 0.378248 0.140462 0.609135
O O9 0.549547 0.995585 0.592709
O O10 0.274920 0.957524 0.812676
O O11 0.195529 0.037331 0.158780
O O12 0.000000 0.255830 0.250000
O O13 0.134615 0.077699 0.045460
O O14 0.000000 0.000000 0.500000
#
# Coordination Sequence:
#
# PCOD9228753 Si02
#       6
#     4   4   4   4   4   4
#     4  11  24  40  64  91 128 166 205 252 317 373
#     4  11  23  40  58  90 129 165 205 247 320 381
#     4  10  21  38  63  93 122 161 209 264 303 367
#     4  10  20  39  64  91 122 159 215 259 309 359
#     4  10  19  35  62  86 120 160 205 254 307 360
#     4  10  20  36  62  90 120 155 216 254 304 357
#
# _framework density 20.66086
#
# number of rings (size 3 to 8) (size 9 to 14) (size 15 to 20)
#    0.000    1.667    1.667    4.500    2.333    0.000 
#    0.000   11.667    0.000    0.000    0.000    0.000 
#    0.000    0.000    0.000    0.000    0.000    0.000 
#
# Total GULP energy -133717.044680 kJ/mol
# GULP energy per Si atom -5571.543528 kJ/mol
# Density = 2.061384 g / cm^3
# Si number density = 20.660860 Si / 1000 Ang^3
#
#
#
# Elastic Constant Matrix: (Units=GPa)
#
#
# Indices 1 2 3 4 5 6 
#
# 1 68.4057 14.6815 23.3279 0.0000 -6.6409 0.0000
# 2 14.6815 72.3150 45.7869 0.0000 -3.2075 0.0000
# 3 23.3279 45.7869 133.2144 0.0000 -28.8882 0.0000
# 4 0.0000 0.0000 0.0000 31.1385 0.0000 -2.3020
# 5 -6.6409 -3.2075 -28.8882 0.0000 36.5248 0.0000
# 6 0.0000 0.0000 0.0000 -2.3020 0.0000 8.8166
#
#
#
# Elastic Compliance Matrix: (Units=1/GPa)
#
#
# Indices 1 2 3 4 5 6 
#
# 1 0.015787 -0.002010 -0.001798 0.000000 0.001272 0.000000
# 2 -0.002010 0.018410 -0.006885 0.000000 -0.004194 0.000000
# 3 -0.001798 -0.006885 0.012053 0.000000 0.008602 0.000000
# 4 0.000000 0.000000 0.000000 0.032747 0.000000 0.008550
# 5 0.001272 -0.004194 0.008602 0.000000 0.034045 0.000000
# 6 0.000000 0.000000 0.000000 0.008550 0.000000 0.115655
#
#
# Mechanical properties :
#
#
# Convention : Reuss Voigt Hill
#
# Bulk Modulus (GPa) = 40.21976 49.05864 44.63920
# Shear Modulus (GPa) = 19.35203 27.97189 23.66196
#
# Velocity S-wave (km/s) = 3.06380 3.68347 3.38783
# Velocity P-wave (km/s) = 5.65904 6.47201 6.07913
#
# Compressibility (1/GPa) = 0.02486340
#
# Stress axis : x y z
#
# Youngs Moduli (GPa) = 63.34451 54.31849 82.96465
#
# Poissons Ratio (x) = 0.10920 0.14914
# Poissons Ratio (y) = 0.12735 0.57123
# Poissons Ratio (z) = 0.11387 0.37399
#
# Static dielectric constant tensor:
#      x y z
#    x 1.755900 0.000000 -0.032900 
#    y 0.000000 1.775030 0.000000 
#    z -0.032900 0.000000 1.805830 
# 
# From -- ./inp_files/52853.got.cif
#   From: 2010.05.17/outbox.cif.g08.bks.cpg/sg13_27_cif.got.tgz:52853.got - 2010.06.03 16:44:36.
