data_PCOD9228672
_publ_section_title
;
Structure prediction by ZEFSAII (Michael W. Deem and Ramdas Pophale) SiO2 
 PCOD9228672
Probable space group: P 2/C
;
_chemical_formula_sum "Si O2"
_cell_formula_units_Z 28
_cell_length_a 14.009973
_cell_length_b 9.506799
_cell_length_c 12.354473
_cell_angle_alpha 90.000000
_cell_angle_beta 57.696072
_cell_angle_gamma 90.000000
_cell_volume 1390.811492
_symmetry_space_group_name_H-M "P 2/C"
_symmetry_group_IT_number 13
_symmetry_cell_setting 'monoclinic'
loop_
_space_group_symop_operation_xyz
x,y,z
-x,y,1/2-z
-x,-y,-z
x,-y,1/2+z
loop_
_atom_site_type_symbol
_atom_site_label
_atom_site_fract_x
_atom_site_fract_y
_atom_site_fract_z
Si Si1 0.831606 0.906521 0.061719
Si Si2 0.585808 0.693352 0.941659
Si Si3 0.337527 0.387951 0.639619
Si Si4 0.376620 0.892388 0.775607
Si Si5 0.768360 0.661736 0.508943
Si Si6 0.701274 0.659320 0.090602
Si Si7 0.024447 0.163129 0.610258
O O1 0.801854 0.769018 0.011465
O O2 0.910979 0.856129 0.111106
O O3 0.713926 0.981556 0.166583
O O4 0.901914 0.022781 0.954531
O O5 0.658290 0.558247 0.857702
O O6 0.611280 0.827588 0.852325
O O7 0.454734 0.654448 0.011119
O O8 0.610808 0.700946 0.054415
O O9 0.242734 0.332180 0.615141
O O10 0.333019 0.329380 0.763133
O O11 0.500000 0.927662 0.750000
O O12 0.321064 0.767712 0.881752
O O13 0.737026 0.501774 0.553893
O O14 0.891721 0.709908 0.473381
O O15 0.000000 0.178045 0.750000
#
# Coordination Sequence:
#
# PCOD9228672 Si02
#       7
#     4   4   4   4   4   4   4
#     4  10  25  41  62  92 122 165 206 265 317 373
#     4  10  21  33  61  90 128 172 202 250 310 373
#     4  10  19  35  58  93 127 167 201 256 310 364
#     4  11  21  41  62  91 127 169 213 248 313 393
#     4  10  21  38  66  90 119 164 214 259 313 374
#     4  11  22  38  58  95 129 153 211 265 312 368
#     4  10  22  45  66  82 118 167 213 256 316 381
#
# _framework density 20.132131000000001
#
# number of rings (size 3 to 8) (size 9 to 14) (size 15 to 20)
#    0.000    1.714    2.857    1.286    2.000    1.714 
#    0.000    2.143    0.000    0.000    0.000    0.000 
#    0.000    0.000    0.000    0.000    0.000    0.000 
#
# Total GULP energy -156246.299819 kJ/mol
# GULP energy per Si atom -5580.224994 kJ/mol
# Density = 2.008631 g / cm^3
# Si number density = 20.132131 Si / 1000 Ang^3
#
#
#
# Elastic Constant Matrix: (Units=GPa)
#
#
# Indices 1 2 3 4 5 6 
#
# 1 117.7974 52.2828 17.6968 0.0000 -16.2161 0.0000
# 2 52.2828 43.9635 9.9983 0.0000 -5.3580 0.0000
# 3 17.6968 9.9983 54.6793 0.0000 6.7047 0.0000
# 4 0.0000 0.0000 0.0000 1.5546 0.0000 6.9956
# 5 -16.2161 -5.3580 6.7047 0.0000 24.7151 0.0000
# 6 0.0000 0.0000 0.0000 6.9956 0.0000 20.9780
#
#
#
# Elastic Compliance Matrix: (Units=1/GPa)
#
#
# Indices 1 2 3 4 5 6 
#
# 1 0.020020 -0.021837 -0.003638 0.000000 0.009388 0.000000
# 2 -0.021837 0.048620 -0.001405 0.000000 -0.003406 0.000000
# 3 -0.003638 -0.001405 0.020743 0.000000 -0.008318 0.000000
# 4 0.000000 0.000000 0.000000 -1.284819 0.000000 0.428456
# 5 0.009388 -0.003406 -0.008318 0.000000 0.048139 0.000000
# 6 0.000000 0.000000 0.000000 0.428456 0.000000 -0.095210
#
#
# Mechanical properties :
#
#
# Convention : Reuss Voigt Hill
#
# Bulk Modulus (GPa) = 28.07177 41.82178 34.94677
# Shear Modulus (GPa) = -4.24855 18.54701 7.14923
#
# Velocity S-wave (km/s) = -1.45427 3.03853 1.88650
# Velocity P-wave (km/s) = 3.33978 5.75577 4.70548
#
# Compressibility (1/GPa) = 0.03562298
#
# Stress axis : x y z
#
# Youngs Moduli (GPa) = 49.94957 20.56767 48.20969
#
# Poissons Ratio (x) = 0.44914 0.17537
# Poissons Ratio (y) = 1.09076 0.06774
# Poissons Ratio (z) = 0.18170 0.02890
#
# Static dielectric constant tensor:
#      x y z
#    x 1.748990 0.000000 -0.001680 
#    y 0.000000 1.717430 0.000000 
#    z -0.001680 0.000000 1.711350 
# 
# From -- ./inp_files/36343.got.cif
#   From: 2010.05.17/outbox.cif.g08.bks.cpg/sg13_19_cif.got.tgz:36343.got - 2010.06.03 16:44:36.
