data_PCOD9228037
_publ_section_title
;
Structure prediction by ZEFSAII (Michael W. Deem and Ramdas Pophale) SiO2 
 PCOD9228037
Probable space group: P 2/C
;
_chemical_formula_sum "Si O2"
_cell_formula_units_Z 30
_cell_length_a 23.420501
_cell_length_b 11.056486
_cell_length_c 9.175604
_cell_angle_alpha 90.000000
_cell_angle_beta 140.232955
_cell_angle_gamma 90.000000
_cell_volume 1519.855794
_symmetry_space_group_name_H-M "P 2/C"
_symmetry_group_IT_number 13
_symmetry_cell_setting 'monoclinic'
loop_
_space_group_symop_operation_xyz
x,y,z
-x,y,1/2-z
-x,-y,-z
x,-y,1/2+z
loop_
_atom_site_type_symbol
_atom_site_label
_atom_site_fract_x
_atom_site_fract_y
_atom_site_fract_z
Si Si1 0.162372 0.882282 0.022925
Si Si2 0.444502 0.590876 0.285779
Si Si3 0.824811 0.668414 0.865150
Si Si4 0.038428 0.738560 0.572895
Si Si5 0.723493 0.562106 0.158904
Si Si6 0.305912 0.245279 0.643557
Si Si7 0.000000 0.065222 0.750000
Si Si8 0.159784 0.735951 0.290961
O O1 0.257580 0.873873 0.122377
O O2 0.178757 0.849449 0.223952
O O3 0.105367 0.774835 0.832803
O O4 0.088194 0.987617 0.881457
O O5 0.500000 0.621714 0.250000
O O6 0.500000 0.500000 0.500000
O O7 0.405263 0.714509 0.282450
O O8 0.361874 0.508456 0.068936
O O9 0.913595 0.649766 0.945247
O O10 0.789675 0.539919 0.846450
O O11 0.754914 0.727665 0.616558
O O12 0.835065 0.751627 0.026116
O O13 0.023710 0.855877 0.439309
O O14 0.942469 0.698676 0.438285
O O15 0.704905 0.655568 0.250434
O O16 0.771137 0.635144 0.124345
#
# Coordination Sequence:
#
# PCOD9228037 Si02
#       8
#     4   4   4   4   4   4   2   4
#     4  10  22  35  54  71 110 145 180 236 284 320
#     4  11  20  34  58  83 110 148 183 224 277 340
#     4  10  19  32  50  72 108 147 187 227 261 319
#     4  11  21  35  51  80 105 139 196 234 268 322
#     4  10  21  35  52  75 116 150 179 221 273 329
#     4   9  20  36  48  78 109 144 179 227 268 335
#     4  12  20  36  60  78 104 148 194 246 280 322
#     4  11  20  35  51  75 107 149 189 230 272 324
#
# _framework density 19.738714999999999
#
# number of rings (size 3 to 8) (size 9 to 14) (size 15 to 20)
#    0.000    1.600    4.000    2.000    1.867    0.533 
#    0.000    4.000    0.000    0.000    0.000    0.000 
#    0.000   18.133    3.200    2.800    0.000    0.667 
#
# Total GULP energy -167060.419510 kJ/mol
# GULP energy per Si atom -5568.680650 kJ/mol
# Density = 1.969379 g / cm^3
# Si number density = 19.738715 Si / 1000 Ang^3
#
#
#
# Elastic Constant Matrix: (Units=GPa)
#
#
# Indices 1 2 3 4 5 6 
#
# 1 135.2240 20.1119 18.3630 0.0000 7.9750 0.0000
# 2 20.1119 33.0336 4.5193 0.0000 11.5518 0.0000
# 3 18.3630 4.5193 46.8473 0.0000 -3.2152 0.0000
# 4 0.0000 0.0000 0.0000 329.3419 0.0000 64.3554
# 5 7.9750 11.5518 -3.2152 0.0000 38.3737 0.0000
# 6 0.0000 0.0000 0.0000 64.3554 0.0000 32.4370
#
#
#
# Elastic Compliance Matrix: (Units=1/GPa)
#
#
# Indices 1 2 3 4 5 6 
#
# 1 0.008510 -0.004553 -0.002941 0.000000 -0.000644 0.000000
# 2 -0.004553 0.037027 -0.002502 0.000000 -0.010410 0.000000
# 3 -0.002941 -0.002502 0.022966 0.000000 0.003288 0.000000
# 4 0.000000 0.000000 0.000000 0.004959 0.000000 -0.009838
# 5 -0.000644 -0.010410 0.003288 0.000000 0.029603 0.000000
# 6 0.000000 0.000000 0.000000 -0.009838 0.000000 0.050348
#
#
# Mechanical properties :
#
#
# Convention : Reuss Voigt Hill
#
# Bulk Modulus (GPa) = 20.61376 33.45480 27.03428
# Shear Modulus (GPa) = 26.37499 91.50457 58.93978
#
# Velocity S-wave (km/s) = 3.65938 6.81605 5.47036
# Velocity P-wave (km/s) = 5.32172 8.88428 7.32295
#
# Compressibility (1/GPa) = 0.04851127
#
# Stress axis : x y z
#
# Youngs Moduli (GPa) = 117.51330 27.00732 43.54345
#
# Poissons Ratio (x) = 0.12298 0.12804
# Poissons Ratio (y) = 0.53509 0.10893
# Poissons Ratio (z) = 0.34555 0.06756
#
# Static dielectric constant tensor:
#      x y z
#    x 1.771230 0.000000 0.012630 
#    y 0.000000 1.738580 0.000000 
#    z 0.012630 0.000000 1.704140 
# 
# From -- ./inp_files/24164.got.cif
#   From: 2010.05.17/outbox.cif.g08.bks.cpg/sg13_13_cif.got.tgz:24164.got - 2010.06.03 16:44:36.
