data_PCOD9228252
_publ_section_title
;
Structure prediction by ZEFSAII (Michael W. Deem and Ramdas Pophale) SiO2 
 PCOD9228252
Probable space group: P 2/C
;
_chemical_formula_sum "Si O2"
_cell_formula_units_Z 24
_cell_length_a 17.508338
_cell_length_b 14.291418
_cell_length_c 8.884982
_cell_angle_alpha 90.000000
_cell_angle_beta 155.216919
_cell_angle_gamma 90.000000
_cell_volume 931.926150
_symmetry_space_group_name_H-M "P 2/C"
_symmetry_group_IT_number 13
_symmetry_cell_setting 'monoclinic'
loop_
_space_group_symop_operation_xyz
x,y,z
-x,y,1/2-z
-x,-y,-z
x,-y,1/2+z
loop_
_atom_site_type_symbol
_atom_site_label
_atom_site_fract_x
_atom_site_fract_y
_atom_site_fract_z
Si Si1 0.892003 0.219691 0.826431
Si Si2 0.782672 0.525483 0.606665
Si Si3 0.244137 0.708253 0.104473
Si Si4 0.788194 0.632085 0.913879
Si Si5 0.327140 0.956944 0.555081
Si Si6 0.548781 0.148089 0.679304
O O1 0.810842 0.263504 0.527122
O O2 0.841266 0.112204 0.773755
O O3 0.811441 0.273717 0.825956
O O4 0.103082 0.247699 0.227360
O O5 0.754547 0.599754 0.423173
O O6 0.710206 0.583542 0.621670
O O7 0.705900 0.428418 0.404912
O O8 0.000000 0.500000 0.000000
O O9 0.416520 0.771373 0.377228
O O10 0.000000 0.614192 0.250000
O O11 0.500000 0.941212 0.750000
O O12 0.297965 0.067917 0.515042
O O13 0.393309 0.918801 0.834927
O O14 0.500000 0.192869 0.750000
#
# Coordination Sequence:
#
# PCOD9228252 Si02
#       6
#     4   4   4   4   4   4
#     4  11  22  35  62  89 131 150 206 259 306 356
#     4  10  19  33  56  84 125 155 200 238 303 366
#     4  11  22  37  59  97 119 161 203 260 304 354
#     4  10  19  33  54  87 118 163 191 244 298 370
#     4  10  21  43  62  87 117 174 203 244 311 373
#     4  10  23  41  66  84 122 163 214 245 301 378
#
# _framework density 25.753114
#
# number of rings (size 3 to 8) (size 9 to 14) (size 15 to 20)
#    0.000    1.667    5.000    1.000    7.000    0.667 
#    0.000    0.000    3.667    2.000    0.000    0.000 
#    0.000    0.000    0.000    0.000    0.000    0.000 
#
# Total GULP energy -133687.045694 kJ/mol
# GULP energy per Si atom -5570.293571 kJ/mol
# Density = 2.569450 g / cm^3
# Si number density = 25.753114 Si / 1000 Ang^3
#
#
#
# Elastic Constant Matrix: (Units=GPa)
#
#
# Indices 1 2 3 4 5 6 
#
# 1 69.3076 7.1157 17.4455 0.0000 -20.5473 0.0000
# 2 7.1157 126.1173 -8.3186 0.0000 12.9586 0.0000
# 3 17.4455 -8.3186 33.6464 0.0000 8.6561 0.0000
# 4 0.0000 0.0000 0.0000 16.7101 0.0000 -9.9710
# 5 -20.5473 12.9586 8.6561 0.0000 32.0437 0.0000
# 6 0.0000 0.0000 0.0000 -9.9710 0.0000 31.1635
#
#
#
# Elastic Compliance Matrix: (Units=1/GPa)
#
#
# Indices 1 2 3 4 5 6 
#
# 1 0.029197 -0.006046 -0.023728 0.000000 0.027577 0.000000
# 2 -0.006046 0.009842 0.008156 0.000000 -0.010060 0.000000
# 3 -0.023728 0.008156 0.052448 0.000000 -0.032682 0.000000
# 4 0.000000 0.000000 0.000000 0.073965 0.000000 0.023666
# 5 0.027577 -0.010060 -0.032682 0.000000 0.061788 0.000000
# 6 0.000000 0.000000 0.000000 0.023666 0.000000 0.039661
#
#
# Mechanical properties :
#
#
# Convention : Reuss Voigt Hill
#
# Bulk Modulus (GPa) = 20.72459 29.06184 24.89321
# Shear Modulus (GPa) = 15.32701 30.17203 22.74952
#
# Velocity S-wave (km/s) = 2.44222 3.42656 2.97538
# Velocity P-wave (km/s) = 4.00218 5.19272 4.63583
#
# Compressibility (1/GPa) = 0.04825186
#
# Stress axis : x y z
#
# Youngs Moduli (GPa) = 34.24955 101.60607 19.06637
#
# Poissons Ratio (x) = 0.61431 0.45241
# Poissons Ratio (y) = 0.20707 -0.15551
# Poissons Ratio (z) = 0.81268 -0.82873
#
# Static dielectric constant tensor:
#      x y z
#    x 2.090650 0.000000 0.056970 
#    y 0.000000 2.106090 0.000000 
#    z 0.056970 0.000000 2.337420 
# 
# From -- ./inp_files/22006.got.cif
#   From: 2010.05.17/outbox.cif.g08.bks.cpg/sg13_12_cif.got.tgz:22006.got - 2010.06.03 16:44:36.
