data_PCOD9228042
_publ_section_title
;
Structure prediction by ZEFSAII (Michael W. Deem and Ramdas Pophale) SiO2 
 PCOD9228042
Probable space group: P 2/C
;
_chemical_formula_sum "Si O2"
_cell_formula_units_Z 24
_cell_length_a 5.074401
_cell_length_b 10.969397
_cell_length_c 22.412653
_cell_angle_alpha 90.000000
_cell_angle_beta 79.427441
_cell_angle_gamma 90.000000
_cell_volume 1226.378799
_symmetry_space_group_name_H-M "P 2/C"
_symmetry_group_IT_number 13
_symmetry_cell_setting 'monoclinic'
loop_
_space_group_symop_operation_xyz
x,y,z
-x,y,1/2-z
-x,-y,-z
x,-y,1/2+z
loop_
_atom_site_type_symbol
_atom_site_label
_atom_site_fract_x
_atom_site_fract_y
_atom_site_fract_z
Si Si1 0.668572 0.956681 0.051144
Si Si2 0.836981 0.603256 0.891760
Si Si3 0.069830 0.190839 0.451100
Si Si4 0.601780 0.511198 0.680240
Si Si5 0.466670 0.287660 0.889153
Si Si6 0.096221 0.623592 0.041792
O O1 0.552241 0.857624 0.101964
O O2 0.907426 0.880482 0.009601
O O3 0.749615 0.081681 0.080294
O O4 0.500000 0.000000 0.000000
O O5 0.886662 0.741082 0.910752
O O6 0.580200 0.577537 0.862258
O O7 0.840170 0.518564 0.951513
O O8 0.095225 0.554131 0.844359
O O9 0.211422 0.301789 0.480775
O O10 0.500000 0.542131 0.750000
O O11 0.562247 0.365835 0.669902
O O12 0.746691 0.321054 0.908081
O O13 0.217442 0.346883 0.936505
#
# Coordination Sequence:
#
# PCOD9228042 Si02
#       6
#     4   4   4   4   4   4
#     4  10  19  32  50  75 116 150 177 203 254 325
#     4  10  21  33  55  81 106 136 177 222 279 323
#     4  10  20  31  49  79 113 146 175 206 257 330
#     4  10  21  38  57  78 100 133 181 238 285 313
#     4   9  18  32  51  76 103 139 179 212 260 314
#     4   9  17  31  48  76 111 138 165 210 258 325
#
# _framework density 19.569807999999998
#
# number of rings (size 3 to 8) (size 9 to 14) (size 15 to 20)
#    0.000    2.333    1.667    1.000    2.333    0.000 
#    0.000    6.667    0.000    1.000    0.000    0.000 
#    0.000    0.000    0.000    0.000    0.000    0.000 
#
# Total GULP energy -133665.139131 kJ/mol
# GULP energy per Si atom -5569.380797 kJ/mol
# Density = 1.952527 g / cm^3
# Si number density = 19.569808 Si / 1000 Ang^3
#
#
#
# Elastic Constant Matrix: (Units=GPa)
#
#
# Indices 1 2 3 4 5 6 
#
# 1 60.4599 11.3146 6.0610 0.0000 -1.8222 0.0000
# 2 11.3146 135.5409 21.3607 0.0000 6.9856 0.0000
# 3 6.0610 21.3607 53.2315 0.0000 -5.6329 0.0000
# 4 0.0000 0.0000 0.0000 17.5482 0.0000 -0.4670
# 5 -1.8222 6.9856 -5.6329 0.0000 14.7701 0.0000
# 6 0.0000 0.0000 0.0000 -0.4670 0.0000 23.4477
#
#
#
# Elastic Compliance Matrix: (Units=1/GPa)
#
#
# Indices 1 2 3 4 5 6 
#
# 1 0.016978 -0.001355 -0.001146 0.000000 0.002298 0.000000
# 2 -0.001355 0.008377 -0.003797 0.000000 -0.005577 0.000000
# 3 -0.001146 -0.003797 0.021482 0.000000 0.009847 0.000000
# 4 0.000000 0.000000 0.000000 0.057016 0.000000 0.001136
# 5 0.002298 -0.005577 0.009847 0.000000 0.074381 0.000000
# 6 0.000000 0.000000 0.000000 0.001136 0.000000 0.042671
#
#
# Mechanical properties :
#
#
# Convention : Reuss Voigt Hill
#
# Bulk Modulus (GPa) = 29.20595 36.30055 32.75325
# Shear Modulus (GPa) = 20.41523 25.18626 22.80075
#
# Velocity S-wave (km/s) = 3.23337 3.59136 3.41706
# Velocity P-wave (km/s) = 5.37549 5.98220 5.68694
#
# Compressibility (1/GPa) = 0.03423960
#
# Stress axis : x y z
#
# Youngs Moduli (GPa) = 58.90092 119.37639 46.55015
#
# Poissons Ratio (x) = 0.16177 0.05335
# Poissons Ratio (y) = 0.07982 0.17677
# Poissons Ratio (z) = 0.06751 0.45332
#
# Static dielectric constant tensor:
#      x y z
#    x 1.769580 0.000000 0.007830 
#    y 0.000000 1.810430 0.000000 
#    z 0.007830 0.000000 1.681710 
# 
# From -- ./inp_files/83355.got.cif
#   From: 2010.05.17/outbox.cif.g08.bks.cpg/sg13_42_cif.got.tgz:83355.got - 2010.06.03 16:44:36.
