data_PCOD9228386
_publ_section_title
;
Structure prediction by ZEFSAII (Michael W. Deem and Ramdas Pophale) SiO2 
 PCOD9228386
Probable space group: P 2/C
;
_chemical_formula_sum "Si O2"
_cell_formula_units_Z 20
_cell_length_a 5.120317
_cell_length_b 12.212621
_cell_length_c 16.398591
_cell_angle_alpha 90.000000
_cell_angle_beta 94.694789
_cell_angle_gamma 90.000000
_cell_volume 1022.004206
_symmetry_space_group_name_H-M "P 2/C"
_symmetry_group_IT_number 13
_symmetry_cell_setting 'monoclinic'
loop_
_space_group_symop_operation_xyz
x,y,z
-x,y,1/2-z
-x,-y,-z
x,-y,1/2+z
loop_
_atom_site_type_symbol
_atom_site_label
_atom_site_fract_x
_atom_site_fract_y
_atom_site_fract_z
Si Si1 0.327861 0.102145 0.663253
Si Si2 0.045619 0.915136 0.574461
Si Si3 0.224280 0.336273 0.697889
Si Si4 0.260766 0.569557 0.025581
Si Si5 0.457363 0.188226 0.486837
O O1 0.500000 0.093942 0.750000
O O2 0.152098 0.211753 0.669756
O O3 0.464947 0.130653 0.578075
O O4 0.168246 0.990465 0.647518
O O5 0.257756 0.826721 0.546678
O O6 0.755286 0.868963 0.577791
O O7 0.000000 0.000000 0.500000
O O8 0.500000 0.328629 0.750000
O O9 0.257173 0.412005 0.621662
O O10 0.000000 0.379288 0.750000
O O11 0.500000 0.500000 0.000000
O O12 0.332011 0.691670 0.994904
O O13 0.000000 0.500000 0.000000
#
# Coordination Sequence:
#
# PCOD9228386 Si02
#       5
#     4   4   4   4   4
#     4   9  19  32  54  83 111 141 179 223 277 339
#     4  10  19  34  53  77 112 149 174 212 277 346
#     4  10  21  36  56  86 117 141 179 243 301 339
#     4  11  22  38  62  86 109 149 201 246 287 341
#     4  10  21  36  54  80 113 144 184 234 280 327
#
# _framework density 19.569393000000002
#
# number of rings (size 3 to 8) (size 9 to 14) (size 15 to 20)
#    0.000    2.000    0.000    4.800    0.000   16.000 
#    0.000    0.000    0.000   12.000    0.000    0.000 
#    0.000    0.000    0.000    0.000    0.000    0.000 
#
# Total GULP energy -111424.496882 kJ/mol
# GULP energy per Si atom -5571.224844 kJ/mol
# Density = 1.952485 g / cm^3
# Si number density = 19.569393 Si / 1000 Ang^3
#
#
#
# Elastic Constant Matrix: (Units=GPa)
#
#
# Indices 1 2 3 4 5 6 
#
# 1 116.9653 35.9308 34.9742 0.0000 -0.9427 0.0000
# 2 35.9308 81.1156 41.4534 0.0000 12.2241 0.0000
# 3 34.9742 41.4534 95.0166 0.0000 9.4737 0.0000
# 4 0.0000 0.0000 0.0000 36.7805 0.0000 6.7680
# 5 -0.9427 12.2241 9.4737 0.0000 32.2554 0.0000
# 6 0.0000 0.0000 0.0000 6.7680 0.0000 33.3488
#
#
#
# Elastic Compliance Matrix: (Units=1/GPa)
#
#
# Indices 1 2 3 4 5 6 
#
# 1 0.010454 -0.003743 -0.002459 0.000000 0.002446 0.000000
# 2 -0.003743 0.017750 -0.005856 0.000000 -0.005116 0.000000
# 3 -0.002459 -0.005856 0.014186 0.000000 -0.002019 0.000000
# 4 0.000000 0.000000 0.000000 0.028243 0.000000 -0.005732
# 5 0.002446 -0.005116 -0.002019 0.000000 0.033606 0.000000
# 6 0.000000 0.000000 0.000000 -0.005732 0.000000 0.031149
#
#
# Mechanical properties :
#
#
# Convention : Reuss Voigt Hill
#
# Bulk Modulus (GPa) = 54.72242 57.53491 56.12866
# Shear Modulus (GPa) = 30.19415 32.52622 31.36018
#
# Velocity S-wave (km/s) = 3.93227 4.08130 4.00748
# Velocity P-wave (km/s) = 6.97431 7.18844 7.08218
#
# Compressibility (1/GPa) = 0.01827405
#
# Stress axis : x y z
#
# Youngs Moduli (GPa) = 95.65434 56.33928 70.49327
#
# Poissons Ratio (x) = 0.21086 0.17335
# Poissons Ratio (y) = 0.35801 0.41280
# Poissons Ratio (z) = 0.23522 0.32992
#
# Static dielectric constant tensor:
#      x y z
#    x 1.734090 0.000000 0.031020 
#    y 0.000000 1.783210 0.000000 
#    z 0.031020 0.000000 1.708930 
# 
# From -- ./inp_files/43580.got.cif
#   From: 2010.05.17/outbox.cif.g08.bks.cpg/sg13_22_cif.got.tgz:43580.got - 2010.06.03 16:44:36.
