data_PCOD9228110
_publ_section_title
;
Structure prediction by ZEFSAII (Michael W. Deem and Ramdas Pophale) SiO2 
 PCOD9228110
Probable space group: P 2/C
;
_chemical_formula_sum "Si O2"
_cell_formula_units_Z 28
_cell_length_a 37.028222
_cell_length_b 6.985243
_cell_length_c 5.364775
_cell_angle_alpha 90.000000
_cell_angle_beta 115.975819
_cell_angle_gamma 90.000000
_cell_volume 1247.427819
_symmetry_space_group_name_H-M "P 2/C"
_symmetry_group_IT_number 13
_symmetry_cell_setting 'monoclinic'
loop_
_space_group_symop_operation_xyz
x,y,z
-x,y,1/2-z
-x,-y,-z
x,-y,1/2+z
loop_
_atom_site_type_symbol
_atom_site_label
_atom_site_fract_x
_atom_site_fract_y
_atom_site_fract_z
Si Si1 0.810185 0.623521 0.977813
Si Si2 0.277107 0.371229 0.363608
Si Si3 0.610072 0.228865 0.431185
Si Si4 0.982395 0.214167 0.946671
Si Si5 0.897104 0.370719 0.663255
Si Si6 0.358648 0.206871 0.474874
Si Si7 0.482587 0.716813 0.947397
O O1 0.810277 0.542081 0.261296
O O2 0.852926 0.723154 0.058264
O O3 0.767231 0.720810 0.800214
O O4 0.279969 0.475820 0.641743
O O5 0.313262 0.222487 0.434310
O O6 0.638299 0.296579 0.290536
O O7 0.565076 0.265233 0.206510
O O8 0.622894 0.005381 0.501330
O O9 0.615435 0.304641 0.727781
O O10 0.934528 0.228721 0.798341
O O11 0.000000 0.302383 0.750000
O O12 0.000000 0.301915 0.250000
O O13 0.000000 0.000000 0.000000
O O14 0.899766 0.480316 0.404935
O O15 0.500000 0.803277 0.750000
O O16 0.500000 0.802308 0.250000
O O17 0.500000 0.500000 0.000000
#
# Coordination Sequence:
#
# PCOD9228110 Si02
#       7
#     4   4   4   4   4   4   4
#     4   8  16  30  51  76 111 139 174 229 275 325
#     4  10  19  35  55  87 115 144 180 222 275 324
#     4  10  21  40  60  80 113 145 182 221 264 322
#     4  10  21  35  50  70 107 151 183 234 288 340
#     4  10  19  32  53  81 104 139 190 237 282 329
#     4  10  21  38  57  84 111 149 178 217 272 327
#     4  10  21  40  59  84 109 139 178 229 270 313
#
# _framework density 22.446190000000001
#
# number of rings (size 3 to 8) (size 9 to 14) (size 15 to 20)
#    0.000    2.286    0.000    2.571    0.000    1.714 
#   15.429    8.571    0.000    6.857    0.000    0.000 
#    0.000    0.000    0.000    0.000    0.000    0.000 
#
# Total GULP energy -156122.881083 kJ/mol
# GULP energy per Si atom -5575.817182 kJ/mol
# Density = 2.239510 g / cm^3
# Si number density = 22.446190 Si / 1000 Ang^3
#
#
#
# Elastic Constant Matrix: (Units=GPa)
#
#
# Indices 1 2 3 4 5 6 
#
# 1 132.9314 8.1409 42.1510 0.0000 22.9435 0.0000
# 2 8.1409 93.3006 0.7584 0.0000 10.8205 0.0000
# 3 42.1510 0.7584 140.0074 0.0000 -22.3160 0.0000
# 4 0.0000 0.0000 0.0000 -4.2622 0.0000 62.9513
# 5 22.9435 10.8205 -22.3160 0.0000 85.1685 0.0000
# 6 0.0000 0.0000 0.0000 62.9513 0.0000 61.6811
#
#
#
# Elastic Compliance Matrix: (Units=1/GPa)
#
#
# Indices 1 2 3 4 5 6 
#
# 1 0.009150 -0.000392 -0.003274 0.000000 -0.003273 0.000000
# 2 -0.000392 0.010907 -0.000151 0.000000 -0.001320 0.000000
# 3 -0.003274 -0.000151 0.008633 0.000000 0.003163 0.000000
# 4 0.000000 0.000000 0.000000 -0.014596 0.000000 0.014897
# 5 -0.003273 -0.001320 0.003163 0.000000 0.013620 0.000000
# 6 0.000000 0.000000 0.000000 0.014897 0.000000 0.001009
#
#
# Mechanical properties :
#
#
# Convention : Reuss Voigt Hill
#
# Bulk Modulus (GPa) = 47.49666 52.03779 49.76722
# Shear Modulus (GPa) = 115.27368 49.53006 82.40187
#
# Velocity S-wave (km/s) = 7.17405 4.70256 6.06552
# Velocity P-wave (km/s) = 9.47781 7.26079 8.44239
#
# Compressibility (1/GPa) = 0.02105411
#
# Stress axis : x y z
#
# Youngs Moduli (GPa) = 109.29180 91.68808 115.83104
#
# Poissons Ratio (x) = 0.03596 0.37926
# Poissons Ratio (y) = 0.04286 0.01753
# Poissons Ratio (z) = 0.35785 0.01388
#
# Static dielectric constant tensor:
#      x y z
#    x 1.867990 0.000000 -0.025670 
#    y 0.000000 1.393640 0.000000 
#    z -0.025670 0.000000 1.881540 
# 
# From -- ./inp_files/8109.got.cif
#   From: 2010.05.17/outbox.cif.g08.bks.cpg/sg13_5_cif.got.tgz:8109.got - 2010.06.03 16:44:36.
