data_PCOD9228193
_publ_section_title
;
Structure prediction by ZEFSAII (Michael W. Deem and Ramdas Pophale) SiO2 
 PCOD9228193
Probable space group: P 2/C
;
_chemical_formula_sum "Si O2"
_cell_formula_units_Z 22
_cell_length_a 18.133496
_cell_length_b 8.359564
_cell_length_c 9.317611
_cell_angle_alpha 90.000000
_cell_angle_beta 132.266453
_cell_angle_gamma 90.000000
_cell_volume 1045.240302
_symmetry_space_group_name_H-M "P 2/C"
_symmetry_group_IT_number 13
_symmetry_cell_setting 'monoclinic'
loop_
_space_group_symop_operation_xyz
x,y,z
-x,y,1/2-z
-x,-y,-z
x,-y,1/2+z
loop_
_atom_site_type_symbol
_atom_site_label
_atom_site_fract_x
_atom_site_fract_y
_atom_site_fract_z
Si Si1 0.385453 0.048169 0.138650
Si Si2 0.688206 0.175763 0.172444
Si Si3 0.699225 0.357584 0.602773
Si Si4 0.605567 0.492253 0.213172
Si Si5 0.000000 0.528859 0.750000
Si Si6 0.867747 0.378511 0.330754
O O1 0.500000 0.097750 0.250000
O O2 0.351325 0.050709 0.258972
O O3 0.310876 0.177936 0.967433
O O4 0.369062 0.877898 0.044114
O O5 0.655096 0.338113 0.204616
O O6 0.800627 0.222213 0.275328
O O7 0.620354 0.457100 0.399163
O O8 0.668484 0.363365 0.728714
O O9 0.799058 0.461641 0.716077
O O10 0.500000 0.500000 0.000000
O O11 0.066732 0.632263 0.727371
O O12 0.933288 0.420513 0.556269
#
# Coordination Sequence:
#
# PCOD9228193 Si02
#       6
#     4   4   4   4   2   4
#     4  11  22  37  55  83 122 165 195 229 270 338
#     4  10  23  37  55  82 119 155 199 234 288 344
#     4  10  20  34  55  81 116 146 189 231 284 335
#     4  10  19  33  52  80 112 150 193 238 272 326
#     4  10  20  38  68  90 114 134 196 256 318 368
#     4  10  21  39  63  92 111 150 190 254 308 354
#
# _framework density 21.047789000000002
#
# number of rings (size 3 to 8) (size 9 to 14) (size 15 to 20)
#    0.000    1.818    0.000    6.545    0.000    7.273 
#    0.000    0.000    0.000   18.545    0.000    0.000 
#    0.000    0.000    0.000    0.000    0.000    0.000 
#
# Total GULP energy -122505.528966 kJ/mol
# GULP energy per Si atom -5568.433135 kJ/mol
# Density = 2.099988 g / cm^3
# Si number density = 21.047789 Si / 1000 Ang^3
#
#
#
# Elastic Constant Matrix: (Units=GPa)
#
#
# Indices 1 2 3 4 5 6 
#
# 1 156.0529 17.3807 46.4078 0.0000 -20.9691 0.0000
# 2 17.3807 23.0305 10.0671 0.0000 -6.5364 0.0000
# 3 46.4078 10.0671 90.3118 0.0000 -4.3857 0.0000
# 4 0.0000 0.0000 0.0000 30.6904 0.0000 -5.8899
# 5 -20.9691 -6.5364 -4.3857 0.0000 40.7124 0.0000
# 6 0.0000 0.0000 0.0000 -5.8899 0.0000 18.2528
#
#
#
# Elastic Compliance Matrix: (Units=1/GPa)
#
#
# Indices 1 2 3 4 5 6 
#
# 1 0.008380 -0.003755 -0.003727 0.000000 0.003312 0.000000
# 2 -0.003755 0.049290 -0.003292 0.000000 0.005625 0.000000
# 3 -0.003727 -0.003292 0.013305 0.000000 -0.001015 0.000000
# 4 0.000000 0.000000 0.000000 0.034735 0.000000 0.011208
# 5 0.003312 0.005625 -0.001015 0.000000 0.027062 0.000000
# 6 0.000000 0.000000 0.000000 0.011208 0.000000 0.058403
#
#
# Mechanical properties :
#
#
# Convention : Reuss Voigt Hill
#
# Bulk Modulus (GPa) = 20.23132 46.34514 33.28823
# Shear Modulus (GPa) = 21.81534 30.96709 26.39121
#
# Velocity S-wave (km/s) = 3.22291 3.83988 3.54485
# Velocity P-wave (km/s) = 4.84588 6.45960 5.71003
#
# Compressibility (1/GPa) = 0.04942831
#
# Stress axis : x y z
#
# Youngs Moduli (GPa) = 119.33879 20.28813 75.15790
#
# Poissons Ratio (x) = 0.07618 0.28008
# Poissons Ratio (y) = 0.44812 0.24739
# Poissons Ratio (z) = 0.44472 0.06678
#
# Static dielectric constant tensor:
#      x y z
#    x 1.858300 0.000000 -0.014450 
#    y 0.000000 1.771430 0.000000 
#    z -0.014450 0.000000 1.780380 
# 
# From -- ./inp_files/21253.got.cif
#   From: 2010.05.17/outbox.cif.g08.bks.cpg/sg13_11_cif.got.tgz:21253.got - 2010.06.03 16:44:36.
