data_PCOD9228261
_publ_section_title
;
Structure prediction by ZEFSAII (Michael W. Deem and Ramdas Pophale) SiO2 
 PCOD9228261
Probable space group: P 2/C
;
_chemical_formula_sum "Si O2"
_cell_formula_units_Z 20
_cell_length_a 5.252214
_cell_length_b 10.906152
_cell_length_c 13.203011
_cell_angle_alpha 90.000000
_cell_angle_beta 78.094557
_cell_angle_gamma 90.000000
_cell_volume 740.019333
_symmetry_space_group_name_H-M "P 2/C"
_symmetry_group_IT_number 13
_symmetry_cell_setting 'monoclinic'
loop_
_space_group_symop_operation_xyz
x,y,z
-x,y,1/2-z
-x,-y,-z
x,-y,1/2+z
loop_
_atom_site_type_symbol
_atom_site_label
_atom_site_fract_x
_atom_site_fract_y
_atom_site_fract_z
Si Si1 0.784826 0.916677 0.387452
Si Si2 0.288581 0.963927 0.869234
Si Si3 0.501042 0.606225 0.874725
Si Si4 0.712596 0.649185 0.320295
Si Si5 0.991583 0.293156 0.136495
O O1 0.594082 0.004176 0.336912
O O2 0.093108 0.931622 0.346101
O O3 0.745386 0.955948 0.506397
O O4 0.713058 0.776256 0.379372
O O5 0.155821 0.836814 0.845392
O O6 0.500000 0.621743 0.750000
O O7 0.615407 0.472243 0.886026
O O8 0.196102 0.628082 0.919818
O O9 0.700556 0.702192 0.911133
O O10 0.500000 0.663450 0.250000
O O11 0.000000 0.630031 0.250000
O O12 0.000000 0.344392 0.250000
#
# Coordination Sequence:
#
# PCOD9228261 Si02
#       5
#     4   4   4   4   4
#     4  10  22  38  55  78 110 147 179 220 276 319
#     4  10  21  38  56  77 112 146 177 222 274 322
#     4   9  18  33  52  78 108 137 170 218 273 310
#     4  11  21  36  58  81 108 141 182 224 264 321
#     4  10  19  33  55  80 106 138 177 218 262 318
#
# _framework density 27.026320999999999
#
# number of rings (size 3 to 8) (size 9 to 14) (size 15 to 20)
#    0.000    2.000    0.000    5.400    0.000    2.400 
#    0.000    2.000    0.000    0.000    0.000    4.200 
#    0.000    0.000    0.000    0.000    0.000    0.000 
#
# Total GULP energy -111920.093233 kJ/mol
# GULP energy per Si atom -5596.004662 kJ/mol
# Density = 2.696481 g / cm^3
# Si number density = 27.026321 Si / 1000 Ang^3
#
#
#
# Elastic Constant Matrix: (Units=GPa)
#
#
# Indices 1 2 3 4 5 6 
#
# 1 272.4191 86.4835 49.3669 0.0000 14.0396 0.0000
# 2 86.4835 150.5590 4.1243 0.0000 25.6819 0.0000
# 3 49.3669 4.1243 51.1408 0.0000 14.1444 0.0000
# 4 0.0000 0.0000 0.0000 23.5326 0.0000 18.3777
# 5 14.0396 25.6819 14.1444 0.0000 39.1039 0.0000
# 6 0.0000 0.0000 0.0000 18.3777 0.0000 60.6706
#
#
#
# Elastic Compliance Matrix: (Units=1/GPa)
#
#
# Indices 1 2 3 4 5 6 
#
# 1 0.005748 -0.003551 -0.005930 0.000000 0.002413 0.000000
# 2 -0.003551 0.009706 0.004507 0.000000 -0.006730 0.000000
# 3 -0.005930 0.004507 0.027940 0.000000 -0.010937 0.000000
# 4 0.000000 0.000000 0.000000 0.055661 0.000000 -0.016860
# 5 0.002413 -0.006730 -0.010937 0.000000 0.033082 0.000000
# 6 0.000000 0.000000 0.000000 -0.016860 0.000000 0.021590
#
#
# Mechanical properties :
#
#
# Convention : Reuss Voigt Hill
#
# Bulk Modulus (GPa) = 29.89996 83.78537 56.84266
# Shear Modulus (GPa) = 28.59996 46.93770 37.76883
#
# Velocity S-wave (km/s) = 3.25657 4.17194 3.74235
# Velocity P-wave (km/s) = 5.02271 7.36719 6.30488
#
# Compressibility (1/GPa) = 0.03344486
#
# Stress axis : x y z
#
# Youngs Moduli (GPa) = 173.95890 103.02574 35.79127
#
# Poissons Ratio (x) = 0.36587 0.21225
# Poissons Ratio (y) = 0.61777 -0.16130
# Poissons Ratio (z) = 1.03161 -0.46430
#
# Static dielectric constant tensor:
#      x y z
#    x 2.121890 0.000000 -0.101360 
#    y 0.000000 2.089940 0.000000 
#    z -0.101360 0.000000 2.212630 
# 
# From -- ./inp_files/43441.got.cif
#   From: 2010.05.17/outbox.cif.g08.bks.cpg/sg13_22_cif.got.tgz:43441.got - 2010.06.03 16:44:36.
