data_PCOD9228138
_publ_section_title
;
Structure prediction by ZEFSAII (Michael W. Deem and Ramdas Pophale) SiO2 
 PCOD9228138
Probable space group: P 2/C
;
_chemical_formula_sum "Si O2"
_cell_formula_units_Z 26
_cell_length_a 15.858760
_cell_length_b 7.161804
_cell_length_c 14.361514
_cell_angle_alpha 90.000000
_cell_angle_beta 141.397366
_cell_angle_gamma 90.000000
_cell_volume 1017.695082
_symmetry_space_group_name_H-M "P 2/C"
_symmetry_group_IT_number 13
_symmetry_cell_setting 'monoclinic'
loop_
_space_group_symop_operation_xyz
x,y,z
-x,y,1/2-z
-x,-y,-z
x,-y,1/2+z
loop_
_atom_site_type_symbol
_atom_site_label
_atom_site_fract_x
_atom_site_fract_y
_atom_site_fract_z
Si Si1 0.646333 0.626545 0.059472
Si Si2 0.259065 0.756196 0.091008
Si Si3 0.528123 0.873685 0.111350
Si Si4 0.022604 0.738736 0.561813
Si Si5 0.500000 0.541146 0.750000
Si Si6 0.946315 0.664780 0.308789
Si Si7 0.241510 0.217865 0.378823
O O1 0.582938 0.690534 0.102239
O O2 0.790400 0.727549 0.168462
O O3 0.690919 0.409517 0.100550
O O4 0.550559 0.647019 0.886256
O O5 0.356367 0.916516 0.215434
O O6 0.370128 0.588826 0.168254
O O7 0.175788 0.761380 0.922887
O O8 0.137459 0.748648 0.059494
O O9 0.381061 0.879133 0.029445
O O10 0.500000 0.000000 0.000000
O O11 0.051942 0.538171 0.637672
O O12 0.134803 0.858800 0.713368
O O13 0.039022 0.768694 0.465285
O O14 0.000000 0.658826 0.250000
#
# Coordination Sequence:
#
# PCOD9228138 Si02
#       7
#     4   4   4   4   2   4   4
#     4  10  20  37  59  90 120 161 207 255 305 362
#     4  11  19  39  62  90 124 160 202 258 316 363
#     4  12  24  39  59  87 127 169 203 254 313 371
#     4  10  20  33  60  91 118 161 204 254 312 380
#     4  10  20  32  64  94 120 156 214 256 306 358
#     4  10  19  32  55  90 133 153 192 261 329 359
#     4  10  21  39  65  92 118 158 212 256 308 376
#
# _framework density 25.547929
#
# number of rings (size 3 to 8) (size 9 to 14) (size 15 to 20)
#    0.000    1.538    4.615    3.692    0.000    1.231 
#    2.769    0.769    0.000    0.000    0.000    0.000 
#    0.000    0.000    0.000    0.000    0.000    0.000 
#
# Total GULP energy -144777.624006 kJ/mol
# GULP energy per Si atom -5568.370154 kJ/mol
# Density = 2.548978 g / cm^3
# Si number density = 25.547929 Si / 1000 Ang^3
#
#
#
# Elastic Constant Matrix: (Units=GPa)
#
#
# Indices 1 2 3 4 5 6 
#
# 1 131.6554 -1.3913 72.0839 0.0000 -34.3961 0.0000
# 2 -1.3913 29.5859 14.5576 0.0000 -4.1706 0.0000
# 3 72.0839 14.5576 243.4477 0.0000 -17.4625 0.0000
# 4 0.0000 0.0000 0.0000 20.6401 0.0000 -7.1852
# 5 -34.3961 -4.1706 -17.4625 0.0000 56.4370 0.0000
# 6 0.0000 0.0000 0.0000 -7.1852 0.0000 8.3154
#
#
#
# Elastic Compliance Matrix: (Units=1/GPa)
#
#
# Indices 1 2 3 4 5 6 
#
# 1 0.010760 0.002774 -0.002932 0.000000 0.005856 0.000000
# 2 0.002774 0.035756 -0.002709 0.000000 0.003495 0.000000
# 3 -0.002932 -0.002709 0.005109 0.000000 -0.000406 0.000000
# 4 0.000000 0.000000 0.000000 0.069292 0.000000 0.059874
# 5 0.005856 0.003495 -0.000406 0.000000 0.021420 0.000000
# 6 0.000000 0.000000 0.000000 0.059874 0.000000 0.171994
#
#
# Mechanical properties :
#
#
# Convention : Reuss Voigt Hill
#
# Bulk Modulus (GPa) = 21.79071 63.90994 42.85032
# Shear Modulus (GPa) = 14.90930 38.37444 26.64187
#
# Velocity S-wave (km/s) = 2.41836 3.87984 3.23277
# Velocity P-wave (km/s) = 4.04300 6.71870 5.54467
#
# Compressibility (1/GPa) = 0.04589112
#
# Stress axis : x y z
#
# Youngs Moduli (GPa) = 92.93705 27.96749 195.74842
#
# Poissons Ratio (x) = -0.07758 0.57390
# Poissons Ratio (y) = -0.25781 0.53024
# Poissons Ratio (z) = 0.27248 0.07576
#
# Static dielectric constant tensor:
#      x y z
#    x 2.017370 0.000000 0.165480 
#    y 0.000000 2.254000 0.000000 
#    z 0.165480 0.000000 2.151550 
# 
# From -- ./inp_files/53354.got.cif
#   From: 2010.05.17/outbox.cif.g08.bks.cpg/sg13_27_cif.got.tgz:53354.got - 2010.06.03 16:44:36.
