data_PCOD9228253
_publ_section_title
;
Structure prediction by ZEFSAII (Michael W. Deem and Ramdas Pophale) SiO2 
 PCOD9228253
Probable space group: P 2/C
;
_chemical_formula_sum "Si O2"
_cell_formula_units_Z 32
_cell_length_a 12.185734
_cell_length_b 11.834896
_cell_length_c 11.173269
_cell_angle_alpha 90.000000
_cell_angle_beta 76.605516
_cell_angle_gamma 90.000000
_cell_volume 1567.541855
_symmetry_space_group_name_H-M "P 2/C"
_symmetry_group_IT_number 13
_symmetry_cell_setting 'monoclinic'
loop_
_space_group_symop_operation_xyz
x,y,z
-x,y,1/2-z
-x,-y,-z
x,-y,1/2+z
loop_
_atom_site_type_symbol
_atom_site_label
_atom_site_fract_x
_atom_site_fract_y
_atom_site_fract_z
Si Si1 0.037841 0.152959 0.605294
Si Si2 0.710718 0.194468 0.938479
Si Si3 0.682109 0.928567 0.975360
Si Si4 0.636334 0.443785 0.591896
Si Si5 0.382046 0.465363 0.157743
Si Si6 0.633715 0.795471 0.196479
Si Si7 0.070639 0.880369 0.615999
Si Si8 0.489372 0.219280 0.121779
O O1 0.161320 0.205722 0.552718
O O2 0.000000 0.187303 0.750000
O O3 0.963066 0.172540 0.504712
O O4 0.049686 0.016038 0.609506
O O5 0.693346 0.229425 0.806076
O O6 0.684501 0.060237 0.948496
O O7 0.612864 0.249543 0.041715
O O8 0.795743 0.871835 0.896276
O O9 0.573612 0.867552 0.948312
O O10 0.680458 0.905396 0.117991
O O11 0.679893 0.484412 0.452438
O O12 0.676429 0.503193 0.703270
O O13 0.500069 0.464401 0.623398
O O14 0.653847 0.311006 0.605297
O O15 0.419836 0.334933 0.150872
O O16 0.500000 0.806956 0.250000
O O17 0.000000 0.841173 0.750000
O O18 0.500000 0.166752 0.250000
#
# Coordination Sequence:
#
# PCOD9228253 Si02
#       8
#     4   4   4   4   4   4   4   4
#     4   9  18  37  56  77  98 138 198 244 272 304
#     4  11  25  35  55  80 116 156 187 225 272 340
#     4  11  24  37  52  79 116 157 188 219 273 338
#     4  10  19  33  55  74 104 146 184 234 280 315
#     4  10  19  35  54  75 103 150 180 234 273 322
#     4  12  21  36  54  77 114 158 185 219 271 348
#     4   9  19  35  58  74  99 142 194 245 275 304
#     4  12  24  35  50  83 120 148 179 222 277 351
#
# _framework density 20.41413
#
# number of rings (size 3 to 8) (size 9 to 14) (size 15 to 20)
#    0.000    1.500    5.000    1.125    5.250    2.000 
#    0.000    0.000    0.000    0.000    0.000    0.000 
#    0.000   20.000    0.000    0.000    0.000    0.000 
#
# Total GULP energy -178643.322591 kJ/mol
# GULP energy per Si atom -5582.603831 kJ/mol
# Density = 2.036767 g / cm^3
# Si number density = 20.414130 Si / 1000 Ang^3
#
#
#
# Elastic Constant Matrix: (Units=GPa)
#
#
# Indices 1 2 3 4 5 6 
#
# 1 62.0031 -2.2433 23.6103 0.0000 -1.6224 0.0000
# 2 -2.2433 36.1545 0.3986 0.0000 2.0841 0.0000
# 3 23.6103 0.3986 138.7584 0.0000 20.7163 0.0000
# 4 0.0000 0.0000 0.0000 0.7034 0.0000 15.6295
# 5 -1.6224 2.0841 20.7163 0.0000 30.7694 0.0000
# 6 0.0000 0.0000 0.0000 15.6295 0.0000 2.4665
#
#
#
# Elastic Compliance Matrix: (Units=1/GPa)
#
#
# Indices 1 2 3 4 5 6 
#
# 1 0.017567 0.000944 -0.003469 0.000000 0.003198 0.000000
# 2 0.000944 0.027824 0.000037 0.000000 -0.001860 0.000000
# 3 -0.003469 0.000037 0.008699 0.000000 -0.006042 0.000000
# 4 0.000000 0.000000 0.000000 -0.010169 0.000000 0.064439
# 5 0.003198 -0.001860 -0.006042 0.000000 0.036863 0.000000
# 6 0.000000 0.000000 0.000000 0.064439 0.000000 -0.002900
#
#
# Mechanical properties :
#
#
# Convention : Reuss Voigt Hill
#
# Bulk Modulus (GPa) = 20.36075 31.16080 25.76077
# Shear Modulus (GPa) = 50.38682 21.13120 35.75901
#
# Velocity S-wave (km/s) = 4.97352 3.22083 4.18985
# Velocity P-wave (km/s) = 6.55566 5.39714 6.00441
#
# Compressibility (1/GPa) = 0.04911411
#
# Stress axis : x y z
#
# Youngs Moduli (GPa) = 56.92443 35.93963 114.95452
#
# Poissons Ratio (x) = -0.03392 0.39881
# Poissons Ratio (y) = -0.05373 -0.00427
# Poissons Ratio (z) = 0.19749 -0.00134
#
# Static dielectric constant tensor:
#      x y z
#    x 1.733620 0.000000 0.031090 
#    y 0.000000 1.731100 0.000000 
#    z 0.031090 0.000000 1.799550 
# 
# From -- ./inp_files/34153.got.cif
#   From: 2010.05.17/outbox.cif.g08.bks.cpg/sg13_18_cif.got.tgz:34153.got - 2010.06.03 16:44:36.
