data_PCOD9228040
_publ_section_title
;
Structure prediction by ZEFSAII (Michael W. Deem and Ramdas Pophale) SiO2 
 PCOD9228040
Probable space group: P 2/C
;
_chemical_formula_sum "Si O2"
_cell_formula_units_Z 32
_cell_length_a 11.249442
_cell_length_b 5.697709
_cell_length_c 18.756997
_cell_angle_alpha 90.000000
_cell_angle_beta 84.896237
_cell_angle_gamma 90.000000
_cell_volume 1197.482712
_symmetry_space_group_name_H-M "P 2/C"
_symmetry_group_IT_number 13
_symmetry_cell_setting 'monoclinic'
loop_
_space_group_symop_operation_xyz
x,y,z
-x,y,1/2-z
-x,-y,-z
x,-y,1/2+z
loop_
_atom_site_type_symbol
_atom_site_label
_atom_site_fract_x
_atom_site_fract_y
_atom_site_fract_z
Si Si1 0.213526 0.835742 0.727080
Si Si2 0.638143 0.345280 0.669352
Si Si3 0.842031 0.440321 0.076735
Si Si4 0.329806 0.158023 0.075032
Si Si5 0.324702 0.668549 0.037367
Si Si6 0.938941 0.801794 0.956560
Si Si7 0.415820 0.153669 0.321967
Si Si8 0.785524 0.662442 0.299491
O O1 0.321281 0.829239 0.661380
O O2 0.279109 0.833254 0.799675
O O3 0.151965 0.584925 0.720383
O O4 0.153518 0.088196 0.720117
O O5 0.769747 0.388237 0.631364
O O6 0.566315 0.580557 0.651387
O O7 0.666389 0.334612 0.753603
O O8 0.583577 0.103932 0.643767
O O9 0.954632 0.294126 0.099126
O O10 0.746999 0.297877 0.033120
O O11 0.897590 0.604668 0.013441
O O12 0.373374 0.399502 0.036047
O O13 0.186950 0.128211 0.069255
O O14 0.388460 0.917669 0.045413
O O15 0.246729 0.655168 0.115145
O O16 0.000000 0.000000 0.000000
O O17 0.500000 0.130447 0.250000
#
# Coordination Sequence:
#
# PCOD9228040 Si02
#       8
#     4   4   4   4   4   4   4   4
#     4   8  15  28  49  74  95 130 176 210 256 322
#     4  10  21  34  55  84 111 138 179 228 275 326
#     4  10  21  32  50  82 109 145 181 232 266 314
#     4   9  16  28  47  72  96 136 181 217 243 313
#     4   9  16  28  48  71  97 135 182 210 254 316
#     4  10  19  32  50  75 111 144 186 219 264 316
#     4  10  20  36  57  83 109 139 177 228 282 339
#     4   8  15  29  47  72  96 134 174 212 248 324
#
# _framework density 26.722726999999999
#
# number of rings (size 3 to 8) (size 9 to 14) (size 15 to 20)
#    0.000    2.750    1.250    0.375    1.750    0.000 
#    0.000    0.000    0.000   18.750    0.000   64.750 
#    0.000    0.000    0.000    0.000    0.000    0.000 
#
# Total GULP energy -178415.587732 kJ/mol
# GULP energy per Si atom -5575.487117 kJ/mol
# Density = 2.666190 g / cm^3
# Si number density = 26.722727 Si / 1000 Ang^3
#
#
#
# Elastic Constant Matrix: (Units=GPa)
#
#
# Indices 1 2 3 4 5 6 
#
# 1 82.5572 27.9522 35.5868 0.0000 7.7635 0.0000
# 2 27.9522 273.5089 15.7878 0.0000 -5.1173 0.0000
# 3 35.5868 15.7878 57.8542 0.0000 11.8602 0.0000
# 4 0.0000 0.0000 0.0000 10.6551 0.0000 -4.0382
# 5 7.7635 -5.1173 11.8602 0.0000 42.6976 0.0000
# 6 0.0000 0.0000 0.0000 -4.0382 0.0000 9.0787
#
#
#
# Elastic Compliance Matrix: (Units=1/GPa)
#
#
# Indices 1 2 3 4 5 6 
#
# 1 0.016834 -0.001154 -0.009950 0.000000 -0.000435 0.000000
# 2 -0.001154 0.003818 -0.000497 0.000000 0.000805 0.000000
# 3 -0.009950 -0.000497 0.024582 0.000000 -0.005079 0.000000
# 4 0.000000 0.000000 0.000000 0.112881 0.000000 0.050210
# 5 -0.000435 0.000805 -0.005079 0.000000 0.025007 0.000000
# 6 0.000000 0.000000 0.000000 0.050210 0.000000 0.132482
#
#
# Mechanical properties :
#
#
# Convention : Reuss Voigt Hill
#
# Bulk Modulus (GPa) = 45.39157 63.61934 54.50545
# Shear Modulus (GPa) = 14.44457 34.79250 24.61853
#
# Velocity S-wave (km/s) = 2.32746 3.61221 3.03852
# Velocity P-wave (km/s) = 4.92400 6.42311 5.72285
#
# Compressibility (1/GPa) = 0.02203052
#
# Stress axis : x y z
#
# Youngs Moduli (GPa) = 59.40456 261.92391 40.67972
#
# Poissons Ratio (x) = 0.30230 0.40478
# Poissons Ratio (y) = 0.06856 0.02022
# Poissons Ratio (z) = 0.59110 0.13019
#
# Static dielectric constant tensor:
#      x y z
#    x 2.122800 0.000000 -0.000620 
#    y 0.000000 2.160190 0.000000 
#    z -0.000620 0.000000 2.089680 
# 
# From -- ./inp_files/79320.got.cif
#   From: 2010.05.17/outbox.cif.g08.bks.cpg/sg13_40_cif.got.tgz:79320.got - 2010.06.03 16:44:36.
