data_PCOD9228646
_publ_section_title
;
Structure prediction by ZEFSAII (Michael W. Deem and Ramdas Pophale) SiO2 
 PCOD9228646
Probable space group: P 2/C
;
_chemical_formula_sum "Si O2"
_cell_formula_units_Z 24
_cell_length_a 13.728353
_cell_length_b 4.859426
_cell_length_c 17.068354
_cell_angle_alpha 90.000000
_cell_angle_beta 85.826451
_cell_angle_gamma 90.000000
_cell_volume 1135.643064
_symmetry_space_group_name_H-M "P 2/C"
_symmetry_group_IT_number 13
_symmetry_cell_setting 'monoclinic'
loop_
_space_group_symop_operation_xyz
x,y,z
-x,y,1/2-z
-x,-y,-z
x,-y,1/2+z
loop_
_atom_site_type_symbol
_atom_site_label
_atom_site_fract_x
_atom_site_fract_y
_atom_site_fract_z
Si Si1 0.114327 0.651535 0.748959
Si Si2 0.733097 0.656900 0.894503
Si Si3 0.782615 0.146793 0.692557
Si Si4 0.303853 0.468595 0.436545
Si Si5 0.370732 0.144596 0.665066
Si Si6 0.439342 0.952907 0.424189
O O1 0.170961 0.695731 0.663702
O O2 0.140336 0.336149 0.765222
O O3 0.000000 0.699418 0.750000
O O4 0.164249 0.851723 0.811230
O O5 0.654827 0.458810 0.855164
O O6 0.684709 0.956696 0.896407
O O7 0.748998 0.517314 0.977317
O O8 0.754987 0.348783 0.623166
O O9 0.684725 0.099505 0.749859
O O10 0.347290 0.162617 0.419179
O O11 0.402583 0.643861 0.436202
O O12 0.482536 0.056375 0.650993
O O13 0.500000 0.000000 0.500000
#
# Coordination Sequence:
#
# PCOD9228646 Si02
#       6
#     4   4   4   4   4   4
#     4  10  21  41  64  82 108 153 196 237 297 381
#     4  10  19  35  58  82 112 149 194 232 291 341
#     4  10  23  39  57  85 121 145 189 248 308 335
#     4  12  22  36  57  88 119 153 188 253 288 324
#     4  10  20  36  54  80 113 158 194 229 270 348
#     4  12  21  34  59  84 117 156 209 225 271 346
#
# _framework density 21.133403000000001
#
# number of rings (size 3 to 8) (size 9 to 14) (size 15 to 20)
#    0.000    1.333    3.333    3.000    0.000    0.667 
#    0.000    3.333    0.000    0.000    0.000    0.000 
#    0.000    0.000    0.000    0.000    0.000    0.000 
#
# Total GULP energy -133753.756529 kJ/mol
# GULP energy per Si atom -5573.073189 kJ/mol
# Density = 2.108530 g / cm^3
# Si number density = 21.133403 Si / 1000 Ang^3
#
#
#
# Elastic Constant Matrix: (Units=GPa)
#
#
# Indices 1 2 3 4 5 6 
#
# 1 105.7191 20.1685 33.5529 0.0000 -13.9400 0.0000
# 2 20.1685 110.3752 6.8056 0.0000 -6.6320 0.0000
# 3 33.5529 6.8056 71.9723 0.0000 -7.6586 0.0000
# 4 0.0000 0.0000 0.0000 22.2211 0.0000 2.6254
# 5 -13.9400 -6.6320 -7.6586 0.0000 20.5125 0.0000
# 6 0.0000 0.0000 0.0000 2.6254 0.0000 22.8743
#
#
#
# Elastic Compliance Matrix: (Units=1/GPa)
#
#
# Indices 1 2 3 4 5 6 
#
# 1 0.012073 -0.001553 -0.004855 0.000000 0.005890 0.000000
# 2 -0.001553 0.009462 0.000044 0.000000 0.002021 0.000000
# 3 -0.004855 0.000044 0.016458 0.000000 0.002860 0.000000
# 4 0.000000 0.000000 0.000000 0.045621 0.000000 -0.005236
# 5 0.005890 0.002021 0.002860 0.000000 0.054474 0.000000
# 6 0.000000 0.000000 0.000000 -0.005236 0.000000 0.044318
#
#
# Mechanical properties :
#
#
# Convention : Reuss Voigt Hill
#
# Bulk Modulus (GPa) = 39.57861 45.45784 42.51823
# Shear Modulus (GPa) = 24.56345 28.29091 26.42718
#
# Velocity S-wave (km/s) = 3.41296 3.66277 3.54007
# Velocity P-wave (km/s) = 5.85659 6.28048 6.07224
#
# Compressibility (1/GPa) = 0.02526617
#
# Stress axis : x y z
#
# Youngs Moduli (GPa) = 82.83201 105.68117 60.76244
#
# Poissons Ratio (x) = 0.16410 0.29498
# Poissons Ratio (y) = 0.12862 -0.00268
# Poissons Ratio (z) = 0.40212 -0.00467
#
# Static dielectric constant tensor:
#      x y z
#    x 1.602540 0.000000 0.271300 
#    y 0.000000 1.743020 0.000000 
#    z 0.271300 0.000000 1.351140 
# 
# From -- ./inp_files/65378.got.cif
#   From: 2010.05.17/outbox.cif.g08.bks.cpg/sg13_33_cif.got.tgz:65378.got - 2010.06.03 16:44:36.
