data_PCOD9228671
_publ_section_title
;
Structure prediction by ZEFSAII (Michael W. Deem and Ramdas Pophale) SiO2 
 PCOD9228671
Probable space group: P 2/C
;
_chemical_formula_sum "Si O2"
_cell_formula_units_Z 30
_cell_length_a 13.632841
_cell_length_b 8.252998
_cell_length_c 16.976401
_cell_angle_alpha 90.000000
_cell_angle_beta 127.613371
_cell_angle_gamma 90.000000
_cell_volume 1513.037334
_symmetry_space_group_name_H-M "P 2/C"
_symmetry_group_IT_number 13
_symmetry_cell_setting 'monoclinic'
loop_
_space_group_symop_operation_xyz
x,y,z
-x,y,1/2-z
-x,-y,-z
x,-y,1/2+z
loop_
_atom_site_type_symbol
_atom_site_label
_atom_site_fract_x
_atom_site_fract_y
_atom_site_fract_z
Si Si1 0.343178 0.664026 0.632132
Si Si2 0.399689 0.699176 0.132877
Si Si3 0.000000 0.891505 0.250000
Si Si4 0.432438 0.246386 0.338206
Si Si5 0.081757 0.802169 0.459659
Si Si6 0.529940 0.815812 0.041561
Si Si7 0.147715 0.855745 0.065815
Si Si8 0.239852 0.963262 0.282773
O O1 0.388534 0.494101 0.620366
O O2 0.438793 0.798468 0.644092
O O3 0.362855 0.652451 0.736063
O O4 0.206363 0.707005 0.539528
O O5 0.500000 0.737350 0.250000
O O6 0.450966 0.775867 0.078938
O O7 0.263589 0.763222 0.086758
O O8 0.960809 0.792185 0.152204
O O9 0.878712 0.990056 0.219461
O O10 0.486640 0.299330 0.449132
O O11 0.331412 0.112111 0.311288
O O12 0.974270 0.755632 0.469291
O O13 0.109818 0.992067 0.492978
O O14 0.674425 0.822946 0.136344
O O15 0.500000 0.000000 0.000000
O O16 0.191615 0.919004 0.172767
#
# Coordination Sequence:
#
# PCOD9228671 Si02
#       8
#     4   4   2   4   4   4   4   4
#     4  11  23  41  62  89 133 172 209 254 326 395
#     4  12  24  41  63  97 131 168 212 261 316 387
#     4  10  22  36  62  94 120 154 222 276 318 372
#     4  10  21  36  59  92 124 169 204 260 323 373
#     4  10  22  41  62  91 121 169 214 264 324 380
#     4  10  23  37  61  97 126 158 212 273 324 367
#     4  10  22  37  63  90 120 166 216 261 310 382
#     4  10  19  35  58  92 123 158 206 273 317 370
#
# _framework density 19.827666000000001
#
# number of rings (size 3 to 8) (size 9 to 14) (size 15 to 20)
#    0.000    1.600    4.000    0.800    7.467    1.067 
#    0.000    0.000    0.000    0.800    0.000    0.000 
#    0.000    0.000    0.000    0.000    0.000    0.000 
#
# Total GULP energy -167122.262048 kJ/mol
# GULP energy per Si atom -5570.742068 kJ/mol
# Density = 1.978254 g / cm^3
# Si number density = 19.827666 Si / 1000 Ang^3
#
#
#
# Elastic Constant Matrix: (Units=GPa)
#
#
# Indices 1 2 3 4 5 6 
#
# 1 177.7052 44.3262 59.8668 0.0000 7.1696 0.0000
# 2 44.3262 40.5319 25.0604 0.0000 -5.5489 0.0000
# 3 59.8668 25.0604 141.3706 0.0000 -6.4731 0.0000
# 4 0.0000 0.0000 0.0000 2.2181 0.0000 -23.6262
# 5 7.1696 -5.5489 -6.4731 0.0000 42.4239 0.0000
# 6 0.0000 0.0000 0.0000 -23.6262 0.0000 -11.0161
#
#
#
# Elastic Compliance Matrix: (Units=1/GPa)
#
#
# Indices 1 2 3 4 5 6 
#
# 1 0.008611 -0.008398 -0.002291 0.000000 -0.002903 0.000000
# 2 -0.008398 0.036257 -0.002607 0.000000 0.005764 0.000000
# 3 -0.002291 -0.002607 0.008568 0.000000 0.001353 0.000000
# 4 0.000000 0.000000 0.000000 0.018907 0.000000 -0.040551
# 5 -0.002903 0.005764 0.001353 0.000000 0.025023 0.000000
# 6 0.000000 0.000000 0.000000 -0.040551 0.000000 -0.003807
#
#
# Mechanical properties :
#
#
# Convention : Reuss Voigt Hill
#
# Bulk Modulus (GPa) = 37.25186 68.67939 52.96562
# Shear Modulus (GPa) = 38.73009 22.08215 30.40612
#
# Velocity S-wave (km/s) = 4.42445 3.34084 3.92027
# Velocity P-wave (km/s) = 6.70296 7.04237 6.87476
#
# Compressibility (1/GPa) = 0.02684430
#
# Stress axis : x y z
#
# Youngs Moduli (GPa) = 116.13102 27.58075 116.71674
#
# Poissons Ratio (x) = 0.23163 0.26737
# Poissons Ratio (y) = 0.97529 0.30427
# Poissons Ratio (z) = 0.26602 0.07190
#
# Static dielectric constant tensor:
#      x y z
#    x 1.731980 0.000000 0.018560 
#    y 0.000000 1.726130 0.000000 
#    z 0.018560 0.000000 1.741760 
# 
# From -- ./inp_files/50486.got.cif
#   From: 2010.05.17/outbox.cif.g08.bks.cpg/sg13_26_cif.got.tgz:50486.got - 2010.06.03 16:44:36.
