data_PCOD9228914
_publ_section_title
;
Structure prediction by ZEFSAII (Michael W. Deem and Ramdas Pophale) SiO2 
 PCOD9228914
Probable space group: P 2/C
;
_chemical_formula_sum "Si O2"
_cell_formula_units_Z 20
_cell_length_a 13.674784
_cell_length_b 7.254668
_cell_length_c 24.540432
_cell_angle_alpha 90.000000
_cell_angle_beta 163.099601
_cell_angle_gamma 90.000000
_cell_volume 707.747729
_symmetry_space_group_name_H-M "P 2/C"
_symmetry_group_IT_number 13
_symmetry_cell_setting 'monoclinic'
loop_
_space_group_symop_operation_xyz
x,y,z
-x,y,1/2-z
-x,-y,-z
x,-y,1/2+z
loop_
_atom_site_type_symbol
_atom_site_label
_atom_site_fract_x
_atom_site_fract_y
_atom_site_fract_z
Si Si1 0.237814 0.673109 0.805497
Si Si2 0.279665 0.758086 0.353639
Si Si3 0.002243 0.225065 0.512698
Si Si4 0.702497 0.248615 0.939058
Si Si5 0.253526 0.177234 0.014304
O O1 0.269451 0.460440 0.837304
O O2 0.498106 0.731117 0.896559
O O3 0.864569 0.688022 0.581953
O O4 0.366561 0.790314 0.926541
O O5 0.000000 0.802114 0.250000
O O6 0.117768 0.836492 0.212020
O O7 0.345348 0.298428 0.723868
O O8 0.028801 0.295393 0.465367
O O9 0.748306 0.267571 0.426650
O O10 0.000000 0.000000 0.500000
O O11 0.661895 0.030970 0.926631
#
# Coordination Sequence:
#
# PCOD9228914 Si02
#       5
#     4   4   4   4   4
#     4  10  21  38  60  88 119 158 201 245 301 358
#     4   9  21  40  59  82 119 160 196 246 307 355
#     4   9  19  35  56  86 122 154 185 239 305 350
#     4  10  20  35  60  90 117 152 197 242 294 360
#     4  10  19  36  60  86 118 154 197 247 298 356
#
# _framework density 28.258659000000002
#
# number of rings (size 3 to 8) (size 9 to 14) (size 15 to 20)
#    0.000    2.400    0.000    2.400    0.000    8.000 
#    0.000    6.000    0.000    9.600    0.000    0.000 
#    0.000    0.000    0.000    0.000    0.000    0.000 
#
# Total GULP energy -111827.601904 kJ/mol
# GULP energy per Si atom -5591.380095 kJ/mol
# Density = 2.819434 g / cm^3
# Si number density = 28.258659 Si / 1000 Ang^3
#
#
#
# Elastic Constant Matrix: (Units=GPa)
#
#
# Indices 1 2 3 4 5 6 
#
# 1 137.7672 8.8962 26.2781 0.0000 -25.3184 0.0000
# 2 8.8962 64.2337 4.4607 0.0000 10.8076 0.0000
# 3 26.2781 4.4607 198.9491 0.0000 -35.9726 0.0000
# 4 0.0000 0.0000 0.0000 51.5467 0.0000 -8.6935
# 5 -25.3184 10.8076 -35.9726 0.0000 49.1731 0.0000
# 6 0.0000 0.0000 0.0000 -8.6935 0.0000 41.6171
#
#
#
# Elastic Compliance Matrix: (Units=1/GPa)
#
#
# Indices 1 2 3 4 5 6 
#
# 1 0.008250 -0.001881 -0.000236 0.000000 0.004489 0.000000
# 2 -0.001881 0.016830 -0.001121 0.000000 -0.005488 0.000000
# 3 -0.000236 -0.001121 0.005884 0.000000 0.004429 0.000000
# 4 0.000000 0.000000 0.000000 0.020108 0.000000 0.004200
# 5 0.004489 -0.005488 0.004429 0.000000 0.027094 0.000000
# 6 0.000000 0.000000 0.000000 0.004200 0.000000 0.024906
#
#
# Mechanical properties :
#
#
# Convention : Reuss Voigt Hill
#
# Bulk Modulus (GPa) = 40.83875 53.35778 47.09827
# Shear Modulus (GPa) = 42.47699 52.55506 47.51602
#
# Velocity S-wave (km/s) = 3.88125 4.31720 4.10502
# Velocity P-wave (km/s) = 5.87951 6.61618 6.25870
#
# Compressibility (1/GPa) = 0.02448655
#
# Stress axis : x y z
#
# Youngs Moduli (GPa) = 121.21154 59.41783 169.96583
#
# Poissons Ratio (x) = 0.11179 0.04009
# Poissons Ratio (y) = 0.22806 0.19055
# Poissons Ratio (z) = 0.02859 0.06661
#
# Static dielectric constant tensor:
#      x y z
#    x 2.237260 0.000000 0.125390 
#    y 0.000000 2.157360 0.000000 
#    z 0.125390 0.000000 2.367320 
# 
# From -- ./inp_files/87356.got.cif
#   From: 2010.05.17/outbox.cif.g08.bks.cpg/sg13_44_cif.got.tgz:87356.got - 2010.06.03 16:44:36.
