data_PCOD9228564
_publ_section_title
;
Structure prediction by ZEFSAII (Michael W. Deem and Ramdas Pophale) SiO2 
 PCOD9228564
Probable space group: P 2/C
;
_chemical_formula_sum "Si O2"
_cell_formula_units_Z 28
_cell_length_a 24.517337
_cell_length_b 10.505271
_cell_length_c 30.883316
_cell_angle_alpha 90.000000
_cell_angle_beta 170.484877
_cell_angle_gamma 90.000000
_cell_volume 1314.916455
_symmetry_space_group_name_H-M "P 2/C"
_symmetry_group_IT_number 13
_symmetry_cell_setting 'monoclinic'
loop_
_space_group_symop_operation_xyz
x,y,z
-x,y,1/2-z
-x,-y,-z
x,-y,1/2+z
loop_
_atom_site_type_symbol
_atom_site_label
_atom_site_fract_x
_atom_site_fract_y
_atom_site_fract_z
Si Si1 0.399645 0.392614 0.887087
Si Si2 0.500000 0.422390 0.250000
Si Si3 0.728283 0.508051 0.836218
Si Si4 0.500000 0.990198 0.750000
Si Si5 0.347512 0.283037 0.496598
Si Si6 0.629189 0.241262 0.477948
Si Si7 0.939119 0.778400 0.309903
Si Si8 0.388700 0.973957 0.066140
O O1 0.670705 0.336246 0.066599
O O2 0.114079 0.463743 0.636699
O O3 0.233943 0.274328 0.782646
O O4 0.500000 0.500000 0.000000
O O5 0.374538 0.494187 0.193655
O O6 0.800839 0.331631 0.499705
O O7 0.597074 0.377824 0.715056
O O8 0.555836 0.630109 0.679021
O O9 0.170980 0.901742 0.496037
O O10 0.549434 0.059768 0.834941
O O11 0.489123 0.140721 0.613303
O O12 0.000000 0.288260 0.250000
O O13 0.472292 0.115398 0.333277
O O14 0.000000 0.256194 0.750000
O O15 0.675176 0.212943 0.564771
O O16 0.000000 0.989204 0.750000
#
# Coordination Sequence:
#
# PCOD9228564 Si02
#       8
#     4   2   4   2   4   4   4   4
#     4  11  25  44  62  95 137 171 224 288 331 399
#     4   9  18  29  54 100 114 148 220 266 314 374
#     4  11  22  37  67  93 125 171 224 272 330 393
#     4  11  18  39  68 102 126 182 230 282 316 402
#     4  11  26  44  63  92 138 177 212 268 352 406
#     4  11  17  35  66  99 130 169 225 275 319 386
#     4  10  19  34  63  94 129 164 221 281 320 377
#     4  10  21  39  63  96 140 171 221 273 328 398
#
# _framework density 21.294127
#
# number of rings (size 3 to 8) (size 9 to 14) (size 15 to 20)
#    0.000    1.429    4.286    3.429    4.000    0.571 
#    2.571    3.571    0.000    0.000    0.000    0.000 
#    0.000    0.000    0.000    0.000    0.000    0.000 
#
# Total GULP energy -156296.656428 kJ/mol
# GULP energy per Si atom -5582.023444 kJ/mol
# Density = 2.124566 g / cm^3
# Si number density = 21.294127 Si / 1000 Ang^3
#
#
#
# Elastic Constant Matrix: (Units=GPa)
#
#
# Indices 1 2 3 4 5 6 
#
# 1 83.1622 8.9152 16.3053 0.0000 1.0662 0.0000
# 2 8.9152 92.5483 16.3189 0.0000 -3.2220 0.0000
# 3 16.3053 16.3189 54.7930 0.0000 -8.9431 0.0000
# 4 0.0000 0.0000 0.0000 -12.8125 0.0000 -1.2773
# 5 1.0662 -3.2220 -8.9431 0.0000 43.3113 0.0000
# 6 0.0000 0.0000 0.0000 -1.2773 0.0000 29.5130
#
#
#
# Elastic Compliance Matrix: (Units=1/GPa)
#
#
# Indices 1 2 3 4 5 6 
#
# 1 0.012856 -0.000602 -0.003834 0.000000 -0.001153 0.000000
# 2 -0.000602 0.011433 -0.003192 0.000000 0.000206 0.000000
# 3 -0.003834 -0.003192 0.021028 0.000000 0.004199 0.000000
# 4 0.000000 0.000000 0.000000 -0.077713 0.000000 -0.003363
# 5 -0.001153 0.000206 0.004199 0.000000 0.023999 0.000000
# 6 0.000000 0.000000 0.000000 -0.003363 0.000000 0.033738
#
#
# Mechanical properties :
#
#
# Convention : Reuss Voigt Hill
#
# Bulk Modulus (GPa) = 33.26836 34.84246 34.05541
# Shear Modulus (GPa) = 98.77838 24.59995 61.68916
#
# Velocity S-wave (km/s) = 6.81823 3.40258 5.38822
# Velocity P-wave (km/s) = 8.81145 5.64223 7.39852
#
# Compressibility (1/GPa) = 0.03005859
#
# Stress axis : x y z
#
# Youngs Moduli (GPa) = 77.78548 87.46412 47.55651
#
# Poissons Ratio (x) = 0.05269 0.18235
# Poissons Ratio (y) = 0.04686 0.15181
# Poissons Ratio (z) = 0.29826 0.27920
#
# Static dielectric constant tensor:
#      x y z
#    x 1.842910 0.000000 -0.005870 
#    y 0.000000 1.774230 0.000000 
#    z -0.005870 0.000000 1.786720 
# 
# From -- ./inp_files/97732.got.cif
#   From: 2010.05.17/outbox.cif.g08.bks.cpg/sg13_49_cif.got.tgz:97732.got - 2010.06.03 16:44:36.
