data_PCOD9228463
_publ_section_title
;
Structure prediction by ZEFSAII (Michael W. Deem and Ramdas Pophale) SiO2 
 PCOD9228463
Probable space group: P 2/C
;
_chemical_formula_sum "Si O2"
_cell_formula_units_Z 26
_cell_length_a 6.702006
_cell_length_b 8.259234
_cell_length_c 24.832523
_cell_angle_alpha 90.000000
_cell_angle_beta 77.737298
_cell_angle_gamma 90.000000
_cell_volume 1343.203444
_symmetry_space_group_name_H-M "P 2/C"
_symmetry_group_IT_number 13
_symmetry_cell_setting 'monoclinic'
loop_
_space_group_symop_operation_xyz
x,y,z
-x,y,1/2-z
-x,-y,-z
x,-y,1/2+z
loop_
_atom_site_type_symbol
_atom_site_label
_atom_site_fract_x
_atom_site_fract_y
_atom_site_fract_z
Si Si1 0.000000 0.547249 0.250000
Si Si2 0.450134 0.566189 0.090130
Si Si3 0.270312 0.260103 0.427278
Si Si4 0.944216 0.359652 0.356809
Si Si5 0.394758 0.251327 0.698792
Si Si6 0.668779 0.124557 0.968585
Si Si7 0.335014 0.937144 0.634973
O O1 0.945456 0.440800 0.200638
O O2 0.181895 0.659697 0.220169
O O3 0.612160 0.428248 0.066891
O O4 0.227283 0.481451 0.108861
O O5 0.503293 0.646043 0.145063
O O6 0.434728 0.713385 0.049334
O O7 0.198965 0.179662 0.487659
O O8 0.446418 0.142494 0.392911
O O9 0.096411 0.299270 0.394272
O O10 0.814545 0.208146 0.342239
O O11 0.500000 0.251681 0.750000
O O12 0.365222 0.071038 0.678445
O O13 0.758169 0.031847 0.911753
O O14 0.500000 0.000000 0.000000
#
# Coordination Sequence:
#
# PCOD9228463 Si02
#       7
#     2   4   4   4   4   4   4
#     4  10  22  36  52  76 104 136 174 216 258 306
#     4   9  19  36  54  79 109 134 175 222 253 302
#     4  10  19  34  57  77 101 142 175 205 262 318
#     4  10  21  36  54  78 107 138 175 216 259 310
#     4  10  20  36  56  76 103 138 173 213 262 310
#     4   9  18  35  55  77 108 140 171 216 264 305
#     4   9  21  36  51  78 108 131 170 222 258 303
#
# _framework density 19.356708999999999
#
# number of rings (size 3 to 8) (size 9 to 14) (size 15 to 20)
#    0.000    2.462    0.000    1.385    0.000    4.308 
#    0.000   10.769    0.000    0.000    0.000    0.000 
#    0.000    0.000    0.000    0.000    0.000    0.000 
#
# Total GULP energy -144996.294056 kJ/mol
# GULP energy per Si atom -5576.780541 kJ/mol
# Density = 1.931265 g / cm^3
# Si number density = 19.356709 Si / 1000 Ang^3
#
#
#
# Elastic Constant Matrix: (Units=GPa)
#
#
# Indices 1 2 3 4 5 6 
#
# 1 36.8889 26.3622 18.5007 0.0000 18.1600 0.0000
# 2 26.3622 114.7610 35.8440 0.0000 12.4705 0.0000
# 3 18.5007 35.8440 69.8722 0.0000 29.6406 0.0000
# 4 0.0000 0.0000 0.0000 13.1768 0.0000 -10.2266
# 5 18.1600 12.4705 29.6406 0.0000 25.5454 0.0000
# 6 0.0000 0.0000 0.0000 -10.2266 0.0000 -5.7670
#
#
#
# Elastic Compliance Matrix: (Units=1/GPa)
#
#
# Indices 1 2 3 4 5 6 
#
# 1 0.049984 -0.009937 0.009608 0.000000 -0.041830 0.000000
# 2 -0.009937 0.012414 -0.008199 0.000000 0.010517 0.000000
# 3 0.009608 -0.008199 0.033820 0.000000 -0.042070 0.000000
# 4 0.000000 0.000000 0.000000 0.031937 0.000000 -0.056634
# 5 -0.041830 0.010517 -0.042070 0.000000 0.112562 0.000000
# 6 0.000000 0.000000 0.000000 -0.056634 0.000000 -0.072972
#
#
# Mechanical properties :
#
#
# Convention : Reuss Voigt Hill
#
# Bulk Modulus (GPa) = 12.63232 42.54844 27.59038
# Shear Modulus (GPa) = 23.67533 15.97872 19.82702
#
# Velocity S-wave (km/s) = 3.50109 2.87625 3.20394
# Velocity P-wave (km/s) = 4.78369 5.74973 5.28881
#
# Compressibility (1/GPa) = 0.07916202
#
# Stress axis : x y z
#
# Youngs Moduli (GPa) = 20.00639 80.55125 29.56811
#
# Poissons Ratio (x) = 0.80047 -0.28409
# Poissons Ratio (y) = 0.19881 0.24242
# Poissons Ratio (z) = -0.19222 0.66043
#
# Static dielectric constant tensor:
#      x y z
#    x 1.653290 0.000000 0.000100 
#    y 0.000000 1.674270 0.000000 
#    z 0.000100 0.000000 1.713020 
# 
# From -- ./inp_files/90234.got.cif
#   From: 2010.05.17/outbox.cif.g08.bks.cpg/sg13_46_cif.got.tgz:90234.got - 2010.06.03 16:44:36.
