data_PCOD9228332
_publ_section_title
;
Structure prediction by ZEFSAII (Michael W. Deem and Ramdas Pophale) SiO2 
 PCOD9228332
Probable space group: P 2/C
;
_chemical_formula_sum "Si O2"
_cell_formula_units_Z 24
_cell_length_a 20.084745
_cell_length_b 9.586604
_cell_length_c 19.584266
_cell_angle_alpha 90.000000
_cell_angle_beta 20.599246
_cell_angle_gamma 90.000000
_cell_volume 1326.693040
_symmetry_space_group_name_H-M "P 2/C"
_symmetry_group_IT_number 13
_symmetry_cell_setting 'monoclinic'
loop_
_space_group_symop_operation_xyz
x,y,z
-x,y,1/2-z
-x,-y,-z
x,-y,1/2+z
loop_
_atom_site_type_symbol
_atom_site_label
_atom_site_fract_x
_atom_site_fract_y
_atom_site_fract_z
Si Si1 0.500000 0.739947 0.250000
Si Si2 0.893354 0.137814 0.423712
Si Si3 0.790259 0.607544 0.637708
Si Si4 0.601588 0.505050 0.548185
Si Si5 0.925030 0.364625 0.151139
Si Si6 0.118942 0.821781 0.065912
Si Si7 0.500000 0.730783 0.750000
O O1 0.324294 0.826044 0.387100
O O2 0.441297 0.634601 0.367369
O O3 0.000000 0.157962 0.250000
O O4 0.989336 0.241603 0.385501
O O5 0.927417 0.978063 0.413300
O O6 0.576181 0.564926 0.824108
O O7 0.818726 0.679566 0.683707
O O8 0.887807 0.701871 0.485102
O O9 0.898135 0.461144 0.537643
O O10 0.779600 0.463024 0.332157
O O11 0.621436 0.627560 0.585016
O O12 0.000000 0.795321 0.250000
O O13 0.343194 0.823551 0.865612
#
# Coordination Sequence:
#
# PCOD9228332 Si02
#       7
#     2   4   4   4   4   4   2
#     4  11  19  34  56  84 108 138 188 230 276 320
#     4  11  22  35  57  82 111 149 182 234 277 331
#     4  10  22  37  56  82 112 148 181 230 279 333
#     4  10  19  33  58  83 108 141 187 232 275 323
#     4  11  21  36  57  82 113 144 186 228 280 331
#     4  10  21  37  56  81 111 145 188 227 281 331
#     4   9  19  34  56  82 108 146 182 240 280 324
#
# _framework density 18.090093
#
# number of rings (size 3 to 8) (size 9 to 14) (size 15 to 20)
#    0.000    1.667    3.333    2.000    0.000    1.333 
#    0.000    0.000    0.000    1.000    0.000    0.000 
#    0.000    0.000    0.000    0.000    0.000    0.000 
#
# Total GULP energy -133657.892931 kJ/mol
# GULP energy per Si atom -5569.078872 kJ/mol
# Density = 1.804892 g / cm^3
# Si number density = 18.090093 Si / 1000 Ang^3
#
#
#
# Elastic Constant Matrix: (Units=GPa)
#
#
# Indices 1 2 3 4 5 6 
#
# 1 78.2546 29.7426 8.3833 0.0000 -8.0972 0.0000
# 2 29.7426 66.9541 9.4373 0.0000 -8.6202 0.0000
# 3 8.3833 9.4373 53.8947 0.0000 -4.2725 0.0000
# 4 0.0000 0.0000 0.0000 37.2117 0.0000 4.5069
# 5 -8.0972 -8.6202 -4.2725 0.0000 19.7719 0.0000
# 6 0.0000 0.0000 0.0000 4.5069 0.0000 12.0261
#
#
#
# Elastic Compliance Matrix: (Units=1/GPa)
#
#
# Indices 1 2 3 4 5 6 
#
# 1 0.015666 -0.006372 -0.001051 0.000000 0.003411 0.000000
# 2 -0.006372 0.018692 -0.001875 0.000000 0.005134 0.000000
# 3 -0.001051 -0.001875 0.019278 0.000000 0.002918 0.000000
# 4 0.000000 0.000000 0.000000 0.028151 0.000000 -0.010550
# 5 0.003411 0.005134 0.002918 0.000000 0.054843 0.000000
# 6 0.000000 0.000000 0.000000 -0.010550 0.000000 0.087106
#
#
# Mechanical properties :
#
#
# Convention : Reuss Voigt Hill
#
# Bulk Modulus (GPa) = 28.53856 32.69220 30.61538
# Shear Modulus (GPa) = 19.68423 23.90461 21.79442
#
# Velocity S-wave (km/s) = 3.30225 3.63908 3.47475
# Velocity P-wave (km/s) = 5.50907 5.98066 5.74970
#
# Compressibility (1/GPa) = 0.03504031
#
# Stress axis : x y z
#
# Youngs Moduli (GPa) = 63.83194 53.50013 51.87322
#
# Poissons Ratio (x) = 0.34091 0.05450
# Poissons Ratio (y) = 0.40674 0.09725
# Poissons Ratio (z) = 0.06707 0.10030
#
# Static dielectric constant tensor:
#      x y z
#    x 1.683440 0.000000 -0.022750 
#    y 0.000000 1.600630 0.000000 
#    z -0.022750 0.000000 1.643140 
# 
# From -- ./inp_files/73288.got.cif
#   From: 2010.05.17/outbox.cif.g08.bks.cpg/sg13_37_cif.got.tgz:73288.got - 2010.06.03 16:44:36.
