data_PCOD9228300
_publ_section_title
;
Structure prediction by ZEFSAII (Michael W. Deem and Ramdas Pophale) SiO2 
 PCOD9228300
Probable space group: P 2/C
;
_chemical_formula_sum "Si O2"
_cell_formula_units_Z 32
_cell_length_a 19.282244
_cell_length_b 13.673887
_cell_length_c 12.515366
_cell_angle_alpha 90.000000
_cell_angle_beta 31.322076
_cell_angle_gamma 90.000000
_cell_volume 1715.417118
_symmetry_space_group_name_H-M "P 2/C"
_symmetry_group_IT_number 13
_symmetry_cell_setting 'monoclinic'
loop_
_space_group_symop_operation_xyz
x,y,z
-x,y,1/2-z
-x,-y,-z
x,-y,1/2+z
loop_
_atom_site_type_symbol
_atom_site_label
_atom_site_fract_x
_atom_site_fract_y
_atom_site_fract_z
Si Si1 0.207263 0.739683 0.741218
Si Si2 0.655189 0.916057 0.070432
Si Si3 0.606119 0.502063 0.707430
Si Si4 0.314145 0.205919 0.764774
Si Si5 0.859223 0.368203 0.378013
Si Si6 0.555084 0.346126 0.442670
Si Si7 0.939697 0.104875 0.946571
Si Si8 0.190408 0.069339 0.762643
O O1 0.277554 0.828680 0.585600
O O2 0.123344 0.682517 0.761509
O O3 0.323333 0.673830 0.637696
O O4 0.131113 0.791933 0.938304
O O5 0.500000 0.918384 0.250000
O O6 0.675940 0.883112 0.164343
O O7 0.721519 0.015633 0.943071
O O8 0.500000 0.505426 0.750000
O O9 0.754460 0.457380 0.495420
O O10 0.607045 0.606457 0.764967
O O11 0.540434 0.424684 0.875170
O O12 0.460403 0.252086 0.555550
O O13 0.257055 0.161106 0.731821
O O14 0.217493 0.287880 0.945848
O O15 0.000000 0.392646 0.250000
O O16 0.000000 0.094812 0.750000
O O17 0.055071 0.100283 0.883480
O O18 0.845267 0.013530 0.101897
#
# Coordination Sequence:
#
# PCOD9228300 Si02
#       8
#     4   4   4   4   4   4   4   4
#     4  10  19  36  61  83 115 154 195 237 282 351
#     4  10  19  33  56  85 113 153 194 239 290 333
#     4  10  20  38  64  87 120 148 186 240 302 362
#     4  10  20  35  58  85 121 147 200 244 282 343
#     4  10  20  35  64  93 114 148 197 241 288 349
#     4  10  20  37  62  88 110 156 192 235 298 356
#     4  10  21  38  55  77 119 162 198 232 297 340
#     4  10  21  36  55  83 116 157 198 245 285 341
#
# _framework density 18.654356
#
# number of rings (size 3 to 8) (size 9 to 14) (size 15 to 20)
#    0.000    2.000    2.500    1.500    0.000    3.000 
#    4.500    1.250    0.000    0.000    0.000    0.000 
#    0.000    0.000    0.000    0.000    0.000    0.000 
#
# Total GULP energy -178364.913512 kJ/mol
# GULP energy per Si atom -5573.903547 kJ/mol
# Density = 1.861190 g / cm^3
# Si number density = 18.654356 Si / 1000 Ang^3
#
#
#
# Elastic Constant Matrix: (Units=GPa)
#
#
# Indices 1 2 3 4 5 6 
#
# 1 34.7356 56.4658 31.5880 0.0000 -51.5681 0.0000
# 2 56.4658 33.2029 10.4126 0.0000 19.0896 0.0000
# 3 31.5880 10.4126 40.8958 0.0000 2.8064 0.0000
# 4 0.0000 0.0000 0.0000 -6.4336 0.0000 -8.2238
# 5 -51.5681 19.0896 2.8064 0.0000 8.8748 0.0000
# 6 0.0000 0.0000 0.0000 -8.2238 0.0000 -18.3908
#
#
#
# Elastic Compliance Matrix: (Units=1/GPa)
#
#
# Indices 1 2 3 4 5 6 
#
# 1 0.000353 0.006869 -0.001174 0.000000 -0.012352 0.000000
# 2 0.006869 0.013651 -0.009716 0.000000 0.013623 0.000000
# 3 -0.001174 -0.009716 0.027463 0.000000 0.005393 0.000000
# 4 0.000000 0.000000 0.000000 -0.362817 0.000000 0.162240
# 5 -0.012352 0.013623 0.005393 0.000000 0.009900 0.000000
# 6 0.000000 0.000000 0.000000 0.162240 0.000000 -0.126924
#
#
# Mechanical properties :
#
#
# Convention : Reuss Voigt Hill
#
# Bulk Modulus (GPa) = 29.91803 33.97414 31.94609
# Shear Modulus (GPa) = -11.92778 -2.49873 -7.21326
#
# Velocity S-wave (km/s) = -2.53140 -1.15862 -1.96855
# Velocity P-wave (km/s) = 2.74389 4.05735 3.46346
#
# Compressibility (1/GPa) = 0.03342466
#
# Stress axis : x y z
#
# Youngs Moduli (GPa) = 2831.42999 73.25462 36.41249
#
# Poissons Ratio (x) = -0.50319 0.04275
# Poissons Ratio (y) = -19.44919 0.35379
# Poissons Ratio (z) = 3.32442 0.71176
#
# Static dielectric constant tensor:
#      x y z
#    x 1.615470 0.000000 0.029270 
#    y 0.000000 1.660360 0.000000 
#    z 0.029270 0.000000 1.602990 
# 
# From -- ./inp_files/39459.got.cif
#   From: 2010.05.17/outbox.cif.g08.bks.cpg/sg13_20_cif.got.tgz:39459.got - 2010.06.03 16:44:36.
