data_PCOD9228988
_publ_section_title
;
Structure prediction by ZEFSAII (Michael W. Deem and Ramdas Pophale) SiO2 
 PCOD9228988
Probable space group: P 2/C
;
_chemical_formula_sum "Si O2"
_cell_formula_units_Z 30
_cell_length_a 8.118839
_cell_length_b 16.754206
_cell_length_c 11.478874
_cell_angle_alpha 90.000000
_cell_angle_beta 105.885676
_cell_angle_gamma 90.000000
_cell_volume 1501.779782
_symmetry_space_group_name_H-M "P 2/C"
_symmetry_group_IT_number 13
_symmetry_cell_setting 'monoclinic'
loop_
_space_group_symop_operation_xyz
x,y,z
-x,y,1/2-z
-x,-y,-z
x,-y,1/2+z
loop_
_atom_site_type_symbol
_atom_site_label
_atom_site_fract_x
_atom_site_fract_y
_atom_site_fract_z
Si Si1 0.297001 0.897252 0.684044
Si Si2 0.858394 0.667666 0.119664
Si Si3 0.350371 0.794370 0.123505
Si Si4 0.896641 0.494081 0.106278
Si Si5 0.000000 0.799603 0.750000
Si Si6 0.818287 0.928711 0.278355
Si Si7 0.349267 0.829336 0.446726
Si Si8 0.874245 0.322923 0.030980
O O1 0.500000 0.891117 0.750000
O O2 0.278928 0.855949 0.555806
O O3 0.158490 0.853449 0.738055
O O4 0.243842 0.990046 0.676197
O O5 0.789573 0.576174 0.103189
O O6 0.734891 0.744037 0.104354
O O7 0.000000 0.673574 0.250000
O O8 0.958202 0.671677 0.016986
O O9 0.500000 0.792835 0.250000
O O10 0.203579 0.856125 0.134349
O O11 0.447223 0.820451 0.024853
O O12 0.270266 0.709404 0.083775
O O13 0.817881 0.406395 0.076368
O O14 0.000000 0.490101 0.250000
O O15 0.000000 0.500000 0.000000
O O16 0.921945 0.742109 0.636263
O O17 0.695306 0.900233 0.150731
O O18 0.000000 0.934938 0.250000
#
# Coordination Sequence:
#
# PCOD9228988 Si02
#       8
#     4   4   4   4   2   4   4   4
#     4  12  26  43  62  91 131 169 217 269 326 390
#     4  10  19  36  64  91 119 161 216 266 312 378
#     4  10  22  39  64  91 124 170 215 268 329 382
#     4   9  19  34  59  93 124 163 212 273 324 385
#     4  12  24  40  64  98 128 178 216 256 342 398
#     4  11  24  42  64  92 120 162 224 270 318 383
#     4  11  22  40  61  87 124 165 209 262 324 384
#     4  11  20  38  62  90 129 162 215 267 320 399
#
# _framework density 19.976299000000001
#
# number of rings (size 3 to 8) (size 9 to 14) (size 15 to 20)
#    0.000    1.333    2.667    4.800    0.000    3.733 
#    0.000    0.667    0.000    0.800    0.000    0.000 
#    0.000    0.000    0.000    0.000    0.000    0.000 
#
# Total GULP energy -167140.495153 kJ/mol
# GULP energy per Si atom -5571.349838 kJ/mol
# Density = 1.993083 g / cm^3
# Si number density = 19.976299 Si / 1000 Ang^3
#
#
#
# Elastic Constant Matrix: (Units=GPa)
#
#
# Indices 1 2 3 4 5 6 
#
# 1 87.8122 37.6744 16.6183 0.0000 -11.5237 0.0000
# 2 37.6744 151.7462 43.1388 0.0000 -0.8740 0.0000
# 3 16.6183 43.1388 64.7034 0.0000 -11.0835 0.0000
# 4 0.0000 0.0000 0.0000 -7.2973 0.0000 36.0781
# 5 -11.5237 -0.8740 -11.0835 0.0000 27.0365 0.0000
# 6 0.0000 0.0000 0.0000 36.0781 0.0000 -44.8686
#
#
#
# Elastic Compliance Matrix: (Units=1/GPa)
#
#
# Indices 1 2 3 4 5 6 
#
# 1 0.013570 -0.003227 -0.000388 0.000000 0.005521 0.000000
# 2 -0.003227 0.009012 -0.005770 0.000000 -0.003450 0.000000
# 3 -0.000388 -0.005770 0.020803 0.000000 0.008176 0.000000
# 4 0.000000 0.000000 0.000000 0.046056 0.000000 0.037033
# 5 0.005521 -0.003450 0.008176 0.000000 0.042580 0.000000
# 6 0.000000 0.000000 0.000000 0.037033 0.000000 0.007490
#
#
# Mechanical properties :
#
#
# Convention : Reuss Voigt Hill
#
# Bulk Modulus (GPa) = 40.62817 55.45832 48.04325
# Shear Modulus (GPa) = 30.03234 8.76280 19.39757
#
# Velocity S-wave (km/s) = 3.88157 2.09669 3.11951
# Velocity P-wave (km/s) = 6.36170 5.80378 6.08913
#
# Compressibility (1/GPa) = 0.02461346
#
# Stress axis : x y z
#
# Youngs Moduli (GPa) = 73.68998 110.96742 48.07105
#
# Poissons Ratio (x) = 0.35809 0.01866
# Poissons Ratio (y) = 0.23780 0.27739
# Poissons Ratio (z) = 0.02861 0.64032
#
# Static dielectric constant tensor:
#      x y z
#    x 1.758480 0.000000 -0.016240 
#    y 0.000000 1.720940 0.000000 
#    z -0.016240 0.000000 1.767950 
# 
# From -- ./inp_files/30455.got.cif
#   From: 2010.05.17/outbox.cif.g08.bks.cpg/sg13_16_cif.got.tgz:30455.got - 2010.06.03 16:44:36.
