data_PCOD9228452
_publ_section_title
;
Structure prediction by ZEFSAII (Michael W. Deem and Ramdas Pophale) SiO2 
 PCOD9228452
Probable space group: P 2/C
;
_chemical_formula_sum "Si O2"
_cell_formula_units_Z 24
_cell_length_a 7.989809
_cell_length_b 7.541602
_cell_length_c 18.047921
_cell_angle_alpha 90.000000
_cell_angle_beta 119.590776
_cell_angle_gamma 90.000000
_cell_volume 945.657677
_symmetry_space_group_name_H-M "P 2/C"
_symmetry_group_IT_number 13
_symmetry_cell_setting 'monoclinic'
loop_
_space_group_symop_operation_xyz
x,y,z
-x,y,1/2-z
-x,-y,-z
x,-y,1/2+z
loop_
_atom_site_type_symbol
_atom_site_label
_atom_site_fract_x
_atom_site_fract_y
_atom_site_fract_z
Si Si1 0.697712 0.273093 0.204756
Si Si2 0.861882 0.894968 0.025270
Si Si3 0.489666 0.931301 0.399877
Si Si4 0.231313 0.237517 0.657865
Si Si5 0.745822 0.629100 0.876907
Si Si6 0.220703 0.641375 0.314487
O O1 0.481744 0.341628 0.170095
O O2 0.801183 0.284524 0.308347
O O3 0.778036 0.430829 0.170686
O O4 0.663243 0.081166 0.160974
O O5 0.814536 0.723389 0.966051
O O6 0.661977 0.001388 0.991851
O O7 0.019819 0.849224 0.121467
O O8 0.000000 0.000000 0.000000
O O9 0.626276 0.887574 0.357464
O O10 0.363345 0.759361 0.395659
O O11 0.204940 0.422844 0.609216
O O12 0.307590 0.308295 0.752716
O O13 0.000000 0.683299 0.250000
#
# Coordination Sequence:
#
# PCOD9228452 Si02
#       6
#     4   4   4   4   4   4
#     4   9  19  32  55  80 108 141 184 229 270 325
#     4   9  19  29  52  88 115 138 175 236 286 328
#     4  10  20  35  59  82 109 143 187 236 282 321
#     4  10  19  34  56  84 111 141 187 232 277 332
#     4   9  16  30  52  84 107 139 174 231 282 313
#     4  11  23  37  55  80 114 151 189 227 276 334
#
# _framework density 25.379163999999999
#
# number of rings (size 3 to 8) (size 9 to 14) (size 15 to 20)
#    0.000    2.333    1.667    1.000   11.667    0.667 
#    0.000    0.833    0.000    4.000    0.000    0.000 
#    0.000    0.000    0.000    0.000    0.000    0.000 
#
# Total GULP energy -133799.805480 kJ/mol
# GULP energy per Si atom -5574.991895 kJ/mol
# Density = 2.532140 g / cm^3
# Si number density = 25.379164 Si / 1000 Ang^3
#
#
#
# Elastic Constant Matrix: (Units=GPa)
#
#
# Indices 1 2 3 4 5 6 
#
# 1 59.8150 27.6404 7.1769 0.0000 26.0873 0.0000
# 2 27.6404 108.4239 29.7245 0.0000 14.0002 0.0000
# 3 7.1769 29.7245 51.4159 0.0000 14.4030 0.0000
# 4 0.0000 0.0000 0.0000 19.3217 0.0000 10.6843
# 5 26.0873 14.0002 14.4030 0.0000 31.0777 0.0000
# 6 0.0000 0.0000 0.0000 10.6843 0.0000 15.4538
#
#
#
# Elastic Compliance Matrix: (Units=1/GPa)
#
#
# Indices 1 2 3 4 5 6 
#
# 1 0.029761 -0.006094 0.006433 0.000000 -0.025218 0.000000
# 2 -0.006094 0.012353 -0.007085 0.000000 0.002834 0.000000
# 3 0.006433 -0.007085 0.026737 0.000000 -0.014600 0.000000
# 4 0.000000 0.000000 0.000000 0.083788 0.000000 -0.057928
# 5 -0.025218 0.002834 -0.014600 0.000000 0.058836 0.000000
# 6 0.000000 0.000000 0.000000 -0.057928 0.000000 0.104759
#
#
# Mechanical properties :
#
#
# Convention : Reuss Voigt Hill
#
# Bulk Modulus (GPa) = 18.06374 38.74869 28.40622
# Shear Modulus (GPa) = 14.36047 23.51150 18.93599
#
# Velocity S-wave (km/s) = 2.38131 3.04700 2.73449
# Velocity P-wave (km/s) = 3.83326 5.26118 4.60293
#
# Compressibility (1/GPa) = 0.05535952
#
# Stress axis : x y z
#
# Youngs Moduli (GPa) = 33.60100 80.95196 37.40141
#
# Poissons Ratio (x) = 0.49335 -0.24062
# Poissons Ratio (y) = 0.20478 0.26498
# Poissons Ratio (z) = -0.21617 0.57353
#
# Static dielectric constant tensor:
#      x y z
#    x 2.067190 0.000000 -0.058180 
#    y 0.000000 4.051670 0.000000 
#    z -0.058180 0.000000 1.887250 
# 
# From -- ./inp_files/84857.got.cif
#   From: 2010.05.17/outbox.cif.g08.bks.cpg/sg13_43_cif.got.tgz:84857.got - 2010.06.03 16:44:36.
