data_PCOD9228551
_publ_section_title
;
Structure prediction by ZEFSAII (Michael W. Deem and Ramdas Pophale) SiO2 
 PCOD9228551
Probable space group: P 2/C
;
_chemical_formula_sum "Si O2"
_cell_formula_units_Z 28
_cell_length_a 10.248027
_cell_length_b 11.083243
_cell_length_c 14.132320
_cell_angle_alpha 90.000000
_cell_angle_beta 116.980873
_cell_angle_gamma 90.000000
_cell_volume 1430.458634
_symmetry_space_group_name_H-M "P 2/C"
_symmetry_group_IT_number 13
_symmetry_cell_setting 'monoclinic'
loop_
_space_group_symop_operation_xyz
x,y,z
-x,y,1/2-z
-x,-y,-z
x,-y,1/2+z
loop_
_atom_site_type_symbol
_atom_site_label
_atom_site_fract_x
_atom_site_fract_y
_atom_site_fract_z
Si Si1 0.709746 0.671810 0.135200
Si Si2 0.145713 0.334915 0.020543
Si Si3 0.824103 0.935011 0.188576
Si Si4 0.192272 0.076010 0.492581
Si Si5 0.165003 0.580364 0.142373
Si Si6 0.865175 0.897321 0.861784
Si Si7 0.581496 0.268572 0.870594
O O1 0.756201 0.805691 0.187551
O O2 0.796890 0.582193 0.233903
O O3 0.537632 0.668341 0.101493
O O4 0.755234 0.655515 0.041278
O O5 0.148247 0.448774 0.091802
O O6 0.186639 0.217315 0.095526
O O7 0.978392 0.337929 0.925822
O O8 0.000000 0.919354 0.250000
O O9 0.772467 0.968405 0.067030
O O10 0.792311 0.053064 0.242189
O O11 0.324141 0.167582 0.545981
O O12 0.038305 0.128539 0.403515
O O13 0.152670 0.016769 0.579662
O O14 0.302081 0.638424 0.133517
O O15 0.500000 0.217913 0.750000
#
# Coordination Sequence:
#
# PCOD9228551 Si02
#       7
#     4   4   4   4   4   4   4
#     4  11  22  39  63  87 119 158 204 236 297 370
#     4  11  21  39  62  89 114 152 203 257 291 339
#     4  10  20  34  60  90 120 157 194 246 299 355
#     4  10  19  35  59  89 121 154 194 241 299 354
#     4  10  22  39  61  85 116 155 202 250 293 347
#     4  10  19  34  60  90 122 151 192 252 298 343
#     4  10  21  38  61  86 121 164 196 237 293 366
#
# _framework density 19.574144
#
# number of rings (size 3 to 8) (size 9 to 14) (size 15 to 20)
#    0.000    1.714    2.857    3.000    2.000    1.143 
#    2.571    1.429    0.000    0.000    0.000    0.000 
#    0.000    0.000    0.000    0.000    0.000    0.000 
#
# Total GULP energy -156089.210226 kJ/mol
# GULP energy per Si atom -5574.614651 kJ/mol
# Density = 1.952959 g / cm^3
# Si number density = 19.574144 Si / 1000 Ang^3
#
#
#
# Elastic Constant Matrix: (Units=GPa)
#
#
# Indices 1 2 3 4 5 6 
#
# 1 72.8596 -8.5501 8.8415 0.0000 -15.4805 0.0000
# 2 -8.5501 29.9309 4.1192 0.0000 -8.0735 0.0000
# 3 8.8415 4.1192 37.0104 0.0000 -7.1745 0.0000
# 4 0.0000 0.0000 0.0000 32.9086 0.0000 -5.3373
# 5 -15.4805 -8.0735 -7.1745 0.0000 26.0631 0.0000
# 6 0.0000 0.0000 0.0000 -5.3373 0.0000 20.4446
#
#
#
# Elastic Compliance Matrix: (Units=1/GPa)
#
#
# Indices 1 2 3 4 5 6 
#
# 1 0.017761 0.008835 -0.002800 0.000000 0.012515 0.000000
# 2 0.008835 0.040988 -0.003374 0.000000 0.017015 0.000000
# 3 -0.002800 -0.003374 0.029091 0.000000 0.005300 0.000000
# 4 0.000000 0.000000 0.000000 0.031731 0.000000 0.008284
# 5 0.012515 0.017015 0.005300 0.000000 0.052531 0.000000
# 6 0.000000 0.000000 0.000000 0.008284 0.000000 0.051075
#
#
# Mechanical properties :
#
#
# Convention : Reuss Voigt Hill
#
# Bulk Modulus (GPa) = 10.73409 16.51356 13.62383
# Shear Modulus (GPa) = 20.08759 24.90928 22.49844
#
# Velocity S-wave (km/s) = 3.20696 3.57117 3.39395
# Velocity P-wave (km/s) = 4.38275 5.04569 4.72586
#
# Compressibility (1/GPa) = 0.09316110
#
# Stress axis : x y z
#
# Youngs Moduli (GPa) = 56.30437 24.39733 34.37463
#
# Poissons Ratio (x) = -0.21554 0.09625
# Poissons Ratio (y) = -0.49743 0.11598
# Poissons Ratio (z) = 0.15766 0.08232
#
# Static dielectric constant tensor:
#      x y z
#    x 1.717560 0.000000 -0.007130 
#    y 0.000000 1.687670 0.000000 
#    z -0.007130 0.000000 1.702870 
# 
# From -- ./inp_files/47326.got.cif
#   From: 2010.05.17/outbox.cif.g08.bks.cpg/sg13_24_cif.got.tgz:47326.got - 2010.06.03 16:44:36.
