data_PCOD9228296
_publ_section_title
;
Structure prediction by ZEFSAII (Michael W. Deem and Ramdas Pophale) SiO2 
 PCOD9228296
Probable space group: P 2/C
;
_chemical_formula_sum "Si O2"
_cell_formula_units_Z 32
_cell_length_a 16.721869
_cell_length_b 8.937899
_cell_length_c 13.928973
_cell_angle_alpha 90.000000
_cell_angle_beta 132.509464
_cell_angle_gamma 90.000000
_cell_volume 1534.632869
_symmetry_space_group_name_H-M "P 2/C"
_symmetry_group_IT_number 13
_symmetry_cell_setting 'monoclinic'
loop_
_space_group_symop_operation_xyz
x,y,z
-x,y,1/2-z
-x,-y,-z
x,-y,1/2+z
loop_
_atom_site_type_symbol
_atom_site_label
_atom_site_fract_x
_atom_site_fract_y
_atom_site_fract_z
Si Si1 0.223290 0.356109 0.972957
Si Si2 0.210535 0.691540 0.029914
Si Si3 0.674673 0.153147 0.718475
Si Si4 0.006531 0.676884 0.525782
Si Si5 0.895786 0.819224 0.724735
Si Si6 0.571021 0.771955 0.943562
Si Si7 0.103840 0.163913 0.725208
Si Si8 0.353539 0.850993 0.688566
O O1 0.201924 0.521682 0.989069
O O2 0.338418 0.353502 0.007047
O O3 0.248611 0.248967 0.083703
O O4 0.133387 0.278246 0.834289
O O5 0.308998 0.729245 0.181471
O O6 0.103013 0.721014 0.005549
O O7 0.203782 0.791411 0.928152
O O8 0.583926 0.182852 0.564214
O O9 0.784879 0.155530 0.745719
O O10 0.661793 0.993950 0.758880
O O11 0.992750 0.770105 0.417107
O O12 0.000000 0.500000 0.500000
O O13 0.103024 0.728882 0.674354
O O14 0.000000 0.760702 0.750000
O O15 0.914374 0.994059 0.758245
O O16 0.447538 0.748687 0.812144
O O17 0.609689 0.891003 0.891873
#
# Coordination Sequence:
#
# PCOD9228296 Si02
#       8
#     4   4   4   4   4   4   4   4
#     4   9  18  34  53  75 106 144 175 214 268 320
#     4  10  21  34  53  76 107 142 182 222 269 323
#     4  10  19  33  56  84 107 138 182 225 266 320
#     4  10  21  35  51  75 108 142 180 226 272 325
#     4  10  21  36  52  76 108 141 179 229 274 314
#     4   8  18  34  58  77 112 138 175 217 268 319
#     4  10  20  34  54  80 107 139 185 228 268 318
#     4   9  17  34  60  77 110 143 174 218 273 318
#
# _framework density 20.851891999999999
#
# number of rings (size 3 to 8) (size 9 to 14) (size 15 to 20)
#    0.750    1.750    0.000    2.250    0.000    2.000 
#    0.000    0.625    5.500    0.000    0.000    0.000 
#    0.000    0.000    0.000    0.000    0.000    0.000 
#
# Total GULP energy -178189.312536 kJ/mol
# GULP energy per Si atom -5568.416017 kJ/mol
# Density = 2.080443 g / cm^3
# Si number density = 20.851892 Si / 1000 Ang^3
#
#
#
# Elastic Constant Matrix: (Units=GPa)
#
#
# Indices 1 2 3 4 5 6 
#
# 1 26.4750 -2.3707 24.6470 0.0000 -1.9768 0.0000
# 2 -2.3707 64.0162 58.5145 0.0000 -16.7784 0.0000
# 3 24.6470 58.5145 199.2712 0.0000 -16.3199 0.0000
# 4 0.0000 0.0000 0.0000 23.5976 0.0000 -14.4284
# 5 -1.9768 -16.7784 -16.3199 0.0000 17.8377 0.0000
# 6 0.0000 0.0000 0.0000 -14.4284 0.0000 21.2410
#
#
#
# Elastic Compliance Matrix: (Units=1/GPa)
#
#
# Indices 1 2 3 4 5 6 
#
# 1 0.047573 0.011951 -0.008692 0.000000 0.008560 0.000000
# 2 0.011951 0.029230 -0.008325 0.000000 0.021202 0.000000
# 3 -0.008692 -0.008325 0.008451 0.000000 -0.001062 0.000000
# 4 0.000000 0.000000 0.000000 0.072480 0.000000 0.049234
# 5 0.008560 0.021202 -0.001062 0.000000 0.075981 0.000000
# 6 0.000000 0.000000 0.000000 0.049234 0.000000 0.080522
#
#
# Mechanical properties :
#
#
# Convention : Reuss Voigt Hill
#
# Bulk Modulus (GPa) = 13.31188 50.14931 31.73059
# Shear Modulus (GPa) = 14.30982 26.46671 20.38826
#
# Velocity S-wave (km/s) = 2.62250 3.56655 3.13032
# Velocity P-wave (km/s) = 3.94561 6.40803 5.32122
#
# Compressibility (1/GPa) = 0.07512088
#
# Stress axis : x y z
#
# Youngs Moduli (GPa) = 21.02038 34.21139 118.32979
#
# Poissons Ratio (x) = -0.40885 1.02855
# Poissons Ratio (y) = -0.25121 0.98508
# Poissons Ratio (z) = 0.18271 0.28481
#
# Static dielectric constant tensor:
#      x y z
#    x 1.779330 0.000000 -0.021640 
#    y 0.000000 1.701180 0.000000 
#    z -0.021640 0.000000 1.822560 
# 
# From -- ./inp_files/40531.got.cif
#   From: 2010.05.17/outbox.cif.g08.bks.cpg/sg13_21_cif.got.tgz:40531.got - 2010.06.03 16:44:36.
