data_PCOD9228872
_publ_section_title
;
Structure prediction by ZEFSAII (Michael W. Deem and Ramdas Pophale) SiO2 
 PCOD9228872
Probable space group: P 2/C
;
_chemical_formula_sum "Si O2"
_cell_formula_units_Z 30
_cell_length_a 16.881862
_cell_length_b 6.561570
_cell_length_c 28.865597
_cell_angle_alpha 90.000000
_cell_angle_beta 29.070179
_cell_angle_gamma 90.000000
_cell_volume 1553.596235
_symmetry_space_group_name_H-M "P 2/C"
_symmetry_group_IT_number 13
_symmetry_cell_setting 'monoclinic'
loop_
_space_group_symop_operation_xyz
x,y,z
-x,y,1/2-z
-x,-y,-z
x,-y,1/2+z
loop_
_atom_site_type_symbol
_atom_site_label
_atom_site_fract_x
_atom_site_fract_y
_atom_site_fract_z
Si Si1 0.000000 0.968455 0.250000
Si Si2 0.928644 0.073527 0.600512
Si Si3 0.625497 0.357831 0.723387
Si Si4 0.808250 0.872871 0.262393
Si Si5 0.490732 0.594983 0.115009
Si Si6 0.126770 0.686079 0.930974
Si Si7 0.689753 0.835858 0.946756
Si Si8 0.446676 0.792231 0.578075
O O1 0.125203 0.112167 0.158314
O O2 0.093489 0.837665 0.240754
O O3 0.771762 0.199807 0.660663
O O4 0.918936 0.098628 0.660513
O O5 0.088657 0.174434 0.495406
O O6 0.910609 0.841399 0.592140
O O7 0.500000 0.272766 0.750000
O O8 0.529999 0.402801 0.819625
O O9 0.704806 0.567480 0.663336
O O10 0.673023 0.702761 0.321117
O O11 0.704191 0.077738 0.324643
O O12 0.496651 0.375909 0.088906
O O13 0.642966 0.722486 0.017566
O O14 0.000000 0.500000 0.000000
O O15 0.612357 0.716856 0.942252
O O16 0.594427 0.050974 0.995322
#
# Coordination Sequence:
#
# PCOD9228872 Si02
#       8
#     2   4   4   4   4   4   4   4
#     4  10  20  38  50  80 122 138 176 240 274 314
#     4   9  18  36  58  80 106 157 186 219 293 349
#     4  10  21  36  54  83 117 143 189 245 276 326
#     4   9  19  35  57  79 109 149 183 225 273 338
#     4  10  19  36  59  79 103 150 196 216 278 339
#     4   9  18  35  57  80 109 142 188 235 285 340
#     4   9  19  34  53  79 108 141 178 227 282 326
#     4   9  17  34  58  76 103 142 183 228 268 333
#
# _framework density 19.310036
#
# number of rings (size 3 to 8) (size 9 to 14) (size 15 to 20)
#    0.000    2.667    0.000    2.000    0.000    0.533 
#    9.600    6.000    0.000    0.000    0.000    0.000 
#    0.000    0.000    0.000    0.000    0.000    0.000 
#
# Total GULP energy -167249.539477 kJ/mol
# GULP energy per Si atom -5574.984649 kJ/mol
# Density = 1.926609 g / cm^3
# Si number density = 19.310036 Si / 1000 Ang^3
#
#
#
# Elastic Constant Matrix: (Units=GPa)
#
#
# Indices 1 2 3 4 5 6 
#
# 1 84.2751 14.3821 39.2962 0.0000 17.3763 0.0000
# 2 14.3821 51.5893 8.3865 0.0000 7.8038 0.0000
# 3 39.2962 8.3865 103.9177 0.0000 28.6443 0.0000
# 4 0.0000 0.0000 0.0000 11.6894 0.0000 6.3383
# 5 17.3763 7.8038 28.6443 0.0000 20.6768 0.0000
# 6 0.0000 0.0000 0.0000 6.3383 0.0000 14.0021
#
#
#
# Elastic Compliance Matrix: (Units=1/GPa)
#
#
# Indices 1 2 3 4 5 6 
#
# 1 0.015477 -0.002677 -0.003769 0.000000 -0.006775 0.000000
# 2 -0.002677 0.021059 0.001429 0.000000 -0.007678 0.000000
# 3 -0.003769 0.001429 0.016515 0.000000 -0.020251 0.000000
# 4 0.000000 0.000000 0.000000 0.113374 0.000000 -0.051321
# 5 -0.006775 -0.007678 -0.020251 0.000000 0.085009 0.000000
# 6 0.000000 0.000000 0.000000 -0.051321 0.000000 0.094649
#
#
# Mechanical properties :
#
#
# Convention : Reuss Voigt Hill
#
# Bulk Modulus (GPa) = 23.24646 40.43463 31.84055
# Shear Modulus (GPa) = 13.49686 21.12148 17.30917
#
# Velocity S-wave (km/s) = 2.64665 3.31087 2.99721
# Velocity P-wave (km/s) = 4.62648 5.96665 5.33878
#
# Compressibility (1/GPa) = 0.04301730
#
# Stress axis : x y z
#
# Youngs Moduli (GPa) = 64.61145 47.48479 60.55119
#
# Poissons Ratio (x) = 0.12713 0.22823
# Poissons Ratio (y) = 0.17298 -0.08655
# Poissons Ratio (z) = 0.24353 -0.06787
#
# Static dielectric constant tensor:
#      x y z
#    x 1.672690 0.000000 0.001400 
#    y 0.000000 1.676260 0.000000 
#    z 0.001400 0.000000 1.703640 
# 
# From -- ./inp_files/97164.got.cif
#   From: 2010.05.17/outbox.cif.g08.bks.cpg/sg13_49_cif.got.tgz:97164.got - 2010.06.03 16:44:36.
