data_PCOD9228251
_publ_section_title
;
Structure prediction by ZEFSAII (Michael W. Deem and Ramdas Pophale) SiO2 
 PCOD9228251
Probable space group: P 2/C
;
_chemical_formula_sum "Si O2"
_cell_formula_units_Z 28
_cell_length_a 18.627293
_cell_length_b 6.953850
_cell_length_c 15.469238
_cell_angle_alpha 90.000000
_cell_angle_beta 34.476012
_cell_angle_gamma 90.000000
_cell_volume 1134.246207
_symmetry_space_group_name_H-M "P 2/C"
_symmetry_group_IT_number 13
_symmetry_cell_setting 'monoclinic'
loop_
_space_group_symop_operation_xyz
x,y,z
-x,y,1/2-z
-x,-y,-z
x,-y,1/2+z
loop_
_atom_site_type_symbol
_atom_site_label
_atom_site_fract_x
_atom_site_fract_y
_atom_site_fract_z
Si Si1 0.512017 0.223967 0.463618
Si Si2 0.944220 0.592617 0.901149
Si Si3 0.837140 0.352574 0.750644
Si Si4 0.724024 0.135319 0.144090
Si Si5 0.307227 0.688354 0.285243
Si Si6 0.000500 0.031901 0.852305
Si Si7 0.380381 0.355627 0.417922
O O1 0.450275 0.342079 0.605044
O O2 0.439358 0.252174 0.444370
O O3 0.500000 0.000000 0.500000
O O4 0.656515 0.248723 0.289832
O O5 0.979419 0.809973 0.893995
O O6 0.000000 0.559225 0.750000
O O7 0.030773 0.461852 0.875262
O O8 0.789921 0.575835 0.054938
O O9 0.772734 0.335325 0.722867
O O10 0.740740 0.449854 0.915160
O O11 0.873473 0.133756 0.740290
O O12 0.691193 0.907753 0.182373
O O13 0.673709 0.213436 0.102261
O O14 0.873704 0.141226 0.006547
O O15 0.000000 0.046294 0.750000
O O16 0.500000 0.458351 0.250000
#
# Coordination Sequence:
#
# PCOD9228251 Si02
#       7
#     4   4   4   4   4   4   4
#     4   8  15  29  50  80 112 149 189 232 286 331
#     4  10  22  35  53  83 113 153 187 234 288 337
#     4  11  20  35  59  84 111 151 196 229 290 347
#     4   9  16  29  50  80 116 147 186 232 280 334
#     4   9  19  34  54  82 114 151 185 243 286 331
#     4  10  19  33  54  84 118 148 189 242 279 335
#     4   9  17  29  53  84 108 150 194 232 281 344
#
# _framework density 24.685998999999999
#
# number of rings (size 3 to 8) (size 9 to 14) (size 15 to 20)
#    0.000    2.571    1.429    0.857    0.000    2.286 
#    0.000    0.000    0.000    1.714    3.714    0.000 
#    0.000    0.000    0.000    0.000    0.000    0.000 
#
# Total GULP energy -156245.393382 kJ/mol
# GULP energy per Si atom -5580.192621 kJ/mol
# Density = 2.462981 g / cm^3
# Si number density = 24.685999 Si / 1000 Ang^3
#
#
#
# Elastic Constant Matrix: (Units=GPa)
#
#
# Indices 1 2 3 4 5 6 
#
# 1 63.3343 33.1796 11.7135 0.0000 16.6316 0.0000
# 2 33.1796 67.8568 18.3048 0.0000 -0.5192 0.0000
# 3 11.7135 18.3048 184.2590 0.0000 19.0958 0.0000
# 4 0.0000 0.0000 0.0000 32.6825 0.0000 4.0641
# 5 16.6316 -0.5192 19.0958 0.0000 36.7074 0.0000
# 6 0.0000 0.0000 0.0000 4.0641 0.0000 -7.2994
#
#
#
# Elastic Compliance Matrix: (Units=1/GPa)
#
#
# Indices 1 2 3 4 5 6 
#
# 1 0.025560 -0.012840 0.000919 0.000000 -0.012241 0.000000
# 2 -0.012840 0.021631 -0.002079 0.000000 0.007205 0.000000
# 3 0.000919 -0.002079 0.005942 0.000000 -0.003537 0.000000
# 4 0.000000 0.000000 0.000000 0.028616 0.000000 0.015933
# 5 -0.012241 0.007205 -0.003537 0.000000 0.034730 0.000000
# 6 0.000000 0.000000 0.000000 0.015933 0.000000 -0.128126
#
#
# Mechanical properties :
#
#
# Convention : Reuss Voigt Hill
#
# Bulk Modulus (GPa) = 39.78761 49.09400 44.44081
# Shear Modulus (GPa) = 202.17709 29.23490 115.70599
#
# Velocity S-wave (km/s) = 9.05965 3.44506 6.85367
# Velocity P-wave (km/s) = 11.20664 5.97956 8.98176
#
# Compressibility (1/GPa) = 0.02513345
#
# Stress axis : x y z
#
# Youngs Moduli (GPa) = 39.12366 46.22987 168.29832
#
# Poissons Ratio (x) = 0.59357 -0.15470
# Poissons Ratio (y) = 0.50233 0.34995
# Poissons Ratio (z) = -0.03596 0.09613
#
# Static dielectric constant tensor:
#      x y z
#    x 1.886490 0.000000 0.000310 
#    y 0.000000 2.006480 0.000000 
#    z 0.000310 0.000000 2.156710 
# 
# From -- ./inp_files/70457.got.cif
#   From: 2010.05.17/outbox.cif.g08.bks.cpg/sg13_36_cif.got.tgz:70457.got - 2010.06.03 16:44:36.
