data_PCOD9228888
_publ_section_title
;
Structure prediction by ZEFSAII (Michael W. Deem and Ramdas Pophale) SiO2 
 PCOD9228888
Probable space group: P 2/C
;
_chemical_formula_sum "Si O2"
_cell_formula_units_Z 22
_cell_length_a 12.049926
_cell_length_b 12.183958
_cell_length_c 10.303504
_cell_angle_alpha 90.000000
_cell_angle_beta 53.376481
_cell_angle_gamma 90.000000
_cell_volume 1214.065400
_symmetry_space_group_name_H-M "P 2/C"
_symmetry_group_IT_number 13
_symmetry_cell_setting 'monoclinic'
loop_
_space_group_symop_operation_xyz
x,y,z
-x,y,1/2-z
-x,-y,-z
x,-y,1/2+z
loop_
_atom_site_type_symbol
_atom_site_label
_atom_site_fract_x
_atom_site_fract_y
_atom_site_fract_z
Si Si1 0.374338 0.738298 0.033170
Si Si2 0.595461 0.028453 0.057471
Si Si3 0.155038 0.398102 0.108557
Si Si4 0.500000 0.574209 0.750000
Si Si5 0.614960 0.786856 0.056512
Si Si6 0.736388 0.547847 0.233023
O O1 0.525892 0.761270 0.989433
O O2 0.284863 0.671405 0.199556
O O3 0.323646 0.859170 0.028009
O O4 0.397704 0.654456 0.899083
O O5 0.500000 0.049144 0.250000
O O6 0.669660 0.911875 0.027008
O O7 0.500000 0.000000 0.000000
O O8 0.209054 0.475992 0.186131
O O9 0.000000 0.364360 0.250000
O O10 0.262074 0.298356 0.022597
O O11 0.165875 0.456045 0.960742
O O12 0.411671 0.498804 0.713952
O O13 0.500000 0.775395 0.250000
#
# Coordination Sequence:
#
# PCOD9228888 Si02
#       6
#     4   4   4   2   4   4
#     4  11  19  33  58  89 119 144 185 248 298 333
#     4   9  19  32  54  87 116 143 180 240 298 337
#     4  12  25  40  58  83 121 161 195 234 288 355
#     4  12  20  32  58  94 120 148 188 248 296 336
#     4  10  19  36  59  85 112 147 193 241 290 337
#     4  12  23  37  58  86 120 155 196 238 293 345
#
# _framework density 18.120934999999999
#
# number of rings (size 3 to 8) (size 9 to 14) (size 15 to 20)
#    0.000    1.091    6.364    2.182    0.000    0.000 
#    0.000    0.000    0.000    2.182    0.000    0.000 
#    0.000    0.000    0.000    0.000    0.000    0.000 
#
# Total GULP energy -122718.533367 kJ/mol
# GULP energy per Si atom -5578.115153 kJ/mol
# Density = 1.807969 g / cm^3
# Si number density = 18.120935 Si / 1000 Ang^3
#
#
#
# Elastic Constant Matrix: (Units=GPa)
#
#
# Indices 1 2 3 4 5 6 
#
# 1 46.6208 35.7092 38.0610 0.0000 7.3340 0.0000
# 2 35.7092 144.5324 53.1664 0.0000 0.2390 0.0000
# 3 38.0610 53.1664 102.0873 0.0000 15.0710 0.0000
# 4 0.0000 0.0000 0.0000 24.6075 0.0000 10.7367
# 5 7.3340 0.2390 15.0710 0.0000 32.5103 0.0000
# 6 0.0000 0.0000 0.0000 10.7367 0.0000 10.3048
#
#
#
# Elastic Compliance Matrix: (Units=1/GPa)
#
#
# Indices 1 2 3 4 5 6 
#
# 1 0.033315 -0.004730 -0.009503 0.000000 -0.003075 0.000000
# 2 -0.004730 0.009372 -0.003505 0.000000 0.002623 0.000000
# 3 -0.009503 -0.003505 0.015934 0.000000 -0.005217 0.000000
# 4 0.000000 0.000000 0.000000 0.074511 0.000000 -0.077634
# 5 -0.003075 0.002623 -0.005217 0.000000 0.033852 0.000000
# 6 0.000000 0.000000 0.000000 -0.077634 0.000000 0.177930
#
#
# Mechanical properties :
#
#
# Convention : Reuss Voigt Hill
#
# Bulk Modulus (GPa) = 43.20591 60.79039 51.99815
# Shear Modulus (GPa) = 12.88308 24.57145 18.72726
#
# Velocity S-wave (km/s) = 2.66926 3.68634 3.21823
# Velocity P-wave (km/s) = 5.77882 7.19296 6.52432
#
# Compressibility (1/GPa) = 0.02314498
#
# Stress axis : x y z
#
# Youngs Moduli (GPa) = 30.01659 106.69595 62.75853
#
# Poissons Ratio (x) = 0.50469 0.59641
# Poissons Ratio (y) = 0.14198 0.21996
# Poissons Ratio (z) = 0.28526 0.37395
#
# Static dielectric constant tensor:
#      x y z
#    x 1.611470 0.000000 0.054460 
#    y 0.000000 1.674300 0.000000 
#    z 0.054460 0.000000 1.642070 
# 
# From -- ./inp_files/29110.got.cif
#   From: 2010.05.17/outbox.cif.g08.bks.cpg/sg13_15_cif.got.tgz:29110.got - 2010.06.03 16:44:36.
