data_PCOD9228476
_publ_section_title
;
Structure prediction by ZEFSAII (Michael W. Deem and Ramdas Pophale) SiO2 
 PCOD9228476
Probable space group: P 2/C
;
_chemical_formula_sum "Si O2"
_cell_formula_units_Z 24
_cell_length_a 18.730945
_cell_length_b 9.954291
_cell_length_c 11.517849
_cell_angle_alpha 90.000000
_cell_angle_beta 23.248677
_cell_angle_gamma 90.000000
_cell_volume 847.682933
_symmetry_space_group_name_H-M "P 2/C"
_symmetry_group_IT_number 13
_symmetry_cell_setting 'monoclinic'
loop_
_space_group_symop_operation_xyz
x,y,z
-x,y,1/2-z
-x,-y,-z
x,-y,1/2+z
loop_
_atom_site_type_symbol
_atom_site_label
_atom_site_fract_x
_atom_site_fract_y
_atom_site_fract_z
Si Si1 0.263704 0.935784 0.477473
Si Si2 0.363073 0.593431 0.607313
Si Si3 0.864206 0.643630 0.353022
Si Si4 0.680136 0.298387 0.905407
Si Si5 0.778760 0.352825 0.419218
Si Si6 0.313625 0.002771 0.164451
O O1 0.173459 0.789776 0.599141
O O2 0.222580 0.029155 0.426606
O O3 0.226150 0.974568 0.668127
O O4 0.485836 0.931368 0.140726
O O5 0.305522 0.436853 0.685826
O O6 0.240458 0.661286 0.691274
O O7 0.570316 0.613791 0.264691
O O8 0.321761 0.650388 0.794782
O O9 0.837305 0.709835 0.268656
O O10 0.889295 0.484411 0.287820
O O11 0.000000 0.686647 0.250000
O O12 0.500000 0.315370 0.250000
O O13 0.664011 0.158637 0.865285
#
# Coordination Sequence:
#
# PCOD9228476 Si02
#       6
#     4   4   4   4   4   4
#     4  10  20  32  53  88 123 158 195 259 314 350
#     4  10  19  34  57  84 118 153 204 254 298 367
#     4  11  24  37  58  88 125 165 198 245 315 376
#     4  11  20  35  56  89 119 157 197 252 308 356
#     4  10  20  34  56  88 116 155 206 252 305 355
#     4  10  20  32  52  85 126 150 201 254 308 353
#
# _framework density 28.312470999999999
#
# number of rings (size 3 to 8) (size 9 to 14) (size 15 to 20)
#    0.000    1.667    5.000    3.500    2.333    4.000 
#    0.000    0.000    0.000    1.000    0.000   10.500 
#    0.000    0.000    0.000    0.000    0.000    0.000 
#
# Total GULP energy -134377.035100 kJ/mol
# GULP energy per Si atom -5599.043129 kJ/mol
# Density = 2.824803 g / cm^3
# Si number density = 28.312471 Si / 1000 Ang^3
#
#
#
# Elastic Constant Matrix: (Units=GPa)
#
#
# Indices 1 2 3 4 5 6 
#
# 1 186.7554 19.7641 35.3032 0.0000 19.9116 0.0000
# 2 19.7641 141.0596 2.4999 0.0000 2.4545 0.0000
# 3 35.3032 2.4999 68.7959 0.0000 -8.0119 0.0000
# 4 0.0000 0.0000 0.0000 13.3596 0.0000 6.4963
# 5 19.9116 2.4545 -8.0119 0.0000 43.0910 0.0000
# 6 0.0000 0.0000 0.0000 6.4963 0.0000 32.1591
#
#
#
# Elastic Compliance Matrix: (Units=1/GPa)
#
#
# Indices 1 2 3 4 5 6 
#
# 1 0.006539 -0.000786 -0.003755 0.000000 -0.003675 0.000000
# 2 -0.000786 0.007197 0.000139 0.000000 -0.000021 0.000000
# 3 -0.003755 0.000139 0.017028 0.000000 0.004893 0.000000
# 4 0.000000 0.000000 0.000000 0.083006 0.000000 -0.016768
# 5 -0.003675 -0.000021 0.004893 0.000000 0.025816 0.000000
# 6 0.000000 0.000000 0.000000 -0.016768 0.000000 0.034483
#
#
# Mechanical properties :
#
#
# Convention : Reuss Voigt Hill
#
# Bulk Modulus (GPa) = 45.53580 56.86058 51.19819
# Shear Modulus (GPa) = 26.28917 40.32486 33.30701
#
# Velocity S-wave (km/s) = 3.05050 3.77806 3.43360
# Velocity P-wave (km/s) = 5.34093 6.25767 5.81739
#
# Compressibility (1/GPa) = 0.02196074
#
# Stress axis : x y z
#
# Youngs Moduli (GPa) = 152.91757 138.94304 58.72824
#
# Poissons Ratio (x) = 0.10918 0.22054
# Poissons Ratio (y) = 0.12016 -0.00818
# Poissons Ratio (z) = 0.57424 -0.01935
#
# Static dielectric constant tensor:
#      x y z
#    x 2.258950 0.000000 0.029460 
#    y 0.000000 2.136680 0.000000 
#    z 0.029460 0.000000 2.283630 
# 
# From -- ./inp_files/39106.got.cif
#   From: 2010.05.17/outbox.cif.g08.bks.cpg/sg13_20_cif.got.tgz:39106.got - 2010.06.03 16:44:36.
