data_PCOD9228057
_publ_section_title
;
Structure prediction by ZEFSAII (Michael W. Deem and Ramdas Pophale) SiO2 
 PCOD9228057
Probable space group: P 2/C
;
_chemical_formula_sum "Si O2"
_cell_formula_units_Z 30
_cell_length_a 16.262998
_cell_length_b 5.991735
_cell_length_c 30.688043
_cell_angle_alpha 90.000000
_cell_angle_beta 152.100675
_cell_angle_gamma 90.000000
_cell_volume 1399.244002
_symmetry_space_group_name_H-M "P 2/C"
_symmetry_group_IT_number 13
_symmetry_cell_setting 'monoclinic'
loop_
_space_group_symop_operation_xyz
x,y,z
-x,y,1/2-z
-x,-y,-z
x,-y,1/2+z
loop_
_atom_site_type_symbol
_atom_site_label
_atom_site_fract_x
_atom_site_fract_y
_atom_site_fract_z
Si Si1 0.576685 0.048460 0.431644
Si Si2 0.345007 0.429181 0.370232
Si Si3 0.358691 0.604619 0.606167
Si Si4 0.074998 0.692851 0.003603
Si Si5 0.500000 0.175376 0.250000
Si Si6 0.687367 0.667933 0.226855
Si Si7 0.804056 0.052905 0.855737
Si Si8 0.614398 0.807735 0.530038
O O1 0.464510 0.241179 0.403247
O O2 0.676758 0.181569 0.440628
O O3 0.435209 0.872244 0.347056
O O4 0.689887 0.921857 0.521747
O O5 0.236051 0.544546 0.280149
O O6 0.477373 0.621142 0.449080
O O7 0.268711 0.310892 0.377869
O O8 0.211799 0.416285 0.534423
O O9 0.366010 0.676658 0.659936
O O10 0.549337 0.502059 0.684581
O O11 0.931878 0.842179 0.911849
O O12 0.000000 0.500000 0.000000
O O13 0.168042 0.851066 0.082762
O O14 0.396032 0.030983 0.236311
O O15 0.818453 0.765468 0.324429
O O16 0.500000 0.000000 0.500000
#
# Coordination Sequence:
#
# PCOD9228057 Si02
#       8
#     4   4   4   4   2   4   4   4
#     4   9  17  28  47  73 104 140 181 224 273 331
#     4   8  15  25  44  72 105 143 171 210 276 329
#     4  11  21  33  52  74 102 141 197 243 288 340
#     4  11  24  39  51  71 105 148 190 246 296 342
#     4  12  20  36  56  74  98 138 206 240 282 342
#     4  10  19  32  51  76 101 141 192 240 270 338
#     4  11  23  36  53  73 100 143 198 245 296 337
#     4   8  13  25  42  69 108 146 168 200 273 342
#
# _framework density 21.440151
#
# number of rings (size 3 to 8) (size 9 to 14) (size 15 to 20)
#    0.000    2.133    2.667    1.600    0.000    0.000 
#    0.000    0.000    0.000    0.000    0.000    0.000 
#    0.000    0.000    0.000 1350.000    0.000    0.000 
#
# Total GULP energy -167233.169858 kJ/mol
# GULP energy per Si atom -5574.438995 kJ/mol
# Density = 2.139135 g / cm^3
# Si number density = 21.440151 Si / 1000 Ang^3
#
#
#
# Elastic Constant Matrix: (Units=GPa)
#
#
# Indices 1 2 3 4 5 6 
#
# 1 55.3556 27.5562 38.9762 0.0000 -31.4778 0.0000
# 2 27.5562 87.6031 22.5485 0.0000 -17.2141 0.0000
# 3 38.9762 22.5485 58.2850 0.0000 -21.3222 0.0000
# 4 0.0000 0.0000 0.0000 42.6283 0.0000 -21.0890
# 5 -31.4778 -17.2141 -21.3222 0.0000 31.5018 0.0000
# 6 0.0000 0.0000 0.0000 -21.0890 0.0000 42.7324
#
#
#
# Elastic Compliance Matrix: (Units=1/GPa)
#
#
# Indices 1 2 3 4 5 6 
#
# 1 0.061310 -0.004844 -0.023501 0.000000 0.042710 0.000000
# 2 -0.004844 0.013630 -0.001435 0.000000 0.001636 0.000000
# 3 -0.023501 -0.001435 0.032630 0.000000 -0.002181 0.000000
# 4 0.000000 0.000000 0.000000 0.031036 0.000000 0.015317
# 5 0.042710 0.001636 -0.002181 0.000000 0.073839 0.000000
# 6 0.000000 0.000000 0.000000 0.015317 0.000000 0.030960
#
#
# Mechanical properties :
#
#
# Convention : Reuss Voigt Hill
#
# Bulk Modulus (GPa) = 20.82911 42.15617 31.49264
# Shear Modulus (GPa) = 15.67556 30.85003 23.26280
#
# Velocity S-wave (km/s) = 2.70688 3.79739 3.29752
# Velocity P-wave (km/s) = 4.41652 6.23953 5.40544
#
# Compressibility (1/GPa) = 0.04800973
#
# Stress axis : x y z
#
# Youngs Moduli (GPa) = 16.31049 73.36892 30.64702
#
# Poissons Ratio (x) = 0.35541 0.72023
# Poissons Ratio (y) = 0.07901 0.04398
# Poissons Ratio (z) = 0.38331 0.10528
#
# Static dielectric constant tensor:
#      x y z
#    x 1.844940 0.000000 -0.041230 
#    y 0.000000 1.844520 0.000000 
#    z -0.041230 0.000000 1.842010 
# 
# From -- ./inp_files/69053.got.cif
#   From: 2010.05.17/outbox.cif.g08.bks.cpg/sg13_35_cif.got.tgz:69053.got - 2010.06.03 16:44:36.
