data_PCOD9228145
_publ_section_title
;
Structure prediction by ZEFSAII (Michael W. Deem and Ramdas Pophale) SiO2 
 PCOD9228145
Probable space group: P 2/C
;
_chemical_formula_sum "Si O2"
_cell_formula_units_Z 32
_cell_length_a 20.875484
_cell_length_b 5.257984
_cell_length_c 18.403762
_cell_angle_alpha 90.000000
_cell_angle_beta 143.977106
_cell_angle_gamma 90.000000
_cell_volume 1188.009341
_symmetry_space_group_name_H-M "P 2/C"
_symmetry_group_IT_number 13
_symmetry_cell_setting 'monoclinic'
loop_
_space_group_symop_operation_xyz
x,y,z
-x,y,1/2-z
-x,-y,-z
x,-y,1/2+z
loop_
_atom_site_type_symbol
_atom_site_label
_atom_site_fract_x
_atom_site_fract_y
_atom_site_fract_z
Si Si1 0.276434 0.226661 0.103903
Si Si2 0.130489 0.093606 0.550302
Si Si3 0.920989 0.747011 0.346351
Si Si4 0.072667 0.529549 0.886595
Si Si5 0.598328 0.204409 0.099788
Si Si6 0.642278 0.731200 0.394552
Si Si7 0.273502 0.978131 0.404603
Si Si8 0.461365 0.573564 0.583606
O O1 0.156699 0.293959 0.955014
O O2 0.333787 0.487636 0.132672
O O3 0.224021 0.121595 0.131183
O O4 0.351987 0.994889 0.144126
O O5 0.134723 0.269706 0.625781
O O6 0.143577 0.248148 0.487607
O O7 0.013663 0.960099 0.439527
O O8 0.835752 0.825568 0.206950
O O9 0.987558 0.514740 0.374970
O O10 0.000000 0.580730 0.750000
O O11 0.581660 0.437900 0.028775
O O12 0.699036 0.075039 0.151404
O O13 0.575396 0.308271 0.160052
O O14 0.500000 0.000000 0.000000
O O15 0.544293 0.639736 0.359036
O O16 0.730470 0.796078 0.540477
O O17 0.374110 0.795029 0.520226
#
# Coordination Sequence:
#
# PCOD9228145 Si02
#       8
#     4   4   4   4   4   4   4   4
#     4  11  22  37  56  81 115 154 205 253 304 361
#     4  10  23  42  57  82 124 172 214 259 310 376
#     4  10  23  39  59  87 120 174 212 255 313 378
#     4  11  23  36  60  85 120 162 217 272 318 358
#     4   8  16  30  49  81 126 159 190 238 318 377
#     4  11  20  34  57  87 120 151 197 253 309 364
#     4  10  19  32  57  87 122 158 203 256 306 374
#     4   9  17  30  52  86 126 156 188 248 316 376
#
# _framework density 26.935815000000002
#
# number of rings (size 3 to 8) (size 9 to 14) (size 15 to 20)
#    0.000    2.000    2.500    1.125    1.750    3.000 
#    0.000    0.000    0.000    0.000    0.000    0.875 
#   11.250    0.000    0.000    0.000    0.000    0.000 
#
# Total GULP energy -178565.372897 kJ/mol
# GULP energy per Si atom -5580.167903 kJ/mol
# Density = 2.687451 g / cm^3
# Si number density = 26.935815 Si / 1000 Ang^3
#
#
#
# Elastic Constant Matrix: (Units=GPa)
#
#
# Indices 1 2 3 4 5 6 
#
# 1 106.3400 59.2821 33.7990 0.0000 -11.0358 0.0000
# 2 59.2821 152.5139 33.0647 0.0000 -11.0649 0.0000
# 3 33.7990 33.0647 56.6038 0.0000 -15.8041 0.0000
# 4 0.0000 0.0000 0.0000 31.0367 0.0000 -4.3872
# 5 -11.0358 -11.0649 -15.8041 0.0000 54.3266 0.0000
# 6 0.0000 0.0000 0.0000 -4.3872 0.0000 45.8825
#
#
#
# Elastic Compliance Matrix: (Units=1/GPa)
#
#
# Indices 1 2 3 4 5 6 
#
# 1 0.013441 -0.003986 -0.005618 0.000000 0.000284 0.000000
# 2 -0.003986 0.008693 -0.002645 0.000000 0.000192 0.000000
# 3 -0.005618 -0.002645 0.024051 0.000000 0.005317 0.000000
# 4 0.000000 0.000000 0.000000 0.032661 0.000000 0.003123
# 5 0.000284 0.000192 0.005317 0.000000 0.020051 0.000000
# 6 0.000000 0.000000 0.000000 0.003123 0.000000 0.022093
#
#
# Mechanical properties :
#
#
# Convention : Reuss Voigt Hill
#
# Bulk Modulus (GPa) = 46.10928 63.08328 54.59628
# Shear Modulus (GPa) = 32.74032 38.86997 35.80514
#
# Velocity S-wave (km/s) = 3.49018 3.80288 3.64988
# Velocity P-wave (km/s) = 5.77903 6.53860 6.17051
#
# Compressibility (1/GPa) = 0.02168761
#
# Stress axis : x y z
#
# Youngs Moduli (GPa) = 74.39920 115.03053 41.57896
#
# Poissons Ratio (x) = 0.45850 0.23360
# Poissons Ratio (y) = 0.29655 0.10996
# Poissons Ratio (z) = 0.41799 0.30421
#
# Static dielectric constant tensor:
#      x y z
#    x 2.227550 0.000000 0.030050 
#    y 0.000000 2.141110 0.000000 
#    z 0.030050 0.000000 2.167120 
# 
# From -- ./inp_files/70313.got.cif
#   From: 2010.05.17/outbox.cif.g08.bks.cpg/sg13_36_cif.got.tgz:70313.got - 2010.06.03 16:44:36.
