data_PCOD9228515
_publ_section_title
;
Structure prediction by ZEFSAII (Michael W. Deem and Ramdas Pophale) SiO2 
 PCOD9228515
Probable space group: P 2/C
;
_chemical_formula_sum "Si O2"
_cell_formula_units_Z 28
_cell_length_a 18.766836
_cell_length_b 12.076184
_cell_length_c 15.841901
_cell_angle_alpha 90.000000
_cell_angle_beta 22.092044
_cell_angle_gamma 90.000000
_cell_volume 1350.287762
_symmetry_space_group_name_H-M "P 2/C"
_symmetry_group_IT_number 13
_symmetry_cell_setting 'monoclinic'
loop_
_space_group_symop_operation_xyz
x,y,z
-x,y,1/2-z
-x,-y,-z
x,-y,1/2+z
loop_
_atom_site_type_symbol
_atom_site_label
_atom_site_fract_x
_atom_site_fract_y
_atom_site_fract_z
Si Si1 0.951180 0.002448 0.205750
Si Si2 0.712657 0.119945 0.215420
Si Si3 0.818876 0.444417 0.653393
Si Si4 0.005546 0.751009 0.845104
Si Si5 0.548663 0.053107 0.577726
Si Si6 0.558386 0.706390 0.097637
Si Si7 0.441245 0.360093 0.096404
O O1 0.000000 0.990470 0.250000
O O2 0.036891 0.121990 0.083465
O O3 0.726613 0.010895 0.436934
O O4 0.064118 0.905030 0.034883
O O5 0.639773 0.082346 0.386995
O O6 0.643498 0.244876 0.279211
O O7 0.606865 0.040123 0.265497
O O8 0.711056 0.543441 0.723347
O O9 0.000000 0.500000 0.500000
O O10 0.884408 0.343401 0.522689
O O11 0.650888 0.394340 0.897123
O O12 0.219388 0.729576 0.639403
O O13 0.000000 0.742551 0.750000
O O14 0.463112 0.170979 0.701137
O O15 0.500000 0.649693 0.250000
O O16 0.532109 0.652086 0.035281
#
# Coordination Sequence:
#
# PCOD9228515 Si02
#       7
#     4   4   4   4   4   4   4
#     4  10  22  36  59  92 120 148 195 245 299 352
#     4  10  21  37  57  85 120 156 190 231 290 362
#     4  11  22  40  61  84 117 152 199 248 291 341
#     4  10  21  35  59  92 116 150 189 248 301 344
#     4   9  21  33  54  85 119 157 180 228 294 352
#     4  10  19  34  58  91 121 143 188 247 299 350
#     4  10  23  39  59  88 115 155 201 240 291 355
#
# _framework density 20.736321
#
# number of rings (size 3 to 8) (size 9 to 14) (size 15 to 20)
#    0.000    2.000    1.429    1.286   12.000    1.143 
#    0.000    0.714    0.000    1.714    0.000    0.000 
#    0.000    0.000    0.000    0.000    0.000    0.000 
#
# Total GULP energy -156302.806967 kJ/mol
# GULP energy per Si atom -5582.243106 kJ/mol
# Density = 2.068912 g / cm^3
# Si number density = 20.736321 Si / 1000 Ang^3
#
#
#
# Elastic Constant Matrix: (Units=GPa)
#
#
# Indices 1 2 3 4 5 6 
#
# 1 57.5101 7.2443 6.1069 0.0000 -13.7433 0.0000
# 2 7.2443 92.0592 27.8750 0.0000 1.0459 0.0000
# 3 6.1069 27.8750 68.5376 0.0000 -15.1029 0.0000
# 4 0.0000 0.0000 0.0000 42.4978 0.0000 -3.3684
# 5 -13.7433 1.0459 -15.1029 0.0000 35.1467 0.0000
# 6 0.0000 0.0000 0.0000 -3.3684 0.0000 17.6141
#
#
#
# Elastic Compliance Matrix: (Units=1/GPa)
#
#
# Indices 1 2 3 4 5 6 
#
# 1 0.019450 -0.001859 0.000786 0.000000 0.007999 0.000000
# 2 -0.001859 0.012820 -0.005846 0.000000 -0.003621 0.000000
# 3 0.000786 -0.005846 0.018783 0.000000 0.008552 0.000000
# 4 0.000000 0.000000 0.000000 0.023893 0.000000 0.004569
# 5 0.007999 -0.003621 0.008552 0.000000 0.035363 0.000000
# 6 0.000000 0.000000 0.000000 0.004569 0.000000 0.057646
#
#
# Mechanical properties :
#
#
# Convention : Reuss Voigt Hill
#
# Bulk Modulus (GPa) = 26.87190 33.39548 30.13369
# Shear Modulus (GPa) = 25.74666 30.84378 28.29522
#
# Velocity S-wave (km/s) = 3.52749 3.86090 3.69795
# Velocity P-wave (km/s) = 5.43856 6.00127 5.72683
#
# Compressibility (1/GPa) = 0.03721359
#
# Stress axis : x y z
#
# Youngs Moduli (GPa) = 51.41265 78.00154 53.23998
#
# Poissons Ratio (x) = 0.14503 -0.04183
# Poissons Ratio (y) = 0.09559 0.31126
# Poissons Ratio (z) = -0.04039 0.45602
#
# Static dielectric constant tensor:
#      x y z
#    x 1.786750 0.000000 -0.019970 
#    y 0.000000 1.761260 0.000000 
#    z -0.019970 0.000000 1.780450 
# 
# From -- ./inp_files/70653.got.cif
#   From: 2010.05.17/outbox.cif.g08.bks.cpg/sg13_36_cif.got.tgz:70653.got - 2010.06.03 16:44:36.
