data_PCOD9228203
_publ_section_title
;
Structure prediction by ZEFSAII (Michael W. Deem and Ramdas Pophale) SiO2 
 PCOD9228203
Probable space group: P 2/C
;
_chemical_formula_sum "Si O2"
_cell_formula_units_Z 24
_cell_length_a 19.425494
_cell_length_b 8.194637
_cell_length_c 13.784008
_cell_angle_alpha 90.000000
_cell_angle_beta 153.783503
_cell_angle_gamma 90.000000
_cell_volume 969.321413
_symmetry_space_group_name_H-M "P 2/C"
_symmetry_group_IT_number 13
_symmetry_cell_setting 'monoclinic'
loop_
_space_group_symop_operation_xyz
x,y,z
-x,y,1/2-z
-x,-y,-z
x,-y,1/2+z
loop_
_atom_site_type_symbol
_atom_site_label
_atom_site_fract_x
_atom_site_fract_y
_atom_site_fract_z
Si Si1 0.506318 0.939558 0.653590
Si Si2 0.569216 0.471974 0.694819
Si Si3 0.989990 0.697098 0.625665
Si Si4 0.294251 0.263714 0.385491
Si Si5 0.854133 0.657328 0.003797
Si Si6 0.700540 0.149537 0.782569
O O1 0.397476 0.101570 0.529885
O O2 0.671355 0.001381 0.819670
O O3 0.429936 0.850346 0.465983
O O4 0.500000 0.855619 0.750000
O O5 0.500000 0.500000 0.500000
O O6 0.410918 0.418348 0.549016
O O7 0.704429 0.606210 0.881424
O O8 0.667617 0.306278 0.807368
O O9 0.927425 0.510846 0.549657
O O10 0.857987 0.821521 0.422961
O O11 0.000000 0.747177 0.750000
O O12 0.148900 0.716974 0.771344
O O13 0.220637 0.256417 0.184254
O O14 0.000000 0.727122 0.250000
#
# Coordination Sequence:
#
# PCOD9228203 Si02
#       6
#     4   4   4   4   4   4
#     4  10  20  36  56  74 101 147 191 226 273 328
#     4   8  16  33  57  79 107 142 178 222 276 336
#     4  10  19  33  53  77 107 140 177 228 284 332
#     4  10  19  33  55  81 108 143 187 227 274 337
#     4   9  18  34  54  80 112 142 176 228 286 336
#     4   9  19  35  53  77 107 138 179 231 273 323
#
# _framework density 24.759588999999998
#
# number of rings (size 3 to 8) (size 9 to 14) (size 15 to 20)
#    0.000    2.667    0.000    1.500    0.000    2.000 
#    0.000    7.500    0.000   16.000    0.000    0.000 
#    0.000    0.000    0.000    0.000    0.000    0.000 
#
# Total GULP energy -133949.392665 kJ/mol
# GULP energy per Si atom -5581.224694 kJ/mol
# Density = 2.470323 g / cm^3
# Si number density = 24.759589 Si / 1000 Ang^3
#
#
#
# Elastic Constant Matrix: (Units=GPa)
#
#
# Indices 1 2 3 4 5 6 
#
# 1 167.8779 20.7603 45.1409 0.0000 42.4015 0.0000
# 2 20.7603 33.2107 3.4100 0.0000 5.7282 0.0000
# 3 45.1409 3.4100 126.5969 0.0000 15.3312 0.0000
# 4 0.0000 0.0000 0.0000 25.4939 0.0000 6.2251
# 5 42.4015 5.7282 15.3312 0.0000 62.0394 0.0000
# 6 0.0000 0.0000 0.0000 6.2251 0.0000 20.7889
#
#
#
# Elastic Compliance Matrix: (Units=1/GPa)
#
#
# Indices 1 2 3 4 5 6 
#
# 1 0.008265 -0.004122 -0.002266 0.000000 -0.004708 0.000000
# 2 -0.004122 0.032684 0.000633 0.000000 -0.000357 0.000000
# 3 -0.002266 0.000633 0.008772 0.000000 -0.000678 0.000000
# 4 0.000000 0.000000 0.000000 0.042319 0.000000 -0.012672
# 5 -0.004708 -0.000357 -0.000678 0.000000 0.019537 0.000000
# 6 0.000000 0.000000 0.000000 -0.012672 0.000000 0.051897
#
#
# Mechanical properties :
#
#
# Convention : Reuss Voigt Hill
#
# Bulk Modulus (GPa) = 26.17054 51.81199 38.99127
# Shear Modulus (GPa) = 26.63521 38.88940 32.76230
#
# Velocity S-wave (km/s) = 3.28343 3.96748 3.64155
# Velocity P-wave (km/s) = 4.99673 6.47760 5.78475
#
# Compressibility (1/GPa) = 0.03821090
#
# Stress axis : x y z
#
# Youngs Moduli (GPa) = 120.99452 30.59603 113.99871
#
# Poissons Ratio (x) = 0.12611 0.25830
# Poissons Ratio (y) = 0.49871 -0.07211
# Poissons Ratio (z) = 0.27415 -0.01935
#
# Static dielectric constant tensor:
#      x y z
#    x 1.984370 0.000000 0.032970 
#    y 0.000000 2.107750 0.000000 
#    z 0.032970 0.000000 2.109990 
# 
# From -- ./inp_files/39229.got.cif
#   From: 2010.05.17/outbox.cif.g08.bks.cpg/sg13_20_cif.got.tgz:39229.got - 2010.06.03 16:44:36.
