data_PCOD9228657
_publ_section_title
;
Structure prediction by ZEFSAII (Michael W. Deem and Ramdas Pophale) SiO2 
 PCOD9228657
Probable space group: P 2/C
;
_chemical_formula_sum "Si O2"
_cell_formula_units_Z 26
_cell_length_a 5.332372
_cell_length_b 13.862103
_cell_length_c 18.723779
_cell_angle_alpha 90.000000
_cell_angle_beta 122.268964
_cell_angle_gamma 90.000000
_cell_volume 1170.261602
_symmetry_space_group_name_H-M "P 2/C"
_symmetry_group_IT_number 13
_symmetry_cell_setting 'monoclinic'
loop_
_space_group_symop_operation_xyz
x,y,z
-x,y,1/2-z
-x,-y,-z
x,-y,1/2+z
loop_
_atom_site_type_symbol
_atom_site_label
_atom_site_fract_x
_atom_site_fract_y
_atom_site_fract_z
Si Si1 0.928479 0.571318 0.097431
Si Si2 0.553706 0.538882 0.892656
Si Si3 0.111947 0.924423 0.617479
Si Si4 0.633616 0.087812 0.927195
Si Si5 0.854521 0.208407 0.574083
Si Si6 0.000000 0.109848 0.250000
Si Si7 0.541530 0.757885 0.876961
O O1 0.746816 0.513542 0.129549
O O2 0.934733 0.685241 0.114091
O O3 0.247799 0.526345 0.129070
O O4 0.743254 0.555330 0.995045
O O5 0.508957 0.645857 0.855860
O O6 0.197681 0.811828 0.626543
O O7 0.809158 0.936406 0.527468
O O8 0.091709 0.952190 0.695934
O O9 0.358805 0.987569 0.614271
O O10 0.330845 0.141913 0.899660
O O11 0.858337 0.155734 0.915679
O O12 0.633249 0.227263 0.473422
O O13 0.256484 0.181267 0.314636
#
# Coordination Sequence:
#
# PCOD9228657 Si02
#       7
#     4   4   4   4   4   2   4
#     4   9  17  30  51  80 112 144 182 227 283 342
#     4   9  18  30  50  78 114 149 177 224 286 339
#     4  10  23  36  55  80 119 154 199 242 298 359
#     4  10  21  36  59  83 115 157 192 245 307 349
#     4  10  19  35  58  85 116 151 193 243 297 348
#     4  12  22  38  54  80 118 164 198 248 282 374
#     4  10  22  34  54  80 121 155 193 236 291 356
#
# _framework density 22.217252999999999
#
# number of rings (size 3 to 8) (size 9 to 14) (size 15 to 20)
#    0.000    2.154    1.538    1.385    4.308    5.538 
#    0.000    0.000    0.000    0.000    0.000    1.077 
#    0.000    0.000    0.000    0.000    0.000    0.000 
#
# Total GULP energy -145366.114402 kJ/mol
# GULP energy per Si atom -5591.004400 kJ/mol
# Density = 2.216669 g / cm^3
# Si number density = 22.217253 Si / 1000 Ang^3
#
#
#
# Elastic Constant Matrix: (Units=GPa)
#
#
# Indices 1 2 3 4 5 6 
#
# 1 151.7534 76.9470 31.7128 0.0000 -20.9590 0.0000
# 2 76.9470 168.0043 28.2284 0.0000 -12.6209 0.0000
# 3 31.7128 28.2284 29.6631 0.0000 -7.5734 0.0000
# 4 0.0000 0.0000 0.0000 10.9969 0.0000 2.1302
# 5 -20.9590 -12.6209 -7.5734 0.0000 25.6072 0.0000
# 6 0.0000 0.0000 0.0000 2.1302 0.0000 34.1329
#
#
#
# Elastic Compliance Matrix: (Units=1/GPa)
#
#
# Indices 1 2 3 4 5 6 
#
# 1 0.010295 -0.003225 -0.006698 0.000000 0.004856 0.000000
# 2 -0.003225 0.008158 -0.004287 0.000000 0.000113 0.000000
# 3 -0.006698 -0.004287 0.046526 0.000000 0.006165 0.000000
# 4 0.000000 0.000000 0.000000 0.092048 0.000000 -0.005744
# 5 0.004856 0.000113 0.006165 0.000000 0.044905 0.000000
# 6 0.000000 0.000000 0.000000 -0.005744 0.000000 0.029656
#
#
# Mechanical properties :
#
#
# Convention : Reuss Voigt Hill
#
# Bulk Modulus (GPa) = 27.35205 69.24413 48.29809
# Shear Modulus (GPa) = 18.36926 28.31623 23.34274
#
# Velocity S-wave (km/s) = 2.87853 3.57391 3.24490
# Velocity P-wave (km/s) = 4.83589 6.94730 5.98543
#
# Compressibility (1/GPa) = 0.03656033
#
# Stress axis : x y z
#
# Youngs Moduli (GPa) = 97.13159 122.57726 21.49342
#
# Poissons Ratio (x) = 0.39533 0.14396
# Poissons Ratio (y) = 0.31326 0.09213
# Poissons Ratio (z) = 0.65056 0.52544
#
# Static dielectric constant tensor:
#      x y z
#    x 1.838250 0.000000 -0.000750 
#    y 0.000000 1.803750 0.000000 
#    z -0.000750 0.000000 1.837010 
# 
# From -- ./inp_files/61120.got.cif
#   From: 2010.05.17/outbox.cif.g08.bks.cpg/sg13_31_cif.got.tgz:61120.got - 2010.06.03 16:44:36.
