data_PCOD9228954
_publ_section_title
;
Structure prediction by ZEFSAII (Michael W. Deem and Ramdas Pophale) SiO2 
 PCOD9228954
Probable space group: P 2/C
;
_chemical_formula_sum "Si O2"
_cell_formula_units_Z 28
_cell_length_a 19.160619
_cell_length_b 5.012199
_cell_length_c 17.894605
_cell_angle_alpha 90.000000
_cell_angle_beta 53.496289
_cell_angle_gamma 90.000000
_cell_volume 1381.394950
_symmetry_space_group_name_H-M "P 2/C"
_symmetry_group_IT_number 13
_symmetry_cell_setting 'monoclinic'
loop_
_space_group_symop_operation_xyz
x,y,z
-x,y,1/2-z
-x,-y,-z
x,-y,1/2+z
loop_
_atom_site_type_symbol
_atom_site_label
_atom_site_fract_x
_atom_site_fract_y
_atom_site_fract_z
Si Si1 0.117672 0.577016 0.983823
Si Si2 0.077200 0.524132 0.342617
Si Si3 0.807028 0.925593 0.983958
Si Si4 0.370767 0.304365 0.955549
Si Si5 0.479984 0.806331 0.847926
Si Si6 0.440616 0.749327 0.559001
Si Si7 0.089828 0.000790 0.233047
O O1 0.137928 0.288415 0.004687
O O2 0.018150 0.631597 0.071926
O O3 0.180479 0.794738 0.981410
O O4 0.122087 0.563145 0.891406
O O5 0.072556 0.270351 0.290667
O O6 0.119296 0.767201 0.270165
O O7 0.844381 0.954742 0.876700
O O8 0.712099 0.799655 0.035644
O O9 0.402067 0.605698 0.921395
O O10 0.361532 0.261809 0.051418
O O11 0.448336 0.108353 0.880369
O O12 0.500000 0.755953 0.750000
O O13 0.562503 0.753342 0.849632
O O14 0.500000 0.500000 0.500000
O O15 0.500000 0.000000 0.500000
O O16 0.000000 0.914979 0.250000
#
# Coordination Sequence:
#
# PCOD9228954 Si02
#       7
#     4   4   4   4   4   4   4
#     4  11  22  38  58  82 113 159 194 246 304 351
#     4  11  22  38  58  82 112 149 209 253 288 345
#     4  12  23  37  59  84 120 156 194 246 304 347
#     4  10  21  37  55  85 117 149 183 231 293 346
#     4  10  19  36  62  88 109 147 191 233 272 345
#     4   8  16  32  55  78 108 140 180 215 265 337
#     4  12  21  37  59  88 111 151 206 253 283 340
#
# _framework density 20.269366999999999
#
# number of rings (size 3 to 8) (size 9 to 14) (size 15 to 20)
#    0.000    1.429    2.857    3.429    0.000    2.286 
#    0.000    4.286    0.000    3.429    0.000    0.000 
#    0.000    0.000    0.000    0.000    0.000    0.000 
#
# Total GULP energy -156237.091933 kJ/mol
# GULP energy per Si atom -5579.896140 kJ/mol
# Density = 2.022323 g / cm^3
# Si number density = 20.269367 Si / 1000 Ang^3
#
#
#
# Elastic Constant Matrix: (Units=GPa)
#
#
# Indices 1 2 3 4 5 6 
#
# 1 46.2933 -8.5191 19.4830 0.0000 21.6065 0.0000
# 2 -8.5191 99.4308 6.9417 0.0000 12.2078 0.0000
# 3 19.4830 6.9417 91.5463 0.0000 45.1967 0.0000
# 4 0.0000 0.0000 0.0000 19.7373 0.0000 -0.5842
# 5 21.6065 12.2078 45.1967 0.0000 29.7945 0.0000
# 6 0.0000 0.0000 0.0000 -0.5842 0.0000 7.1246
#
#
#
# Elastic Compliance Matrix: (Units=1/GPa)
#
#
# Indices 1 2 3 4 5 6 
#
# 1 0.060979 0.016565 0.043609 0.000000 -0.117161 0.000000
# 2 0.016565 0.015787 0.017531 0.000000 -0.045075 0.000000
# 3 0.043609 0.017531 0.077556 0.000000 -0.156456 0.000000
# 4 0.000000 0.000000 0.000000 0.050789 0.000000 0.004165
# 5 -0.117161 -0.045075 -0.156456 0.000000 0.374331 0.000000
# 6 0.000000 0.000000 0.000000 0.004165 0.000000 0.140700
#
#
# Mechanical properties :
#
#
# Convention : Reuss Voigt Hill
#
# Bulk Modulus (GPa) = 3.22860 30.34238 16.78549
# Shear Modulus (GPa) = 7.48529 25.95561 16.72045
#
# Velocity S-wave (km/s) = 1.92378 3.58234 2.87524
# Velocity P-wave (km/s) = 2.55556 5.66683 4.39567
#
# Compressibility (1/GPa) = 0.30973156
#
# Stress axis : x y z
#
# Youngs Moduli (GPa) = 16.39906 63.34444 12.89389
#
# Poissons Ratio (x) = -1.04929 -0.56229
# Poissons Ratio (y) = -0.27165 -0.22604
# Poissons Ratio (z) = -0.71515 -1.11050
#
# Static dielectric constant tensor:
#      x y z
#    x 1.767040 0.000000 0.023210 
#    y 0.000000 1.693840 0.000000 
#    z 0.023210 0.000000 1.726890 
# 
# From -- ./inp_files/54438.got.cif
#   From: 2010.05.17/outbox.cif.g08.bks.cpg/sg13_28_cif.got.tgz:54438.got - 2010.06.03 16:44:36.
