data_PCOD9228175
_publ_section_title
;
Structure prediction by ZEFSAII (Michael W. Deem and Ramdas Pophale) SiO2 
 PCOD9228175
Probable space group: P 2/C
;
_chemical_formula_sum "Si O2"
_cell_formula_units_Z 24
_cell_length_a 32.066315
_cell_length_b 7.001431
_cell_length_c 5.165471
_cell_angle_alpha 90.000000
_cell_angle_beta 94.165958
_cell_angle_gamma 90.000000
_cell_volume 1156.636226
_symmetry_space_group_name_H-M "P 2/C"
_symmetry_group_IT_number 13
_symmetry_cell_setting 'monoclinic'
loop_
_space_group_symop_operation_xyz
x,y,z
-x,y,1/2-z
-x,-y,-z
x,-y,1/2+z
loop_
_atom_site_type_symbol
_atom_site_label
_atom_site_fract_x
_atom_site_fract_y
_atom_site_fract_z
Si Si1 0.455940 0.868109 0.286332
Si Si2 0.198781 0.375689 0.546099
Si Si3 0.279280 0.126211 0.704663
Si Si4 0.368014 0.869060 0.131938
Si Si5 0.892680 0.632700 0.404462
Si Si6 0.980516 0.211823 0.990990
O O1 0.500000 0.765356 0.250000
O O2 0.411894 0.765201 0.209994
O O3 0.455941 0.957913 0.574044
O O4 0.199880 0.449169 0.251882
O O5 0.238609 0.248754 0.627701
O O6 0.153602 0.280876 0.579630
O O7 0.278930 0.952636 0.496471
O O8 0.323669 0.229968 0.667611
O O9 0.368213 0.043668 0.343073
O O10 0.896024 0.531249 0.126904
O O11 0.930785 0.777226 0.461059
O O12 0.000000 0.303696 0.250000
O O13 0.000000 0.304668 0.750000
O O14 0.000000 0.000000 0.000000
#
# Coordination Sequence:
#
# PCOD9228175 Si02
#       6
#     4   4   4   4   4   4
#     4   8  12  18  29  48  76 115 152 185 235 291
#     4  10  21  38  56  77 107 136 169 210 252 296
#     4  10  19  33  51  78 102 132 171 208 257 304
#     4   8  14  23  37  57  89 119 152 200 243 290
#     4  10  21  37  57  78 101 134 167 197 238 289
#     4  10  21  37  53  78 107 130 159 200 242 278
#
# _framework density 20.749825000000001
#
# number of rings (size 3 to 8) (size 9 to 14) (size 15 to 20)
#    0.000    2.667    0.000    2.000    0.000    2.000 
#    6.000    0.000    0.000    0.000    0.000    0.000 
#    0.000    1.333    0.000    0.000    0.000   10.667 
#
# Total GULP energy -133673.513368 kJ/mol
# GULP energy per Si atom -5569.729724 kJ/mol
# Density = 2.070260 g / cm^3
# Si number density = 20.749825 Si / 1000 Ang^3
#
#
#
# Elastic Constant Matrix: (Units=GPa)
#
#
# Indices 1 2 3 4 5 6 
#
# 1 236.3683 28.5715 -6.5169 0.0000 14.2220 0.0000
# 2 28.5715 30.2179 -4.8340 0.0000 -0.9341 0.0000
# 3 -6.5169 -4.8340 124.1590 0.0000 1.9504 0.0000
# 4 0.0000 0.0000 0.0000 -16.5836 0.0000 3.3989
# 5 14.2220 -0.9341 1.9504 0.0000 30.8778 0.0000
# 6 0.0000 0.0000 0.0000 3.3989 0.0000 18.7273
#
#
#
# Elastic Compliance Matrix: (Units=1/GPa)
#
#
# Indices 1 2 3 4 5 6 
#
# 1 0.004953 -0.004740 0.000114 0.000000 -0.002432 0.000000
# 2 -0.004740 0.037863 0.001174 0.000000 0.003255 0.000000
# 3 0.000114 0.001174 0.008114 0.000000 -0.000529 0.000000
# 4 0.000000 0.000000 0.000000 -0.058138 0.000000 0.010552
# 5 -0.002432 0.003255 -0.000529 0.000000 0.033638 0.000000
# 6 0.000000 0.000000 0.000000 0.010552 0.000000 0.051483
#
#
# Mechanical properties :
#
#
# Convention : Reuss Voigt Hill
#
# Bulk Modulus (GPa) = 22.71390 47.24294 34.97842
# Shear Modulus (GPa) = 50.25452 31.50594 40.88023
#
# Velocity S-wave (km/s) = 4.92664 3.90086 4.44345
# Velocity P-wave (km/s) = 6.58276 6.56553 6.57415
#
# Compressibility (1/GPa) = 0.04402590
#
# Stress axis : x y z
#
# Youngs Moduli (GPa) = 201.89228 26.41073 123.24094
#
# Poissons Ratio (x) = 0.12519 -0.01400
# Poissons Ratio (y) = 0.95702 -0.14471
# Poissons Ratio (z) = -0.02294 -0.03101
#
# Static dielectric constant tensor:
#      x y z
#    x 1.836040 0.000000 0.000620 
#    y 0.000000 1.703590 0.000000 
#    z 0.000620 0.000000 1.753710 
# 
# From -- ./inp_files/7737.got.cif
#   From: 2010.05.17/outbox.cif.g08.bks.cpg/sg13_4_cif.got.tgz:7737.got - 2010.06.03 16:44:36.
