data_PCOD9228456
_publ_section_title
;
Structure prediction by ZEFSAII (Michael W. Deem and Ramdas Pophale) SiO2 
 PCOD9228456
Probable space group: P 2/C
;
_chemical_formula_sum "Si O2"
_cell_formula_units_Z 32
_cell_length_a 8.624959
_cell_length_b 20.397732
_cell_length_c 14.852004
_cell_angle_alpha 90.000000
_cell_angle_beta 35.038363
_cell_angle_gamma 90.000000
_cell_volume 1500.134745
_symmetry_space_group_name_H-M "P 2/C"
_symmetry_group_IT_number 13
_symmetry_cell_setting 'monoclinic'
loop_
_space_group_symop_operation_xyz
x,y,z
-x,y,1/2-z
-x,-y,-z
x,-y,1/2+z
loop_
_atom_site_type_symbol
_atom_site_label
_atom_site_fract_x
_atom_site_fract_y
_atom_site_fract_z
Si Si1 0.397746 0.951610 0.400761
Si Si2 0.163523 0.655142 0.803331
Si Si3 0.524539 0.335174 0.628064
Si Si4 0.563816 0.425282 0.990599
Si Si5 0.849056 0.204114 0.225099
Si Si6 0.576769 0.191220 0.611347
Si Si7 0.177243 0.058564 0.256427
Si Si8 0.220185 0.447303 0.424450
O O1 0.500000 0.952071 0.250000
O O2 0.468555 0.880040 0.410690
O O3 0.071577 0.957331 0.557322
O O4 0.575474 0.008703 0.360513
O O5 0.308807 0.608575 0.662369
O O6 0.290929 0.727299 0.729222
O O7 0.196290 0.621542 0.884238
O O8 0.840250 0.659105 0.949981
O O9 0.500000 0.344222 0.750000
O O10 0.380845 0.385628 0.628018
O O11 0.449554 0.259543 0.639196
O O12 0.776153 0.431764 0.971650
O O13 0.500000 0.500000 0.000000
O O14 0.715273 0.133070 0.282863
O O15 0.000000 0.209966 0.250000
O O16 0.102173 0.200630 0.038566
O O17 0.500000 0.184776 0.750000
O O18 0.000000 0.056366 0.250000
O O19 0.500000 0.475275 0.250000
O O20 0.000000 0.500000 0.500000
#
# Coordination Sequence:
#
# PCOD9228456 Si02
#       8
#     4   4   4   4   4   4   4   4
#     4  10  19  34  56  84 116 155 199 243 291 350
#     4  10  20  38  61  84 116 157 200 250 299 353
#     4  10  20  37  62  91 117 154 201 247 298 360
#     4  11  23  38  59  88 118 153 195 244 298 355
#     4   9  17  31  55  84 111 149 198 240 288 355
#     4   8  16  31  55  81 112 151 194 236 287 354
#     4  10  20  34  55  86 119 154 197 245 294 350
#     4  10  23  41  61  88 119 153 194 243 295 353
#
# _framework density 21.331416999999998
#
# number of rings (size 3 to 8) (size 9 to 14) (size 15 to 20)
#    0.000    2.250    0.000    3.375    0.000    5.000 
#    0.000    5.000    0.000    9.000    0.000    3.500 
#    0.000    0.000    0.000    0.000    0.000    0.000 
#
# Total GULP energy -178215.213879 kJ/mol
# GULP energy per Si atom -5569.225434 kJ/mol
# Density = 2.128287 g / cm^3
# Si number density = 21.331417 Si / 1000 Ang^3
#
#
#
# Elastic Constant Matrix: (Units=GPa)
#
#
# Indices 1 2 3 4 5 6 
#
# 1 81.5163 69.1973 11.4513 0.0000 15.4866 0.0000
# 2 69.1973 233.3583 28.2493 0.0000 4.8526 0.0000
# 3 11.4513 28.2493 76.1396 0.0000 3.9704 0.0000
# 4 0.0000 0.0000 0.0000 38.8073 0.0000 -10.2950
# 5 15.4866 4.8526 3.9704 0.0000 31.7149 0.0000
# 6 0.0000 0.0000 0.0000 -10.2950 0.0000 40.9497
#
#
#
# Elastic Compliance Matrix: (Units=1/GPa)
#
#
# Indices 1 2 3 4 5 6 
#
# 1 0.018274 -0.005203 -0.000397 0.000000 -0.008078 0.000000
# 2 -0.005203 0.005975 -0.001529 0.000000 0.001818 0.000000
# 3 -0.000397 -0.001529 0.013829 0.000000 -0.001303 0.000000
# 4 0.000000 0.000000 0.000000 0.027610 0.000000 0.006941
# 5 -0.008078 0.001818 -0.001303 0.000000 0.035360 0.000000
# 6 0.000000 0.000000 0.000000 0.006941 0.000000 0.026165
#
#
# Mechanical properties :
#
#
# Convention : Reuss Voigt Hill
#
# Bulk Modulus (GPa) = 41.98034 67.64556 54.81295
# Shear Modulus (GPa) = 33.46443 41.10214 37.28329
#
# Velocity S-wave (km/s) = 3.96509 4.39434 4.18522
# Velocity P-wave (km/s) = 6.37851 7.58469 7.00760
#
# Compressibility (1/GPa) = 0.02382068
#
# Stress axis : x y z
#
# Youngs Moduli (GPa) = 54.72110 167.35321 72.31279
#
# Poissons Ratio (x) = 0.87072 0.02870
# Poissons Ratio (y) = 0.28471 0.11059
# Poissons Ratio (z) = 0.02172 0.25593
#
# Static dielectric constant tensor:
#      x y z
#    x 1.844310 0.000000 0.030980 
#    y 0.000000 1.864790 0.000000 
#    z 0.030980 0.000000 1.840500 
# 
# From -- ./inp_files/48160.got.cif
#   From: 2010.05.17/outbox.cif.g08.bks.cpg/sg13_25_cif.got.tgz:48160.got - 2010.06.03 16:44:36.
