data_PCOD9228764
_publ_section_title
;
Structure prediction by ZEFSAII (Michael W. Deem and Ramdas Pophale) SiO2 
 PCOD9228764
Probable space group: P 2/C
;
_chemical_formula_sum "Si O2"
_cell_formula_units_Z 28
_cell_length_a 15.227398
_cell_length_b 9.335589
_cell_length_c 21.267098
_cell_angle_alpha 90.000000
_cell_angle_beta 26.611377
_cell_angle_gamma 90.000000
_cell_volume 1354.229379
_symmetry_space_group_name_H-M "P 2/C"
_symmetry_group_IT_number 13
_symmetry_cell_setting 'monoclinic'
loop_
_space_group_symop_operation_xyz
x,y,z
-x,y,1/2-z
-x,-y,-z
x,-y,1/2+z
loop_
_atom_site_type_symbol
_atom_site_label
_atom_site_fract_x
_atom_site_fract_y
_atom_site_fract_z
Si Si1 0.056160 0.122363 0.813129
Si Si2 0.929397 0.164653 0.125993
Si Si3 0.391607 0.040338 0.253811
Si Si4 0.375240 0.673697 0.598793
Si Si5 0.308828 0.853017 0.035887
Si Si6 0.692726 0.291066 0.665920
Si Si7 0.330709 0.630021 0.185258
O O1 0.208018 0.074254 0.660862
O O2 0.169569 0.249975 0.774195
O O3 0.866902 0.182993 0.898720
O O4 0.000248 0.990947 0.894070
O O5 0.793104 0.134715 0.151875
O O6 0.793739 0.223438 0.268787
O O7 0.102012 0.276826 0.001731
O O8 0.500000 0.081895 0.250000
O O9 0.332766 0.874910 0.296378
O O10 0.543579 0.051857 0.098836
O O11 0.566003 0.719749 0.518171
O O12 0.456487 0.685091 0.475902
O O13 0.308303 0.514760 0.659999
O O14 0.500000 0.325685 0.750000
O O15 0.687639 0.393444 0.729186
#
# Coordination Sequence:
#
# PCOD9228764 Si02
#       7
#     4   4   4   4   4   4   4
#     4  10  19  35  63  88 117 153 201 253 299 352
#     4  11  22  38  61  91 119 155 201 251 302 361
#     4  10  20  33  57  87 122 152 193 245 303 359
#     4   9  22  42  60  87 118 158 208 242 299 358
#     4   9  20  35  58  88 119 152 205 245 296 364
#     4  11  23  37  57  88 125 155 198 246 304 358
#     4  10  21  40  64  82 120 164 196 247 301 352
#
# _framework density 20.675965000000001
#
# number of rings (size 3 to 8) (size 9 to 14) (size 15 to 20)
#    0.000    2.000    1.429    2.143    4.000    2.286 
#    2.571    2.857    0.000    0.000    0.000    0.000 
#    0.000    0.000    0.000    0.000    0.000    0.000 
#
# Total GULP energy -156147.904410 kJ/mol
# GULP energy per Si atom -5576.710872 kJ/mol
# Density = 2.062891 g / cm^3
# Si number density = 20.675965 Si / 1000 Ang^3
#
#
#
# Elastic Constant Matrix: (Units=GPa)
#
#
# Indices 1 2 3 4 5 6 
#
# 1 62.0166 3.3931 21.0513 0.0000 -6.0911 0.0000
# 2 3.3931 33.3141 5.7687 0.0000 4.7673 0.0000
# 3 21.0513 5.7687 83.3933 0.0000 -6.5526 0.0000
# 4 0.0000 0.0000 0.0000 24.4399 0.0000 11.8336
# 5 -6.0911 4.7673 -6.5526 0.0000 20.4455 0.0000
# 6 0.0000 0.0000 0.0000 11.8336 0.0000 8.4733
#
#
#
# Elastic Compliance Matrix: (Units=1/GPa)
#
#
# Indices 1 2 3 4 5 6 
#
# 1 0.018047 -0.001773 -0.004081 0.000000 0.004482 0.000000
# 2 -0.001773 0.031872 -0.002444 0.000000 -0.008743 0.000000
# 3 -0.004081 -0.002444 0.013479 0.000000 0.003674 0.000000
# 4 0.000000 0.000000 0.000000 0.126369 0.000000 -0.176484
# 5 0.004482 -0.008743 0.003674 0.000000 0.053462 0.000000
# 6 0.000000 0.000000 0.000000 -0.176484 0.000000 0.364490
#
#
# Mechanical properties :
#
#
# Convention : Reuss Voigt Hill
#
# Bulk Modulus (GPa) = 21.36623 26.57223 23.96923
# Shear Modulus (GPa) = 7.81351 20.57248 14.19300
#
# Velocity S-wave (km/s) = 1.94608 3.15778 2.62286
# Velocity P-wave (km/s) = 3.92504 5.11616 4.55966
#
# Compressibility (1/GPa) = 0.04680283
#
# Stress axis : x y z
#
# Youngs Moduli (GPa) = 55.41037 31.37523 74.18788
#
# Poissons Ratio (x) = 0.05562 0.30275
# Poissons Ratio (y) = 0.09823 0.18133
# Poissons Ratio (z) = 0.22612 0.07669
#
# Static dielectric constant tensor:
#      x y z
#    x 1.771170 0.000000 -0.000100 
#    y 0.000000 1.717110 0.000000 
#    z -0.000100 0.000000 1.807090 
# 
# From -- ./inp_files/79952.got.cif
#   From: 2010.05.17/outbox.cif.g08.bks.cpg/sg13_40_cif.got.tgz:79952.got - 2010.06.03 16:44:36.
