data_PCOD9228815
_publ_section_title
;
Structure prediction by ZEFSAII (Michael W. Deem and Ramdas Pophale) SiO2 
 PCOD9228815
Probable space group: P 2/C
;
_chemical_formula_sum "Si O2"
_cell_formula_units_Z 24
_cell_length_a 11.117625
_cell_length_b 7.628080
_cell_length_c 18.242180
_cell_angle_alpha 90.000000
_cell_angle_beta 56.548564
_cell_angle_gamma 90.000000
_cell_volume 1290.785293
_symmetry_space_group_name_H-M "P 2/C"
_symmetry_group_IT_number 13
_symmetry_cell_setting 'monoclinic'
loop_
_space_group_symop_operation_xyz
x,y,z
-x,y,1/2-z
-x,-y,-z
x,-y,1/2+z
loop_
_atom_site_type_symbol
_atom_site_label
_atom_site_fract_x
_atom_site_fract_y
_atom_site_fract_z
Si Si1 0.844667 0.324082 0.491686
Si Si2 0.568660 0.454439 0.056252
Si Si3 0.260467 0.517319 0.702106
Si Si4 0.224749 0.779846 0.090631
Si Si5 0.050205 0.654683 0.389326
Si Si6 0.148006 0.868669 0.662283
O O1 0.682192 0.396959 0.540859
O O2 0.884315 0.260334 0.559479
O O3 0.871327 0.197014 0.414665
O O4 0.945583 0.492821 0.444645
O O5 0.431170 0.453779 0.155345
O O6 0.500000 0.500000 0.000000
O O7 0.661477 0.277648 0.010500
O O8 0.232635 0.376658 0.646731
O O9 0.174386 0.434387 0.798677
O O10 0.201444 0.702470 0.691696
O O11 0.000000 0.075475 0.250000
O O12 0.060940 0.781230 0.115361
O O13 0.252788 0.964492 0.120205
#
# Coordination Sequence:
#
# PCOD9228815 Si02
#       6
#     4   4   4   4   4   4
#     4  10  20  34  56  82 107 149 186 224 291 328
#     4   9  18  36  55  81 108 145 187 229 280 337
#     4  11  19  37  57  80 113 145 191 234 278 334
#     4  10  21  35  56  85 112 144 189 232 280 329
#     4  10  19  36  56  78 115 142 181 239 275 334
#     4  12  20  33  59  86 109 147 197 228 278 338
#
# _framework density 18.593333000000001
#
# number of rings (size 3 to 8) (size 9 to 14) (size 15 to 20)
#    0.000    1.667    6.667    1.500    0.000    2.000 
#    0.000    0.000    0.000    0.000    0.000    0.000 
#    0.000    0.000    0.000    0.000    0.000    0.000 
#
# Total GULP energy -133699.495962 kJ/mol
# GULP energy per Si atom -5570.812332 kJ/mol
# Density = 1.855101 g / cm^3
# Si number density = 18.593333 Si / 1000 Ang^3
#
#
#
# Elastic Constant Matrix: (Units=GPa)
#
#
# Indices 1 2 3 4 5 6 
#
# 1 76.4900 13.9804 56.3061 0.0000 -16.4684 0.0000
# 2 13.9804 48.5664 2.2848 0.0000 7.1960 0.0000
# 3 56.3061 2.2848 91.5731 0.0000 -9.2518 0.0000
# 4 0.0000 0.0000 0.0000 21.7100 0.0000 -2.9690
# 5 -16.4684 7.1960 -9.2518 0.0000 18.3389 0.0000
# 6 0.0000 0.0000 0.0000 -2.9690 0.0000 -1.0923
#
#
#
# Elastic Compliance Matrix: (Units=1/GPa)
#
#
# Indices 1 2 3 4 5 6 
#
# 1 0.034860 -0.013206 -0.018355 0.000000 0.027227 0.000000
# 2 -0.013206 0.027058 0.005452 0.000000 -0.019726 0.000000
# 3 -0.018355 0.005452 0.021273 0.000000 -0.007890 0.000000
# 4 0.000000 0.000000 0.000000 0.033580 0.000000 -0.091271
# 5 0.027227 -0.019726 -0.007890 0.000000 0.082738 0.000000
# 6 0.000000 0.000000 0.000000 -0.091271 0.000000 -0.667404
#
#
# Mechanical properties :
#
#
# Convention : Reuss Voigt Hill
#
# Bulk Modulus (GPa) = 32.28466 40.19691 36.24078
# Shear Modulus (GPa) = -12.33494 17.39520 2.53013
#
# Velocity S-wave (km/s) = -2.57846 3.06201 1.16779
# Velocity P-wave (km/s) = 2.92175 5.84527 4.62081
#
# Compressibility (1/GPa) = 0.03097447
#
# Stress axis : x y z
#
# Youngs Moduli (GPa) = 28.68583 36.95772 47.00817
#
# Poissons Ratio (x) = 0.48805 0.86282
# Poissons Ratio (y) = 0.37881 -0.25628
# Poissons Ratio (z) = 0.52652 -0.20149
#
# Static dielectric constant tensor:
#      x y z
#    x 1.679640 0.000000 -0.003870 
#    y 0.000000 1.656830 0.000000 
#    z -0.003870 0.000000 1.689800 
# 
# From -- ./inp_files/65930.got.cif
#   From: 2010.05.17/outbox.cif.g08.bks.cpg/sg13_33_cif.got.tgz:65930.got - 2010.06.03 16:44:36.
