data_PCOD9228510
_publ_section_title
;
Structure prediction by ZEFSAII (Michael W. Deem and Ramdas Pophale) SiO2 
 PCOD9228510
Probable space group: P 2/C
;
_chemical_formula_sum "Si O2"
_cell_formula_units_Z 32
_cell_length_a 19.990767
_cell_length_b 9.384226
_cell_length_c 25.305273
_cell_angle_alpha 90.000000
_cell_angle_beta 157.912704
_cell_angle_gamma 90.000000
_cell_volume 1785.042342
_symmetry_space_group_name_H-M "P 2/C"
_symmetry_group_IT_number 13
_symmetry_cell_setting 'monoclinic'
loop_
_space_group_symop_operation_xyz
x,y,z
-x,y,1/2-z
-x,-y,-z
x,-y,1/2+z
loop_
_atom_site_type_symbol
_atom_site_label
_atom_site_fract_x
_atom_site_fract_y
_atom_site_fract_z
Si Si1 0.944811 0.090004 0.346298
Si Si2 0.698187 0.258731 0.388870
Si Si3 0.783851 0.860126 0.307967
Si Si4 0.993557 0.826106 0.182885
Si Si5 0.335404 0.930967 0.167347
Si Si6 0.693309 0.666296 0.144771
Si Si7 0.899408 0.645802 0.938904
Si Si8 0.694651 0.341351 0.182417
O O1 0.821992 0.226426 0.247387
O O2 0.147488 0.129571 0.508904
O O3 0.857447 0.998046 0.330477
O O4 0.961127 0.979058 0.310036
O O5 0.500000 0.315710 0.250000
O O6 0.805938 0.227150 0.521310
O O7 0.812229 0.354384 0.432804
O O8 0.681001 0.102529 0.349249
O O9 0.659860 0.893140 0.267261
O O10 0.691179 0.760090 0.196629
O O11 0.956411 0.772515 0.454170
O O12 0.000000 0.831969 0.250000
O O13 0.142083 0.720391 0.268908
O O14 0.500000 0.888937 0.250000
O O15 0.719857 0.502017 0.179991
O O16 0.510940 0.690281 0.979664
O O17 0.752702 0.666697 0.786131
O O18 0.000000 0.500000 0.000000
#
# Coordination Sequence:
#
# PCOD9228510 Si02
#       8
#     4   4   4   4   4   4   4   4
#     4  10  20  38  60  90 115 158 201 253 299 364
#     4  10  21  37  57  92 117 152 207 250 300 369
#     4  11  19  38  61  87 120 152 206 247 304 360
#     4  10  21  40  59  82 127 159 191 246 305 359
#     4  10  19  34  58  89 122 154 189 254 310 347
#     4  10  23  41  58  88 117 159 205 246 296 372
#     4  12  20  36  66  88 113 164 202 258 300 364
#     4  11  22  37  64  86 118 150 206 251 301 355
#
# _framework density 17.926746999999999
#
# number of rings (size 3 to 8) (size 9 to 14) (size 15 to 20)
#    0.000    1.500    6.250    1.125    1.750    2.000 
#    9.000    1.250    2.750    0.000    0.000    0.000 
#    0.000    0.000    0.000    0.000    0.000    0.000 
#
# Total GULP energy -178583.015666 kJ/mol
# GULP energy per Si atom -5580.719240 kJ/mol
# Density = 1.788594 g / cm^3
# Si number density = 17.926747 Si / 1000 Ang^3
#
#
#
# Elastic Constant Matrix: (Units=GPa)
#
#
# Indices 1 2 3 4 5 6 
#
# 1 145.0293 28.0372 54.2809 0.0000 -7.5591 0.0000
# 2 28.0372 57.4773 44.2560 0.0000 -2.0422 0.0000
# 3 54.2809 44.2560 113.1661 0.0000 -10.8474 0.0000
# 4 0.0000 0.0000 0.0000 23.7167 0.0000 2.3475
# 5 -7.5591 -2.0422 -10.8474 0.0000 36.1475 0.0000
# 6 0.0000 0.0000 0.0000 2.3475 0.0000 11.7955
#
#
#
# Elastic Compliance Matrix: (Units=1/GPa)
#
#
# Indices 1 2 3 4 5 6 
#
# 1 0.008502 -0.001477 -0.003436 0.000000 0.000663 0.000000
# 2 -0.001477 0.025237 -0.009322 0.000000 -0.001681 0.000000
# 3 -0.003436 -0.009322 0.014426 0.000000 0.003084 0.000000
# 4 0.000000 0.000000 0.000000 0.043012 0.000000 -0.008560
# 5 0.000663 -0.001681 0.003084 0.000000 0.028634 0.000000
# 6 0.000000 0.000000 0.000000 -0.008560 0.000000 0.086481
#
#
# Mechanical properties :
#
#
# Convention : Reuss Voigt Hill
#
# Bulk Modulus (GPa) = 50.77998 63.20232 56.99115
# Shear Modulus (GPa) = 20.71885 26.93853 23.82869
#
# Velocity S-wave (km/s) = 3.40332 3.88067 3.64981
# Velocity P-wave (km/s) = 6.62052 7.44392 7.04426
#
# Compressibility (1/GPa) = 0.01969280
#
# Stress axis : x y z
#
# Youngs Moduli (GPa) = 117.62591 39.62496 69.31957
#
# Poissons Ratio (x) = 0.05854 0.23821
# Poissons Ratio (y) = 0.17379 0.64618
# Poissons Ratio (z) = 0.40422 0.36937
#
# Static dielectric constant tensor:
#      x y z
#    x 1.609070 0.000000 -0.002550 
#    y 0.000000 1.613920 0.000000 
#    z -0.002550 0.000000 1.627120 
# 
# From -- ./inp_files/93611.got.cif
#   From: 2010.05.17/outbox.cif.g08.bks.cpg/sg13_47_cif.got.tgz:93611.got - 2010.06.03 16:44:36.
