data_PCOD9228156
_publ_section_title
;
Structure prediction by ZEFSAII (Michael W. Deem and Ramdas Pophale) SiO2 
 PCOD9228156
Probable space group: P 2/C
;
_chemical_formula_sum "Si O2"
_cell_formula_units_Z 20
_cell_length_a 5.115047
_cell_length_b 10.163228
_cell_length_c 25.537639
_cell_angle_alpha 90.000000
_cell_angle_beta 122.968837
_cell_angle_gamma 90.000000
_cell_volume 1113.798809
_symmetry_space_group_name_H-M "P 2/C"
_symmetry_group_IT_number 13
_symmetry_cell_setting 'monoclinic'
loop_
_space_group_symop_operation_xyz
x,y,z
-x,y,1/2-z
-x,-y,-z
x,-y,1/2+z
loop_
_atom_site_type_symbol
_atom_site_label
_atom_site_fract_x
_atom_site_fract_y
_atom_site_fract_z
Si Si1 0.688507 0.953239 0.437141
Si Si2 0.400128 0.037576 0.184303
Si Si3 0.365725 0.388145 0.059137
Si Si4 0.653794 0.329565 0.979947
Si Si5 0.776663 0.832651 0.642253
O O1 0.720546 0.948618 0.377153
O O2 0.596432 0.811433 0.448500
O O3 0.429463 0.067364 0.416689
O O4 0.000000 0.000000 0.500000
O O5 0.500000 0.973611 0.250000
O O6 0.688109 0.113012 0.189541
O O7 0.130682 0.143069 0.166742
O O8 0.431923 0.351785 0.005534
O O9 0.630981 0.310214 0.118947
O O10 0.019701 0.339484 0.036711
O O11 0.384698 0.545847 0.062908
#
# Coordination Sequence:
#
# PCOD9228156 Si02
#       5
#     4   4   4   4   4
#     4  10  20  32  55  84 106 139 173 225 259 325
#     4  10  22  36  54  80 104 142 179 228 267 316
#     4  10  19  33  47  78 110 143 165 215 262 328
#     4  10  20  30  49  76 117 137 167 209 277 308
#     4  10  20  33  57  74 107 138 181 217 261 319
#
# _framework density 17.956564
#
# number of rings (size 3 to 8) (size 9 to 14) (size 15 to 20)
#    1.200    0.800    2.000    3.000    2.800    1.600 
#    0.000    0.000    0.000    1.200    5.200    0.000 
#    0.000    0.000    0.000    0.000    0.000    0.000 
#
# Total GULP energy -111363.397196 kJ/mol
# GULP energy per Si atom -5568.169860 kJ/mol
# Density = 1.791569 g / cm^3
# Si number density = 17.956564 Si / 1000 Ang^3
#
#
#
# Elastic Constant Matrix: (Units=GPa)
#
#
# Indices 1 2 3 4 5 6 
#
# 1 61.1998 4.8059 7.0498 0.0000 9.5844 0.0000
# 2 4.8059 84.1752 22.8802 0.0000 -2.9220 0.0000
# 3 7.0498 22.8802 81.5846 0.0000 -7.7388 0.0000
# 4 0.0000 0.0000 0.0000 9.0279 0.0000 2.3923
# 5 9.5844 -2.9220 -7.7388 0.0000 29.5134 0.0000
# 6 0.0000 0.0000 0.0000 2.3923 0.0000 21.3346
#
#
#
# Elastic Compliance Matrix: (Units=1/GPa)
#
#
# Indices 1 2 3 4 5 6 
#
# 1 0.017601 -0.000701 -0.001921 0.000000 -0.006289 0.000000
# 2 -0.000701 0.012892 -0.003499 0.000000 0.000586 0.000000
# 3 -0.001921 -0.003499 0.013773 0.000000 0.003889 0.000000
# 4 0.000000 0.000000 0.000000 0.114160 0.000000 -0.012801
# 5 -0.006289 0.000586 0.003889 0.000000 0.037003 0.000000
# 6 0.000000 0.000000 0.000000 -0.012801 0.000000 0.048308
#
#
# Mechanical properties :
#
#
# Convention : Reuss Voigt Hill
#
# Bulk Modulus (GPa) = 31.22678 32.93682 32.08180
# Shear Modulus (GPa) = 18.75094 24.79009 21.77051
#
# Velocity S-wave (km/s) = 3.23497 3.71962 3.48573
# Velocity P-wave (km/s) = 5.60190 6.06875 5.83999
#
# Compressibility (1/GPa) = 0.03202379
#
# Stress axis : x y z
#
# Youngs Moduli (GPa) = 56.81443 77.57045 72.60355
#
# Poissons Ratio (x) = 0.05438 0.13946
# Poissons Ratio (y) = 0.03983 0.25405
# Poissons Ratio (z) = 0.10913 0.27143
#
# Static dielectric constant tensor:
#      x y z
#    x 1.640430 0.000000 -0.015220 
#    y 0.000000 1.604740 0.000000 
#    z -0.015220 0.000000 1.649700 
# 
# From -- ./inp_files/94796.got.cif
#   From: 2010.05.17/outbox.cif.g08.bks.cpg/sg13_48_cif.got.tgz:94796.got - 2010.06.03 16:44:36.
