data_PCOD9228424
_publ_section_title
;
Structure prediction by ZEFSAII (Michael W. Deem and Ramdas Pophale) SiO2 
 PCOD9228424
Probable space group: P 2/C
;
_chemical_formula_sum "Si O2"
_cell_formula_units_Z 28
_cell_length_a 15.070958
_cell_length_b 8.439855
_cell_length_c 10.116341
_cell_angle_alpha 90.000000
_cell_angle_beta 112.289839
_cell_angle_gamma 90.000000
_cell_volume 1190.614235
_symmetry_space_group_name_H-M "P 2/C"
_symmetry_group_IT_number 13
_symmetry_cell_setting 'monoclinic'
loop_
_space_group_symop_operation_xyz
x,y,z
-x,y,1/2-z
-x,-y,-z
x,-y,1/2+z
loop_
_atom_site_type_symbol
_atom_site_label
_atom_site_fract_x
_atom_site_fract_y
_atom_site_fract_z
Si Si1 0.935612 0.310452 0.582114
Si Si2 0.734153 0.171815 0.490400
Si Si3 0.285067 0.036821 0.753709
Si Si4 0.916178 0.126139 0.970856
Si Si5 0.614032 0.341943 0.814357
Si Si6 0.109399 0.634065 0.855054
Si Si7 0.702774 0.508221 0.619309
O O1 0.849904 0.183396 0.538175
O O2 0.885082 0.480154 0.546557
O O3 0.000000 0.296605 0.750000
O O4 0.017935 0.279620 0.523627
O O5 0.700128 0.043904 0.580904
O O6 0.707519 0.338286 0.544523
O O7 0.698293 0.119675 0.325233
O O8 0.173072 0.087671 0.671740
O O9 0.345355 0.176420 0.718173
O O10 0.870615 0.189761 0.080780
O O11 0.000000 0.000000 0.000000
O O12 0.500000 0.342365 0.750000
O O13 0.652489 0.471741 0.729695
O O14 0.651984 0.380072 0.982749
O O15 0.191284 0.582397 0.797839
O O16 0.000000 0.635093 0.750000
#
# Coordination Sequence:
#
# PCOD9228424 Si02
#       7
#     4   4   4   4   4   4   4
#     4  10  19  34  55  80 124 172 220 261 313 387
#     4  10  22  39  60  93 132 175 218 274 335 403
#     4  11  23  41  62  93 135 174 224 281 340 401
#     4  12  22  35  55  87 131 172 220 263 319 396
#     4  11  24  46  73 100 130 174 231 298 351 395
#     4  10  23  37  59  93 132 180 220 264 329 408
#     4  10  23  44  69  99 136 172 228 282 342 410
#
# _framework density 23.517275000000001
#
# number of rings (size 3 to 8) (size 9 to 14) (size 15 to 20)
#    0.000    1.429    4.286    0.857    2.000    5.143 
#    0.000    3.571    0.000    0.000    0.000    0.000 
#    0.000    0.000    0.000    0.000    0.000    0.000 
#
# Total GULP energy -156197.106506 kJ/mol
# GULP energy per Si atom -5578.468089 kJ/mol
# Density = 2.346375 g / cm^3
# Si number density = 23.517275 Si / 1000 Ang^3
#
#
#
# Elastic Constant Matrix: (Units=GPa)
#
#
# Indices 1 2 3 4 5 6 
#
# 1 101.1953 22.1132 18.3323 0.0000 10.1766 0.0000
# 2 22.1132 63.4178 5.8956 0.0000 -11.1810 0.0000
# 3 18.3323 5.8956 61.2306 0.0000 -4.4768 0.0000
# 4 0.0000 0.0000 0.0000 28.0788 0.0000 -8.2909
# 5 10.1766 -11.1810 -4.4768 0.0000 29.3175 0.0000
# 6 0.0000 0.0000 0.0000 -8.2909 0.0000 33.1768
#
#
#
# Elastic Compliance Matrix: (Units=1/GPa)
#
#
# Indices 1 2 3 4 5 6 
#
# 1 0.012371 -0.005174 -0.003705 0.000000 -0.006833 0.000000
# 2 -0.005174 0.019152 0.000374 0.000000 0.009157 0.000000
# 3 -0.003705 0.000374 0.017707 0.000000 0.004133 0.000000
# 4 0.000000 0.000000 0.000000 0.038451 0.000000 0.009609
# 5 -0.006833 0.009157 0.004133 0.000000 0.040605 0.000000
# 6 0.000000 0.000000 0.000000 0.009609 0.000000 0.032543
#
#
# Mechanical properties :
#
#
# Convention : Reuss Voigt Hill
#
# Bulk Modulus (GPa) = 31.03566 35.39175 33.21371
# Shear Modulus (GPa) = 26.51415 30.08147 28.29781
#
# Velocity S-wave (km/s) = 3.36137 3.58036 3.47259
# Velocity P-wave (km/s) = 5.31890 5.67221 5.49839
#
# Compressibility (1/GPa) = 0.03222100
#
# Stress axis : x y z
#
# Youngs Moduli (GPa) = 80.83507 52.21334 56.47434
#
# Poissons Ratio (x) = 0.27014 0.20925
# Poissons Ratio (y) = 0.41823 -0.02115
# Poissons Ratio (z) = 0.29951 -0.01955
#
# Static dielectric constant tensor:
#      x y z
#    x 1.818600 0.000000 0.010790 
#    y 0.000000 2.048410 0.000000 
#    z 0.010790 0.000000 1.831700 
# 
# From -- ./inp_files/36519.got.cif
#   From: 2010.05.17/outbox.cif.g08.bks.cpg/sg13_19_cif.got.tgz:36519.got - 2010.06.03 16:44:36.
