data_PCOD9228817
_publ_section_title
;
Structure prediction by ZEFSAII (Michael W. Deem and Ramdas Pophale) SiO2 
 PCOD9228817
Probable space group: P 2/C
;
_chemical_formula_sum "Si O2"
_cell_formula_units_Z 26
_cell_length_a 14.378946
_cell_length_b 10.062425
_cell_length_c 15.507590
_cell_angle_alpha 90.000000
_cell_angle_beta 139.103895
_cell_angle_gamma 90.000000
_cell_volume 1468.957896
_symmetry_space_group_name_H-M "P 2/C"
_symmetry_group_IT_number 13
_symmetry_cell_setting 'monoclinic'
loop_
_space_group_symop_operation_xyz
x,y,z
-x,y,1/2-z
-x,-y,-z
x,-y,1/2+z
loop_
_atom_site_type_symbol
_atom_site_label
_atom_site_fract_x
_atom_site_fract_y
_atom_site_fract_z
Si Si1 0.834224 0.109290 0.402989
Si Si2 0.275973 0.010336 0.357935
Si Si3 0.000000 0.881924 0.750000
Si Si4 0.379061 0.645956 0.238533
Si Si5 0.485896 0.225382 0.987061
Si Si6 0.118071 0.833508 0.005999
Si Si7 0.386908 0.338770 0.247175
O O1 0.766776 0.038928 0.271079
O O2 0.737946 0.234010 0.357146
O O3 0.991362 0.158548 0.487232
O O4 0.837367 0.988736 0.472326
O O5 0.132408 0.031545 0.309844
O O6 0.390667 0.125040 0.459488
O O7 0.354625 0.870182 0.421357
O O8 0.948768 0.795276 0.632705
O O9 0.500000 0.663376 0.250000
O O10 0.440366 0.684701 0.375042
O O11 0.246963 0.741137 0.123820
O O12 0.337162 0.491153 0.211260
O O13 0.543768 0.302353 0.111432
O O14 0.500000 0.323300 0.250000
#
# Coordination Sequence:
#
# PCOD9228817 Si02
#       7
#     4   4   2   4   4   4   4
#     4   9  19  37  54  79 110 141 181 233 277 329
#     4   9  18  33  54  84 110 138 186 227 279 329
#     4  10  20  32  54  86 110 142 178 248 272 328
#     4  11  22  37  57  83 112 150 191 229 273 336
#     4  10  19  36  56  80 113 149 181 228 280 331
#     4  10  20  35  58  80 109 141 189 230 282 327
#     4  10  23  37  55  82 117 148 186 227 276 334
#
# _framework density 17.699622999999999
#
# number of rings (size 3 to 8) (size 9 to 14) (size 15 to 20)
#    0.000    2.154    1.538    1.385    2.154    1.231 
#    0.000    0.000    0.000    0.923    0.000    0.000 
#    0.000    0.000    0.000    0.000    0.000    0.000 
#
# Total GULP energy -145020.679939 kJ/mol
# GULP energy per Si atom -5577.718459 kJ/mol
# Density = 1.765934 g / cm^3
# Si number density = 17.699623 Si / 1000 Ang^3
#
#
#
# Elastic Constant Matrix: (Units=GPa)
#
#
# Indices 1 2 3 4 5 6 
#
# 1 69.0661 55.0437 34.8987 0.0000 7.7283 0.0000
# 2 55.0437 117.5977 48.7370 0.0000 10.4991 0.0000
# 3 34.8987 48.7370 79.1701 0.0000 4.1464 0.0000
# 4 0.0000 0.0000 0.0000 2.9911 0.0000 4.4744
# 5 7.7283 10.4991 4.1464 0.0000 33.1459 0.0000
# 6 0.0000 0.0000 0.0000 4.4744 0.0000 18.9499
#
#
#
# Elastic Compliance Matrix: (Units=1/GPa)
#
#
# Indices 1 2 3 4 5 6 
#
# 1 0.024648 -0.009245 -0.005059 0.000000 -0.002186 0.000000
# 2 -0.009245 0.015139 -0.005140 0.000000 -0.001997 0.000000
# 3 -0.005059 -0.005140 0.017996 0.000000 0.000556 0.000000
# 4 0.000000 0.000000 0.000000 0.516910 0.000000 -0.122052
# 5 -0.002186 -0.001997 0.000556 0.000000 0.031242 0.000000
# 6 0.000000 0.000000 0.000000 -0.122052 0.000000 0.081590
#
#
# Mechanical properties :
#
#
# Convention : Reuss Voigt Hill
#
# Bulk Modulus (GPa) = 52.92400 60.35474 56.63937
# Shear Modulus (GPa) = 6.82397 19.49435 13.15916
#
# Velocity S-wave (km/s) = 1.96566 3.32233 2.72962
# Velocity P-wave (km/s) = 5.92603 6.99219 6.48107
#
# Compressibility (1/GPa) = 0.01889502
#
# Stress axis : x y z
#
# Youngs Moduli (GPa) = 40.57144 66.05318 55.56737
#
# Poissons Ratio (x) = 0.61066 0.28113
# Poissons Ratio (y) = 0.37508 0.28561
# Poissons Ratio (z) = 0.20526 0.33951
#
# Static dielectric constant tensor:
#      x y z
#    x 1.598800 0.000000 -0.007970 
#    y 0.000000 1.586280 0.000000 
#    z -0.007970 0.000000 1.628870 
# 
# From -- ./inp_files/53388.got.cif
#   From: 2010.05.17/outbox.cif.g08.bks.cpg/sg13_27_cif.got.tgz:53388.got - 2010.06.03 16:44:36.
