data_PCOD9228095
_publ_section_title
;
Structure prediction by ZEFSAII (Michael W. Deem and Ramdas Pophale) SiO2 
 PCOD9228095
Probable space group: P 2/C
;
_chemical_formula_sum "Si O2"
_cell_formula_units_Z 32
_cell_length_a 17.905821
_cell_length_b 11.661877
_cell_length_c 24.004945
_cell_angle_alpha 90.000000
_cell_angle_beta 159.935571
_cell_angle_gamma 90.000000
_cell_volume 1719.707241
_symmetry_space_group_name_H-M "P 2/C"
_symmetry_group_IT_number 13
_symmetry_cell_setting 'monoclinic'
loop_
_space_group_symop_operation_xyz
x,y,z
-x,y,1/2-z
-x,-y,-z
x,-y,1/2+z
loop_
_atom_site_type_symbol
_atom_site_label
_atom_site_fract_x
_atom_site_fract_y
_atom_site_fract_z
Si Si1 0.706974 0.480150 0.321765
Si Si2 0.830398 0.246772 0.586663
Si Si3 0.129981 0.736366 0.897993
Si Si4 0.600221 0.725970 0.257467
Si Si5 0.972839 0.877792 0.564946
Si Si6 0.328028 0.249633 0.248361
Si Si7 0.186832 0.521299 0.479880
Si Si8 0.743538 0.891460 0.913636
O O1 0.716069 0.613802 0.313792
O O2 0.757428 0.380788 0.313306
O O3 0.836844 0.464695 0.470410
O O4 0.447613 0.466703 0.152419
O O5 0.585851 0.251567 0.439806
O O6 0.908381 0.373182 0.621491
O O7 0.806809 0.172419 0.514435
O O8 0.000000 0.199977 0.750000
O O9 0.052525 0.824072 0.891286
O O10 0.112283 0.604344 0.907682
O O11 0.000000 0.748892 0.750000
O O12 0.389498 0.757175 0.074098
O O13 0.500000 0.699241 0.250000
O O14 0.779691 0.821072 0.393007
O O15 0.197730 0.832632 0.697925
O O16 0.921811 0.011763 0.527227
O O17 0.286002 0.199000 0.156966
O O18 0.500000 0.945345 0.750000
#
# Coordination Sequence:
#
# PCOD9228095 Si02
#       8
#     4   4   4   4   4   4   4   4
#     4   9  13  28  53  78  98 128 173 219 253 292
#     4  10  20  35  57  80 101 136 178 215 255 312
#     4  10  19  32  53  77 106 145 177 207 251 317
#     4   9  16  31  52  75 101 136 180 209 245 308
#     4  11  21  35  52  79 108 137 169 223 267 302
#     4  10  21  34  55  80 107 130 171 226 271 299
#     4   9  14  29  54  78 100 130 178 216 245 297
#     4  10  20  36  57  75  99 136 182 215 250 310
#
# _framework density 18.607818000000002
#
# number of rings (size 3 to 8) (size 9 to 14) (size 15 to 20)
#    0.000    2.250    5.000    1.875    0.000    1.000 
#    0.000    1.875    0.000    7.500    0.000    0.000 
#    0.000    0.000    0.000    0.000    0.000    0.000 
#
# Total GULP energy -178394.131606 kJ/mol
# GULP energy per Si atom -5574.816613 kJ/mol
# Density = 1.856547 g / cm^3
# Si number density = 18.607818 Si / 1000 Ang^3
#
#
#
# Elastic Constant Matrix: (Units=GPa)
#
#
# Indices 1 2 3 4 5 6 
#
# 1 27.1723 -1.0028 36.5765 0.0000 -10.2092 0.0000
# 2 -1.0028 39.9360 14.4035 0.0000 -4.6537 0.0000
# 3 36.5765 14.4035 102.2789 0.0000 -23.0103 0.0000
# 4 0.0000 0.0000 0.0000 -98.0878 0.0000 -106.4450
# 5 -10.2092 -4.6537 -23.0103 0.0000 27.4532 0.0000
# 6 0.0000 0.0000 0.0000 -106.4450 0.0000 -103.5343
#
#
#
# Elastic Compliance Matrix: (Units=1/GPa)
#
#
# Indices 1 2 3 4 5 6 
#
# 1 0.077680 0.012898 -0.027858 0.000000 0.007724 0.000000
# 2 0.012898 0.028584 -0.007972 0.000000 0.002960 0.000000
# 3 -0.027858 -0.007972 0.022464 0.000000 0.007117 0.000000
# 4 0.000000 0.000000 0.000000 0.088107 0.000000 -0.090584
# 5 0.007724 0.002960 0.007117 0.000000 0.045765 0.000000
# 6 0.000000 0.000000 0.000000 -0.090584 0.000000 0.083472
#
#
# Mechanical properties :
#
#
# Convention : Reuss Voigt Hill
#
# Bulk Modulus (GPa) = 12.06802 29.92685 20.99744
# Shear Modulus (GPa) = 11.91728 -26.87311 -7.47791
#
# Velocity S-wave (km/s) = 2.53345 -3.80436 -2.00684
# Velocity P-wave (km/s) = 3.88038 1.78318 2.43697
#
# Compressibility (1/GPa) = 0.08286365
#
# Stress axis : x y z
#
# Youngs Moduli (GPa) = 12.87325 34.98451 44.51652
#
# Poissons Ratio (x) = -0.45124 1.24016
# Poissons Ratio (y) = -0.16604 0.35489
# Poissons Ratio (z) = 0.35863 0.27890
#
# Static dielectric constant tensor:
#      x y z
#    x 1.654440 0.000000 0.033180 
#    y 0.000000 1.678920 0.000000 
#    z 0.033180 0.000000 1.638600 
# 
# From -- ./inp_files/88195.got.cif
#   From: 2010.05.17/outbox.cif.g08.bks.cpg/sg13_45_cif.got.tgz:88195.got - 2010.06.03 16:44:36.
