data_PCOD9228591
_publ_section_title
;
Structure prediction by ZEFSAII (Michael W. Deem and Ramdas Pophale) SiO2 
 PCOD9228591
Probable space group: P 2/C
;
_chemical_formula_sum "Si O2"
_cell_formula_units_Z 32
_cell_length_a 13.277875
_cell_length_b 9.622748
_cell_length_c 14.456678
_cell_angle_alpha 90.000000
_cell_angle_beta 120.607714
_cell_angle_gamma 90.000000
_cell_volume 1589.771181
_symmetry_space_group_name_H-M "P 2/C"
_symmetry_group_IT_number 13
_symmetry_cell_setting 'monoclinic'
loop_
_space_group_symop_operation_xyz
x,y,z
-x,y,1/2-z
-x,-y,-z
x,-y,1/2+z
loop_
_atom_site_type_symbol
_atom_site_label
_atom_site_fract_x
_atom_site_fract_y
_atom_site_fract_z
Si Si1 0.407183 0.678827 0.284217
Si Si2 0.834439 0.610169 0.759204
Si Si3 0.988864 0.809606 0.557804
Si Si4 0.484805 0.836995 0.009779
Si Si5 0.110743 0.011059 0.733285
Si Si6 0.574182 0.355815 0.192431
Si Si7 0.854751 0.698837 0.327832
Si Si8 0.228984 0.805921 0.920669
O O1 0.500000 0.719911 0.250000
O O2 0.416368 0.775360 0.378106
O O3 0.440793 0.521580 0.331151
O O4 0.273976 0.685803 0.185832
O O5 0.716660 0.651933 0.762147
O O6 0.865263 0.449207 0.783453
O O7 0.803447 0.658511 0.641067
O O8 0.943033 0.698173 0.847087
O O9 0.959612 0.737092 0.447223
O O10 0.862198 0.839824 0.542459
O O11 0.069476 0.945358 0.615385
O O12 0.469972 0.744658 0.910034
O O13 0.363338 0.813277 0.007814
O O14 0.500000 0.000000 0.000000
O O15 0.146590 0.169010 0.739603
O O16 0.000000 0.999504 0.750000
O O17 0.207850 0.915756 0.827015
O O18 0.500000 0.323295 0.250000
#
# Coordination Sequence:
#
# PCOD9228591 Si02
#       8
#     4   4   4   4   4   4   4   4
#     4  10  21  37  56  79 109 146 183 222 270 325
#     4   9  19  34  55  79 103 135 176 220 265 314
#     4  10  19  35  55  75 104 143 175 211 266 322
#     4  11  21  35  57  84 110 141 182 228 272 322
#     4   9  19  34  51  72 104 141 172 209 264 319
#     4   9  20  39  58  79 110 144 180 223 273 324
#     4  11  20  33  53  81 107 131 176 227 260 303
#     4   9  19  37  55  73 104 143 176 210 265 325
#
# _framework density 20.128684
#
# number of rings (size 3 to 8) (size 9 to 14) (size 15 to 20)
#    0.000    2.250    0.000    3.750    0.000    1.500 
#    0.000    7.500    0.000    0.000    0.000    0.000 
#    0.000    0.000    0.000    0.000    0.000    0.000 
#
# Total GULP energy -178342.570901 kJ/mol
# GULP energy per Si atom -5573.205341 kJ/mol
# Density = 2.008287 g / cm^3
# Si number density = 20.128684 Si / 1000 Ang^3
#
#
#
# Elastic Constant Matrix: (Units=GPa)
#
#
# Indices 1 2 3 4 5 6 
#
# 1 41.3754 0.2174 -3.7872 0.0000 4.2577 0.0000
# 2 0.2174 115.7565 28.6184 0.0000 -3.1160 0.0000
# 3 -3.7872 28.6184 55.7837 0.0000 12.7228 0.0000
# 4 0.0000 0.0000 0.0000 17.9186 0.0000 1.4133
# 5 4.2577 -3.1160 12.7228 0.0000 23.2417 0.0000
# 6 0.0000 0.0000 0.0000 1.4133 0.0000 23.0831
#
#
#
# Elastic Compliance Matrix: (Units=1/GPa)
#
#
# Indices 1 2 3 4 5 6 
#
# 1 0.025246 -0.001200 0.003909 0.000000 -0.006926 0.000000
# 2 -0.001200 0.010419 -0.006623 0.000000 0.005242 0.000000
# 3 0.003909 -0.006623 0.025087 0.000000 -0.015337 0.000000
# 4 0.000000 0.000000 0.000000 0.056079 0.000000 -0.003434
# 5 -0.006926 0.005242 -0.015337 0.000000 0.053394 0.000000
# 6 0.000000 0.000000 0.000000 -0.003434 0.000000 0.043532
#
#
# Mechanical properties :
#
#
# Convention : Reuss Voigt Hill
#
# Bulk Modulus (GPa) = 18.89447 29.22365 24.05906
# Shear Modulus (GPa) = 20.90076 25.37314 23.13695
#
# Velocity S-wave (km/s) = 3.22585 3.55427 3.39403
# Velocity P-wave (km/s) = 4.82515 5.60301 5.22856
#
# Compressibility (1/GPa) = 0.05292554
#
# Stress axis : x y z
#
# Youngs Moduli (GPa) = 39.61059 95.97419 39.86078
#
# Poissons Ratio (x) = 0.11520 -0.15583
# Poissons Ratio (y) = 0.04755 0.26398
# Poissons Ratio (z) = -0.15485 0.63559
#
# Static dielectric constant tensor:
#      x y z
#    x 1.725130 0.000000 -0.002140 
#    y 0.000000 1.715590 0.000000 
#    z -0.002140 0.000000 1.755330 
# 
# From -- ./inp_files/53064.got.cif
#   From: 2010.05.17/outbox.cif.g08.bks.cpg/sg13_27_cif.got.tgz:53064.got - 2010.06.03 16:44:36.
