data_PCOD9228807
_publ_section_title
;
Structure prediction by ZEFSAII (Michael W. Deem and Ramdas Pophale) SiO2 
 PCOD9228807
Probable space group: P 2/C
;
_chemical_formula_sum "Si O2"
_cell_formula_units_Z 30
_cell_length_a 30.350686
_cell_length_b 8.629418
_cell_length_c 11.426106
_cell_angle_alpha 90.000000
_cell_angle_beta 145.392480
_cell_angle_gamma 90.000000
_cell_volume 1699.650899
_symmetry_space_group_name_H-M "P 2/C"
_symmetry_group_IT_number 13
_symmetry_cell_setting 'monoclinic'
loop_
_space_group_symop_operation_xyz
x,y,z
-x,y,1/2-z
-x,-y,-z
x,-y,1/2+z
loop_
_atom_site_type_symbol
_atom_site_label
_atom_site_fract_x
_atom_site_fract_y
_atom_site_fract_z
Si Si1 0.699351 0.492294 0.718361
Si Si2 0.825371 0.712120 0.613446
Si Si3 0.638258 0.193403 0.457979
Si Si4 0.500000 0.020559 0.750000
Si Si5 0.165089 0.695951 0.592308
Si Si6 0.241262 0.993518 0.655075
Si Si7 0.620942 0.212947 0.149048
Si Si8 0.956335 0.528615 0.778952
O O1 0.652824 0.353748 0.556403
O O2 0.760417 0.584345 0.769069
O O3 0.640633 0.621038 0.637067
O O4 0.754328 0.408021 0.934682
O O5 0.849883 0.701198 0.801955
O O6 0.894145 0.660664 0.677041
O O7 0.797567 0.882811 0.516189
O O8 0.623934 0.227713 0.293023
O O9 0.566926 0.090324 0.347045
O O10 0.715761 0.092557 0.650326
O O11 0.458225 0.133060 0.565928
O O12 0.185491 0.865120 0.587926
O O13 0.093936 0.622451 0.365712
O O14 0.309218 0.900252 0.737860
O O15 0.000000 0.565704 0.750000
O O16 0.000000 0.500000 0.000000
#
# Coordination Sequence:
#
# PCOD9228807 Si02
#       8
#     4   4   4   2   4   4   4   4
#     4   9  20  33  56  85 104 141 187 232 272 334
#     4  10  19  36  59  83 113 143 187 229 281 329
#     4  10  19  36  55  77 111 141 183 225 280 327
#     4  10  22  34  52  78 108 146 184 222 278 340
#     4  10  19  36  59  83 114 143 185 231 281 327
#     4   9  20  35  56  87 106 142 181 232 275 335
#     4  10  19  36  55  77 110 142 182 226 282 325
#     4  11  22  40  60  83 115 156 188 229 276 333
#
# _framework density 17.650682
#
# number of rings (size 3 to 8) (size 9 to 14) (size 15 to 20)
#    0.000    2.133    1.333    2.000    0.000    0.533 
#    4.800    6.667    0.000    0.000    0.000    0.000 
#    0.000    0.000    0.000    0.000    0.000    0.000 
#
# Total GULP energy -167190.699183 kJ/mol
# GULP energy per Si atom -5573.023306 kJ/mol
# Density = 1.761051 g / cm^3
# Si number density = 17.650682 Si / 1000 Ang^3
#
#
#
# Elastic Constant Matrix: (Units=GPa)
#
#
# Indices 1 2 3 4 5 6 
#
# 1 77.9625 39.6425 53.3589 0.0000 -20.2240 0.0000
# 2 39.6425 134.4932 61.4491 0.0000 -6.6015 0.0000
# 3 53.3589 61.4491 111.3548 0.0000 -22.3579 0.0000
# 4 0.0000 0.0000 0.0000 19.9958 0.0000 6.5889
# 5 -20.2240 -6.6015 -22.3579 0.0000 24.2645 0.0000
# 6 0.0000 0.0000 0.0000 6.5889 0.0000 13.6642
#
#
#
# Elastic Compliance Matrix: (Units=1/GPa)
#
#
# Indices 1 2 3 4 5 6 
#
# 1 0.021681 -0.002840 -0.006563 0.000000 0.011251 0.000000
# 2 -0.002840 0.010481 -0.005308 0.000000 -0.004406 0.000000
# 3 -0.006563 -0.005308 0.016768 0.000000 0.008536 0.000000
# 4 0.000000 0.000000 0.000000 0.059458 0.000000 -0.028671
# 5 0.011251 -0.004406 0.008536 0.000000 0.057257 0.000000
# 6 0.000000 0.000000 0.000000 -0.028671 0.000000 0.087009
#
#
# Mechanical properties :
#
#
# Convention : Reuss Voigt Hill
#
# Bulk Modulus (GPa) = 51.25794 70.30128 60.77961
# Shear Modulus (GPa) = 17.32633 22.87556 20.10094
#
# Velocity S-wave (km/s) = 3.13649 3.60393 3.37830
# Velocity P-wave (km/s) = 6.49769 7.56528 7.05172
#
# Compressibility (1/GPa) = 0.01950917
#
# Stress axis : x y z
#
# Youngs Moduli (GPa) = 46.12315 95.40949 59.63698
#
# Poissons Ratio (x) = 0.27093 0.39141
# Poissons Ratio (y) = 0.13098 0.31654
# Poissons Ratio (z) = 0.30271 0.50641
#
# Static dielectric constant tensor:
#      x y z
#    x 1.596140 0.000000 0.015350 
#    y 0.000000 1.402330 0.000000 
#    z 0.015350 0.000000 1.610500 
# 
# From -- ./inp_files/42714.got.cif
#   From: 2010.05.17/outbox.cif.g08.bks.cpg/sg13_22_cif.got.tgz:42714.got - 2010.06.03 16:44:36.
