data_PCOD9228005
_publ_section_title
;
Structure prediction by ZEFSAII (Michael W. Deem and Ramdas Pophale) SiO2 
 PCOD9228005
Probable space group: P 2/C
;
_chemical_formula_sum "Si O2"
_cell_formula_units_Z 30
_cell_length_a 10.765612
_cell_length_b 9.772149
_cell_length_c 23.655471
_cell_angle_alpha 90.000000
_cell_angle_beta 135.657008
_cell_angle_gamma 90.000000
_cell_volume 1739.433475
_symmetry_space_group_name_H-M "P 2/C"
_symmetry_group_IT_number 13
_symmetry_cell_setting 'monoclinic'
loop_
_space_group_symop_operation_xyz
x,y,z
-x,y,1/2-z
-x,-y,-z
x,-y,1/2+z
loop_
_atom_site_type_symbol
_atom_site_label
_atom_site_fract_x
_atom_site_fract_y
_atom_site_fract_z
Si Si1 0.808050 0.138457 0.467533
Si Si2 0.954886 0.331491 0.611293
Si Si3 0.000000 0.646095 0.250000
Si Si4 0.829943 0.823088 0.482245
Si Si5 0.308877 0.624467 0.157532
Si Si6 0.354575 0.469357 0.367923
Si Si7 0.444284 0.347410 0.167565
Si Si8 0.709724 0.604461 0.531097
O O1 0.641761 0.214946 0.387120
O O2 0.867662 0.218283 0.543029
O O3 0.967882 0.162618 0.474469
O O4 0.772125 0.980232 0.468295
O O5 0.972669 0.280265 0.681383
O O6 0.148380 0.366792 0.649431
O O7 0.833953 0.468593 0.569311
O O8 0.824438 0.553835 0.199316
O O9 0.723211 0.742767 0.398509
O O10 0.801128 0.730002 0.528208
O O11 0.500000 0.635623 0.250000
O O12 0.308216 0.476563 0.126552
O O13 0.403137 0.395803 0.325499
O O14 0.522110 0.565300 0.440308
O O15 0.327427 0.373728 0.414293
O O16 0.500000 0.323718 0.250000
#
# Coordination Sequence:
#
# PCOD9228005 Si02
#       8
#     4   4   2   4   4   4   4   4
#     4  10  21  36  54  81 112 145 190 221 279 331
#     4  10  19  34  57  82 109 141 181 232 276 329
#     4  10  20  32  56  84 110 140 178 232 288 322
#     4  10  20  35  56  78 109 152 182 228 273 336
#     4  10  19  31  53  84 109 138 185 232 278 330
#     4  10  20  34  55  86 108 141 184 236 282 334
#     4  11  20  34  57  82 112 140 186 236 278 325
#     4  10  19  35  59  79 111 142 186 229 280 330
#
# _framework density 17.246994999999998
#
# number of rings (size 3 to 8) (size 9 to 14) (size 15 to 20)
#    0.000    1.867    2.667    2.400    0.000    3.733 
#    0.000    0.667    0.000    3.200    0.000    0.000 
#    0.000    0.000    0.000    0.000    0.000    0.000 
#
# Total GULP energy -167288.296747 kJ/mol
# GULP energy per Si atom -5576.276558 kJ/mol
# Density = 1.720774 g / cm^3
# Si number density = 17.246995 Si / 1000 Ang^3
#
#
#
# Elastic Constant Matrix: (Units=GPa)
#
#
# Indices 1 2 3 4 5 6 
#
# 1 98.4337 33.0090 36.4152 0.0000 -26.9367 0.0000
# 2 33.0090 93.8553 18.2028 0.0000 -12.5481 0.0000
# 3 36.4152 18.2028 69.4602 0.0000 -10.9501 0.0000
# 4 0.0000 0.0000 0.0000 11.1770 0.0000 3.1044
# 5 -26.9367 -12.5481 -10.9501 0.0000 36.2755 0.0000
# 6 0.0000 0.0000 0.0000 3.1044 0.0000 19.7370
#
#
#
# Elastic Compliance Matrix: (Units=1/GPa)
#
#
# Indices 1 2 3 4 5 6 
#
# 1 0.015928 -0.003232 -0.006106 0.000000 0.008866 0.000000
# 2 -0.003232 0.012234 -0.001284 0.000000 0.001444 0.000000
# 3 -0.006106 -0.001284 0.018006 0.000000 0.000457 0.000000
# 4 0.000000 0.000000 0.000000 0.093556 0.000000 -0.014715
# 5 0.008866 0.001444 0.000457 0.000000 0.034788 0.000000
# 6 0.000000 0.000000 0.000000 -0.014715 0.000000 0.052981
#
#
# Mechanical properties :
#
#
# Convention : Reuss Voigt Hill
#
# Bulk Modulus (GPa) = 40.12119 48.55591 44.33855
# Shear Modulus (GPa) = 19.45185 25.04606 22.24896
#
# Velocity S-wave (km/s) = 3.36198 3.81491 3.59558
# Velocity P-wave (km/s) = 6.19546 6.90066 6.55754
#
# Compressibility (1/GPa) = 0.02492448
#
# Stress axis : x y z
#
# Youngs Moduli (GPa) = 62.78190 81.74243 55.53645
#
# Poissons Ratio (x) = 0.26422 0.33909
# Poissons Ratio (y) = 0.20293 0.07129
# Poissons Ratio (z) = 0.38332 0.10493
#
# Static dielectric constant tensor:
#      x y z
#    x 1.618240 0.000000 -0.013920 
#    y 0.000000 1.551860 0.000000 
#    z -0.013920 0.000000 1.593150 
# 
# From -- ./inp_files/86376.got.cif
#   From: 2010.05.17/outbox.cif.g08.bks.cpg/sg13_44_cif.got.tgz:86376.got - 2010.06.03 16:44:36.
