data_PCOD9228345
_publ_section_title
;
Structure prediction by ZEFSAII (Michael W. Deem and Ramdas Pophale) SiO2 
 PCOD9228345
Probable space group: P 2/C
;
_chemical_formula_sum "Si O2"
_cell_formula_units_Z 32
_cell_length_a 23.226717
_cell_length_b 5.889374
_cell_length_c 21.915207
_cell_angle_alpha 90.000000
_cell_angle_beta 149.520481
_cell_angle_gamma 90.000000
_cell_volume 1520.574686
_symmetry_space_group_name_H-M "P 2/C"
_symmetry_group_IT_number 13
_symmetry_cell_setting 'monoclinic'
loop_
_space_group_symop_operation_xyz
x,y,z
-x,y,1/2-z
-x,-y,-z
x,-y,1/2+z
loop_
_atom_site_type_symbol
_atom_site_label
_atom_site_fract_x
_atom_site_fract_y
_atom_site_fract_z
Si Si1 0.313759 0.508741 0.887316
Si Si2 0.511498 0.114802 0.943799
Si Si3 0.076192 0.429389 0.881383
Si Si4 0.857526 0.091550 0.300882
Si Si5 0.950142 0.397971 0.016782
Si Si6 0.725818 0.882509 0.077002
Si Si7 0.270719 0.212382 0.728645
Si Si8 0.872313 0.934389 0.604098
O O1 0.214952 0.686864 0.782819
O O2 0.291532 0.386486 0.931825
O O3 0.311913 0.341211 0.827743
O O4 0.432302 0.639121 0.997384
O O5 0.385338 0.129751 0.801637
O O6 0.500000 0.000000 0.000000
O O7 0.606383 0.982746 0.991478
O O8 0.017579 0.465037 0.893369
O O9 0.129908 0.175643 0.934658
O O10 0.000000 0.420333 0.750000
O O11 0.140821 0.676855 0.934015
O O12 0.987632 0.156039 0.420539
O O13 0.824840 0.923152 0.217236
O O14 0.805303 0.993501 0.315006
O O15 0.815571 0.370715 0.886604
O O16 0.000000 0.500000 0.000000
O O17 0.773909 0.011433 0.063070
O O18 0.000000 0.927328 0.750000
#
# Coordination Sequence:
#
# PCOD9228345 Si02
#       8
#     4   4   4   4   4   4   4   4
#     4  10  19  33  59  86 128 168 218 268 331 390
#     4  11  20  36  56  93 130 173 222 275 335 395
#     4  10  24  43  67  93 136 178 225 275 336 416
#     4  10  20  35  57  90 135 169 214 255 344 406
#     4  12  25  40  65 100 136 178 218 281 352 418
#     4  10  22  34  65  94 125 174 225 284 331 398
#     4  11  22  36  55  89 130 177 206 273 332 408
#     4  10  22  40  65  95 129 169 227 279 335 402
#
# _framework density 21.044673
#
# number of rings (size 3 to 8) (size 9 to 14) (size 15 to 20)
#    0.000    1.500    5.000    2.250    7.000    2.000 
#    0.000    0.000    0.000    0.750    0.000    0.000 
#    0.000    0.000    0.000    0.000    0.000    0.000 
#
# Total GULP energy -178286.368930 kJ/mol
# GULP energy per Si atom -5571.449029 kJ/mol
# Density = 2.099677 g / cm^3
# Si number density = 21.044673 Si / 1000 Ang^3
#
#
#
# Elastic Constant Matrix: (Units=GPa)
#
#
# Indices 1 2 3 4 5 6 
#
# 1 86.3718 11.0902 18.8798 0.0000 3.3769 0.0000
# 2 11.0902 91.6751 2.8532 0.0000 4.6853 0.0000
# 3 18.8798 2.8532 83.1463 0.0000 15.6474 0.0000
# 4 0.0000 0.0000 0.0000 23.6560 0.0000 17.9358
# 5 3.3769 4.6853 15.6474 0.0000 26.0414 0.0000
# 6 0.0000 0.0000 0.0000 17.9358 0.0000 31.5130
#
#
#
# Elastic Compliance Matrix: (Units=1/GPa)
#
#
# Indices 1 2 3 4 5 6 
#
# 1 0.012365 -0.001426 -0.002825 0.000000 0.000350 0.000000
# 2 -0.001426 0.011174 0.000320 0.000000 -0.002018 0.000000
# 3 -0.002825 0.000320 0.014206 0.000000 -0.008227 0.000000
# 4 0.000000 0.000000 0.000000 0.074362 0.000000 -0.042324
# 5 0.000350 -0.002018 -0.008227 0.000000 0.043661 0.000000
# 6 0.000000 0.000000 0.000000 -0.042324 0.000000 0.055822
#
#
# Mechanical properties :
#
#
# Convention : Reuss Voigt Hill
#
# Bulk Modulus (GPa) = 33.46351 36.31551 34.88951
# Shear Modulus (GPa) = 21.79494 31.46674 26.63084
#
# Velocity S-wave (km/s) = 3.22165 3.87102 3.56117
# Velocity P-wave (km/s) = 5.45659 6.10521 5.78999
#
# Compressibility (1/GPa) = 0.02988330
#
# Stress axis : x y z
#
# Youngs Moduli (GPa) = 80.87575 89.49564 70.39464
#
# Poissons Ratio (x) = 0.12760 0.19884
# Poissons Ratio (y) = 0.11531 -0.02253
# Poissons Ratio (z) = 0.22844 -0.02864
#
# Static dielectric constant tensor:
#      x y z
#    x 1.812040 0.000000 -0.007340 
#    y 0.000000 1.868770 0.000000 
#    z -0.007340 0.000000 1.764640 
# 
# From -- ./inp_files/88768.got.cif
#   From: 2010.05.17/outbox.cif.g08.bks.cpg/sg13_45_cif.got.tgz:88768.got - 2010.06.03 16:44:36.
