data_PCOD9228153
_publ_section_title
;
Structure prediction by ZEFSAII (Michael W. Deem and Ramdas Pophale) SiO2 
 PCOD9228153
Probable space group: P 2/C
;
_chemical_formula_sum "Si O2"
_cell_formula_units_Z 32
_cell_length_a 26.875998
_cell_length_b 9.906603
_cell_length_c 21.687013
_cell_angle_alpha 90.000000
_cell_angle_beta 161.998059
_cell_angle_gamma 90.000000
_cell_volume 1784.500776
_symmetry_space_group_name_H-M "P 2/C"
_symmetry_group_IT_number 13
_symmetry_cell_setting 'monoclinic'
loop_
_space_group_symop_operation_xyz
x,y,z
-x,y,1/2-z
-x,-y,-z
x,-y,1/2+z
loop_
_atom_site_type_symbol
_atom_site_label
_atom_site_fract_x
_atom_site_fract_y
_atom_site_fract_z
Si Si1 0.107054 0.906514 0.214092
Si Si2 0.423950 0.771189 0.004844
Si Si3 0.107033 0.406551 0.714079
Si Si4 0.318409 0.143942 0.514283
Si Si5 0.243826 0.487327 0.250065
Si Si6 0.737797 0.728815 0.318686
Si Si7 0.768679 0.987310 0.274914
Si Si8 0.926668 0.356026 0.230790
O O1 0.127694 0.749980 0.255399
O O2 0.209925 0.010241 0.376751
O O3 0.168249 0.930972 0.216304
O O4 0.918647 0.944953 0.987773
O O5 0.342153 0.787067 0.975075
O O6 0.615120 0.750005 0.230251
O O7 0.355530 0.640539 0.890408
O O8 0.366320 0.902756 0.899491
O O9 0.219614 0.444971 0.788746
O O10 0.123761 0.510280 0.790596
O O11 0.927868 0.431053 0.475932
O O12 0.500000 0.113268 0.750000
O O13 0.219681 0.249974 0.439373
O O14 0.300027 0.597280 0.266879
O O15 0.923664 0.712926 0.556581
O O16 0.714197 0.859490 0.249083
O O17 0.000000 0.386713 0.250000
#
# Coordination Sequence:
#
# PCOD9228153 Si02
#       8
#     4   4   4   4   4   4   4   4
#     4  10  19  35  61  86 116 150 193 234 288 348
#     4  11  21  35  57  90 124 149 187 240 294 348
#     4  10  19  35  61  86 116 150 193 234 288 348
#     4  11  23  40  61  82 112 156 203 239 283 344
#     4  10  19  32  58  92 117 148 184 236 292 345
#     4  11  21  35  57  90 124 149 187 240 294 348
#     4  10  19  32  58  92 117 148 184 236 292 345
#     4  11  23  40  61  82 112 156 203 239 283 344
#
# _framework density 17.932186000000002
#
# number of rings (size 3 to 8) (size 9 to 14) (size 15 to 20)
#    0.000    1.500    5.000    1.500    0.000    0.000 
#    0.000    1.250    0.000    0.000    0.000    0.000 
#    0.000    0.000    0.000    0.000    0.000    0.000 
#
# Total GULP energy -178494.300856 kJ/mol
# GULP energy per Si atom -5577.946902 kJ/mol
# Density = 1.789137 g / cm^3
# Si number density = 17.932186 Si / 1000 Ang^3
#
#
#
# Elastic Constant Matrix: (Units=GPa)
#
#
# Indices 1 2 3 4 5 6 
#
# 1 52.5316 29.8477 10.2864 0.0000 -3.5296 0.0000
# 2 29.8477 124.7924 30.0785 0.0000 -2.1174 0.0000
# 3 10.2864 30.0785 53.5146 0.0000 -3.8387 0.0000
# 4 0.0000 0.0000 0.0000 9.6552 0.0000 7.8258
# 5 -3.5296 -2.1174 -3.8387 0.0000 23.5165 0.0000
# 6 0.0000 0.0000 0.0000 7.8258 0.0000 10.8174
#
#
#
# Elastic Compliance Matrix: (Units=1/GPa)
#
#
# Indices 1 2 3 4 5 6 
#
# 1 0.022297 -0.004975 -0.001297 0.000000 0.002687 0.000000
# 2 -0.004975 0.010379 -0.004922 0.000000 -0.000616 0.000000
# 3 -0.001297 -0.004922 0.021913 0.000000 0.002939 0.000000
# 4 0.000000 0.000000 0.000000 0.250393 0.000000 -0.181145
# 5 0.002687 -0.000616 0.002939 0.000000 0.043351 0.000000
# 6 0.000000 0.000000 0.000000 -0.181145 0.000000 0.223491
#
#
# Mechanical properties :
#
#
# Convention : Reuss Voigt Hill
#
# Bulk Modulus (GPa) = 31.05362 41.25154 36.15258
# Shear Modulus (GPa) = 8.26521 19.50622 13.88572
#
# Velocity S-wave (km/s) = 2.14922 3.30172 2.78573
# Velocity P-wave (km/s) = 4.84909 6.13101 5.52734
#
# Compressibility (1/GPa) = 0.03220236
#
# Stress axis : x y z
#
# Youngs Moduli (GPa) = 44.84843 96.34877 45.63532
#
# Poissons Ratio (x) = 0.47932 0.05919
# Poissons Ratio (y) = 0.22311 0.22460
# Poissons Ratio (z) = 0.05817 0.47418
#
# Static dielectric constant tensor:
#      x y z
#    x 1.625290 0.000000 0.017380 
#    y 0.000000 1.584830 0.000000 
#    z 0.017380 0.000000 1.622730 
# 
# From -- ./inp_files/82536.got.cif
#   From: 2010.05.17/outbox.cif.g08.bks.cpg/sg13_42_cif.got.tgz:82536.got - 2010.06.03 16:44:36.
