data_PCOD9228786
_publ_section_title
;
Structure prediction by ZEFSAII (Michael W. Deem and Ramdas Pophale) SiO2 
 PCOD9228786
Probable space group: P 2/C
;
_chemical_formula_sum "Si O2"
_cell_formula_units_Z 32
_cell_length_a 8.223667
_cell_length_b 12.998890
_cell_length_c 21.938509
_cell_angle_alpha 90.000000
_cell_angle_beta 35.417237
_cell_angle_gamma 90.000000
_cell_volume 1359.102140
_symmetry_space_group_name_H-M "P 2/C"
_symmetry_group_IT_number 13
_symmetry_cell_setting 'monoclinic'
loop_
_space_group_symop_operation_xyz
x,y,z
-x,y,1/2-z
-x,-y,-z
x,-y,1/2+z
loop_
_atom_site_type_symbol
_atom_site_label
_atom_site_fract_x
_atom_site_fract_y
_atom_site_fract_z
Si Si1 0.812528 0.656660 0.677570
Si Si2 0.134060 0.525321 0.023674
Si Si3 0.320357 0.587444 0.145971
Si Si4 0.170191 0.153328 0.418204
Si Si5 0.644165 0.230177 0.772589
Si Si6 0.709203 0.794675 0.819327
Si Si7 0.734572 0.927459 0.126460
Si Si8 0.762661 0.726153 0.444745
O O1 0.500000 0.628449 0.750000
O O2 0.892677 0.752716 0.607663
O O3 0.802824 0.697100 0.749480
O O4 0.005246 0.558176 0.609017
O O5 0.464109 0.504755 0.919719
O O6 0.092079 0.641821 0.055458
O O7 0.000000 0.500000 0.000000
O O8 0.387659 0.666115 0.179970
O O9 0.349042 0.655661 0.076575
O O10 0.000000 0.554903 0.250000
O O11 0.498208 0.151151 0.335902
O O12 0.993706 0.150855 0.534996
O O13 0.113496 0.037773 0.413349
O O14 0.500000 0.247145 0.750000
O O15 0.481183 0.133749 0.853752
O O16 0.976953 0.209440 0.663088
O O17 0.000000 0.846722 0.750000
O O18 0.505838 0.772550 0.938573
O O19 0.500000 0.938975 0.250000
#
# Coordination Sequence:
#
# PCOD9228786 Si02
#       8
#     4   4   4   4   4   4   4   4
#     4  10  22  39  59  85 120 157 201 255 308 359
#     4  12  23  38  62  90 117 157 217 264 303 368
#     4  10  23  40  58  83 124 165 201 257 322 375
#     4  10  21  39  62  92 121 154 202 252 310 372
#     4  10  20  38  64  90 117 155 207 260 309 364
#     4  11  22  38  58  81 119 162 199 244 302 367
#     4  10  19  35  66  94 119 153 198 257 315 369
#     4  11  24  39  57  86 122 163 207 252 313 377
#
# _framework density 23.544955000000002
#
# number of rings (size 3 to 8) (size 9 to 14) (size 15 to 20)
#    0.000    1.500    0.000    6.750    0.000    5.000 
#    0.000    1.875    0.000    8.250    0.000    0.000 
#    0.000    0.000    0.000    0.000    0.000    0.000 
#
# Total GULP energy -178313.361431 kJ/mol
# GULP energy per Si atom -5572.292545 kJ/mol
# Density = 2.349137 g / cm^3
# Si number density = 23.544955 Si / 1000 Ang^3
#
#
#
# Elastic Constant Matrix: (Units=GPa)
#
#
# Indices 1 2 3 4 5 6 
#
# 1 54.2201 -10.6363 -6.6722 0.0000 -1.5121 0.0000
# 2 -10.6363 87.9694 31.0313 0.0000 -9.7046 0.0000
# 3 -6.6722 31.0313 97.8331 0.0000 -10.7448 0.0000
# 4 0.0000 0.0000 0.0000 27.1666 0.0000 -5.1063
# 5 -1.5121 -9.7046 -10.7448 0.0000 35.6403 0.0000
# 6 0.0000 0.0000 0.0000 -5.1063 0.0000 7.7584
#
#
#
# Elastic Compliance Matrix: (Units=1/GPa)
#
#
# Indices 1 2 3 4 5 6 
#
# 1 0.019018 0.002206 0.000778 0.000000 0.001642 0.000000
# 2 0.002206 0.013247 -0.003770 0.000000 0.002564 0.000000
# 3 0.000778 -0.003770 0.011750 0.000000 0.002549 0.000000
# 4 0.000000 0.000000 0.000000 0.042007 0.000000 0.027647
# 5 0.001642 0.002564 0.002549 0.000000 0.029594 0.000000
# 6 0.000000 0.000000 0.000000 0.027647 0.000000 0.147089
#
#
# Mechanical properties :
#
#
# Convention : Reuss Voigt Hill
#
# Bulk Modulus (GPa) = 23.56101 29.71871 26.63986
# Shear Modulus (GPa) = 17.95820 29.19972 23.57896
#
# Velocity S-wave (km/s) = 2.76473 3.52542 3.16799
# Velocity P-wave (km/s) = 4.49669 5.40564 4.97198
#
# Compressibility (1/GPa) = 0.04244300
#
# Stress axis : x y z
#
# Youngs Moduli (GPa) = 52.58282 75.48890 85.10529
#
# Poissons Ratio (x) = -0.16655 -0.06617
# Poissons Ratio (y) = -0.11601 0.32082
# Poissons Ratio (z) = -0.04088 0.28457
#
# Static dielectric constant tensor:
#      x y z
#    x 1.959180 0.000000 0.083070 
#    y 0.000000 2.098930 0.000000 
#    z 0.083070 0.000000 2.125200 
# 
# From -- ./inp_files/85303.got.cif
#   From: 2010.05.17/outbox.cif.g08.bks.cpg/sg13_43_cif.got.tgz:85303.got - 2010.06.03 16:44:36.
