data_PCOD9228183
_publ_section_title
;
Structure prediction by ZEFSAII (Michael W. Deem and Ramdas Pophale) SiO2 
 PCOD9228183
Probable space group: P 2/C
;
_chemical_formula_sum "Si O2"
_cell_formula_units_Z 30
_cell_length_a 16.011830
_cell_length_b 20.263532
_cell_length_c 5.162750
_cell_angle_alpha 90.000000
_cell_angle_beta 100.294125
_cell_angle_gamma 90.000000
_cell_volume 1648.123148
_symmetry_space_group_name_H-M "P 2/C"
_symmetry_group_IT_number 13
_symmetry_cell_setting 'monoclinic'
loop_
_space_group_symop_operation_xyz
x,y,z
-x,y,1/2-z
-x,-y,-z
x,-y,1/2+z
loop_
_atom_site_type_symbol
_atom_site_label
_atom_site_fract_x
_atom_site_fract_y
_atom_site_fract_z
Si Si1 0.500000 0.453570 0.250000
Si Si2 0.256899 0.320718 0.918942
Si Si3 0.095261 0.227378 0.842711
Si Si4 0.718586 0.954457 0.621885
Si Si5 0.555758 0.140633 0.022004
Si Si6 0.687260 0.545781 0.870912
Si Si7 0.676312 0.256595 0.031550
Si Si8 0.838187 0.837857 0.607212
O O1 0.500000 0.500000 0.500000
O O2 0.407580 0.420932 0.184207
O O3 0.165612 0.284892 0.847472
O O4 0.308033 0.312265 0.677478
O O5 0.250541 0.395405 0.015381
O O6 0.308147 0.282389 0.171329
O O7 0.113104 0.171602 0.634845
O O8 0.000000 0.252039 0.750000
O O9 0.110083 0.195466 0.131542
O O10 0.636832 0.906797 0.602764
O O11 0.802965 0.909225 0.664453
O O12 0.716210 0.994244 0.353952
O O13 0.500000 0.142298 0.250000
O O14 0.591531 0.213540 0.973058
O O15 0.500000 0.116595 0.750000
O O16 0.695050 0.509927 0.598681
O O17 0.752601 0.205159 0.021983
#
# Coordination Sequence:
#
# PCOD9228183 Si02
#       8
#     2   4   4   4   4   4   4   4
#     4   8  16  30  46  64  92 130 172 210 240 282
#     4  10  19  34  55  79 105 134 180 220 261 330
#     4  10  19  34  59  84 105 133 171 220 271 321
#     4  11  22  36  56  78 103 145 186 214 258 319
#     4  11  22  36  52  74 110 140 174 229 273 310
#     4  10  19  33  52  74 104 141 178 218 262 308
#     4   9  19  35  51  72 102 138 175 218 267 310
#     4   9  19  35  55  77 105 137 172 214 260 316
#
# _framework density 18.202524
#
# number of rings (size 3 to 8) (size 9 to 14) (size 15 to 20)
#    0.000    2.133    0.000    3.600    0.000    5.867 
#    3.600    0.000    0.000    8.800    0.000    0.000 
#    0.000    0.000    0.000    0.000    0.000    0.000 
#
# Total GULP energy -167242.912144 kJ/mol
# GULP energy per Si atom -5574.763738 kJ/mol
# Density = 1.816109 g / cm^3
# Si number density = 18.202524 Si / 1000 Ang^3
#
#
#
# Elastic Constant Matrix: (Units=GPa)
#
#
# Indices 1 2 3 4 5 6 
#
# 1 49.2060 26.8721 33.3479 0.0000 12.2799 0.0000
# 2 26.8721 60.5184 10.0614 0.0000 12.2130 0.0000
# 3 33.3479 10.0614 94.7286 0.0000 -6.7471 0.0000
# 4 0.0000 0.0000 0.0000 18.3669 0.0000 1.9774
# 5 12.2799 12.2130 -6.7471 0.0000 24.8656 0.0000
# 6 0.0000 0.0000 0.0000 1.9774 0.0000 14.4108
#
#
#
# Elastic Compliance Matrix: (Units=1/GPa)
#
#
# Indices 1 2 3 4 5 6 
#
# 1 0.041570 -0.012298 -0.014643 0.000000 -0.018462 0.000000
# 2 -0.012298 0.022652 0.001595 0.000000 -0.004620 0.000000
# 3 -0.014643 0.001595 0.016317 0.000000 0.010876 0.000000
# 4 0.000000 0.000000 0.000000 0.055262 0.000000 -0.007583
# 5 -0.018462 -0.004620 0.010876 0.000000 0.054554 0.000000
# 6 0.000000 0.000000 0.000000 -0.007583 0.000000 0.070433
#
#
# Mechanical properties :
#
#
# Convention : Reuss Voigt Hill
#
# Bulk Modulus (GPa) = 33.50622 38.33512 35.92067
# Shear Modulus (GPa) = 15.55550 20.47345 18.01447
#
# Velocity S-wave (km/s) = 2.92649 3.35738 3.14931
# Velocity P-wave (km/s) = 5.46503 6.01127 5.74465
#
# Compressibility (1/GPa) = 0.02984521
#
# Stress axis : x y z
#
# Youngs Moduli (GPa) = 24.05555 44.14641 61.28711
#
# Poissons Ratio (x) = 0.54293 0.89743
# Poissons Ratio (y) = 0.29584 -0.09772
# Poissons Ratio (z) = 0.35225 -0.07039
#
# Static dielectric constant tensor:
#      x y z
#    x 1.641200 0.000000 -0.004980 
#    y 0.000000 1.626130 0.000000 
#    z -0.004980 0.000000 1.615360 
# 
# From -- ./inp_files/5373.got.cif
#   From: 2010.05.17/outbox.cif.g08.bks.cpg/sg13_3_cif.got.tgz:5373.got - 2010.06.03 16:44:36.
