data_PCOD9228137
_publ_section_title
;
Structure prediction by ZEFSAII (Michael W. Deem and Ramdas Pophale) SiO2 
 PCOD9228137
Probable space group: P 2/C
;
_chemical_formula_sum "Si O2"
_cell_formula_units_Z 24
_cell_length_a 26.598661
_cell_length_b 5.167715
_cell_length_c 22.749176
_cell_angle_alpha 90.000000
_cell_angle_beta 157.848338
_cell_angle_gamma 90.000000
_cell_volume 1179.054627
_symmetry_space_group_name_H-M "P 2/C"
_symmetry_group_IT_number 13
_symmetry_cell_setting 'monoclinic'
loop_
_space_group_symop_operation_xyz
x,y,z
-x,y,1/2-z
-x,-y,-z
x,-y,1/2+z
loop_
_atom_site_type_symbol
_atom_site_label
_atom_site_fract_x
_atom_site_fract_y
_atom_site_fract_z
Si Si1 0.390333 0.255122 0.943616
Si Si2 0.560858 0.769162 0.137197
Si Si3 0.974748 0.998693 0.153934
Si Si4 0.110129 0.302290 0.097517
Si Si5 0.814513 0.495615 0.941422
Si Si6 0.138546 0.944517 0.226597
O O1 0.377216 0.172188 0.860709
O O2 0.250283 0.254233 0.826146
O O3 0.456765 0.535610 0.017073
O O4 0.488644 0.035208 0.077194
O O5 0.674503 0.646996 0.302023
O O6 0.000000 0.028717 0.250000
O O7 0.871166 0.757632 0.032663
O O8 0.113275 0.950376 0.268350
O O9 0.920077 0.268497 0.068185
O O10 0.196151 0.424211 0.139004
O O11 0.178674 0.184474 0.228687
O O12 0.000000 0.500000 0.000000
O O13 0.014819 0.098845 0.960413
#
# Coordination Sequence:
#
# PCOD9228137 Si02
#       6
#     4   4   4   4   4   4
#     4  10  22  34  55  84 126 152 189 224 279 360
#     4  10  22  36  54  86 119 161 183 225 286 347
#     4  11  24  41  62  86 112 154 198 249 299 342
#     4  10  19  32  55  88 116 147 187 232 311 349
#     4  11  22  38  62  83 121 150 193 244 292 360
#     4  10  22  34  55  87 118 150 188 246 290 355
#
# _framework density 20.355293
#
# number of rings (size 3 to 8) (size 9 to 14) (size 15 to 20)
#    0.000    1.667    1.667    2.500   14.000    0.000 
#    0.000    0.000    0.000    6.000    0.000    0.000 
#    0.000    0.000    0.000    0.000    0.000    0.000 
#
# Total GULP energy -133707.338082 kJ/mol
# GULP energy per Si atom -5571.139087 kJ/mol
# Density = 2.030896 g / cm^3
# Si number density = 20.355293 Si / 1000 Ang^3
#
#
#
# Elastic Constant Matrix: (Units=GPa)
#
#
# Indices 1 2 3 4 5 6 
#
# 1 105.5390 21.3135 26.0390 0.0000 2.6829 0.0000
# 2 21.3135 108.5344 16.1481 0.0000 -2.0866 0.0000
# 3 26.0390 16.1481 53.6259 0.0000 14.8169 0.0000
# 4 0.0000 0.0000 0.0000 33.0591 0.0000 6.6153
# 5 2.6829 -2.0866 14.8169 0.0000 19.5305 0.0000
# 6 0.0000 0.0000 0.0000 6.6153 0.0000 17.1848
#
#
#
# Elastic Compliance Matrix: (Units=1/GPa)
#
#
# Indices 1 2 3 4 5 6 
#
# 1 0.011080 -0.001269 -0.005744 0.000000 0.002700 0.000000
# 2 -0.001269 0.010057 -0.003488 0.000000 0.003895 0.000000
# 3 -0.005744 -0.003488 0.028306 0.000000 -0.021058 0.000000
# 4 0.000000 0.000000 0.000000 0.032773 0.000000 -0.012616
# 5 0.002700 0.003895 -0.021058 0.000000 0.067223 0.000000
# 6 0.000000 0.000000 0.000000 -0.012616 0.000000 0.063048
#
#
# Mechanical properties :
#
#
# Convention : Reuss Voigt Hill
#
# Bulk Modulus (GPa) = 35.16255 43.85561 39.50908
# Shear Modulus (GPa) = 20.57873 27.56811 24.07342
#
# Velocity S-wave (km/s) = 3.18304 3.68414 3.44272
# Velocity P-wave (km/s) = 5.55165 6.29992 5.93759
#
# Compressibility (1/GPa) = 0.02843935
#
# Stress axis : x y z
#
# Youngs Moduli (GPa) = 90.25241 99.43506 35.32882
#
# Poissons Ratio (x) = 0.12622 0.20293
# Poissons Ratio (y) = 0.11456 0.12324
# Poissons Ratio (z) = 0.51840 0.34685
#
# Static dielectric constant tensor:
#      x y z
#    x 1.809020 0.000000 0.017490 
#    y 0.000000 1.870120 0.000000 
#    z 0.017490 0.000000 1.841330 
# 
# From -- ./inp_files/89391.got.cif
#   From: 2010.05.17/outbox.cif.g08.bks.cpg/sg13_45_cif.got.tgz:89391.got - 2010.06.03 16:44:36.
