data_PCOD9228158
_publ_section_title
;
Structure prediction by ZEFSAII (Michael W. Deem and Ramdas Pophale) SiO2 
 PCOD9228158
Probable space group: P 2/C
;
_chemical_formula_sum "Si O2"
_cell_formula_units_Z 26
_cell_length_a 32.153204
_cell_length_b 6.847920
_cell_length_c 5.292248
_cell_angle_alpha 90.000000
_cell_angle_beta 94.342649
_cell_angle_gamma 90.000000
_cell_volume 1161.915349
_symmetry_space_group_name_H-M "P 2/C"
_symmetry_group_IT_number 13
_symmetry_cell_setting 'monoclinic'
loop_
_space_group_symop_operation_xyz
x,y,z
-x,y,1/2-z
-x,-y,-z
x,-y,1/2+z
loop_
_atom_site_type_symbol
_atom_site_label
_atom_site_fract_x
_atom_site_fract_y
_atom_site_fract_z
Si Si1 0.000000 0.863944 0.250000
Si Si2 0.614504 0.266237 0.943140
Si Si3 0.089248 0.867061 0.348074
Si Si4 0.731894 0.134705 0.637706
Si Si5 0.352693 0.293063 0.040901
Si Si6 0.176637 0.130518 0.780740
Si Si7 0.518699 0.781173 0.508605
O O1 0.045002 0.759268 0.285015
O O2 0.000000 0.000000 0.500000
O O3 0.619540 0.189304 0.660979
O O4 0.627175 0.493866 0.911566
O O5 0.645482 0.201212 0.179970
O O6 0.568196 0.231740 0.019337
O O7 0.133138 0.759537 0.316269
O O8 0.089552 0.963108 0.628854
O O9 0.694037 0.285588 0.587209
O O10 0.778273 0.227717 0.659319
O O11 0.728757 0.987254 0.396876
O O12 0.175951 0.039824 0.497715
O O13 0.500000 0.693800 0.750000
O O14 0.500000 0.000000 0.500000
O O15 0.500000 0.692601 0.250000
#
# Coordination Sequence:
#
# PCOD9228158 Si02
#       7
#     2   4   4   4   4   4   4
#     4   8  12  16  24  38  62  88 138 180 218 262
#     4  10  21  40  60  78 104 129 160 186 227 285
#     4   8  12  18  27  43  63 100 135 181 223 266
#     4  10  19  33  48  75  99 126 161 203 238 279
#     4  10  21  38  55  79 101 133 160 192 233 277
#     4   8  14  23  37  52  81 110 145 184 233 273
#     4  10  21  40  59  84 107 126 153 189 226 270
#
# _framework density 22.376844999999999
#
# number of rings (size 3 to 8) (size 9 to 14) (size 15 to 20)
#    0.000    2.769    0.000    1.846    0.000    0.000 
#   16.615    9.231    0.000    0.000    0.000    0.000 
#    0.000    0.000    0.000    0.000    0.000    6.154 
#
# Total GULP energy -144764.958915 kJ/mol
# GULP energy per Si atom -5567.883035 kJ/mol
# Density = 2.232591 g / cm^3
# Si number density = 22.376845 Si / 1000 Ang^3
#
#
#
# Elastic Constant Matrix: (Units=GPa)
#
#
# Indices 1 2 3 4 5 6 
#
# 1 183.7479 5.7349 -7.2413 0.0000 20.5720 0.0000
# 2 5.7349 70.8309 -10.2470 0.0000 2.0534 0.0000
# 3 -7.2413 -10.2470 173.6192 0.0000 -11.3973 0.0000
# 4 0.0000 0.0000 0.0000 292.7299 0.0000 104.0428
# 5 20.5720 2.0534 -11.3973 0.0000 39.1651 0.0000
# 6 0.0000 0.0000 0.0000 104.0428 0.0000 31.4005
#
#
#
# Elastic Compliance Matrix: (Units=1/GPa)
#
#
# Indices 1 2 3 4 5 6 
#
# 1 0.005793 -0.000378 0.000021 0.000000 -0.003017 0.000000
# 2 -0.000378 0.014275 0.000806 0.000000 -0.000315 0.000000
# 3 0.000021 0.000806 0.005918 0.000000 0.001669 0.000000
# 4 0.000000 0.000000 0.000000 -0.019228 0.000000 0.063711
# 5 -0.003017 -0.000315 0.001669 0.000000 0.027620 0.000000
# 6 0.000000 0.000000 0.000000 0.063711 0.000000 -0.179254
#
#
# Mechanical properties :
#
#
# Convention : Reuss Voigt Hill
#
# Bulk Modulus (GPa) = 37.19907 44.96569 41.08238
# Shear Modulus (GPa) = -36.54575 101.98920 32.72172
#
# Velocity S-wave (km/s) = -4.04567 6.75847 3.82816
# Velocity P-wave (km/s) = 2.27227 9.00228 6.15945
#
# Compressibility (1/GPa) = 0.02688239
#
# Stress axis : x y z
#
# Youngs Moduli (GPa) = 172.63329 70.05496 168.98377
#
# Poissons Ratio (x) = 0.02651 -0.00359
# Poissons Ratio (y) = 0.06534 -0.13620
# Poissons Ratio (z) = -0.00367 -0.05647
#
# Static dielectric constant tensor:
#      x y z
#    x 1.912320 0.000000 0.004510 
#    y 0.000000 0.002920 0.000000 
#    z 0.004510 0.000000 1.896050 
# 
# From -- ./inp_files/8016.got.cif
#   From: 2010.05.17/outbox.cif.g08.bks.cpg/sg13_5_cif.got.tgz:8016.got - 2010.06.03 16:44:36.
