data_PCOD9228574
_publ_section_title
;
Structure prediction by ZEFSAII (Michael W. Deem and Ramdas Pophale) SiO2 
 PCOD9228574
Probable space group: P 2/C
;
_chemical_formula_sum "Si O2"
_cell_formula_units_Z 30
_cell_length_a 20.144631
_cell_length_b 5.288616
_cell_length_c 23.512982
_cell_angle_alpha 90.000000
_cell_angle_beta 36.488698
_cell_angle_gamma 90.000000
_cell_volume 1489.638413
_symmetry_space_group_name_H-M "P 2/C"
_symmetry_group_IT_number 13
_symmetry_cell_setting 'monoclinic'
loop_
_space_group_symop_operation_xyz
x,y,z
-x,y,1/2-z
-x,-y,-z
x,-y,1/2+z
loop_
_atom_site_type_symbol
_atom_site_label
_atom_site_fract_x
_atom_site_fract_y
_atom_site_fract_z
Si Si1 0.077779 0.745804 0.511447
Si Si2 0.617119 0.490569 0.885277
Si Si3 0.455431 0.981835 0.596385
Si Si4 0.000000 0.487425 0.250000
Si Si5 0.688476 0.918668 0.492820
Si Si6 0.793068 0.603092 0.969864
Si Si7 0.814337 0.754101 0.304505
Si Si8 0.938352 0.756715 0.109141
O O1 0.172361 0.645891 0.488720
O O2 0.103951 0.758227 0.426395
O O3 0.982420 0.530527 0.586498
O O4 0.034052 0.030601 0.553112
O O5 0.630302 0.751800 0.843900
O O6 0.716206 0.449057 0.861592
O O7 0.600885 0.251504 0.855262
O O8 0.500000 0.500000 0.000000
O O9 0.559490 0.908031 0.563954
O O10 0.500000 0.000000 0.500000
O O11 0.907445 0.354243 0.353745
O O12 0.924220 0.651022 0.259521
O O13 0.740400 0.667965 0.487427
O O14 0.757152 0.948734 0.386360
O O15 0.709763 0.171915 0.512489
O O16 0.848726 0.829786 0.218049
#
# Coordination Sequence:
#
# PCOD9228574 Si02
#       8
#     4   4   4   2   4   4   4   4
#     4  10  21  41  55  76 111 151 202 227 275 328
#     4  10  20  34  55  76 114 144 188 228 276 333
#     4  10  19  35  51  78 109 148 179 231 269 335
#     4  10  24  32  52  84 126 146 176 228 278 364
#     4  11  23  33  57  82 118 143 186 223 290 343
#     4  11  23  36  52  81 113 157 177 226 280 351
#     4  11  22  37  55  88 117 153 185 230 287 346
#     4  10  22  37  59  77 107 154 194 242 266 326
#
# _framework density 20.139115
#
# number of rings (size 3 to 8) (size 9 to 14) (size 15 to 20)
#    0.000    1.600    4.000    1.600    9.333    1.600 
#    0.000    0.000    0.000    0.000    0.000    5.600 
#    0.000    0.000    0.000    0.000    0.000    0.000 
#
# Total GULP energy -167192.643478 kJ/mol
# GULP energy per Si atom -5573.088116 kJ/mol
# Density = 2.009328 g / cm^3
# Si number density = 20.139115 Si / 1000 Ang^3
#
#
#
# Elastic Constant Matrix: (Units=GPa)
#
#
# Indices 1 2 3 4 5 6 
#
# 1 99.9065 21.9340 28.1239 0.0000 -19.1129 0.0000
# 2 21.9340 118.4841 3.1648 0.0000 -4.9787 0.0000
# 3 28.1239 3.1648 21.0753 0.0000 -3.7504 0.0000
# 4 0.0000 0.0000 0.0000 10.2216 0.0000 -7.8896
# 5 -19.1129 -4.9787 -3.7504 0.0000 31.7611 0.0000
# 6 0.0000 0.0000 0.0000 -7.8896 0.0000 23.3708
#
#
#
# Elastic Compliance Matrix: (Units=1/GPa)
#
#
# Indices 1 2 3 4 5 6 
#
# 1 0.018562 -0.002484 -0.022961 0.000000 0.008069 0.000000
# 2 -0.002484 0.008852 0.002008 0.000000 0.000130 0.000000
# 3 -0.022961 0.002008 0.077003 0.000000 -0.004410 0.000000
# 4 0.000000 0.000000 0.000000 0.132307 0.000000 0.044665
# 5 0.008069 0.000130 -0.004410 0.000000 0.035841 0.000000
# 6 0.000000 0.000000 0.000000 0.044665 0.000000 0.057867
#
#
# Mechanical properties :
#
#
# Convention : Reuss Voigt Hill
#
# Bulk Modulus (GPa) = 17.37808 38.43457 27.90633
# Shear Modulus (GPa) = 12.61081 25.48692 19.04886
#
# Velocity S-wave (km/s) = 2.50508 3.56131 3.07883
# Velocity P-wave (km/s) = 4.12493 6.00304 5.15032
#
# Compressibility (1/GPa) = 0.05754375
#
# Stress axis : x y z
#
# Youngs Moduli (GPa) = 53.87340 112.97419 12.98648
#
# Poissons Ratio (x) = 0.28061 0.29818
# Poissons Ratio (y) = 0.13381 -0.02608
# Poissons Ratio (z) = 1.23700 -0.22691
#
# Static dielectric constant tensor:
#      x y z
#    x 1.755900 0.000000 -0.001370 
#    y 0.000000 1.817570 0.000000 
#    z -0.001370 0.000000 1.715220 
# 
# From -- ./inp_files/87727.got.cif
#   From: 2010.05.17/outbox.cif.g08.bks.cpg/sg13_44_cif.got.tgz:87727.got - 2010.06.03 16:44:36.
