data_PCOD9228787
_publ_section_title
;
Structure prediction by ZEFSAII (Michael W. Deem and Ramdas Pophale) SiO2 
 PCOD9228787
Probable space group: P 2/C
;
_chemical_formula_sum "Si O2"
_cell_formula_units_Z 24
_cell_length_a 15.670963
_cell_length_b 6.439183
_cell_length_c 23.046205
_cell_angle_alpha 90.000000
_cell_angle_beta 29.945585
_cell_angle_gamma 90.000000
_cell_volume 1160.862266
_symmetry_space_group_name_H-M "P 2/C"
_symmetry_group_IT_number 13
_symmetry_cell_setting 'monoclinic'
loop_
_space_group_symop_operation_xyz
x,y,z
-x,y,1/2-z
-x,-y,-z
x,-y,1/2+z
loop_
_atom_site_type_symbol
_atom_site_label
_atom_site_fract_x
_atom_site_fract_y
_atom_site_fract_z
Si Si1 0.288944 0.805446 0.242928
Si Si2 0.974732 0.510901 0.910838
Si Si3 0.206205 0.868969 0.025982
Si Si4 0.115951 0.884177 0.756766
Si Si5 0.842949 0.875671 0.062248
Si Si6 0.594751 0.095904 0.499432
O O1 0.137504 0.636268 0.327779
O O2 0.300464 0.856797 0.303975
O O3 0.466283 0.746385 0.107212
O O4 0.226522 0.009310 0.243754
O O5 0.032532 0.675451 0.828972
O O6 0.824448 0.365292 0.975354
O O7 0.910899 0.651320 0.001739
O O8 0.033906 0.945711 0.160661
O O9 0.212551 0.003383 0.962991
O O10 0.357861 0.925792 0.979828
O O11 0.229729 0.832211 0.633913
O O12 0.000000 0.000000 0.000000
O O13 0.500000 0.000000 0.500000
#
# Coordination Sequence:
#
# PCOD9228787 Si02
#       6
#     4   4   4   4   4   4
#     4  10  20  35  60  91 123 163 195 253 314 367
#     4  10  19  35  66  95 115 157 216 249 304 375
#     4  10  21  37  62  90 115 162 207 252 306 372
#     4   9  19  38  60  86 119 159 206 255 302 366
#     4  11  19  36  64  92 124 157 200 254 304 370
#     4  10  22  41  59  82 125 164 201 255 315 358
#
# _framework density 20.674288000000001
#
# number of rings (size 3 to 8) (size 9 to 14) (size 15 to 20)
#    0.000    2.000    5.000    1.000    0.000    1.333 
#    0.000   26.667    0.000    4.000    0.000    0.000 
#    0.000    0.000    0.000    0.000    0.000    0.000 
#
# Total GULP energy -133790.086398 kJ/mol
# GULP energy per Si atom -5574.586933 kJ/mol
# Density = 2.062723 g / cm^3
# Si number density = 20.674288 Si / 1000 Ang^3
#
#
#
# Elastic Constant Matrix: (Units=GPa)
#
#
# Indices 1 2 3 4 5 6 
#
# 1 119.6242 36.0494 29.0695 0.0000 16.7863 0.0000
# 2 36.0494 96.3869 18.2500 0.0000 12.2636 0.0000
# 3 29.0695 18.2500 121.6237 0.0000 37.4634 0.0000
# 4 0.0000 0.0000 0.0000 16.7920 0.0000 5.3547
# 5 16.7863 12.2636 37.4634 0.0000 29.8977 0.0000
# 6 0.0000 0.0000 0.0000 5.3547 0.0000 13.3640
#
#
#
# Elastic Compliance Matrix: (Units=1/GPa)
#
#
# Indices 1 2 3 4 5 6 
#
# 1 0.009979 -0.003156 -0.000952 0.000000 -0.003116 0.000000
# 2 -0.003156 0.011957 -0.000122 0.000000 -0.002980 0.000000
# 3 -0.000952 -0.000122 0.013498 0.000000 -0.016329 0.000000
# 4 0.000000 0.000000 0.000000 0.068276 0.000000 -0.027357
# 5 -0.003116 -0.002980 -0.016329 0.000000 0.056880 0.000000
# 6 0.000000 0.000000 0.000000 -0.027357 0.000000 0.085790
#
#
# Mechanical properties :
#
#
# Convention : Reuss Voigt Hill
#
# Bulk Modulus (GPa) = 37.07163 56.04141 46.55652
# Shear Modulus (GPa) = 18.95160 28.96179 23.95670
#
# Velocity S-wave (km/s) = 3.03095 3.74687 3.40776
# Velocity P-wave (km/s) = 5.49719 6.77380 6.16861
#
# Compressibility (1/GPa) = 0.02697481
#
# Stress axis : x y z
#
# Youngs Moduli (GPa) = 100.21064 83.63070 74.08732
#
# Poissons Ratio (x) = 0.26390 0.07052
# Poissons Ratio (y) = 0.31622 0.00904
# Poissons Ratio (z) = 0.09539 0.01021
#
# Static dielectric constant tensor:
#      x y z
#    x 1.804640 0.000000 -0.041650 
#    y 0.000000 1.723330 0.000000 
#    z -0.041650 0.000000 1.809610 
# 
# From -- ./inp_files/87692.got.cif
#   From: 2010.05.17/outbox.cif.g08.bks.cpg/sg13_44_cif.got.tgz:87692.got - 2010.06.03 16:44:36.
