data_PCOD9228970
_publ_section_title
;
Structure prediction by ZEFSAII (Michael W. Deem and Ramdas Pophale) SiO2 
 PCOD9228970
Probable space group: P 2/C
;
_chemical_formula_sum "Si O2"
_cell_formula_units_Z 28
_cell_length_a 9.552251
_cell_length_b 14.179781
_cell_length_c 20.790352
_cell_angle_alpha 90.000000
_cell_angle_beta 150.528620
_cell_angle_gamma 90.000000
_cell_volume 1385.454472
_symmetry_space_group_name_H-M "P 2/C"
_symmetry_group_IT_number 13
_symmetry_cell_setting 'monoclinic'
loop_
_space_group_symop_operation_xyz
x,y,z
-x,y,1/2-z
-x,-y,-z
x,-y,1/2+z
loop_
_atom_site_type_symbol
_atom_site_label
_atom_site_fract_x
_atom_site_fract_y
_atom_site_fract_z
Si Si1 0.676634 0.287909 0.469996
Si Si2 0.854305 0.160157 0.913665
Si Si3 0.095414 0.174751 0.217117
Si Si4 0.744483 0.294433 0.977899
Si Si5 0.795589 0.038143 0.343130
Si Si6 0.781870 0.419827 0.397756
Si Si7 0.327103 0.408483 0.902150
O O1 0.383712 0.234754 0.337570
O O2 0.686798 0.376281 0.426729
O O3 0.692939 0.329125 0.548861
O O4 0.928954 0.221674 0.542741
O O5 0.667191 0.232905 0.882621
O O6 0.767257 0.074338 0.832289
O O7 0.986243 0.092190 0.022615
O O8 0.152612 0.076025 0.206339
O O9 0.000000 0.159512 0.250000
O O10 0.855101 0.228058 0.079640
O O11 0.507238 0.363375 0.914089
O O12 0.035418 0.346536 0.071640
O O13 0.500000 0.078773 0.250000
O O14 0.500000 0.453458 0.250000
O O15 0.000000 0.500000 0.500000
O O16 0.000000 0.431938 0.750000
O O17 0.500000 0.500000 0.000000
#
# Coordination Sequence:
#
# PCOD9228970 Si02
#       7
#     4   4   4   4   4   4   4
#     4  11  22  41  67  93 133 175 228 273 340 405
#     4   9  21  38  62  98 128 173 218 275 335 401
#     4  11  20  37  68  97 125 172 222 273 334 408
#     4  10  22  40  65  92 130 176 222 268 338 401
#     4  10  19  36  62  96 132 166 220 275 333 398
#     4  11  23  38  63  97 130 168 221 285 336 401
#     4  12  29  46  67  99 138 182 232 284 338 401
#
# _framework density 20.209975
#
# number of rings (size 3 to 8) (size 9 to 14) (size 15 to 20)
#    0.000    1.429    4.286    0.857    2.000    4.571 
#    0.000    5.714    0.000    0.000    0.000    0.000 
#    0.000    0.000    0.000    0.000    0.000    0.000 
#
# Total GULP energy -155986.502556 kJ/mol
# GULP energy per Si atom -5570.946520 kJ/mol
# Density = 2.016398 g / cm^3
# Si number density = 20.209975 Si / 1000 Ang^3
#
#
#
# Elastic Constant Matrix: (Units=GPa)
#
#
# Indices 1 2 3 4 5 6 
#
# 1 135.9017 49.3294 22.4599 0.0000 4.5556 0.0000
# 2 49.3294 103.3206 38.6168 0.0000 -2.0466 0.0000
# 3 22.4599 38.6168 84.0495 0.0000 8.7791 0.0000
# 4 0.0000 0.0000 0.0000 17.5143 0.0000 1.2202
# 5 4.5556 -2.0466 8.7791 0.0000 25.0716 0.0000
# 6 0.0000 0.0000 0.0000 1.2202 0.0000 -10.3784
#
#
#
# Elastic Compliance Matrix: (Units=1/GPa)
#
#
# Indices 1 2 3 4 5 6 
#
# 1 0.009003 -0.004238 -0.000261 0.000000 -0.001890 0.000000
# 2 -0.004238 0.013893 -0.005657 0.000000 0.003885 0.000000
# 3 -0.000261 -0.005657 0.015164 0.000000 -0.005724 0.000000
# 4 0.000000 0.000000 0.000000 0.056632 0.000000 0.006658
# 5 -0.001890 0.003885 -0.005724 0.000000 0.042551 0.000000
# 6 0.000000 0.000000 0.000000 0.006658 0.000000 -0.095571
#
#
# Mechanical properties :
#
#
# Convention : Reuss Voigt Hill
#
# Bulk Modulus (GPa) = 56.34141 60.45377 58.39759
# Shear Modulus (GPa) = 73.63676 20.63256 47.13466
#
# Velocity S-wave (km/s) = 6.04276 3.19863 4.83457
# Velocity P-wave (km/s) = 8.75358 6.60450 7.75386
#
# Compressibility (1/GPa) = 0.01774894
#
# Stress axis : x y z
#
# Youngs Moduli (GPa) = 111.07144 71.97722 65.94432
#
# Poissons Ratio (x) = 0.30507 0.01722
# Poissons Ratio (y) = 0.47076 0.37301
# Poissons Ratio (z) = 0.02900 0.40714
#
# Static dielectric constant tensor:
#      x y z
#    x 1.797520 0.000000 -0.066020 
#    y 0.000000 1.769020 0.000000 
#    z -0.066020 0.000000 1.850500 
# 
# From -- ./inp_files/76737.got.cif
#   From: 2010.05.17/outbox.cif.g08.bks.cpg/sg13_39_cif.got.tgz:76737.got - 2010.06.03 16:44:36.
