data_PCOD9228488
_publ_section_title
;
Structure prediction by ZEFSAII (Michael W. Deem and Ramdas Pophale) SiO2 
 PCOD9228488
Probable space group: P 2/C
;
_chemical_formula_sum "Si O2"
_cell_formula_units_Z 22
_cell_length_a 8.969404
_cell_length_b 8.273244
_cell_length_c 16.173697
_cell_angle_alpha 90.000000
_cell_angle_beta 71.633536
_cell_angle_gamma 90.000000
_cell_volume 1139.049682
_symmetry_space_group_name_H-M "P 2/C"
_symmetry_group_IT_number 13
_symmetry_cell_setting 'monoclinic'
loop_
_space_group_symop_operation_xyz
x,y,z
-x,y,1/2-z
-x,-y,-z
x,-y,1/2+z
loop_
_atom_site_type_symbol
_atom_site_label
_atom_site_fract_x
_atom_site_fract_y
_atom_site_fract_z
Si Si1 0.500000 0.719459 0.750000
Si Si2 0.007992 0.202597 0.366628
Si Si3 0.779144 0.494664 0.695586
Si Si4 0.169351 0.272357 0.674356
Si Si5 0.746361 0.928471 0.794829
Si Si6 0.985098 0.675068 0.045295
O O1 0.633738 0.601068 0.691236
O O2 0.589336 0.833382 0.799518
O O3 0.075393 0.379117 0.329045
O O4 0.140136 0.082660 0.306290
O O5 0.848209 0.161889 0.347294
O O6 0.987823 0.202287 0.468507
O O7 0.754856 0.423621 0.791234
O O8 0.827285 0.347683 0.627192
O O9 0.000000 0.251170 0.750000
O O10 0.123870 0.295038 0.586844
O O11 0.268560 0.112131 0.674242
O O12 0.000000 0.500000 0.000000
#
# Coordination Sequence:
#
# PCOD9228488 Si02
#       6
#     2   4   4   4   4   4
#     4  10  22  34  58  76 112 160 184 220 284 344
#     4   9  18  35  58  80 110 146 187 231 278 328
#     4   9  20  35  57  82 109 150 193 227 272 336
#     4  10  19  34  57  89 108 137 193 241 271 321
#     4  10  20  35  55  80 113 150 184 228 283 338
#     4   9  19  31  59  88 110 137 188 246 272 316
#
# _framework density 19.314347000000001
#
# number of rings (size 3 to 8) (size 9 to 14) (size 15 to 20)
#    0.000    2.545    1.818    0.000   22.909    1.455 
#    0.000    0.909    4.000    9.818    0.000    0.000 
#    0.000    0.000    0.000    0.000    0.000    0.000 
#
# Total GULP energy -122532.990111 kJ/mol
# GULP energy per Si atom -5569.681369 kJ/mol
# Density = 1.927039 g / cm^3
# Si number density = 19.314347 Si / 1000 Ang^3
#
#
#
# Elastic Constant Matrix: (Units=GPa)
#
#
# Indices 1 2 3 4 5 6 
#
# 1 89.2712 39.1881 27.7550 0.0000 26.8407 0.0000
# 2 39.1881 89.8323 31.9038 0.0000 18.2230 0.0000
# 3 27.7550 31.9038 100.9841 0.0000 27.0644 0.0000
# 4 0.0000 0.0000 0.0000 14.8615 0.0000 8.6597
# 5 26.8407 18.2230 27.0644 0.0000 15.2567 0.0000
# 6 0.0000 0.0000 0.0000 8.6597 0.0000 28.6792
#
#
#
# Elastic Compliance Matrix: (Units=1/GPa)
#
#
# Indices 1 2 3 4 5 6 
#
# 1 0.029505 -0.003022 0.011037 0.000000 -0.067877 0.000000
# 2 -0.003022 0.015002 -0.001013 0.000000 -0.010806 0.000000
# 3 0.011037 -0.001013 0.023007 0.000000 -0.059020 0.000000
# 4 0.000000 0.000000 0.000000 0.081654 0.000000 -0.024656
# 5 -0.067877 -0.010806 -0.059020 0.000000 0.302563 0.000000
# 6 0.000000 0.000000 0.000000 -0.024656 0.000000 0.042313
#
#
# Mechanical properties :
#
#
# Convention : Reuss Voigt Hill
#
# Bulk Modulus (GPa) = 12.26723 53.08683 32.67703
# Shear Modulus (GPa) = 9.85779 23.84219 16.84999
#
# Velocity S-wave (km/s) = 2.26163 3.51726 2.95686
# Velocity P-wave (km/s) = 3.63113 6.63628 5.34908
#
# Compressibility (1/GPa) = 0.08151801
#
# Stress axis : x y z
#
# Youngs Moduli (GPa) = 33.89251 66.65892 43.46535
#
# Poissons Ratio (x) = 0.20142 -0.47972
# Poissons Ratio (y) = 0.10241 0.04403
# Poissons Ratio (z) = -0.37407 0.06753
#
# Static dielectric constant tensor:
#      x y z
#    x 1.677070 0.000000 -0.011010 
#    y 0.000000 1.750870 0.000000 
#    z -0.011010 0.000000 1.742000 
# 
# From -- ./inp_files/46115.got.cif
#   From: 2010.05.17/outbox.cif.g08.bks.cpg/sg13_24_cif.got.tgz:46115.got - 2010.06.03 16:44:36.
