data_PCOD9228188
_publ_section_title
;
Structure prediction by ZEFSAII (Michael W. Deem and Ramdas Pophale) SiO2 
 PCOD9228188
Probable space group: P 2/C
;
_chemical_formula_sum "Si O2"
_cell_formula_units_Z 16
_cell_length_a 7.571667
_cell_length_b 17.951374
_cell_length_c 8.416186
_cell_angle_alpha 90.000000
_cell_angle_beta 36.305616
_cell_angle_gamma 90.000000
_cell_volume 677.319914
_symmetry_space_group_name_H-M "P 2/C"
_symmetry_group_IT_number 13
_symmetry_cell_setting 'monoclinic'
loop_
_space_group_symop_operation_xyz
x,y,z
-x,y,1/2-z
-x,-y,-z
x,-y,1/2+z
loop_
_atom_site_type_symbol
_atom_site_label
_atom_site_fract_x
_atom_site_fract_y
_atom_site_fract_z
Si Si1 0.324169 0.799500 0.539824
Si Si2 0.289506 0.948912 0.756162
Si Si3 0.127850 0.423878 0.336028
Si Si4 0.363391 0.656242 0.167057
O O1 0.238711 0.871978 0.701842
O O2 0.540731 0.737893 0.459999
O O3 0.000000 0.761696 0.750000
O O4 0.500000 0.821361 0.250000
O O5 0.500000 0.929565 0.750000
O O6 0.500000 0.000000 0.500000
O O7 0.000000 0.000000 0.000000
O O8 0.000000 0.420115 0.250000
O O9 0.000000 0.500000 0.500000
O O10 0.979849 0.361177 0.555681
O O11 0.475115 0.406115 0.057724
O O12 0.500000 0.652983 0.250000
#
# Coordination Sequence:
#
# PCOD9228188 Si02
#       4
#     4   4   4   4
#     4  11  21  38  63  88 115 155 203 252 303 363
#     4  12  25  42  63  91 125 161 201 250 306 368
#     4  10  19  33  52  78 109 146 189 236 287 347
#     4   9  18  33  55  79 108 146 191 238 290 352
#
# _framework density 23.622516999999998
#
# number of rings (size 3 to 8) (size 9 to 14) (size 15 to 20)
#    0.000    1.500    0.000    9.000    0.000    0.000 
#    0.000    2.500    0.000    0.000    0.000    0.000 
#    0.000    0.000    0.000    0.000    0.000    0.000 
#
# Total GULP energy -89357.655692 kJ/mol
# GULP energy per Si atom -5584.853481 kJ/mol
# Density = 2.356875 g / cm^3
# Si number density = 23.622517 Si / 1000 Ang^3
#
#
#
# Elastic Constant Matrix: (Units=GPa)
#
#
# Indices 1 2 3 4 5 6 
#
# 1 51.3459 10.6405 25.7540 0.0000 -1.1662 0.0000
# 2 10.6405 153.3383 64.1917 0.0000 8.3919 0.0000
# 3 25.7540 64.1917 193.5783 0.0000 -13.2709 0.0000
# 4 0.0000 0.0000 0.0000 57.5338 0.0000 8.2168
# 5 -1.1662 8.3919 -13.2709 0.0000 22.6035 0.0000
# 6 0.0000 0.0000 0.0000 8.2168 0.0000 18.7809
#
#
#
# Elastic Compliance Matrix: (Units=1/GPa)
#
#
# Indices 1 2 3 4 5 6 
#
# 1 0.020886 -0.000293 -0.002709 0.000000 -0.000404 0.000000
# 2 -0.000293 0.008036 -0.002950 0.000000 -0.004730 0.000000
# 3 -0.002709 -0.002950 0.006846 0.000000 0.004975 0.000000
# 4 0.000000 0.000000 0.000000 0.018539 0.000000 -0.008111
# 5 -0.000404 -0.004730 0.004975 0.000000 0.048897 0.000000
# 6 0.000000 0.000000 0.000000 -0.008111 0.000000 0.056794
#
#
# Mechanical properties :
#
#
# Convention : Reuss Voigt Hill
#
# Bulk Modulus (GPa) = 41.90608 66.60387 54.25497
# Shear Modulus (GPa) = 27.79982 39.62872 33.71427
#
# Velocity S-wave (km/s) = 3.43423 4.10027 3.78194
# Velocity P-wave (km/s) = 5.78823 7.11847 6.48753
#
# Compressibility (1/GPa) = 0.02386289
#
# Stress axis : x y z
#
# Youngs Moduli (GPa) = 47.87843 124.44459 146.07942
#
# Poissons Ratio (x) = 0.03647 0.39577
# Poissons Ratio (y) = 0.01403 0.43093
# Poissons Ratio (z) = 0.12972 0.36711
#
# Static dielectric constant tensor:
#      x y z
#    x 1.844410 0.000000 -0.007870 
#    y 0.000000 2.751930 0.000000 
#    z -0.007870 0.000000 1.869670 
# 
# From -- ./inp_files/12971.got.cif
#   From: 2010.05.17/outbox.cif.g08.bks.cpg/sg13_7_cif.got.tgz:12971.got - 2010.06.03 16:44:36.
