data_PCOD9228541
_publ_section_title
;
Structure prediction by ZEFSAII (Michael W. Deem and Ramdas Pophale) SiO2 
 PCOD9228541
Probable space group: P 2/C
;
_chemical_formula_sum "Si O2"
_cell_formula_units_Z 26
_cell_length_a 19.826922
_cell_length_b 6.921305
_cell_length_c 6.865184
_cell_angle_alpha 90.000000
_cell_angle_beta 76.347050
_cell_angle_gamma 90.000000
_cell_volume 915.476104
_symmetry_space_group_name_H-M "P 2/C"
_symmetry_group_IT_number 13
_symmetry_cell_setting 'monoclinic'
loop_
_space_group_symop_operation_xyz
x,y,z
-x,y,1/2-z
-x,-y,-z
x,-y,1/2+z
loop_
_atom_site_type_symbol
_atom_site_label
_atom_site_fract_x
_atom_site_fract_y
_atom_site_fract_z
Si Si1 0.805129 0.672463 0.006765
Si Si2 0.219003 0.224556 0.531731
Si Si3 0.095977 0.837961 0.864852
Si Si4 0.368001 0.758227 0.005358
Si Si5 0.512636 0.268216 0.513587
Si Si6 0.655996 0.299030 0.526277
Si Si7 0.000000 0.832540 0.250000
O O1 0.792764 0.443296 0.035879
O O2 0.873508 0.719510 0.837374
O O3 0.799517 0.752589 0.228277
O O4 0.736445 0.737913 0.932066
O O5 0.162050 0.106985 0.453150
O O6 0.298345 0.152865 0.462595
O O7 0.054649 0.023420 0.816798
O O8 0.043126 0.729494 0.049489
O O9 0.448706 0.817523 0.933982
O O10 0.356580 0.768018 0.245763
O O11 0.357997 0.530503 0.961653
O O12 0.500000 0.228592 0.750000
O O13 0.500000 0.500000 0.500000
O O14 0.594394 0.224573 0.428251
#
# Coordination Sequence:
#
# PCOD9228541 Si02
#       7
#     4   4   4   4   4   4   2
#     4  10  19  34  59  92 124 155 186 231 291 346
#     4  10  19  34  59  92 124 155 186 231 291 346
#     4  11  24  46  67  85 117 145 188 235 292 351
#     4   8  14  22  38  67 108 153 190 218 261 323
#     4   8  12  20  32  56 102 156 193 217 246 308
#     4   8  14  22  38  67 108 153 190 218 261 323
#     4  10  28  50  64  84 106 152 188 240 290 352
#
# _framework density 28.400521000000001
#
# number of rings (size 3 to 8) (size 9 to 14) (size 15 to 20)
#    0.000    2.769    1.538    0.000    6.462    0.000 
#    0.000    2.308    0.000    0.000    0.000    0.000 
#    0.000    4.923    0.000    0.308    0.000    0.000 
#
# Total GULP energy -145617.257405 kJ/mol
# GULP energy per Si atom -5600.663746 kJ/mol
# Density = 2.833588 g / cm^3
# Si number density = 28.400521 Si / 1000 Ang^3
#
#
#
# Elastic Constant Matrix: (Units=GPa)
#
#
# Indices 1 2 3 4 5 6 
#
# 1 245.2742 27.6811 71.1113 0.0000 13.9658 0.0000
# 2 27.6811 109.2657 25.5338 0.0000 -2.8245 0.0000
# 3 71.1113 25.5338 147.4964 0.0000 -15.3522 0.0000
# 4 0.0000 0.0000 0.0000 9.5062 0.0000 16.0661
# 5 13.9658 -2.8245 -15.3522 0.0000 77.4054 0.0000
# 6 0.0000 0.0000 0.0000 16.0661 0.0000 -742.3150
#
#
#
# Elastic Compliance Matrix: (Units=1/GPa)
#
#
# Indices 1 2 3 4 5 6 
#
# 1 0.004933 -0.000725 -0.002398 0.000000 -0.001392 0.000000
# 2 -0.000725 0.009645 -0.001296 0.000000 0.000226 0.000000
# 3 -0.002398 -0.001296 0.008373 0.000000 0.002046 0.000000
# 4 0.000000 0.000000 0.000000 0.101483 0.000000 0.002196
# 5 -0.001392 0.000226 0.002046 0.000000 0.013584 0.000000
# 6 0.000000 0.000000 0.000000 0.002196 0.000000 -0.001300
#
#
# Mechanical properties :
#
#
# Convention : Reuss Voigt Hill
#
# Bulk Modulus (GPa) = 70.86204 83.40986 77.13595
# Shear Modulus (GPa) = 33.27522 -105.90002 -36.31240
#
# Velocity S-wave (km/s) = 3.42664 -6.11302 -3.57961
# Velocity P-wave (km/s) = 6.37659 4.51580 3.18343
#
# Compressibility (1/GPa) = 0.01411193
#
# Stress axis : x y z
#
# Youngs Moduli (GPa) = 202.69993 103.68532 119.42799
#
# Poissons Ratio (x) = 0.07522 0.28637
# Poissons Ratio (y) = 0.14705 0.15482
# Poissons Ratio (z) = 0.48604 0.13441
#
# Static dielectric constant tensor:
#      x y z
#    x 2.225110 0.000000 -0.041890 
#    y 0.000000 2.267570 0.000000 
#    z -0.041890 0.000000 2.284870 
# 
# From -- ./inp_files/21121.got.cif
#   From: 2010.05.17/outbox.cif.g08.bks.cpg/sg13_11_cif.got.tgz:21121.got - 2010.06.03 16:44:36.
