data_PCOD9228822
_publ_section_title
;
Structure prediction by ZEFSAII (Michael W. Deem and Ramdas Pophale) SiO2 
 PCOD9228822
Probable space group: P 2/C
;
_chemical_formula_sum "Si O2"
_cell_formula_units_Z 24
_cell_length_a 29.329144
_cell_length_b 9.223391
_cell_length_c 9.036218
_cell_angle_alpha 90.000000
_cell_angle_beta 30.883215
_cell_angle_gamma 90.000000
_cell_volume 1254.698531
_symmetry_space_group_name_H-M "P 2/C"
_symmetry_group_IT_number 13
_symmetry_cell_setting 'monoclinic'
loop_
_space_group_symop_operation_xyz
x,y,z
-x,y,1/2-z
-x,-y,-z
x,-y,1/2+z
loop_
_atom_site_type_symbol
_atom_site_label
_atom_site_fract_x
_atom_site_fract_y
_atom_site_fract_z
Si Si1 0.500000 0.495271 0.750000
Si Si2 0.000000 0.719046 0.750000
Si Si3 0.820745 0.093756 0.755300
Si Si4 0.770397 0.630498 0.282105
Si Si5 0.214094 0.186728 0.317108
Si Si6 0.622861 0.609459 0.157431
Si Si7 0.125428 0.555404 0.206327
O O1 0.558999 0.592156 0.475586
O O2 0.435851 0.398557 0.826541
O O3 0.083612 0.827488 0.536200
O O4 0.031751 0.607790 0.532767
O O5 0.756091 0.198653 0.840274
O O6 0.816272 0.929759 0.716902
O O7 0.794888 0.110601 0.998123
O O8 0.685381 0.534167 0.482552
O O9 0.808576 0.580471 0.336552
O O10 0.844415 0.593795 0.951726
O O11 0.150420 0.326440 0.511114
O O12 0.311045 0.254561 0.021290
#
# Coordination Sequence:
#
# PCOD9228822 Si02
#       7
#     2   2   4   4   4   4   4
#     4  10  20  32  62  86 102 132 162 224 276 302
#     4   8  18  34  50  78 112 134 184 228 254 294
#     4  10  20  33  54  76 105 147 177 216 259 294
#     4   9  18  33  53  77 106 140 173 209 261 317
#     4   9  20  35  52  75 105 142 178 209 255 319
#     4  10  19  36  56  82 107 129 174 213 261 326
#     4   9  18  31  51  75 106 142 173 220 261 295
#
# _framework density 19.128101000000001
#
# number of rings (size 3 to 8) (size 9 to 14) (size 15 to 20)
#    0.000    3.000    0.000    3.000    0.000    9.333 
#    0.000    0.000    0.000   45.000    0.000    0.000 
#    0.000    0.000    0.000    0.000    0.000    0.000 
#
# Total GULP energy -133669.457592 kJ/mol
# GULP energy per Si atom -5569.560733 kJ/mol
# Density = 1.908456 g / cm^3
# Si number density = 19.128101 Si / 1000 Ang^3
#
#
#
# Elastic Constant Matrix: (Units=GPa)
#
#
# Indices 1 2 3 4 5 6 
#
# 1 29.7069 -4.5548 13.3058 0.0000 -6.2013 0.0000
# 2 -4.5548 28.6870 7.2527 0.0000 5.2393 0.0000
# 3 13.3058 7.2527 97.6204 0.0000 -1.1132 0.0000
# 4 0.0000 0.0000 0.0000 23.7273 0.0000 4.2798
# 5 -6.2013 5.2393 -1.1132 0.0000 25.9506 0.0000
# 6 0.0000 0.0000 0.0000 4.2798 0.0000 28.0214
#
#
#
# Elastic Compliance Matrix: (Units=1/GPa)
#
#
# Indices 1 2 3 4 5 6 
#
# 1 0.038762 0.006163 -0.005653 0.000000 0.007776 0.000000
# 2 0.006163 0.037940 -0.003731 0.000000 -0.006347 0.000000
# 3 -0.005653 -0.003731 0.011290 0.000000 -0.000113 0.000000
# 4 0.000000 0.000000 0.000000 0.043339 0.000000 -0.006619
# 5 0.007776 -0.006347 -0.000113 0.000000 0.041670 0.000000
# 6 0.000000 0.000000 0.000000 -0.006619 0.000000 0.036698
#
#
# Mechanical properties :
#
#
# Convention : Reuss Voigt Hill
#
# Bulk Modulus (GPa) = 12.26216 20.89129 16.57672
# Shear Modulus (GPa) = 20.54872 24.87392 22.71132
#
# Velocity S-wave (km/s) = 3.28116 3.61000 3.44950
# Velocity P-wave (km/s) = 4.55841 5.32181 4.95483
#
# Compressibility (1/GPa) = 0.08155172
#
# Stress axis : x y z
#
# Youngs Moduli (GPa) = 25.79830 26.35729 88.57295
#
# Poissons Ratio (x) = -0.16245 0.50066
# Poissons Ratio (y) = -0.15900 0.33048
# Poissons Ratio (z) = 0.14583 0.09834
#
# Static dielectric constant tensor:
#      x y z
#    x 1.712940 0.000000 -0.010700 
#    y 0.000000 1.663330 0.000000 
#    z -0.010700 0.000000 1.711900 
# 
# From -- ./inp_files/24849.got.cif
#   From: 2010.05.17/outbox.cif.g08.bks.cpg/sg13_13_cif.got.tgz:24849.got - 2010.06.03 16:44:36.
