data_PCOD9228453
_publ_section_title
;
Structure prediction by ZEFSAII (Michael W. Deem and Ramdas Pophale) SiO2 
 PCOD9228453
Probable space group: P 2/C
;
_chemical_formula_sum "Si O2"
_cell_formula_units_Z 24
_cell_length_a 10.886876
_cell_length_b 7.275040
_cell_length_c 13.528226
_cell_angle_alpha 90.000000
_cell_angle_beta 117.907423
_cell_angle_gamma 90.000000
_cell_volume 946.862297
_symmetry_space_group_name_H-M "P 2/C"
_symmetry_group_IT_number 13
_symmetry_cell_setting 'monoclinic'
loop_
_space_group_symop_operation_xyz
x,y,z
-x,y,1/2-z
-x,-y,-z
x,-y,1/2+z
loop_
_atom_site_type_symbol
_atom_site_label
_atom_site_fract_x
_atom_site_fract_y
_atom_site_fract_z
Si Si1 0.651460 0.563702 0.911727
Si Si2 0.709783 0.831920 0.579093
Si Si3 0.925807 0.682779 0.547757
Si Si4 0.648826 0.488085 0.687756
Si Si5 0.527884 0.952275 0.875818
Si Si6 0.075588 0.334726 0.676034
O O1 0.653015 0.588993 0.794541
O O2 0.512908 0.448817 0.886029
O O3 0.612985 0.765195 0.937795
O O4 0.795327 0.461009 0.986638
O O5 0.869211 0.836776 0.601665
O O6 0.694102 0.630872 0.621971
O O7 0.620503 0.949723 0.624212
O O8 0.628341 0.888253 0.449550
O O9 0.957165 0.746389 0.446403
O O10 0.039797 0.552063 0.641359
O O11 0.760250 0.327369 0.739417
O O12 0.500000 0.961508 0.750000
O O13 0.000000 0.280255 0.750000
#
# Coordination Sequence:
#
# PCOD9228453 Si02
#       6
#     4   4   4   4   4   4
#     4   9  17  34  56  82 113 145 194 239 301 346
#     4  10  19  34  56  84 112 149 200 230 289 352
#     4  10  21  34  57  91 108 151 201 247 286 353
#     4   9  16  32  56  77 107 158 187 225 291 363
#     4  10  19  35  54  84 120 154 182 241 297 351
#     4  10  19  35  55  81 120 156 191 238 295 358
#
# _framework density 25.346874
#
# number of rings (size 3 to 8) (size 9 to 14) (size 15 to 20)
#    0.000    2.333    5.000    0.000    0.000    2.667 
#    6.000    1.667    0.000    9.000    0.000    0.000 
#    0.000    0.000    0.000    0.000    0.000    0.000 
#
# Total GULP energy -133756.479753 kJ/mol
# GULP energy per Si atom -5573.186656 kJ/mol
# Density = 2.528918 g / cm^3
# Si number density = 25.346874 Si / 1000 Ang^3
#
#
#
# Elastic Constant Matrix: (Units=GPa)
#
#
# Indices 1 2 3 4 5 6 
#
# 1 129.4133 5.1088 33.0874 0.0000 -26.5919 0.0000
# 2 5.1088 41.8187 -0.3450 0.0000 15.5516 0.0000
# 3 33.0874 -0.3450 84.3767 0.0000 -7.7355 0.0000
# 4 0.0000 0.0000 0.0000 12.2482 0.0000 7.4077
# 5 -26.5919 15.5516 -7.7355 0.0000 49.3616 0.0000
# 6 0.0000 0.0000 0.0000 7.4077 0.0000 15.8378
#
#
#
# Elastic Compliance Matrix: (Units=1/GPa)
#
#
# Indices 1 2 3 4 5 6 
#
# 1 0.009939 -0.003440 -0.003370 0.000000 0.005910 0.000000
# 2 -0.003440 0.028315 0.000484 0.000000 -0.010698 0.000000
# 3 -0.003370 0.000484 0.013184 0.000000 0.000098 0.000000
# 4 0.000000 0.000000 0.000000 0.113851 0.000000 -0.053251
# 5 0.005910 -0.010698 0.000098 0.000000 0.026828 0.000000
# 6 0.000000 0.000000 0.000000 -0.053251 0.000000 0.088047
#
#
# Mechanical properties :
#
#
# Convention : Reuss Voigt Hill
#
# Bulk Modulus (GPa) = 25.78176 36.81233 31.29704
# Shear Modulus (GPa) = 16.35350 30.00669 23.18010
#
# Velocity S-wave (km/s) = 2.54281 3.44443 3.02738
# Velocity P-wave (km/s) = 4.33761 5.51124 4.95926
#
# Compressibility (1/GPa) = 0.03878711
#
# Stress axis : x y z
#
# Youngs Moduli (GPa) = 100.61518 35.31651 75.84955
#
# Poissons Ratio (x) = 0.12148 0.25559
# Poissons Ratio (y) = 0.34609 -0.03670
# Poissons Ratio (z) = 0.33904 -0.01709
#
# Static dielectric constant tensor:
#      x y z
#    x 2.027420 0.000000 -0.034690 
#    y 0.000000 2.033150 0.000000 
#    z -0.034690 0.000000 2.021040 
# 
# From -- ./inp_files/49756.got.cif
#   From: 2010.05.17/outbox.cif.g08.bks.cpg/sg13_25_cif.got.tgz:49756.got - 2010.06.03 16:44:36.
