data_PCOD9228634
_publ_section_title
;
Structure prediction by ZEFSAII (Michael W. Deem and Ramdas Pophale) SiO2 
 PCOD9228634
Probable space group: P 2/C
;
_chemical_formula_sum "Si O2"
_cell_formula_units_Z 32
_cell_length_a 22.366290
_cell_length_b 9.413768
_cell_length_c 14.197042
_cell_angle_alpha 90.000000
_cell_angle_beta 30.132445
_cell_angle_gamma 90.000000
_cell_volume 1500.581259
_symmetry_space_group_name_H-M "P 2/C"
_symmetry_group_IT_number 13
_symmetry_cell_setting 'monoclinic'
loop_
_space_group_symop_operation_xyz
x,y,z
-x,y,1/2-z
-x,-y,-z
x,-y,1/2+z
loop_
_atom_site_type_symbol
_atom_site_label
_atom_site_fract_x
_atom_site_fract_y
_atom_site_fract_z
Si Si1 0.631685 0.636637 0.281056
Si Si2 0.121144 0.827878 0.034754
Si Si3 0.310106 0.933177 0.277956
Si Si4 0.965940 0.546506 0.440952
Si Si5 0.420528 0.287066 0.945263
Si Si6 0.220555 0.407590 0.531951
Si Si7 0.523810 0.965181 0.617143
Si Si8 0.731109 0.459016 0.823260
O O1 0.500639 0.682965 0.427064
O O2 0.629195 0.596033 0.393956
O O3 0.714199 0.775722 0.150262
O O4 0.683670 0.508359 0.147958
O O5 0.074045 0.710385 0.023248
O O6 0.200684 0.734091 0.998684
O O7 0.000000 0.877610 0.250000
O O8 0.202354 0.962386 0.899357
O O9 0.400635 0.006053 0.229222
O O10 0.386151 0.901319 0.080425
O O11 0.844761 0.456996 0.598352
O O12 0.000000 0.500000 0.500000
O O13 0.086155 0.525342 0.217590
O O14 0.500000 0.340201 0.750000
O O15 0.414249 0.118269 0.944272
O O16 0.300892 0.376926 0.110613
O O17 0.251280 0.384837 0.600447
O O18 0.500000 0.893389 0.750000
#
# Coordination Sequence:
#
# PCOD9228634 Si02
#       8
#     4   4   4   4   4   4   4   4
#     4  11  22  37  58  91 122 155 201 259 303 367
#     4  10  20  40  63  87 123 165 202 252 306 371
#     4  10  22  40  59  90 123 163 211 241 311 372
#     4   9  19  35  62  87 108 151 205 244 301 362
#     4  10  19  35  57  88 121 156 200 247 306 361
#     4  10  21  37  60  89 116 154 205 249 308 356
#     4   9  20  38  62  83 120 169 206 245 299 373
#     4  11  20  35  59  87 120 153 198 260 304 357
#
# _framework density 21.32507
#
# number of rings (size 3 to 8) (size 9 to 14) (size 15 to 20)
#    0.000    2.000    2.500    1.125    0.000    1.000 
#    4.500    0.625    0.000    3.000    0.000    0.000 
#    0.000    0.000    0.000    0.000    0.000    0.000 
#
# Total GULP energy -178319.138308 kJ/mol
# GULP energy per Si atom -5572.473072 kJ/mol
# Density = 2.127653 g / cm^3
# Si number density = 21.325070 Si / 1000 Ang^3
#
#
#
# Elastic Constant Matrix: (Units=GPa)
#
#
# Indices 1 2 3 4 5 6 
#
# 1 78.8828 -1.1417 7.4626 0.0000 18.1079 0.0000
# 2 -1.1417 56.5075 17.8949 0.0000 -4.5298 0.0000
# 3 7.4626 17.8949 68.5719 0.0000 9.3393 0.0000
# 4 0.0000 0.0000 0.0000 23.9609 0.0000 -7.2864
# 5 18.1079 -4.5298 9.3393 0.0000 21.1983 0.0000
# 6 0.0000 0.0000 0.0000 -7.2864 0.0000 22.0858
#
#
#
# Elastic Compliance Matrix: (Units=1/GPa)
#
#
# Indices 1 2 3 4 5 6 
#
# 1 0.015812 -0.000924 0.000412 0.000000 -0.013886 0.000000
# 2 -0.000924 0.020296 -0.006271 0.000000 0.007889 0.000000
# 3 0.000412 -0.006271 0.017452 0.000000 -0.009380 0.000000
# 4 0.000000 0.000000 0.000000 0.046389 0.000000 0.015304
# 5 -0.013886 0.007889 -0.009380 0.000000 0.064854 0.000000
# 6 0.000000 0.000000 0.000000 0.015304 0.000000 0.050327
#
#
# Mechanical properties :
#
#
# Convention : Reuss Voigt Hill
#
# Bulk Modulus (GPa) = 25.00312 28.04375 26.52344
# Shear Modulus (GPa) = 20.65879 25.43209 23.04544
#
# Velocity S-wave (km/s) = 3.11586 3.45714 3.29093
# Velocity P-wave (km/s) = 4.96941 5.39582 5.18700
#
# Compressibility (1/GPa) = 0.03999500
#
# Stress axis : x y z
#
# Youngs Moduli (GPa) = 63.24199 49.27021 57.29857
#
# Poissons Ratio (x) = 0.04553 -0.02358
# Poissons Ratio (y) = 0.05843 0.35929
# Poissons Ratio (z) = -0.02603 0.30895
#
# Static dielectric constant tensor:
#      x y z
#    x 1.841630 0.000000 -0.016010 
#    y 0.000000 1.786200 0.000000 
#    z -0.016010 0.000000 1.845830 
# 
# From -- ./inp_files/58810.got.cif
#   From: 2010.05.17/outbox.cif.g08.bks.cpg/sg13_30_cif.got.tgz:58810.got - 2010.06.03 16:44:36.
