data_PCOD9228581
_publ_section_title
;
Structure prediction by ZEFSAII (Michael W. Deem and Ramdas Pophale) SiO2 
 PCOD9228581
Probable space group: P 2/C
;
_chemical_formula_sum "Si O2"
_cell_formula_units_Z 32
_cell_length_a 14.610268
_cell_length_b 15.019420
_cell_length_c 8.375009
_cell_angle_alpha 90.000000
_cell_angle_beta 119.880414
_cell_angle_gamma 90.000000
_cell_volume 1593.489973
_symmetry_space_group_name_H-M "P 2/C"
_symmetry_group_IT_number 13
_symmetry_cell_setting 'monoclinic'
loop_
_space_group_symop_operation_xyz
x,y,z
-x,y,1/2-z
-x,-y,-z
x,-y,1/2+z
loop_
_atom_site_type_symbol
_atom_site_label
_atom_site_fract_x
_atom_site_fract_y
_atom_site_fract_z
Si Si1 0.117334 0.291126 0.813101
Si Si2 0.592973 0.731319 0.044514
Si Si3 0.649918 0.239763 0.091344
Si Si4 0.123215 0.958002 0.847220
Si Si5 0.309706 0.624081 0.634382
Si Si6 0.578161 0.551978 0.188343
Si Si7 0.801879 0.877562 0.919963
Si Si8 0.774244 0.198600 0.871055
O O1 0.145436 0.263661 0.655234
O O2 0.000000 0.320199 0.750000
O O3 0.200862 0.362815 0.949276
O O4 0.138883 0.203833 0.942137
O O5 0.630269 0.638827 0.161620
O O6 0.678842 0.806873 0.158022
O O7 0.477305 0.757226 0.006181
O O8 0.608615 0.693229 0.879875
O O9 0.692500 0.335033 0.190996
O O10 0.695635 0.164043 0.251342
O O11 0.706026 0.224825 0.969597
O O12 0.140697 0.916917 0.687212
O O13 0.000000 0.983029 0.750000
O O14 0.157546 0.884742 0.009138
O O15 0.196441 0.042675 0.951024
O O16 0.349231 0.523893 0.674172
O O17 0.500000 0.590481 0.250000
O O18 0.500000 0.500000 0.000000
#
# Coordination Sequence:
#
# PCOD9228581 Si02
#       8
#     4   4   4   4   4   4   4   4
#     4  10  20  38  58  78 111 149 187 231 281 326
#     4  11  21  36  57  81 120 147 180 225 276 333
#     4  10  19  35  53  83 117 146 176 228 277 337
#     4  11  20  35  55  80 109 139 191 240 276 316
#     4  10  21  35  53  86 114 147 187 223 275 329
#     4  12  20  32  56  86 114 144 184 228 278 322
#     4  10  21  33  56  81 108 140 184 231 281 328
#     4  10  22  34  56  83 108 149 188 225 280 332
#
# _framework density 20.081707000000002
#
# number of rings (size 3 to 8) (size 9 to 14) (size 15 to 20)
#    0.000    1.500    2.500    3.750    0.000    0.000 
#    0.000    0.625    0.000   11.250    0.000    0.000 
#    0.000    0.000    0.000    0.000    0.000    0.000 
#
# Total GULP energy -178282.356707 kJ/mol
# GULP energy per Si atom -5571.323647 kJ/mol
# Density = 2.003600 g / cm^3
# Si number density = 20.081707 Si / 1000 Ang^3
#
#
#
# Elastic Constant Matrix: (Units=GPa)
#
#
# Indices 1 2 3 4 5 6 
#
# 1 122.9515 27.4071 34.1826 0.0000 17.8198 0.0000
# 2 27.4071 72.6737 35.2471 0.0000 7.6195 0.0000
# 3 34.1826 35.2471 72.0551 0.0000 7.3466 0.0000
# 4 0.0000 0.0000 0.0000 30.2913 0.0000 -3.2962
# 5 17.8198 7.6195 7.3466 0.0000 33.7508 0.0000
# 6 0.0000 0.0000 0.0000 -3.2962 0.0000 23.5652
#
#
#
# Elastic Compliance Matrix: (Units=1/GPa)
#
#
# Indices 1 2 3 4 5 6 
#
# 1 0.010095 -0.001642 -0.003559 0.000000 -0.004185 0.000000
# 2 -0.001642 0.018469 -0.008098 0.000000 -0.001540 0.000000
# 3 -0.003559 -0.008098 0.019585 0.000000 -0.000556 0.000000
# 4 0.000000 0.000000 0.000000 0.033523 0.000000 0.004689
# 5 -0.004185 -0.001540 -0.000556 0.000000 0.032307 0.000000
# 6 0.000000 0.000000 0.000000 0.004689 0.000000 0.043091
#
#
# Mechanical properties :
#
#
# Convention : Reuss Voigt Hill
#
# Bulk Modulus (GPa) = 46.40494 51.26153 48.83323
# Shear Modulus (GPa) = 26.19824 28.91101 27.55462
#
# Velocity S-wave (km/s) = 3.61582 3.79841 3.70824
# Velocity P-wave (km/s) = 6.37106 6.69471 6.53489
#
# Compressibility (1/GPa) = 0.02154943
#
# Stress axis : x y z
#
# Youngs Moduli (GPa) = 99.05516 54.14604 51.06003
#
# Poissons Ratio (x) = 0.08892 0.18173
# Poissons Ratio (y) = 0.16267 0.41349
# Poissons Ratio (z) = 0.35256 0.43849
#
# Static dielectric constant tensor:
#      x y z
#    x 1.748840 0.000000 -0.079020 
#    y 0.000000 1.712700 0.000000 
#    z -0.079020 0.000000 1.872940 
# 
# From -- ./inp_files/19668.got.cif
#   From: 2010.05.17/outbox.cif.g08.bks.cpg/sg13_10_cif.got.tgz:19668.got - 2010.06.03 16:44:36.
