data_PCOD9228965
_publ_section_title
;
Structure prediction by ZEFSAII (Michael W. Deem and Ramdas Pophale) SiO2 
 PCOD9228965
Probable space group: P 2/C
;
_chemical_formula_sum "Si O2"
_cell_formula_units_Z 28
_cell_length_a 20.835702
_cell_length_b 8.760481
_cell_length_c 13.263669
_cell_angle_alpha 90.000000
_cell_angle_beta 30.618688
_cell_angle_gamma 90.000000
_cell_volume 1233.083014
_symmetry_space_group_name_H-M "P 2/C"
_symmetry_group_IT_number 13
_symmetry_cell_setting 'monoclinic'
loop_
_space_group_symop_operation_xyz
x,y,z
-x,y,1/2-z
-x,-y,-z
x,-y,1/2+z
loop_
_atom_site_type_symbol
_atom_site_label
_atom_site_fract_x
_atom_site_fract_y
_atom_site_fract_z
Si Si1 0.877487 0.109047 0.666505
Si Si2 0.862534 0.242344 0.462726
Si Si3 0.284545 0.881887 0.508890
Si Si4 0.022878 0.616215 0.335030
Si Si5 0.589318 0.690403 0.306850
Si Si6 0.206501 0.431086 0.211355
Si Si7 0.452849 0.615395 0.918571
O O1 0.863501 0.174265 0.573050
O O2 0.914801 0.240550 0.693480
O O3 0.749406 0.025008 0.876170
O O4 0.000000 0.000000 0.500000
O O5 0.888314 0.584245 0.567874
O O6 0.737800 0.345415 0.622551
O O7 0.000000 0.302679 0.250000
O O8 0.172378 0.882258 0.576168
O O9 0.266736 0.731306 0.601904
O O10 0.882748 0.518127 0.759650
O O11 0.000000 0.643491 0.250000
O O12 0.535572 0.708724 0.492585
O O13 0.527797 0.543529 0.338401
O O14 0.595234 0.837724 0.224422
O O15 0.311657 0.556671 0.090121
O O16 0.500000 0.686311 0.750000
#
# Coordination Sequence:
#
# PCOD9228965 Si02
#       7
#     4   4   4   4   4   4   4
#     4  12  21  37  61  94 124 182 213 252 319 398
#     4  10  19  36  62  92 137 168 212 263 324 391
#     4  10  22  37  62  91 130 167 218 257 323 385
#     4  11  27  38  59  99 141 162 214 269 334 390
#     4   9  22  37  60 101 120 174 211 273 329 385
#     4  11  23  42  60  99 130 173 204 279 331 386
#     4  11  20  38  67  91 127 164 228 265 325 392
#
# _framework density 22.707311000000001
#
# number of rings (size 3 to 8) (size 9 to 14) (size 15 to 20)
#    0.857    0.571    4.286    0.857    4.000    2.857 
#    0.000    0.000    0.000    0.857   18.571    0.000 
#    0.000    0.000    0.000    0.000    0.000    0.000 
#
# Total GULP energy -156308.290175 kJ/mol
# GULP energy per Si atom -5582.438935 kJ/mol
# Density = 2.265563 g / cm^3
# Si number density = 22.707311 Si / 1000 Ang^3
#
#
#
# Elastic Constant Matrix: (Units=GPa)
#
#
# Indices 1 2 3 4 5 6 
#
# 1 93.8521 0.3801 26.1010 0.0000 16.5340 0.0000
# 2 0.3801 36.9135 22.4906 0.0000 1.0402 0.0000
# 3 26.1010 22.4906 112.8860 0.0000 11.8558 0.0000
# 4 0.0000 0.0000 0.0000 32.7593 0.0000 0.0889
# 5 16.5340 1.0402 11.8558 0.0000 22.3617 0.0000
# 6 0.0000 0.0000 0.0000 0.0889 0.0000 12.6773
#
#
#
# Elastic Compliance Matrix: (Units=1/GPa)
#
#
# Indices 1 2 3 4 5 6 
#
# 1 0.012767 0.001562 -0.002398 0.000000 -0.008242 0.000000
# 2 0.001562 0.031103 -0.006655 0.000000 0.000927 0.000000
# 3 -0.002398 -0.006655 0.011140 0.000000 -0.003824 0.000000
# 4 0.000000 0.000000 0.000000 0.030526 0.000000 -0.000214
# 5 -0.008242 0.000927 -0.003824 0.000000 0.052797 0.000000
# 6 0.000000 0.000000 0.000000 -0.000214 0.000000 0.078882
#
#
# Mechanical properties :
#
#
# Convention : Reuss Voigt Hill
#
# Bulk Modulus (GPa) = 24.98218 37.95500 31.46859
# Shear Modulus (GPa) = 20.36310 26.53833 23.45071
#
# Velocity S-wave (km/s) = 2.99785 3.42235 3.21711
# Velocity P-wave (km/s) = 4.79672 5.68927 5.26196
#
# Compressibility (1/GPa) = 0.04002853
#
# Stress axis : x y z
#
# Youngs Moduli (GPa) = 78.32416 32.15119 89.76335
#
# Poissons Ratio (x) = -0.05021 0.21521
# Poissons Ratio (y) = -0.12231 0.59739
# Poissons Ratio (z) = 0.18779 0.21397
#
# Static dielectric constant tensor:
#      x y z
#    x 1.845260 0.000000 0.015310 
#    y 0.000000 1.885800 0.000000 
#    z 0.015310 0.000000 1.890550 
# 
# From -- ./inp_files/59283.got.cif
#   From: 2010.05.17/outbox.cif.g08.bks.cpg/sg13_30_cif.got.tgz:59283.got - 2010.06.03 16:44:36.
