data_PCOD9228577
_publ_section_title
;
Structure prediction by ZEFSAII (Michael W. Deem and Ramdas Pophale) SiO2 
 PCOD9228577
Probable space group: P 2/C
;
_chemical_formula_sum "Si O2"
_cell_formula_units_Z 28
_cell_length_a 22.380490
_cell_length_b 11.705479
_cell_length_c 8.979415
_cell_angle_alpha 90.000000
_cell_angle_beta 138.854032
_cell_angle_gamma 90.000000
_cell_volume 1547.815752
_symmetry_space_group_name_H-M "P 2/C"
_symmetry_group_IT_number 13
_symmetry_cell_setting 'monoclinic'
loop_
_space_group_symop_operation_xyz
x,y,z
-x,y,1/2-z
-x,-y,-z
x,-y,1/2+z
loop_
_atom_site_type_symbol
_atom_site_label
_atom_site_fract_x
_atom_site_fract_y
_atom_site_fract_z
Si Si1 0.433440 0.465071 0.241868
Si Si2 0.880820 0.758307 0.739271
Si Si3 0.069920 0.634249 0.160116
Si Si4 0.322932 0.384338 0.305381
Si Si5 0.928664 0.004177 0.232306
Si Si6 0.807172 0.190278 0.423671
Si Si7 0.848397 0.448594 0.998064
O O1 0.500000 0.399549 0.250000
O O2 0.500000 0.500000 0.500000
O O3 0.355941 0.404543 0.196284
O O4 0.392099 0.567985 0.062404
O O5 0.902634 0.862852 0.669753
O O6 0.836856 0.806568 0.806712
O O7 0.822683 0.660022 0.551020
O O8 0.973856 0.694282 0.956937
O O9 0.130365 0.725928 0.360948
O O10 0.074634 0.522095 0.272072
O O11 0.115708 0.598549 0.090514
O O12 0.290554 0.252923 0.256893
O O13 0.235987 0.465959 0.172201
O O14 0.000000 0.953903 0.250000
O O15 0.000000 0.000000 0.500000
O O16 0.836176 0.931665 0.047380
#
# Coordination Sequence:
#
# PCOD9228577 Si02
#       7
#     4   4   4   4   4   4   4
#     4   9  18  34  59  83 112 142 161 198 268 365
#     4  12  23  35  51  69 102 148 204 242 279 311
#     4  11  21  35  47  70 103 146 198 229 277 323
#     4  10  19  35  52  82 117 136 171 212 271 339
#     4  12  22  39  54  71 101 152 210 252 275 306
#     4  11  22  36  53  72 105 148 183 244 284 309
#     4  11  22  32  51  75 108 146 178 234 281 322
#
# _framework density 18.090008999999998
#
# number of rings (size 3 to 8) (size 9 to 14) (size 15 to 20)
#    0.000    1.143    2.857    6.429    0.000    2.286 
#    0.000    0.000    0.000    0.000    0.000    0.000 
#    0.000   72.000    0.000    0.000    0.000    0.000 
#
# Total GULP energy -155900.493904 kJ/mol
# GULP energy per Si atom -5567.874782 kJ/mol
# Density = 1.804883 g / cm^3
# Si number density = 18.090009 Si / 1000 Ang^3
#
#
#
# Elastic Constant Matrix: (Units=GPa)
#
#
# Indices 1 2 3 4 5 6 
#
# 1 84.8753 -4.9848 11.9840 0.0000 -9.5100 0.0000
# 2 -4.9848 82.7448 20.9299 0.0000 6.1251 0.0000
# 3 11.9840 20.9299 69.7656 0.0000 -3.9258 0.0000
# 4 0.0000 0.0000 0.0000 21.6868 0.0000 -3.0823
# 5 -9.5100 6.1251 -3.9258 0.0000 28.1906 0.0000
# 6 0.0000 0.0000 0.0000 -3.0823 0.0000 6.5632
#
#
#
# Elastic Compliance Matrix: (Units=1/GPa)
#
#
# Indices 1 2 3 4 5 6 
#
# 1 0.012579 0.001058 -0.002270 0.000000 0.003697 0.000000
# 2 0.001058 0.013501 -0.004412 0.000000 -0.003191 0.000000
# 3 -0.002270 -0.004412 0.016185 0.000000 0.002447 0.000000
# 4 0.000000 0.000000 0.000000 0.049409 0.000000 0.023204
# 5 0.003697 -0.003191 0.002447 0.000000 0.037754 0.000000
# 6 0.000000 0.000000 0.000000 0.023204 0.000000 0.163261
#
#
# Mechanical properties :
#
#
# Convention : Reuss Voigt Hill
#
# Bulk Modulus (GPa) = 32.23949 32.58264 32.41107
# Shear Modulus (GPa) = 15.90959 25.25190 20.58075
#
# Velocity S-wave (km/s) = 2.96880 3.74023 3.37662
# Velocity P-wave (km/s) = 5.44170 6.05830 5.75826
#
# Compressibility (1/GPa) = 0.03101786
#
# Stress axis : x y z
#
# Youngs Moduli (GPa) = 79.49774 74.06725 61.78603
#
# Poissons Ratio (x) = -0.07839 0.14027
# Poissons Ratio (y) = -0.08414 0.27258
# Poissons Ratio (z) = 0.18048 0.32677
#
# Static dielectric constant tensor:
#      x y z
#    x 1.697410 0.000000 0.027910 
#    y 0.000000 1.664830 0.000000 
#    z 0.027910 0.000000 1.677000 
# 
# From -- ./inp_files/23267.got.cif
#   From: 2010.05.17/outbox.cif.g08.bks.cpg/sg13_12_cif.got.tgz:23267.got - 2010.06.03 16:44:36.
