data_PCOD9228383
_publ_section_title
;
Structure prediction by ZEFSAII (Michael W. Deem and Ramdas Pophale) SiO2 
 PCOD9228383
Probable space group: P 2/C
;
_chemical_formula_sum "Si O2"
_cell_formula_units_Z 26
_cell_length_a 12.054826
_cell_length_b 11.916657
_cell_length_c 22.796644
_cell_angle_alpha 90.000000
_cell_angle_beta 24.837187
_cell_angle_gamma 90.000000
_cell_volume 1375.555653
_symmetry_space_group_name_H-M "P 2/C"
_symmetry_group_IT_number 13
_symmetry_cell_setting 'monoclinic'
loop_
_space_group_symop_operation_xyz
x,y,z
-x,y,1/2-z
-x,-y,-z
x,-y,1/2+z
loop_
_atom_site_type_symbol
_atom_site_label
_atom_site_fract_x
_atom_site_fract_y
_atom_site_fract_z
Si Si1 0.347888 0.785662 0.492920
Si Si2 0.669710 0.256941 0.956375
Si Si3 0.000000 0.545888 0.250000
Si Si4 0.549182 0.631910 0.296133
Si Si5 0.171618 0.645710 0.750751
Si Si6 0.036198 0.502245 0.551953
Si Si7 0.772036 0.011264 0.905247
O O1 0.557190 0.765927 0.444697
O O2 0.460742 0.734474 0.379094
O O3 0.091671 0.715970 0.636328
O O4 0.258390 0.914805 0.531829
O O5 0.836363 0.370232 0.869733
O O6 0.809231 0.140231 0.906631
O O7 0.427653 0.281825 0.115504
O O8 0.172619 0.463194 0.207721
O O9 0.500000 0.648848 0.250000
O O10 0.857303 0.602848 0.158035
O O11 0.346185 0.530177 0.413200
O O12 0.119354 0.603434 0.841637
O O13 0.000000 0.500000 0.500000
O O14 0.000000 0.981041 0.750000
O O15 0.500000 0.000000 0.000000
#
# Coordination Sequence:
#
# PCOD9228383 Si02
#       7
#     4   4   2   4   4   4   4
#     4  10  19  34  53  76 103 142 177 220 264 312
#     4  11  21  34  48  79 108 139 175 211 266 324
#     4  12  22  30  48  78 114 138 164 208 276 322
#     4   9  18  33  52  78 104 142 182 219 264 320
#     4  11  21  32  53  76 112 139 169 218 269 325
#     4   9  19  33  51  76 106 143 176 215 263 317
#     4  10  20  36  55  74 105 139 181 219 257 319
#
# _framework density 18.901451999999999
#
# number of rings (size 3 to 8) (size 9 to 14) (size 15 to 20)
#    0.000    1.846    2.308    3.231    4.308    0.000 
#    0.000    0.000    0.000    0.000    4.000    7.538 
#    0.000    0.000    0.000    0.000    0.000    0.000 
#
# Total GULP energy -144896.619458 kJ/mol
# GULP energy per Si atom -5572.946902 kJ/mol
# Density = 1.885843 g / cm^3
# Si number density = 18.901452 Si / 1000 Ang^3
#
#
#
# Elastic Constant Matrix: (Units=GPa)
#
#
# Indices 1 2 3 4 5 6 
#
# 1 49.4502 21.4933 23.0999 0.0000 16.0740 0.0000
# 2 21.4933 117.3813 36.4186 0.0000 11.9205 0.0000
# 3 23.0999 36.4186 108.9183 0.0000 16.4799 0.0000
# 4 0.0000 0.0000 0.0000 31.1160 0.0000 4.6394
# 5 16.0740 11.9205 16.4799 0.0000 25.0936 0.0000
# 6 0.0000 0.0000 0.0000 4.6394 0.0000 18.6915
#
#
#
# Elastic Compliance Matrix: (Units=1/GPa)
#
#
# Indices 1 2 3 4 5 6 
#
# 1 0.027365 -0.002700 -0.002712 0.000000 -0.014465 0.000000
# 2 -0.002700 0.009939 -0.002551 0.000000 -0.001316 0.000000
# 3 -0.002712 -0.002551 0.011285 0.000000 -0.004462 0.000000
# 4 0.000000 0.000000 0.000000 0.033373 0.000000 -0.008283
# 5 -0.014465 -0.001316 -0.004462 0.000000 0.052672 0.000000
# 6 0.000000 0.000000 0.000000 -0.008283 0.000000 0.055556
#
#
# Mechanical properties :
#
#
# Convention : Reuss Voigt Hill
#
# Bulk Modulus (GPa) = 30.61786 48.64151 39.62969
# Shear Modulus (GPa) = 23.04107 27.96277 25.50192
#
# Velocity S-wave (km/s) = 3.49522 3.85047 3.67714
# Velocity P-wave (km/s) = 5.70286 6.74969 6.24823
#
# Compressibility (1/GPa) = 0.03266067
#
# Stress axis : x y z
#
# Youngs Moduli (GPa) = 36.54318 100.61435 88.61648
#
# Poissons Ratio (x) = 0.27168 0.24034
# Poissons Ratio (y) = 0.09868 0.22610
# Poissons Ratio (z) = 0.09911 0.25671
#
# Static dielectric constant tensor:
#      x y z
#    x 1.680410 0.000000 -0.017700 
#    y 0.000000 1.713170 0.000000 
#    z -0.017700 0.000000 1.693140 
# 
# From -- ./inp_files/33180.got.cif
#   From: 2010.05.17/outbox.cif.g08.bks.cpg/sg13_17_cif.got.tgz:33180.got - 2010.06.03 16:44:36.
