data_PCOD9228204
_publ_section_title
;
Structure prediction by ZEFSAII (Michael W. Deem and Ramdas Pophale) SiO2 
 PCOD9228204
Probable space group: P 2/C
;
_chemical_formula_sum "Si O2"
_cell_formula_units_Z 20
_cell_length_a 6.782548
_cell_length_b 24.973628
_cell_length_c 8.071386
_cell_angle_alpha 90.000000
_cell_angle_beta 139.844237
_cell_angle_gamma 90.000000
_cell_volume 881.644113
_symmetry_space_group_name_H-M "P 2/C"
_symmetry_group_IT_number 13
_symmetry_cell_setting 'monoclinic'
loop_
_space_group_symop_operation_xyz
x,y,z
-x,y,1/2-z
-x,-y,-z
x,-y,1/2+z
loop_
_atom_site_type_symbol
_atom_site_label
_atom_site_fract_x
_atom_site_fract_y
_atom_site_fract_z
Si Si1 0.866492 0.944921 0.481153
Si Si2 0.869112 0.170018 0.978433
Si Si3 0.868378 0.285657 0.980006
Si Si4 0.636323 0.555617 0.653740
Si Si5 0.135858 0.601062 0.159244
O O1 0.500000 0.948758 0.250000
O O2 0.954619 0.887560 0.454666
O O3 0.000000 0.000000 0.500000
O O4 0.000000 0.940779 0.750000
O O5 0.500000 0.169744 0.750000
O O6 0.963162 0.227727 0.965801
O O7 0.000000 0.170731 0.250000
O O8 0.500000 0.286202 0.750000
O O9 0.966230 0.338922 0.947379
O O10 0.000000 0.288679 0.250000
O O11 0.500000 0.565241 0.750000
O O12 0.500000 0.500000 0.500000
O O13 0.495469 0.597849 0.432593
O O14 0.993898 0.562173 0.927669
O O15 0.000000 0.584590 0.250000
#
# Coordination Sequence:
#
# PCOD9228204 Si02
#       5
#     4   4   4   4   4
#     4  10  19  33  53  77 107 143 180 223 270 319
#     4   8  16  30  49  72 101 134 169 210 257 301
#     4  10  19  33  54  78  99 130 175 212 243 300
#     4  10  21  36  53  73  99 130 163 199 245 299
#     4  10  21  36  52  74 104 131 156 202 261 299
#
# _framework density 22.684891
#
# number of rings (size 3 to 8) (size 9 to 14) (size 15 to 20)
#    0.000    2.400    0.000    2.400    0.000    2.400 
#    0.000    1.000    0.000    3.600    0.000    0.000 
#    0.000    0.000    0.000    0.000    0.000    0.000 
#
# Total GULP energy -111488.533512 kJ/mol
# GULP energy per Si atom -5574.426676 kJ/mol
# Density = 2.263326 g / cm^3
# Si number density = 22.684891 Si / 1000 Ang^3
#
#
#
# Elastic Constant Matrix: (Units=GPa)
#
#
# Indices 1 2 3 4 5 6 
#
# 1 25.2529 1.8416 28.2012 0.0000 1.6210 0.0000
# 2 1.8416 215.0105 49.5421 0.0000 -15.0917 0.0000
# 3 28.2012 49.5421 209.5572 0.0000 5.3582 0.0000
# 4 0.0000 0.0000 0.0000 36.2921 0.0000 1.1103
# 5 1.6210 -15.0917 5.3582 0.0000 26.7878 0.0000
# 6 0.0000 0.0000 0.0000 1.1103 0.0000 25.4077
#
#
#
# Elastic Compliance Matrix: (Units=1/GPa)
#
#
# Indices 1 2 3 4 5 6 
#
# 1 0.046876 0.001036 -0.006529 0.000000 -0.000947 0.000000
# 2 0.001036 0.005197 -0.001449 0.000000 0.003155 0.000000
# 3 -0.006529 -0.001449 0.006035 0.000000 -0.001628 0.000000
# 4 0.000000 0.000000 0.000000 0.027591 0.000000 -0.001206
# 5 -0.000947 0.003155 -0.001628 0.000000 0.039491 0.000000
# 6 0.000000 0.000000 0.000000 -0.001206 0.000000 0.039411
#
#
# Mechanical properties :
#
#
# Convention : Reuss Voigt Hill
#
# Bulk Modulus (GPa) = 22.61164 67.66559 45.13862
# Shear Modulus (GPa) = 25.87646 42.37991 34.12818
#
# Velocity S-wave (km/s) = 3.38108 4.32696 3.88293
# Velocity P-wave (km/s) = 5.02311 7.40653 6.32804
#
# Compressibility (1/GPa) = 0.04422501
#
# Stress axis : x y z
#
# Youngs Moduli (GPa) = 21.33289 192.40493 165.70552
#
# Poissons Ratio (x) = -0.19943 1.08192
# Poissons Ratio (y) = -0.02211 0.24009
# Poissons Ratio (z) = 0.13929 0.27877
#
# Static dielectric constant tensor:
#      x y z
#    x 1.768960 0.000000 0.046460 
#    y 0.000000 1.951210 0.000000 
#    z 0.046460 0.000000 1.859750 
# 
# From -- ./inp_files/9805.got.cif
#   From: 2010.05.17/outbox.cif.g08.bks.cpg/sg13_5_cif.got.tgz:9805.got - 2010.06.03 16:44:36.
