data_PCOD9228616
_publ_section_title
;
Structure prediction by ZEFSAII (Michael W. Deem and Ramdas Pophale) SiO2 
 PCOD9228616
Probable space group: P 2/C
;
_chemical_formula_sum "Si O2"
_cell_formula_units_Z 26
_cell_length_a 6.817077
_cell_length_b 8.998640
_cell_length_c 30.294089
_cell_angle_alpha 90.000000
_cell_angle_beta 128.091327
_cell_angle_gamma 90.000000
_cell_volume 1462.592650
_symmetry_space_group_name_H-M "P 2/C"
_symmetry_group_IT_number 13
_symmetry_cell_setting 'monoclinic'
loop_
_space_group_symop_operation_xyz
x,y,z
-x,y,1/2-z
-x,-y,-z
x,-y,1/2+z
loop_
_atom_site_type_symbol
_atom_site_label
_atom_site_fract_x
_atom_site_fract_y
_atom_site_fract_z
Si Si1 0.320576 0.903131 0.944512
Si Si2 0.377471 0.380512 0.041350
Si Si3 0.971466 0.129519 0.845159
Si Si4 0.000000 0.050390 0.750000
Si Si5 0.525593 0.915187 0.803926
Si Si6 0.837926 0.430522 0.585804
Si Si7 0.118572 0.702114 0.593263
O O1 0.476417 0.775763 0.941800
O O2 0.114791 0.813981 0.944510
O O3 0.172723 0.009068 0.890486
O O4 0.500000 0.000000 0.000000
O O5 0.581036 0.512414 0.072383
O O6 0.202574 0.368528 0.059078
O O7 0.234644 0.399577 0.975261
O O8 0.984526 0.138085 0.793994
O O9 0.042401 0.285807 0.876359
O O10 0.705910 0.060384 0.823763
O O11 0.254467 0.955260 0.784756
O O12 0.500000 0.858526 0.750000
O O13 0.664884 0.797005 0.853825
O O14 0.024252 0.569796 0.611477
#
# Coordination Sequence:
#
# PCOD9228616 Si02
#       7
#     4   4   4   2   4   4   4
#     4  10  19  35  56  85 117 145 183 234 276 326
#     4  10  20  36  54  79 117 156 183 215 275 338
#     4  10  20  37  58  84 113 145 184 233 280 326
#     4  10  20  38  62  80 102 144 190 238 278 326
#     4   9  20  39  60  80 106 139 187 239 279 318
#     4  10  21  36  53  79 121 149 176 229 274 331
#     4  10  21  36  56  83 110 151 188 220 276 343
#
# _framework density 17.776651999999999
#
# number of rings (size 3 to 8) (size 9 to 14) (size 15 to 20)
#    0.000    2.154    1.538    1.385    0.000    3.077 
#    2.769    3.846    0.000    2.769    0.000    0.000 
#    0.000    0.000    0.000    0.000    0.000    0.000 
#
# Total GULP energy -145041.014741 kJ/mol
# GULP energy per Si atom -5578.500567 kJ/mol
# Density = 1.773619 g / cm^3
# Si number density = 17.776652 Si / 1000 Ang^3
#
#
#
# Elastic Constant Matrix: (Units=GPa)
#
#
# Indices 1 2 3 4 5 6 
#
# 1 102.2941 41.4701 43.2615 0.0000 2.5081 0.0000
# 2 41.4701 98.6404 42.8722 0.0000 7.2371 0.0000
# 3 43.2615 42.8722 72.5258 0.0000 9.7653 0.0000
# 4 0.0000 0.0000 0.0000 18.6751 0.0000 0.5507
# 5 2.5081 7.2371 9.7653 0.0000 27.1911 0.0000
# 6 0.0000 0.0000 0.0000 0.5507 0.0000 8.2638
#
#
#
# Elastic Compliance Matrix: (Units=1/GPa)
#
#
# Indices 1 2 3 4 5 6 
#
# 1 0.013787 -0.003029 -0.006695 0.000000 0.001939 0.000000
# 2 -0.003029 0.014324 -0.006499 0.000000 -0.001199 0.000000
# 3 -0.006695 -0.006499 0.022390 0.000000 -0.005694 0.000000
# 4 0.000000 0.000000 0.000000 0.053653 0.000000 -0.003575
# 5 0.001939 -0.001199 -0.005694 0.000000 0.038962 0.000000
# 6 0.000000 0.000000 0.000000 -0.003575 0.000000 0.121248
#
#
# Mechanical properties :
#
#
# Convention : Reuss Voigt Hill
#
# Bulk Modulus (GPa) = 55.38374 58.74089 57.06231
# Shear Modulus (GPa) = 16.51105 20.54978 18.53042
#
# Velocity S-wave (km/s) = 3.05094 3.40369 3.23213
# Velocity P-wave (km/s) = 6.60560 6.96867 6.78956
#
# Compressibility (1/GPa) = 0.01805584
#
# Stress axis : x y z
#
# Youngs Moduli (GPa) = 72.52990 69.81316 44.66284
#
# Poissons Ratio (x) = 0.21146 0.29900
# Poissons Ratio (y) = 0.21969 0.29027
# Poissons Ratio (z) = 0.48556 0.45372
#
# Static dielectric constant tensor:
#      x y z
#    x 1.613540 0.000000 0.016220 
#    y 0.000000 1.586170 0.000000 
#    z 0.016220 0.000000 1.600190 
# 
# From -- ./inp_files/90271.got.cif
#   From: 2010.05.17/outbox.cif.g08.bks.cpg/sg13_46_cif.got.tgz:90271.got - 2010.06.03 16:44:36.
