data_PCOD9228980
_publ_section_title
;
Structure prediction by ZEFSAII (Michael W. Deem and Ramdas Pophale) SiO2 
 PCOD9228980
Probable space group: P 2/C
;
_chemical_formula_sum "Si O2"
_cell_formula_units_Z 22
_cell_length_a 21.732934
_cell_length_b 9.502980
_cell_length_c 13.485842
_cell_angle_alpha 90.000000
_cell_angle_beta 155.076387
_cell_angle_gamma 90.000000
_cell_volume 1173.709611
_symmetry_space_group_name_H-M "P 2/C"
_symmetry_group_IT_number 13
_symmetry_cell_setting 'monoclinic'
loop_
_space_group_symop_operation_xyz
x,y,z
-x,y,1/2-z
-x,-y,-z
x,-y,1/2+z
loop_
_atom_site_type_symbol
_atom_site_label
_atom_site_fract_x
_atom_site_fract_y
_atom_site_fract_z
Si Si1 0.580108 0.049067 0.268966
Si Si2 0.636408 0.187804 0.707425
Si Si3 0.796677 0.595720 0.322362
Si Si4 0.000000 0.598252 0.250000
Si Si5 0.238123 0.672901 0.449180
Si Si6 0.488148 0.561291 0.345907
O O1 0.500000 0.993132 0.250000
O O2 0.679602 0.180323 0.444766
O O3 0.665520 0.929540 0.333191
O O4 0.460472 0.114503 0.019033
O O5 0.770323 0.264515 0.849182
O O6 0.546686 0.311213 0.632005
O O7 0.828089 0.629378 0.253720
O O8 0.915419 0.499524 0.548088
O O9 0.639970 0.515394 0.092747
O O10 0.881078 0.683144 0.138945
O O11 0.357587 0.553994 0.654269
O O12 0.500000 0.613113 0.250000
#
# Coordination Sequence:
#
# PCOD9228980 Si02
#       6
#     4   4   4   2   4   4
#     4  11  21  36  60  91 121 152 191 246 302 350
#     4  11  20  34  60  91 119 148 191 247 304 346
#     4  11  21  38  62  90 119 155 200 249 293 345
#     4  12  24  36  62  88 124 160 202 234 292 356
#     4  11  21  39  61  87 119 157 193 246 295 348
#     4  10  19  36  63  91 114 145 200 256 295 337
#
# _framework density 18.743987000000001
#
# number of rings (size 3 to 8) (size 9 to 14) (size 15 to 20)
#    0.000    1.091    5.455    3.273    0.000    0.000 
#    0.000    0.909    0.000    2.182    0.000    0.000 
#    0.000    0.000    0.000    0.000    0.000    0.000 
#
# Total GULP energy -122886.887525 kJ/mol
# GULP energy per Si atom -5585.767615 kJ/mol
# Density = 1.870133 g / cm^3
# Si number density = 18.743987 Si / 1000 Ang^3
#
#
#
# Elastic Constant Matrix: (Units=GPa)
#
#
# Indices 1 2 3 4 5 6 
#
# 1 99.7356 10.0836 12.9525 0.0000 -13.6144 0.0000
# 2 10.0836 46.6993 -8.2855 0.0000 -7.9591 0.0000
# 3 12.9525 -8.2855 41.4449 0.0000 -9.3919 0.0000
# 4 0.0000 0.0000 0.0000 -9.6419 0.0000 -25.6544
# 5 -13.6144 -7.9591 -9.3919 0.0000 30.9511 0.0000
# 6 0.0000 0.0000 0.0000 -25.6544 0.0000 -5.7588
#
#
#
# Elastic Compliance Matrix: (Units=1/GPa)
#
#
# Indices 1 2 3 4 5 6 
#
# 1 0.011139 -0.002412 -0.003215 0.000000 0.003304 0.000000
# 2 -0.002412 0.024511 0.007347 0.000000 0.007471 0.000000
# 3 -0.003215 0.007347 0.028682 0.000000 0.009179 0.000000
# 4 0.000000 0.000000 0.000000 0.009556 0.000000 -0.042571
# 5 0.003304 0.007471 0.009179 0.000000 0.038469 0.000000
# 6 0.000000 0.000000 0.000000 -0.042571 0.000000 0.016000
#
#
# Mechanical properties :
#
#
# Convention : Reuss Voigt Hill
#
# Bulk Modulus (GPa) = 14.75527 24.15345 19.45436
# Shear Modulus (GPa) = 33.89651 14.65203 24.27427
#
# Velocity S-wave (km/s) = 4.25713 2.79891 3.60257
# Velocity P-wave (km/s) = 5.66157 4.83313 5.26367
#
# Compressibility (1/GPa) = 0.06777239
#
# Stress axis : x y z
#
# Youngs Moduli (GPa) = 89.77541 40.79719 34.86515
#
# Poissons Ratio (x) = 0.09842 0.11208
# Poissons Ratio (y) = 0.21658 -0.25617
# Poissons Ratio (z) = 0.28861 -0.29975
#
# Static dielectric constant tensor:
#      x y z
#    x 1.679380 0.000000 -0.014920 
#    y 0.000000 1.640300 0.000000 
#    z -0.014920 0.000000 1.619770 
# 
# From -- ./inp_files/49205.got.cif
#   From: 2010.05.17/outbox.cif.g08.bks.cpg/sg13_25_cif.got.tgz:49205.got - 2010.06.03 16:44:36.
