data_PCOD9228034
_publ_section_title
;
Structure prediction by ZEFSAII (Michael W. Deem and Ramdas Pophale) SiO2 
 PCOD9228034
Probable space group: P 2/C
;
_chemical_formula_sum "Si O2"
_cell_formula_units_Z 28
_cell_length_a 5.470675
_cell_length_b 19.936613
_cell_length_c 14.092238
_cell_angle_alpha 90.000000
_cell_angle_beta 67.506135
_cell_angle_gamma 90.000000
_cell_volume 1420.060567
_symmetry_space_group_name_H-M "P 2/C"
_symmetry_group_IT_number 13
_symmetry_cell_setting 'monoclinic'
loop_
_space_group_symop_operation_xyz
x,y,z
-x,y,1/2-z
-x,-y,-z
x,-y,1/2+z
loop_
_atom_site_type_symbol
_atom_site_label
_atom_site_fract_x
_atom_site_fract_y
_atom_site_fract_z
Si Si1 0.165352 0.566653 0.087742
Si Si2 0.500000 0.830838 0.250000
Si Si3 0.278296 0.233804 0.974009
Si Si4 0.618096 0.512539 0.635785
Si Si5 0.203914 0.916086 0.548540
Si Si6 0.000000 0.825942 0.250000
Si Si7 0.819834 0.282880 0.932049
Si Si8 0.623537 0.020703 0.130615
O O1 0.381923 0.531932 0.123967
O O2 0.132649 0.644240 0.118358
O O3 0.879873 0.530388 0.125579
O O4 0.285457 0.560975 0.963096
O O5 0.600154 0.784321 0.148492
O O6 0.244758 0.868414 0.249777
O O7 0.508153 0.273183 0.994123
O O8 0.010880 0.274006 0.993548
O O9 0.219555 0.163092 0.031078
O O10 0.500000 0.542949 0.750000
O O11 0.406069 0.938949 0.600601
O O12 0.900741 0.939758 0.603598
O O13 0.308059 0.954003 0.438855
O O14 0.096852 0.777267 0.151585
O O15 0.500000 0.007732 0.250000
#
# Coordination Sequence:
#
# PCOD9228034 Si02
#       8
#     4   2   4   4   4   2   4   4
#     4  10  21  36  54  83 107 141 186 217 275 330
#     4   8  16  28  42  68 102 136 164 192 250 310
#     4  10  19  33  52  77 111 141 172 217 266 326
#     4  10  21  36  56  78 107 143 182 230 268 313
#     4  10  21  36  58  86 107 146 189 217 280 333
#     4   8  16  26  40  66  98 134 170 190 246 314
#     4  10  19  32  49  76 109 144 169 218 266 322
#     4  10  21  38  58  81 111 144 185 236 271 314
#
# _framework density 19.717468
#
# number of rings (size 3 to 8) (size 9 to 14) (size 15 to 20)
#    0.000    2.286    0.000    2.571    3.000    0.000 
#    2.571    0.000    0.000    5.143    0.000    0.000 
#    0.000    0.000    0.000    0.000    0.000    0.000 
#
# Total GULP energy -156139.075496 kJ/mol
# GULP energy per Si atom -5576.395553 kJ/mol
# Density = 1.967259 g / cm^3
# Si number density = 19.717468 Si / 1000 Ang^3
#
#
#
# Elastic Constant Matrix: (Units=GPa)
#
#
# Indices 1 2 3 4 5 6 
#
# 1 212.8751 24.0018 21.7866 0.0000 -16.5173 0.0000
# 2 24.0018 43.1678 3.7647 0.0000 -2.9631 0.0000
# 3 21.7866 3.7647 104.4138 0.0000 -1.4650 0.0000
# 4 0.0000 0.0000 0.0000 5.7762 0.0000 -0.3412
# 5 -16.5173 -2.9631 -1.4650 0.0000 1.9794 0.0000
# 6 0.0000 0.0000 0.0000 -0.3412 0.0000 19.6014
#
#
#
# Elastic Compliance Matrix: (Units=1/GPa)
#
#
# Indices 1 2 3 4 5 6 
#
# 1 0.013488 0.000303 -0.001253 0.000000 0.112080 0.000000
# 2 0.000303 0.025841 -0.000421 0.000000 0.040899 0.000000
# 3 -0.001253 -0.000421 0.009800 0.000000 -0.003831 0.000000
# 4 0.000000 0.000000 0.000000 0.173304 0.000000 0.003017
# 5 0.112080 0.040899 -0.003831 0.000000 1.498872 0.000000
# 6 0.000000 0.000000 0.000000 0.003017 0.000000 0.051069
#
#
# Mechanical properties :
#
#
# Convention : Reuss Voigt Hill
#
# Bulk Modulus (GPa) = 21.55758 51.06255 36.31006
# Shear Modulus (GPa) = 2.79239 26.19828 14.49534
#
# Velocity S-wave (km/s) = 1.19133 3.64907 2.71431
# Velocity P-wave (km/s) = 3.58460 6.61117 5.31775
#
# Compressibility (1/GPa) = 0.04638740
#
# Stress axis : x y z
#
# Youngs Moduli (GPa) = 74.13943 38.69812 102.03972
#
# Poissons Ratio (x) = -0.01172 0.12783
# Poissons Ratio (y) = -0.02246 0.04297
# Poissons Ratio (z) = 0.09288 0.01630
#
# Static dielectric constant tensor:
#      x y z
#    x 1.831890 0.000000 -0.009920 
#    y 0.000000 1.639940 0.000000 
#    z -0.009920 0.000000 1.590020 
# 
# From -- ./inp_files/44401.got.cif
#   From: 2010.05.17/outbox.cif.g08.bks.cpg/sg13_23_cif.got.tgz:44401.got - 2010.06.03 16:44:36.
