data_PCOD9228376
_publ_section_title
;
Structure prediction by ZEFSAII (Michael W. Deem and Ramdas Pophale) SiO2 
 PCOD9228376
Probable space group: P 2/C
;
_chemical_formula_sum "Si O2"
_cell_formula_units_Z 28
_cell_length_a 6.264757
_cell_length_b 12.368711
_cell_length_c 21.132213
_cell_angle_alpha 90.000000
_cell_angle_beta 72.669889
_cell_angle_gamma 90.000000
_cell_volume 1563.137123
_symmetry_space_group_name_H-M "P 2/C"
_symmetry_group_IT_number 13
_symmetry_cell_setting 'monoclinic'
loop_
_space_group_symop_operation_xyz
x,y,z
-x,y,1/2-z
-x,-y,-z
x,-y,1/2+z
loop_
_atom_site_type_symbol
_atom_site_label
_atom_site_fract_x
_atom_site_fract_y
_atom_site_fract_z
Si Si1 0.966802 0.883767 0.595742
Si Si2 0.130738 0.243848 0.515619
Si Si3 0.514367 0.393609 0.421738
Si Si4 0.509552 0.961094 0.818948
Si Si5 0.342488 0.941094 0.066977
Si Si6 0.810327 0.752822 0.816608
Si Si7 0.790685 0.580125 0.026767
O O1 0.949545 0.848513 0.525182
O O2 0.724854 0.906368 0.644388
O O3 0.077687 0.789664 0.627384
O O4 0.117531 0.988821 0.588244
O O5 0.310972 0.316191 0.461642
O O6 0.272753 0.180779 0.556043
O O7 0.910469 0.316222 0.548189
O O8 0.636261 0.340222 0.351144
O O9 0.404277 0.511745 0.421251
O O10 0.683305 0.397540 0.467004
O O11 0.500000 0.010412 0.750000
O O12 0.687655 0.862222 0.803525
O O13 0.555360 0.042317 0.872565
O O14 0.500000 0.000000 0.000000
O O15 0.000000 0.720816 0.750000
O O16 0.000000 0.500000 0.000000
#
# Coordination Sequence:
#
# PCOD9228376 Si02
#       7
#     4   4   4   4   4   4   4
#     4  11  20  33  53  78 122 151 180 226 284 342
#     4  11  19  33  54  79 115 151 182 232 288 328
#     4  10  19  34  52  82 115 140 186 231 285 355
#     4  11  22  36  50  76 121 159 184 229 284 347
#     4  11  23  32  51  85 116 150 196 233 275 345
#     4  11  20  31  53  81 113 151 183 219 283 361
#     4   9  20  33  53  75 113 144 177 234 295 333
#
# _framework density 17.912697000000001
#
# number of rings (size 3 to 8) (size 9 to 14) (size 15 to 20)
#    0.000    1.429    5.714    1.286    0.000    0.000 
#    0.000    0.000    0.000    0.000    0.000    0.000 
#   72.857    0.000    0.000    0.000    0.000    0.000 
#
# Total GULP energy -156082.014898 kJ/mol
# GULP energy per Si atom -5574.357675 kJ/mol
# Density = 1.787193 g / cm^3
# Si number density = 17.912697 Si / 1000 Ang^3
#
#
#
# Elastic Constant Matrix: (Units=GPa)
#
#
# Indices 1 2 3 4 5 6 
#
# 1 78.2716 22.8464 25.9838 0.0000 -3.2741 0.0000
# 2 22.8464 58.4176 39.7257 0.0000 -11.9349 0.0000
# 3 25.9838 39.7257 90.8439 0.0000 2.3353 0.0000
# 4 0.0000 0.0000 0.0000 18.9513 0.0000 -7.4276
# 5 -3.2741 -11.9349 2.3353 0.0000 29.5630 0.0000
# 6 0.0000 0.0000 0.0000 -7.4276 0.0000 11.8190
#
#
#
# Elastic Compliance Matrix: (Units=1/GPa)
#
#
# Indices 1 2 3 4 5 6 
#
# 1 0.014788 -0.004079 -0.002451 0.000000 0.000185 0.000000
# 2 -0.004079 0.029409 -0.012012 0.000000 0.012370 0.000000
# 3 -0.002451 -0.012012 0.017128 0.000000 -0.006474 0.000000
# 4 0.000000 0.000000 0.000000 0.070011 0.000000 0.043998
# 5 0.000185 0.012370 -0.006474 0.000000 0.039352 0.000000
# 6 0.000000 0.000000 0.000000 0.043998 0.000000 0.112260
#
#
# Mechanical properties :
#
#
# Convention : Reuss Voigt Hill
#
# Bulk Modulus (GPa) = 41.25107 44.96054 43.10580
# Shear Modulus (GPa) = 15.23874 21.33181 18.28528
#
# Velocity S-wave (km/s) = 2.91988 3.45465 3.19846
# Velocity P-wave (km/s) = 5.86912 6.40836 6.14466
#
# Compressibility (1/GPa) = 0.02424180
#
# Stress axis : x y z
#
# Youngs Moduli (GPa) = 67.62270 34.00340 58.38427
#
# Poissons Ratio (x) = 0.13870 0.14308
# Poissons Ratio (y) = 0.27584 0.70129
# Poissons Ratio (z) = 0.16572 0.40844
#
# Static dielectric constant tensor:
#      x y z
#    x 1.660030 0.000000 0.011980 
#    y 0.000000 1.658180 0.000000 
#    z 0.011980 0.000000 1.601680 
# 
# From -- ./inp_files/61434.got.cif
#   From: 2010.05.17/outbox.cif.g08.bks.cpg/sg13_31_cif.got.tgz:61434.got - 2010.06.03 16:44:36.
