data_PCOD9228951
_publ_section_title
;
Structure prediction by ZEFSAII (Michael W. Deem and Ramdas Pophale) SiO2 
 PCOD9228951
Probable space group: P 2/C
;
_chemical_formula_sum "Si O2"
_cell_formula_units_Z 32
_cell_length_a 24.341072
_cell_length_b 8.204387
_cell_length_c 24.943656
_cell_angle_alpha 90.000000
_cell_angle_beta 17.660390
_cell_angle_gamma 90.000000
_cell_volume 1511.210154
_symmetry_space_group_name_H-M "P 2/C"
_symmetry_group_IT_number 13
_symmetry_cell_setting 'monoclinic'
loop_
_space_group_symop_operation_xyz
x,y,z
-x,y,1/2-z
-x,-y,-z
x,-y,1/2+z
loop_
_atom_site_type_symbol
_atom_site_label
_atom_site_fract_x
_atom_site_fract_y
_atom_site_fract_z
Si Si1 0.638176 0.096267 0.730806
Si Si2 0.757135 0.968891 0.896789
Si Si3 0.827907 0.562553 0.694569
Si Si4 0.134000 0.869554 0.906792
Si Si5 0.701164 0.891573 0.567687
Si Si6 0.962078 0.602584 0.346773
Si Si7 0.804402 0.270031 0.781195
Si Si8 0.042422 0.713608 0.591306
O O1 0.710862 0.960970 0.704358
O O2 0.673610 0.034738 0.636814
O O3 0.781741 0.237381 0.605682
O O4 0.427888 0.134651 0.931651
O O5 0.726171 0.102771 0.878365
O O6 0.765357 0.049187 0.948922
O O7 0.935701 0.863023 0.718583
O O8 0.769297 0.724789 0.716845
O O9 0.722342 0.399752 0.814365
O O10 0.000000 0.500000 0.500000
O O11 0.902096 0.640334 0.680010
O O12 0.993026 0.784095 0.078211
O O13 0.000000 0.000000 0.000000
O O14 0.500000 0.817544 0.750000
O O15 0.832220 0.758152 0.471341
O O16 0.891702 0.429121 0.431486
O O17 0.000000 0.586737 0.250000
O O18 0.140630 0.637866 0.215339
#
# Coordination Sequence:
#
# PCOD9228951 Si02
#       8
#     4   4   4   4   4   4   4   4
#     4  11  23  39  65  91 119 168 203 248 316 360
#     4  11  22  41  64  91 128 159 204 255 301 377
#     4   9  20  36  64  88 119 162 202 255 309 350
#     4  11  18  36  63  88 119 160 206 256 304 358
#     4  10  22  40  60  90 124 160 203 248 303 375
#     4  11  21  37  62  88 116 165 197 246 312 355
#     4  10  19  36  62  86 122 156 204 251 298 368
#     4  11  23  40  61  92 124 157 208 252 301 370
#
# _framework density 21.175083000000001
#
# number of rings (size 3 to 8) (size 9 to 14) (size 15 to 20)
#    0.000    1.500    5.000    0.000    1.750    0.000 
#    2.250    3.125    0.000    0.000    0.000    0.000 
#    0.000    0.000    0.000    0.000    0.000    0.000 
#
# Total GULP energy -178150.338591 kJ/mol
# GULP energy per Si atom -5567.198081 kJ/mol
# Density = 2.112689 g / cm^3
# Si number density = 21.175083 Si / 1000 Ang^3
#
#
#
# Elastic Constant Matrix: (Units=GPa)
#
#
# Indices 1 2 3 4 5 6 
#
# 1 53.1157 -4.9038 0.1066 0.0000 20.4969 0.0000
# 2 -4.9038 47.4747 2.4549 0.0000 8.8228 0.0000
# 3 0.1066 2.4549 53.3406 0.0000 -1.2260 0.0000
# 4 0.0000 0.0000 0.0000 8.0856 0.0000 11.5007
# 5 20.4969 8.8228 -1.2260 0.0000 26.0450 0.0000
# 6 0.0000 0.0000 0.0000 11.5007 0.0000 29.5204
#
#
#
# Elastic Compliance Matrix: (Units=1/GPa)
#
#
# Indices 1 2 3 4 5 6 
#
# 1 0.029615 0.007953 -0.001024 0.000000 -0.026049 0.000000
# 2 0.007953 0.024693 -0.001490 0.000000 -0.014694 0.000000
# 3 -0.001024 -0.001490 0.018869 0.000000 0.002199 0.000000
# 4 0.000000 0.000000 0.000000 0.277387 0.000000 -0.108065
# 5 -0.026049 -0.014694 0.002199 0.000000 0.063976 0.000000
# 6 0.000000 0.000000 0.000000 -0.108065 0.000000 0.075975
#
#
# Mechanical properties :
#
#
# Convention : Reuss Voigt Hill
#
# Bulk Modulus (GPa) = 11.89697 16.58291 14.23994
# Shear Modulus (GPa) = 9.84919 23.14842 16.49881
#
# Velocity S-wave (km/s) = 2.15903 3.30993 2.79437
# Velocity P-wave (km/s) = 3.44177 4.73876 4.14136
#
# Compressibility (1/GPa) = 0.08405503
#
# Stress axis : x y z
#
# Youngs Moduli (GPa) = 33.76640 40.49712 52.99806
#
# Poissons Ratio (x) = -0.32207 0.05427
# Poissons Ratio (y) = -0.26854 0.07897
# Poissons Ratio (z) = 0.03457 0.06034
#
# Static dielectric constant tensor:
#      x y z
#    x 1.815600 0.000000 0.011130 
#    y 0.000000 1.944190 0.000000 
#    z 0.011130 0.000000 1.760930 
# 
# From -- ./inp_files/88931.got.cif
#   From: 2010.05.17/outbox.cif.g08.bks.cpg/sg13_45_cif.got.tgz:88931.got - 2010.06.03 16:44:36.
