data_PCOD9228130
_publ_section_title
;
Structure prediction by ZEFSAII (Michael W. Deem and Ramdas Pophale) SiO2 
 PCOD9228130
Probable space group: P 2/C
;
_chemical_formula_sum "Si O2"
_cell_formula_units_Z 26
_cell_length_a 26.497115
_cell_length_b 10.789126
_cell_length_c 9.581776
_cell_angle_alpha 90.000000
_cell_angle_beta 31.206114
_cell_angle_gamma 90.000000
_cell_volume 1419.252886
_symmetry_space_group_name_H-M "P 2/C"
_symmetry_group_IT_number 13
_symmetry_cell_setting 'monoclinic'
loop_
_space_group_symop_operation_xyz
x,y,z
-x,y,1/2-z
-x,-y,-z
x,-y,1/2+z
loop_
_atom_site_type_symbol
_atom_site_label
_atom_site_fract_x
_atom_site_fract_y
_atom_site_fract_z
Si Si1 0.500000 0.491320 0.750000
Si Si2 0.912511 0.863047 0.776558
Si Si3 0.114573 0.850643 0.203444
Si Si4 0.248471 0.906162 0.130088
Si Si5 0.403369 0.650401 0.221774
Si Si6 0.207253 0.197338 0.215264
Si Si7 0.469559 0.881579 0.661188
O O1 0.570533 0.568632 0.477618
O O2 0.566523 0.416394 0.704398
O O3 0.863640 0.821001 0.747990
O O4 0.022097 0.811211 0.515668
O O5 0.918881 0.013403 0.771810
O O6 0.832329 0.839693 0.083395
O O7 0.211834 0.874515 0.062163
O O8 0.143361 0.770535 0.002405
O O9 0.247989 0.056561 0.144587
O O10 0.354542 0.862073 0.920217
O O11 0.294525 0.706800 0.483126
O O12 0.474756 0.766402 0.035298
O O13 0.500000 0.896943 0.750000
O O14 0.500000 0.000000 0.500000
#
# Coordination Sequence:
#
# PCOD9228130 Si02
#       7
#     2   4   4   4   4   4   4
#     4  10  26  44  62  78 114 164 214 262 304 340
#     4   9  17  31  48  77 121 154 185 230 278 359
#     4   9  18  30  49  79 116 156 191 222 282 361
#     4  10  20  30  50  82 121 158 188 218 293 358
#     4  11  23  43  61  83 119 151 212 253 299 363
#     4  10  19  32  55  81 114 150 190 235 289 353
#     4  12  25  36  58  90 127 158 190 248 308 366
#
# _framework density 18.319499
#
# number of rings (size 3 to 8) (size 9 to 14) (size 15 to 20)
#    0.000    1.846    2.308    1.846    7.538    3.692 
#    0.000    0.000    0.000    0.000    0.000    4.308 
#    0.000    0.000    0.000    0.000    0.000    0.000 
#
# Total GULP energy -144876.374450 kJ/mol
# GULP energy per Si atom -5572.168248 kJ/mol
# Density = 1.827780 g / cm^3
# Si number density = 18.319499 Si / 1000 Ang^3
#
#
#
# Elastic Constant Matrix: (Units=GPa)
#
#
# Indices 1 2 3 4 5 6 
#
# 1 82.0667 33.2433 65.1234 0.0000 -0.7002 0.0000
# 2 33.2433 57.5763 36.2368 0.0000 6.2599 0.0000
# 3 65.1234 36.2368 120.8814 0.0000 -6.0250 0.0000
# 4 0.0000 0.0000 0.0000 18.5755 0.0000 7.6867
# 5 -0.7002 6.2599 -6.0250 0.0000 38.8736 0.0000
# 6 0.0000 0.0000 0.0000 7.6867 0.0000 6.3078
#
#
#
# Elastic Compliance Matrix: (Units=1/GPa)
#
#
# Indices 1 2 3 4 5 6 
#
# 1 0.023282 -0.006820 -0.010504 0.000000 -0.000111 0.000000
# 2 -0.006820 0.024206 -0.003812 0.000000 -0.004612 0.000000
# 3 -0.010504 -0.003812 0.015213 0.000000 0.002783 0.000000
# 4 0.000000 0.000000 0.000000 0.108596 0.000000 -0.132335
# 5 -0.000111 -0.004612 0.002783 0.000000 0.026896 0.000000
# 6 0.000000 0.000000 0.000000 -0.132335 0.000000 0.319797
#
#
# Mechanical properties :
#
#
# Convention : Reuss Voigt Hill
#
# Bulk Modulus (GPa) = 48.94857 58.85903 53.90380
# Shear Modulus (GPa) = 8.81720 21.14610 14.98165
#
# Velocity S-wave (km/s) = 2.19624 3.40118 2.86282
# Velocity P-wave (km/s) = 5.76270 6.90094 6.35734
#
# Compressibility (1/GPa) = 0.02042961
#
# Stress axis : x y z
#
# Youngs Moduli (GPa) = 42.95113 41.31124 65.73279
#
# Poissons Ratio (x) = 0.28173 0.69047
# Poissons Ratio (y) = 0.29291 0.25059
# Poissons Ratio (z) = 0.45117 0.15749
#
# Static dielectric constant tensor:
#      x y z
#    x 1.676080 0.000000 0.010630 
#    y 0.000000 1.616020 0.000000 
#    z 0.010630 0.000000 1.698700 
# 
# From -- ./inp_files/24712.got.cif
#   From: 2010.05.17/outbox.cif.g08.bks.cpg/sg13_13_cif.got.tgz:24712.got - 2010.06.03 16:44:36.
