data_PCOD9228939
_publ_section_title
;
Structure prediction by ZEFSAII (Michael W. Deem and Ramdas Pophale) SiO2 
 PCOD9228939
Probable space group: P 2/C
;
_chemical_formula_sum "Si O2"
_cell_formula_units_Z 32
_cell_length_a 16.690226
_cell_length_b 19.693964
_cell_length_c 16.038763
_cell_angle_alpha 90.000000
_cell_angle_beta 162.147309
_cell_angle_gamma 90.000000
_cell_volume 1616.207029
_symmetry_space_group_name_H-M "P 2/C"
_symmetry_group_IT_number 13
_symmetry_cell_setting 'monoclinic'
loop_
_space_group_symop_operation_xyz
x,y,z
-x,y,1/2-z
-x,-y,-z
x,-y,1/2+z
loop_
_atom_site_type_symbol
_atom_site_label
_atom_site_fract_x
_atom_site_fract_y
_atom_site_fract_z
Si Si1 0.351762 0.798296 0.280820
Si Si2 0.299175 0.060888 0.798708
Si Si3 0.736648 0.530228 0.541004
Si Si4 0.916167 0.576591 0.891053
Si Si5 0.736901 0.370536 0.541331
Si Si6 0.588579 0.657215 0.070483
Si Si7 0.945416 0.987486 0.794125
Si Si8 0.159317 0.836711 0.822988
O O1 0.402577 0.863174 0.391181
O O2 0.425774 0.728931 0.399095
O O3 0.559234 0.803649 0.411021
O O4 0.049723 0.807758 0.952433
O O5 0.156690 0.044441 0.568887
O O6 0.153934 0.048577 0.744238
O O7 0.500000 0.000000 0.000000
O O8 0.779828 0.571450 0.666819
O O9 0.694429 0.450647 0.520251
O O10 0.000000 0.533278 0.750000
O O11 0.500000 0.554078 0.250000
O O12 0.687570 0.616695 0.715149
O O13 0.000000 0.500000 0.000000
O O14 0.192584 0.614256 0.163372
O O15 0.723100 0.332702 0.614213
O O16 0.000000 0.364637 0.750000
O O17 0.500000 0.347770 0.250000
O O18 0.000000 0.006356 0.750000
O O19 0.778571 0.917942 0.619716
O O20 0.000000 0.826149 0.750000
#
# Coordination Sequence:
#
# PCOD9228939 Si02
#       8
#     4   4   4   4   4   4   4   4
#     4  11  23  40  61  91 128 166 204 256 316 370
#     4  10  19  36  61  89 124 165 212 262 310 367
#     4  10  21  37  60  90 120 149 190 251 305 352
#     4  12  24  41  66  93 119 158 209 254 302 370
#     4  10  21  37  62  88 115 153 203 249 300 368
#     4  12  25  41  63  93 124 163 204 255 313 374
#     4   9  19  34  59  94 123 162 216 268 310 367
#     4  10  20  38  63  90 121 166 217 251 300 374
#
# _framework density 19.799443
#
# number of rings (size 3 to 8) (size 9 to 14) (size 15 to 20)
#    0.000    1.500    2.500    3.000    3.500    0.500 
#    0.000    6.875    2.750    0.000    0.000    0.000 
#    0.000    0.000    0.000    0.000    0.000    0.000 
#
# Total GULP energy -178159.690513 kJ/mol
# GULP energy per Si atom -5567.490329 kJ/mol
# Density = 1.975438 g / cm^3
# Si number density = 19.799443 Si / 1000 Ang^3
#
#
#
# Elastic Constant Matrix: (Units=GPa)
#
#
# Indices 1 2 3 4 5 6 
#
# 1 109.4736 35.1036 16.5261 0.0000 -9.7282 0.0000
# 2 35.1036 98.4709 26.7579 0.0000 8.5732 0.0000
# 3 16.5261 26.7579 84.6604 0.0000 -0.3517 0.0000
# 4 0.0000 0.0000 0.0000 19.8631 0.0000 2.8271
# 5 -9.7282 8.5732 -0.3517 0.0000 25.3696 0.0000
# 6 0.0000 0.0000 0.0000 2.8271 0.0000 22.7214
#
#
#
# Elastic Compliance Matrix: (Units=1/GPa)
#
#
# Indices 1 2 3 4 5 6 
#
# 1 0.011122 -0.004240 -0.000807 0.000000 0.005686 0.000000
# 2 -0.004240 0.013106 -0.003340 0.000000 -0.006101 0.000000
# 3 -0.000807 -0.003340 0.013029 0.000000 0.001000 0.000000
# 4 0.000000 0.000000 0.000000 0.051252 0.000000 -0.006377
# 5 0.005686 -0.006101 0.001000 0.000000 0.043673 0.000000
# 6 0.000000 0.000000 0.000000 -0.006377 0.000000 0.044805
#
#
# Mechanical properties :
#
#
# Convention : Reuss Voigt Hill
#
# Bulk Modulus (GPa) = 48.82409 49.93111 49.37760
# Shear Modulus (GPa) = 24.92663 27.87198 26.39930
#
# Velocity S-wave (km/s) = 3.55203 3.75602 3.65545
# Velocity P-wave (km/s) = 6.44479 6.63954 6.54289
#
# Compressibility (1/GPa) = 0.02048169
#
# Stress axis : x y z
#
# Youngs Moduli (GPa) = 89.91586 76.30291 76.75085
#
# Poissons Ratio (x) = 0.32356 0.06195
# Poissons Ratio (y) = 0.38128 0.25633
# Poissons Ratio (z) = 0.07257 0.25484
#
# Static dielectric constant tensor:
#      x y z
#    x 1.720220 0.000000 0.003790 
#    y 0.000000 1.680100 0.000000 
#    z 0.003790 0.000000 1.745660 
# 
# From -- ./inp_files/54000.got.cif
#   From: 2010.05.17/outbox.cif.g08.bks.cpg/sg13_27_cif.got.tgz:54000.got - 2010.06.03 16:44:36.
