data_PCOD9228098
_publ_section_title
;
Structure prediction by ZEFSAII (Michael W. Deem and Ramdas Pophale) SiO2 
 PCOD9228098
Probable space group: P 2/C
;
_chemical_formula_sum "Si O2"
_cell_formula_units_Z 28
_cell_length_a 35.509849
_cell_length_b 7.022025
_cell_length_c 5.284054
_cell_angle_alpha 90.000000
_cell_angle_beta 76.991305
_cell_angle_gamma 90.000000
_cell_volume 1283.769803
_symmetry_space_group_name_H-M "P 2/C"
_symmetry_group_IT_number 13
_symmetry_cell_setting 'monoclinic'
loop_
_space_group_symop_operation_xyz
x,y,z
-x,y,1/2-z
-x,-y,-z
x,-y,1/2+z
loop_
_atom_site_type_symbol
_atom_site_label
_atom_site_fract_x
_atom_site_fract_y
_atom_site_fract_z
Si Si1 0.517340 0.287306 0.473895
Si Si2 0.233136 0.868440 0.907238
Si Si3 0.846481 0.286949 0.092115
Si Si4 0.317407 0.873978 0.829463
Si Si5 0.599199 0.131208 0.379645
Si Si6 0.121916 0.285804 0.955466
Si Si7 0.042911 0.872882 0.717068
O O1 0.500000 0.197974 0.250000
O O2 0.500000 0.500000 0.500000
O O3 0.563347 0.273217 0.408599
O O4 0.500000 0.197429 0.750000
O O5 0.197420 0.725581 0.933803
O O6 0.276006 0.776213 0.847193
O O7 0.230398 0.008904 0.668970
O O8 0.851708 0.199496 0.362091
O O9 0.872526 0.198278 0.830429
O O10 0.862594 0.500003 0.104903
O O11 0.358415 0.774538 0.716288
O O12 0.317673 0.041828 0.614337
O O13 0.596627 0.022030 0.652925
O O14 0.078137 0.269565 0.114353
O O15 0.000000 0.787323 0.750000
O O16 0.045777 0.031931 0.489678
#
# Coordination Sequence:
#
# PCOD9228098 Si02
#       7
#     4   4   4   4   4   4   4
#     4  10  21  35  50  70 104 140 170 211 259 312
#     4  10  19  32  53  80 107 137 174 213 256 304
#     4  10  21  35  52  77 109 144 174 210 256 307
#     4   8  16  30  48  74 104 131 165 212 260 304
#     4  10  19  32  53  78 102 132 173 216 258 307
#     4  10  21  37  53  75 110 142 174 212 256 310
#     4  10  21  37  58  82 106 134 172 219 265 310
#
# _framework density 21.810763999999999
#
# number of rings (size 3 to 8) (size 9 to 14) (size 15 to 20)
#    0.000    2.286    0.000    2.571    0.000    5.143 
#    0.000    2.857    0.000    6.857    0.000    0.000 
#    0.000    0.000    0.000    0.000    0.000    0.000 
#
# Total GULP energy -156113.869093 kJ/mol
# GULP energy per Si atom -5575.495325 kJ/mol
# Density = 2.176112 g / cm^3
# Si number density = 21.810764 Si / 1000 Ang^3
#
#
#
# Elastic Constant Matrix: (Units=GPa)
#
#
# Indices 1 2 3 4 5 6 
#
# 1 174.2430 19.2095 11.9125 0.0000 -33.0357 0.0000
# 2 19.2095 62.8875 -8.7307 0.0000 -8.2156 0.0000
# 3 11.9125 -8.7307 134.2728 0.0000 27.6637 0.0000
# 4 0.0000 0.0000 0.0000 1.0134 0.0000 -31.6943
# 5 -33.0357 -8.2156 27.6637 0.0000 56.5437 0.0000
# 6 0.0000 0.0000 0.0000 -31.6943 0.0000 88.4894
#
#
#
# Elastic Compliance Matrix: (Units=1/GPa)
#
#
# Indices 1 2 3 4 5 6 
#
# 1 0.006920 -0.001744 -0.001677 0.000000 0.004610 0.000000
# 2 -0.001744 0.016697 0.001057 0.000000 0.000890 0.000000
# 3 -0.001677 0.001057 0.008714 0.000000 -0.005089 0.000000
# 4 0.000000 0.000000 0.000000 -0.096725 0.000000 -0.034644
# 5 0.004610 0.000890 -0.005089 0.000000 0.022998 0.000000
# 6 0.000000 0.000000 0.000000 -0.034644 0.000000 -0.001108
#
#
# Mechanical properties :
#
#
# Convention : Reuss Voigt Hill
#
# Bulk Modulus (GPa) = 36.22904 46.24285 41.23594
# Shear Modulus (GPa) = -174.98368 52.47678 -61.25345
#
# Velocity S-wave (km/s) = -8.96673 4.91042 -5.30519
# Velocity P-wave (km/s) = 9.51611 7.30736 4.31038
#
# Compressibility (1/GPa) = 0.02760217
#
# Stress axis : x y z
#
# Youngs Moduli (GPa) = 144.50520 59.89009 114.76303
#
# Poissons Ratio (x) = 0.10447 0.19248
# Poissons Ratio (y) = 0.25207 -0.12132
# Poissons Ratio (z) = 0.24236 -0.06331
#
# Static dielectric constant tensor:
#      x y z
#    x 1.834940 0.000000 0.008340 
#    y 0.000000 1.479060 0.000000 
#    z 0.008340 0.000000 1.865250 
# 
# From -- ./inp_files/8039.got.cif
#   From: 2010.05.17/outbox.cif.g08.bks.cpg/sg13_5_cif.got.tgz:8039.got - 2010.06.03 16:44:36.
