data_PCOD9228636
_publ_section_title
;
Structure prediction by ZEFSAII (Michael W. Deem and Ramdas Pophale) SiO2 
 PCOD9228636
Probable space group: P 2/C
;
_chemical_formula_sum "Si O2"
_cell_formula_units_Z 24
_cell_length_a 15.379591
_cell_length_b 14.663333
_cell_length_c 8.266301
_cell_angle_alpha 90.000000
_cell_angle_beta 37.656561
_cell_angle_gamma 90.000000
_cell_volume 1138.880127
_symmetry_space_group_name_H-M "P 2/C"
_symmetry_group_IT_number 13
_symmetry_cell_setting 'monoclinic'
loop_
_space_group_symop_operation_xyz
x,y,z
-x,y,1/2-z
-x,-y,-z
x,-y,1/2+z
loop_
_atom_site_type_symbol
_atom_site_label
_atom_site_fract_x
_atom_site_fract_y
_atom_site_fract_z
Si Si1 0.462739 0.697982 0.527141
Si Si2 0.000000 0.738738 0.250000
Si Si3 0.500000 0.007164 0.250000
Si Si4 0.794530 0.231199 0.318903
Si Si5 0.254792 0.403915 0.926533
Si Si6 0.226214 0.608259 0.087501
Si Si7 0.641361 0.125383 0.801524
O O1 0.353988 0.745380 0.558028
O O2 0.577895 0.622965 0.297734
O O3 0.556052 0.781249 0.454932
O O4 0.369216 0.650335 0.801096
O O5 0.105283 0.672579 0.192398
O O6 0.907901 0.794574 0.515797
O O7 0.372376 0.069722 0.511068
O O8 0.439839 0.940777 0.202536
O O9 0.830634 0.328957 0.344641
O O10 0.773403 0.161071 0.498180
O O11 0.225104 0.392628 0.781441
O O12 0.218363 0.504593 0.037655
#
# Coordination Sequence:
#
# PCOD9228636 Si02
#       7
#     4   2   2   4   4   4   4
#     4  10  20  36  56  86 122 149 186 242 301 350
#     4  10  24  42  58  78 112 168 204 238 274 330
#     4  10  20  32  60  92 120 144 178 236 308 364
#     4  10  21  39  59  81 121 160 195 239 282 345
#     4  11  22  35  57  83 114 151 199 249 292 335
#     4  11  23  36  56  83 114 160 200 241 283 340
#     4  10  19  35  57  91 118 148 180 236 299 358
#
# _framework density 21.073332000000001
#
# number of rings (size 3 to 8) (size 9 to 14) (size 15 to 20)
#    0.000    1.667    1.667    4.500    4.667    4.667 
#    0.000    0.000    0.000    1.000    0.000    0.000 
#    0.000    0.000    0.000    0.000    0.000    0.000 
#
# Total GULP energy -133908.445337 kJ/mol
# GULP energy per Si atom -5579.518556 kJ/mol
# Density = 2.102537 g / cm^3
# Si number density = 21.073332 Si / 1000 Ang^3
#
#
#
# Elastic Constant Matrix: (Units=GPa)
#
#
# Indices 1 2 3 4 5 6 
#
# 1 33.4758 -17.2990 -6.0644 0.0000 13.0977 0.0000
# 2 -17.2990 65.0289 5.6385 0.0000 10.7746 0.0000
# 3 -6.0644 5.6385 106.7443 0.0000 15.0361 0.0000
# 4 0.0000 0.0000 0.0000 1.7043 0.0000 -0.0804
# 5 13.0977 10.7746 15.0361 0.0000 25.7614 0.0000
# 6 0.0000 0.0000 0.0000 -0.0804 0.0000 -25.0997
#
#
#
# Elastic Compliance Matrix: (Units=1/GPa)
#
#
# Indices 1 2 3 4 5 6 
#
# 1 0.061512 0.023243 0.008762 0.000000 -0.046109 0.000000
# 2 0.023243 0.025307 0.003421 0.000000 -0.024399 0.000000
# 3 0.008762 0.003421 0.011456 0.000000 -0.012572 0.000000
# 4 0.000000 0.000000 0.000000 0.586658 0.000000 -0.001879
# 5 -0.046109 -0.024399 -0.012572 0.000000 0.079803 0.000000
# 6 0.000000 0.000000 0.000000 -0.001879 0.000000 -0.039835
#
#
# Mechanical properties :
#
#
# Convention : Reuss Voigt Hill
#
# Bulk Modulus (GPa) = 5.91274 18.86659 12.38966
# Shear Modulus (GPa) = 7.03804 15.33813 11.18808
#
# Velocity S-wave (km/s) = 1.82949 2.70079 2.30665
# Velocity P-wave (km/s) = 2.69715 4.32411 3.60365
#
# Compressibility (1/GPa) = 0.16912647
#
# Stress axis : x y z
#
# Youngs Moduli (GPa) = 16.25709 39.51474 87.28920
#
# Poissons Ratio (x) = -0.91846 -0.76481
# Poissons Ratio (y) = -0.37787 -0.29857
# Poissons Ratio (z) = -0.14244 -0.13516
#
# Static dielectric constant tensor:
#      x y z
#    x 1.808380 0.000000 0.013900 
#    y 0.000000 1.724450 0.000000 
#    z 0.013900 0.000000 1.833580 
# 
# From -- ./inp_files/21923.got.cif
#   From: 2010.05.17/outbox.cif.g08.bks.cpg/sg13_11_cif.got.tgz:21923.got - 2010.06.03 16:44:36.
