data_PCOD9228539
_publ_section_title
;
Structure prediction by ZEFSAII (Michael W. Deem and Ramdas Pophale) SiO2 
 PCOD9228539
Probable space group: P 2/C
;
_chemical_formula_sum "Si O2"
_cell_formula_units_Z 20
_cell_length_a 8.156360
_cell_length_b 22.355848
_cell_length_c 5.095539
_cell_angle_alpha 90.000000
_cell_angle_beta 81.148145
_cell_angle_gamma 90.000000
_cell_volume 918.066111
_symmetry_space_group_name_H-M "P 2/C"
_symmetry_group_IT_number 13
_symmetry_cell_setting 'monoclinic'
loop_
_space_group_symop_operation_xyz
x,y,z
-x,y,1/2-z
-x,-y,-z
x,-y,1/2+z
loop_
_atom_site_type_symbol
_atom_site_label
_atom_site_fract_x
_atom_site_fract_y
_atom_site_fract_z
Si Si1 0.186554 0.657119 0.662424
Si Si2 0.199783 0.965537 0.176939
Si Si3 0.381151 0.154733 0.532376
Si Si4 0.672206 0.286823 0.870049
Si Si5 0.187195 0.523223 0.879813
O O1 0.220596 0.672094 0.351632
O O2 0.189599 0.587649 0.745122
O O3 0.000000 0.679622 0.750000
O O4 0.310027 0.688068 0.840191
O O5 0.263079 0.902448 0.054259
O O6 0.000000 0.964505 0.250000
O O7 0.256978 0.984517 0.452866
O O8 0.500000 0.144855 0.750000
O O9 0.284773 0.216778 0.610171
O O10 0.500000 0.161638 0.250000
O O11 0.500000 0.287130 0.750000
O O12 0.267404 0.478998 0.646978
O O13 0.000000 0.500000 0.000000
#
# Coordination Sequence:
#
# PCOD9228539 Si02
#       5
#     4   4   4   4   4
#     4  12  23  38  68  99 116 160 221 261 306 379
#     4  10  22  39  61  94 131 164 198 259 329 365
#     4  11  23  42  65  87 121 172 219 256 302 374
#     4  11  25  44  61  88 135 172 204 259 334 375
#     4  10  19  34  59  92 122 152 192 265 312 363
#
# _framework density 21.784922000000002
#
# number of rings (size 3 to 8) (size 9 to 14) (size 15 to 20)
#    0.000    1.200    2.000    6.000    2.800    4.000 
#    0.000    2.000    0.000   12.000    0.000    0.000 
#    0.000    0.000    0.000    0.000    0.000    0.000 
#
# Total GULP energy -111537.771475 kJ/mol
# GULP energy per Si atom -5576.888574 kJ/mol
# Density = 2.173534 g / cm^3
# Si number density = 21.784922 Si / 1000 Ang^3
#
#
#
# Elastic Constant Matrix: (Units=GPa)
#
#
# Indices 1 2 3 4 5 6 
#
# 1 23.7795 10.3920 9.1341 0.0000 7.2906 0.0000
# 2 10.3920 130.2772 33.9186 0.0000 -11.0771 0.0000
# 3 9.1341 33.9186 162.0646 0.0000 13.1500 0.0000
# 4 0.0000 0.0000 0.0000 36.0514 0.0000 6.5483
# 5 7.2906 -11.0771 13.1500 0.0000 28.2049 0.0000
# 6 0.0000 0.0000 0.0000 6.5483 0.0000 19.9222
#
#
#
# Elastic Compliance Matrix: (Units=1/GPa)
#
#
# Indices 1 2 3 4 5 6 
#
# 1 0.048825 -0.004969 -0.000550 0.000000 -0.014315 0.000000
# 2 -0.004969 0.009117 -0.002102 0.000000 0.005845 0.000000
# 3 -0.000550 -0.002102 0.006960 0.000000 -0.003928 0.000000
# 4 0.000000 0.000000 0.000000 0.029499 0.000000 -0.009696
# 5 -0.014315 0.005845 -0.003928 0.000000 0.043282 0.000000
# 6 0.000000 0.000000 0.000000 -0.009696 0.000000 0.053382
#
#
# Mechanical properties :
#
#
# Convention : Reuss Voigt Hill
#
# Bulk Modulus (GPa) = 20.13732 47.00118 33.56925
# Shear Modulus (GPa) = 22.43555 34.34748 28.39151
#
# Velocity S-wave (km/s) = 3.21263 3.97503 3.61399
# Velocity P-wave (km/s) = 4.79845 6.53374 5.73214
#
# Compressibility (1/GPa) = 0.04965904
#
# Stress axis : x y z
#
# Youngs Moduli (GPa) = 20.48146 109.69033 143.67555
#
# Poissons Ratio (x) = 0.54500 0.07907
# Poissons Ratio (y) = 0.10176 0.30204
# Poissons Ratio (z) = 0.01127 0.23059
#
# Static dielectric constant tensor:
#      x y z
#    x 1.900380 0.000000 0.059380 
#    y 0.000000 1.807120 0.000000 
#    z 0.059380 0.000000 1.831580 
# 
# From -- ./inp_files/2032.got.cif
#   From: 2010.05.17/outbox.cif.g08.bks.cpg/sg13_2_cif.got.tgz:2032.got - 2010.06.03 16:44:36.
