data_PCOD9228984
_publ_section_title
;
Structure prediction by ZEFSAII (Michael W. Deem and Ramdas Pophale) SiO2 
 PCOD9228984
Probable space group: P 2/C
;
_chemical_formula_sum "Si O2"
_cell_formula_units_Z 32
_cell_length_a 20.441477
_cell_length_b 8.908290
_cell_length_c 11.624913
_cell_angle_alpha 90.000000
_cell_angle_beta 50.237555
_cell_angle_gamma 90.000000
_cell_volume 1627.252185
_symmetry_space_group_name_H-M "P 2/C"
_symmetry_group_IT_number 13
_symmetry_cell_setting 'monoclinic'
loop_
_space_group_symop_operation_xyz
x,y,z
-x,y,1/2-z
-x,-y,-z
x,-y,1/2+z
loop_
_atom_site_type_symbol
_atom_site_label
_atom_site_fract_x
_atom_site_fract_y
_atom_site_fract_z
Si Si1 0.697532 0.720029 0.116645
Si Si2 0.872170 0.887779 0.947760
Si Si3 0.646820 0.138902 0.449547
Si Si4 0.966547 0.856212 0.606876
Si Si5 0.633915 0.783818 0.439118
Si Si6 0.708008 0.619900 0.567773
Si Si7 0.461453 0.343189 0.089546
Si Si8 0.819961 0.207302 0.117919
O O1 0.654212 0.718228 0.290010
O O2 0.710420 0.557570 0.045614
O O3 0.789199 0.789586 0.033384
O O4 0.647844 0.825144 0.083327
O O5 0.910313 0.911746 0.777914
O O6 0.945221 0.800318 0.937356
O O7 0.844046 0.046497 0.034249
O O8 0.572406 0.235463 0.474136
O O9 0.738533 0.187699 0.293463
O O10 0.639458 0.962940 0.432969
O O11 0.904633 0.756208 0.597164
O O12 0.000000 0.000000 0.500000
O O13 0.696270 0.713073 0.464055
O O14 0.537673 0.735194 0.571914
O O15 0.621318 0.639048 0.738425
O O16 0.786302 0.681066 0.556698
O O17 0.500000 0.500000 0.000000
#
# Coordination Sequence:
#
# PCOD9228984 Si02
#       8
#     4   4   4   4   4   4   4   4
#     4  12  24  41  66  93 130 171 212 263 326 388
#     4  10  19  36  63  97 125 161 208 263 316 380
#     4  11  24  39  66  94 125 167 219 269 318 375
#     4   9  19  34  64  95 126 159 205 260 320 375
#     4  12  25  43  64  93 128 167 221 271 322 378
#     4  11  26  41  64  92 127 176 214 261 324 386
#     4  11  23  46  65  88 130 171 218 267 325 381
#     4  10  20  39  63  90 127 163 213 262 312 380
#
# _framework density 19.665053
#
# number of rings (size 3 to 8) (size 9 to 14) (size 15 to 20)
#    0.000    1.250    3.750    2.250    3.500    0.500 
#    2.250    0.625    0.000    6.000    0.000    0.000 
#    0.000    0.000    0.000    0.000    0.000    0.000 
#
# Total GULP energy -178596.919941 kJ/mol
# GULP energy per Si atom -5581.153748 kJ/mol
# Density = 1.962029 g / cm^3
# Si number density = 19.665053 Si / 1000 Ang^3
#
#
#
# Elastic Constant Matrix: (Units=GPa)
#
#
# Indices 1 2 3 4 5 6 
#
# 1 112.5840 28.0065 14.1149 0.0000 7.7214 0.0000
# 2 28.0065 74.6540 -0.6868 0.0000 -3.1284 0.0000
# 3 14.1149 -0.6868 52.8500 0.0000 6.9622 0.0000
# 4 0.0000 0.0000 0.0000 18.6801 0.0000 6.9547
# 5 7.7214 -3.1284 6.9622 0.0000 24.6667 0.0000
# 6 0.0000 0.0000 0.0000 6.9547 0.0000 -15.1236
#
#
#
# Elastic Compliance Matrix: (Units=1/GPa)
#
#
# Indices 1 2 3 4 5 6 
#
# 1 0.010407 -0.004056 -0.002425 0.000000 -0.003088 0.000000
# 2 -0.004056 0.015048 0.000893 0.000000 0.002926 0.000000
# 3 -0.002425 0.000893 0.020218 0.000000 -0.004834 0.000000
# 4 0.000000 0.000000 0.000000 0.045707 0.000000 0.021019
# 5 -0.003088 0.002926 -0.004834 0.000000 0.043242 0.000000
# 6 0.000000 0.000000 0.000000 0.021019 0.000000 -0.056456
#
#
# Mechanical properties :
#
#
# Convention : Reuss Voigt Hill
#
# Bulk Modulus (GPa) = 28.98869 35.88414 32.43642
# Shear Modulus (GPa) = 49.58323 18.88821 34.23572
#
# Velocity S-wave (km/s) = 5.02679 3.10255 4.17699
# Velocity P-wave (km/s) = 6.96166 5.57868 6.30819
#
# Compressibility (1/GPa) = 0.03449621
#
# Stress axis : x y z
#
# Youngs Moduli (GPa) = 96.08876 66.45608 49.46173
#
# Poissons Ratio (x) = 0.26954 0.11997
# Poissons Ratio (y) = 0.38973 -0.04419
# Poissons Ratio (z) = 0.23306 -0.05937
#
# Static dielectric constant tensor:
#      x y z
#    x 1.726820 0.000000 0.013800 
#    y 0.000000 1.692620 0.000000 
#    z 0.013800 0.000000 1.763120 
# 
# From -- ./inp_files/40519.got.cif
#   From: 2010.05.17/outbox.cif.g08.bks.cpg/sg13_21_cif.got.tgz:40519.got - 2010.06.03 16:44:36.
