data_PCOD9228016
_publ_section_title
;
Structure prediction by ZEFSAII (Michael W. Deem and Ramdas Pophale) SiO2 
 PCOD9228016
Probable space group: P 2/C
;
_chemical_formula_sum "Si O2"
_cell_formula_units_Z 32
_cell_length_a 24.024451
_cell_length_b 8.916746
_cell_length_c 16.962747
_cell_angle_alpha 90.000000
_cell_angle_beta 157.541903
_cell_angle_gamma 90.000000
_cell_volume 1388.123537
_symmetry_space_group_name_H-M "P 2/C"
_symmetry_group_IT_number 13
_symmetry_cell_setting 'monoclinic'
loop_
_space_group_symop_operation_xyz
x,y,z
-x,y,1/2-z
-x,-y,-z
x,-y,1/2+z
loop_
_atom_site_type_symbol
_atom_site_label
_atom_site_fract_x
_atom_site_fract_y
_atom_site_fract_z
Si Si1 0.644861 0.061376 0.237618
Si Si2 0.787674 0.571810 0.173064
Si Si3 0.528802 0.895633 0.371223
Si Si4 0.050458 0.423108 0.442412
Si Si5 0.811245 0.910985 0.197450
Si Si6 0.701771 0.583884 0.808759
Si Si7 0.929554 0.916300 0.529318
Si Si8 0.457451 0.426076 0.560114
O O1 0.666865 0.240215 0.271974
O O2 0.603771 0.993820 0.269193
O O3 0.791870 0.995003 0.391278
O O4 0.500000 0.000000 0.000000
O O5 0.871330 0.573327 0.368250
O O6 0.773704 0.741581 0.125204
O O7 0.888344 0.476949 0.247268
O O8 0.635028 0.494936 0.990751
O O9 0.500000 0.821429 0.250000
O O10 0.553866 0.752985 0.458368
O O11 0.668554 0.997128 0.536507
O O12 0.133325 0.536467 0.492373
O O13 0.055063 0.252350 0.419033
O O14 0.893615 0.898654 0.389428
O O15 0.920011 0.989585 0.277296
O O16 0.619573 0.489618 0.767967
O O17 0.625650 0.524973 0.628347
#
# Coordination Sequence:
#
# PCOD9228016 Si02
#       8
#     4   4   4   4   4   4   4   4
#     4  12  21  36  60  89 116 154 199 250 294 345
#     4   9  17  29  50  77 115 150 186 234 292 349
#     4  12  25  40  57  85 125 163 198 242 305 371
#     4   9  17  28  47  84 119 145 178 240 303 343
#     4  10  19  35  57  88 119 156 195 247 300 351
#     4  10  19  31  56  83 113 141 193 249 289 337
#     4  10  19  32  60  89 119 149 197 250 300 347
#     4  10  19  33  53  80 112 152 189 241 291 340
#
# _framework density 23.052703999999999
#
# number of rings (size 3 to 8) (size 9 to 14) (size 15 to 20)
#    0.000    1.750    2.500    3.000    3.500    4.000 
#    0.000    3.125    0.000    0.000    0.000    1.750 
#    0.000    0.000    0.000    0.000    0.000    0.000 
#
# Total GULP energy -178662.231593 kJ/mol
# GULP energy per Si atom -5583.194737 kJ/mol
# Density = 2.300024 g / cm^3
# Si number density = 23.052704 Si / 1000 Ang^3
#
#
#
# Elastic Constant Matrix: (Units=GPa)
#
#
# Indices 1 2 3 4 5 6 
#
# 1 85.1893 27.2508 53.0381 0.0000 46.8712 0.0000
# 2 27.2508 114.7497 51.5965 0.0000 45.6550 0.0000
# 3 53.0381 51.5965 85.7133 0.0000 48.6910 0.0000
# 4 0.0000 0.0000 0.0000 22.1023 0.0000 25.6741
# 5 46.8712 45.6550 48.6910 0.0000 59.1930 0.0000
# 6 0.0000 0.0000 0.0000 25.6741 0.0000 20.2023
#
#
#
# Elastic Compliance Matrix: (Units=1/GPa)
#
#
# Indices 1 2 3 4 5 6 
#
# 1 0.024325 0.004319 -0.009043 0.000000 -0.015153 0.000000
# 2 0.004319 0.014061 -0.005694 0.000000 -0.009581 0.000000
# 3 -0.009043 -0.005694 0.026520 0.000000 -0.010262 0.000000
# 4 0.000000 0.000000 0.000000 -0.095006 0.000000 0.120739
# 5 -0.015153 -0.009581 -0.010262 0.000000 0.044724 0.000000
# 6 0.000000 0.000000 0.000000 0.120739 0.000000 -0.103942
#
#
# Mechanical properties :
#
#
# Convention : Reuss Voigt Hill
#
# Bulk Modulus (GPa) = 22.69192 61.04702 41.86947
# Shear Modulus (GPa) = -92.95200 30.55065 -31.20068
#
# Velocity S-wave (km/s) = -6.35681 3.64435 -3.68292
# Velocity P-wave (km/s) = 6.63430 6.65187 0.34169
#
# Compressibility (1/GPa) = 0.04406854
#
# Stress axis : x y z
#
# Youngs Moduli (GPa) = 41.11045 71.11697 37.70756
#
# Poissons Ratio (x) = -0.30712 0.34100
# Poissons Ratio (y) = -0.17754 0.21470
# Poissons Ratio (z) = 0.37178 0.40493
#
# Static dielectric constant tensor:
#      x y z
#    x 2.101290 0.000000 -0.083420 
#    y 0.000000 1.813470 0.000000 
#    z -0.083420 0.000000 1.879590 
# 
# From -- ./inp_files/82525.got.cif
#   From: 2010.05.17/outbox.cif.g08.bks.cpg/sg13_42_cif.got.tgz:82525.got - 2010.06.03 16:44:36.
