data_PCOD9228638
_publ_section_title
;
Structure prediction by ZEFSAII (Michael W. Deem and Ramdas Pophale) SiO2 
 PCOD9228638
Probable space group: P 2/C
;
_chemical_formula_sum "Si O2"
_cell_formula_units_Z 24
_cell_length_a 22.593365
_cell_length_b 8.633163
_cell_length_c 22.132499
_cell_angle_alpha 90.000000
_cell_angle_beta 168.137320
_cell_angle_gamma 90.000000
_cell_volume 887.430299
_symmetry_space_group_name_H-M "P 2/C"
_symmetry_group_IT_number 13
_symmetry_cell_setting 'monoclinic'
loop_
_space_group_symop_operation_xyz
x,y,z
-x,y,1/2-z
-x,-y,-z
x,-y,1/2+z
loop_
_atom_site_type_symbol
_atom_site_label
_atom_site_fract_x
_atom_site_fract_y
_atom_site_fract_z
Si Si1 0.500000 0.992673 0.750000
Si Si2 0.851638 0.098246 0.297778
Si Si3 0.312173 0.667917 0.770700
Si Si4 0.142541 0.542005 0.249026
Si Si5 0.000000 0.207757 0.250000
Si Si6 0.689316 0.044587 0.309014
Si Si7 0.654544 0.477394 0.844578
O O1 0.242469 0.095946 0.465587
O O2 0.372467 0.917194 0.683057
O O3 0.735647 0.258045 0.211149
O O4 0.000000 0.000000 0.500000
O O5 0.092582 0.096595 0.486578
O O6 0.590427 0.004463 0.008098
O O7 0.197494 0.802256 0.611084
O O8 0.120915 0.518918 0.561974
O O9 0.638496 0.641322 0.075028
O O10 0.394410 0.450771 0.537217
O O11 0.923787 0.573816 0.087383
O O12 0.190779 0.319120 0.482060
O O13 0.500000 0.543604 0.750000
#
# Coordination Sequence:
#
# PCOD9228638 Si02
#       7
#     2   4   4   4   2   4   4
#     4  12  26  40  58  92 122 160 202 258 304 354
#     4  10  19  36  64  82 118 170 217 240 269 344
#     4  10  19  35  57  93 123 163 193 236 293 358
#     4  10  20  31  57  89 121 142 188 245 309 351
#     4  12  22  42  64  76 114 162 220 254 296 356
#     4  11  22  39  57  90 130 165 202 243 284 354
#     4  11  19  38  57  85 110 147 206 253 293 374
#
# _framework density 27.044376
#
# number of rings (size 3 to 8) (size 9 to 14) (size 15 to 20)
#    0.000    1.333    2.500    6.000    0.000    0.000 
#    9.000    0.000    0.000    0.000    0.000   81.667 
#    0.000    0.000    0.000    0.000    0.000    0.000 
#
# Total GULP energy -133711.445191 kJ/mol
# GULP energy per Si atom -5571.310216 kJ/mol
# Density = 2.698282 g / cm^3
# Si number density = 27.044376 Si / 1000 Ang^3
#
#
#
# Elastic Constant Matrix: (Units=GPa)
#
#
# Indices 1 2 3 4 5 6 
#
# 1 175.0643 36.9715 54.4778 0.0000 9.7580 0.0000
# 2 36.9715 37.1335 24.9621 0.0000 1.5885 0.0000
# 3 54.4778 24.9621 191.7311 0.0000 17.2634 0.0000
# 4 0.0000 0.0000 0.0000 25.0370 0.0000 14.2783
# 5 9.7580 1.5885 17.2634 0.0000 61.9091 0.0000
# 6 0.0000 0.0000 0.0000 14.2783 0.0000 28.3396
#
#
#
# Elastic Compliance Matrix: (Units=1/GPa)
#
#
# Indices 1 2 3 4 5 6 
#
# 1 0.007533 -0.006656 -0.001213 0.000000 -0.000678 0.000000
# 2 -0.006656 0.035400 -0.002801 0.000000 0.000922 0.000000
# 3 -0.001213 -0.002801 0.006053 0.000000 -0.001425 0.000000
# 4 0.000000 0.000000 0.000000 0.056044 0.000000 -0.028237
# 5 -0.000678 0.000922 -0.001425 0.000000 0.016633 0.000000
# 6 0.000000 0.000000 0.000000 -0.028237 0.000000 0.049513
#
#
# Mechanical properties :
#
#
# Convention : Reuss Voigt Hill
#
# Bulk Modulus (GPa) = 36.16958 70.75019 53.45988
# Shear Modulus (GPa) = 24.78554 42.22496 33.50525
#
# Velocity S-wave (km/s) = 3.03062 3.95564 3.52362
# Velocity P-wave (km/s) = 5.06452 6.86151 6.03033
#
# Compressibility (1/GPa) = 0.02764754
#
# Stress axis : x y z
#
# Youngs Moduli (GPa) = 132.74830 28.24858 165.20305
#
# Poissons Ratio (x) = 0.18802 0.20036
# Poissons Ratio (y) = 0.88356 0.46268
# Poissons Ratio (z) = 0.16099 0.07911
#
# Static dielectric constant tensor:
#      x y z
#    x 2.264440 0.000000 0.088660 
#    y 0.000000 2.242490 0.000000 
#    z 0.088660 0.000000 2.213760 
# 
# From -- ./inp_files/89046.got.cif
#   From: 2010.05.17/outbox.cif.g08.bks.cpg/sg13_45_cif.got.tgz:89046.got - 2010.06.03 16:44:36.
