data_PCOD9228714
_publ_section_title
;
Structure prediction by ZEFSAII (Michael W. Deem and Ramdas Pophale) SiO2 
 PCOD9228714
Probable space group: P 2/C
;
_chemical_formula_sum "Si O2"
_cell_formula_units_Z 32
_cell_length_a 8.778440
_cell_length_b 12.785006
_cell_length_c 29.280012
_cell_angle_alpha 90.000000
_cell_angle_beta 29.176188
_cell_angle_gamma 90.000000
_cell_volume 1601.995640
_symmetry_space_group_name_H-M "P 2/C"
_symmetry_group_IT_number 13
_symmetry_cell_setting 'monoclinic'
loop_
_space_group_symop_operation_xyz
x,y,z
-x,y,1/2-z
-x,-y,-z
x,-y,1/2+z
loop_
_atom_site_type_symbol
_atom_site_label
_atom_site_fract_x
_atom_site_fract_y
_atom_site_fract_z
Si Si1 0.728793 0.984171 0.396426
Si Si2 0.202089 0.078154 0.976015
Si Si3 0.878071 0.614357 0.659352
Si Si4 0.215560 0.226573 0.888374
Si Si5 0.096751 0.443765 0.777538
Si Si6 0.874895 0.856502 0.656187
Si Si7 0.853155 0.537994 0.084783
Si Si8 0.060456 0.777463 0.330738
O O1 0.514564 0.985093 0.407759
O O2 0.867036 0.867192 0.357020
O O3 0.500000 0.000000 0.500000
O O4 0.995423 0.069443 0.337217
O O5 0.221641 0.176383 0.936698
O O6 0.030430 0.108780 0.067759
O O7 0.000000 0.000000 0.000000
O O8 0.500000 0.616715 0.750000
O O9 0.995333 0.550811 0.672870
O O10 0.970379 0.735155 0.637436
O O11 0.972805 0.541230 0.592087
O O12 0.068238 0.341628 0.928114
O O13 0.577317 0.221808 0.778614
O O14 0.042097 0.184222 0.888522
O O15 0.474864 0.453583 0.681736
O O16 0.977252 0.341802 0.837473
O O17 0.000000 0.435258 0.750000
O O18 0.500000 0.865206 0.750000
O O19 0.000000 0.500000 0.000000
#
# Coordination Sequence:
#
# PCOD9228714 Si02
#       8
#     4   4   4   4   4   4   4   4
#     4  10  23  40  61  90 128 164 208 270 325 382
#     4  11  24  41  61  92 127 166 215 274 321 388
#     4   9  18  39  62  86 123 167 206 252 314 386
#     4  10  20  36  62  94 123 163 214 262 318 388
#     4  10  21  38  61  93 126 163 214 266 318 384
#     4  10  22  42  66  91 126 175 215 260 332 398
#     4  10  19  35  60  89 123 165 208 256 317 381
#     4  10  21  37  64  91 126 166 207 264 331 380
#
# _framework density 19.975085
#
# number of rings (size 3 to 8) (size 9 to 14) (size 15 to 20)
#    0.000    2.000    1.250    2.250    7.000    0.000 
#    0.000    8.125    0.000    0.000    0.000    0.000 
#    0.000    0.000    0.000    0.000    0.000    0.000 
#
# Total GULP energy -178150.643142 kJ/mol
# GULP energy per Si atom -5567.207598 kJ/mol
# Density = 1.992962 g / cm^3
# Si number density = 19.975085 Si / 1000 Ang^3
#
#
#
# Elastic Constant Matrix: (Units=GPa)
#
#
# Indices 1 2 3 4 5 6 
#
# 1 133.7469 54.2114 14.5197 0.0000 0.9438 0.0000
# 2 54.2114 128.3018 29.8528 0.0000 -7.8655 0.0000
# 3 14.5197 29.8528 33.2899 0.0000 12.1755 0.0000
# 4 0.0000 0.0000 0.0000 28.5531 0.0000 1.5205
# 5 0.9438 -7.8655 12.1755 0.0000 26.1045 0.0000
# 6 0.0000 0.0000 0.0000 1.5205 0.0000 64.3231
#
#
#
# Elastic Compliance Matrix: (Units=1/GPa)
#
#
# Indices 1 2 3 4 5 6 
#
# 1 0.009081 -0.003985 0.000207 0.000000 -0.001626 0.000000
# 2 -0.003985 0.013481 -0.014335 0.000000 0.010892 0.000000
# 3 0.000207 -0.014335 0.053515 0.000000 -0.029287 0.000000
# 4 0.000000 0.000000 0.000000 0.035067 0.000000 -0.000829
# 5 -0.001626 0.010892 -0.029287 0.000000 0.055308 0.000000
# 6 0.000000 0.000000 0.000000 -0.000829 0.000000 0.015566
#
#
# Mechanical properties :
#
#
# Convention : Reuss Voigt Hill
#
# Bulk Modulus (GPa) = 25.09277 54.72294 39.90785
# Shear Modulus (GPa) = 21.59590 36.91313 29.25452
#
# Velocity S-wave (km/s) = 3.29164 4.30345 3.83110
# Velocity P-wave (km/s) = 5.19960 7.22136 6.29221
#
# Compressibility (1/GPa) = 0.03985212
#
# Stress axis : x y z
#
# Youngs Moduli (GPa) = 110.12050 74.17906 18.68648
#
# Poissons Ratio (x) = 0.29559 -0.00387
# Poissons Ratio (y) = 0.43882 0.26786
# Poissons Ratio (z) = -0.02283 1.06333
#
# Static dielectric constant tensor:
#      x y z
#    x 1.645350 0.000000 -0.040240 
#    y 0.000000 3.955660 0.000000 
#    z -0.040240 0.000000 1.690630 
# 
# From -- ./inp_files/96103.got.cif
#   From: 2010.05.17/outbox.cif.g08.bks.cpg/sg13_49_cif.got.tgz:96103.got - 2010.06.03 16:44:36.
