data_PCOD9228197
_publ_section_title
;
Structure prediction by ZEFSAII (Michael W. Deem and Ramdas Pophale) SiO2 
 PCOD9228197
Probable space group: P 2/C
;
_chemical_formula_sum "Si O2"
_cell_formula_units_Z 20
_cell_length_a 8.653722
_cell_length_b 5.520218
_cell_length_c 17.934245
_cell_angle_alpha 90.000000
_cell_angle_beta 71.128614
_cell_angle_gamma 90.000000
_cell_volume 810.675011
_symmetry_space_group_name_H-M "P 2/C"
_symmetry_group_IT_number 13
_symmetry_cell_setting 'monoclinic'
loop_
_space_group_symop_operation_xyz
x,y,z
-x,y,1/2-z
-x,-y,-z
x,-y,1/2+z
loop_
_atom_site_type_symbol
_atom_site_label
_atom_site_fract_x
_atom_site_fract_y
_atom_site_fract_z
Si Si1 0.396193 0.812738 0.564506
Si Si2 0.154285 0.905962 0.780959
Si Si3 0.185654 0.397645 0.814569
Si Si4 0.289012 0.571027 0.956987
Si Si5 0.899318 0.120098 0.899980
O O1 0.534541 0.685089 0.592028
O O2 0.321810 0.613688 0.520184
O O3 0.500000 0.000000 0.500000
O O4 0.249082 0.977807 0.616714
O O5 0.052168 0.934286 0.876259
O O6 0.000000 0.915943 0.750000
O O7 0.258207 0.151592 0.768922
O O8 0.232447 0.644357 0.766743
O O9 0.222794 0.433191 0.895742
O O10 0.989003 0.341939 0.842533
O O11 0.172009 0.772593 0.012786
#
# Coordination Sequence:
#
# PCOD9228197 Si02
#       5
#     4   4   4   4   4
#     4   9  19  32  51  79 120 147 180 222 285 357
#     4  10  22  38  56  83 109 149 191 238 288 331
#     4  10  22  33  60  81 115 143 188 240 284 345
#     4  10  19  33  52  88 114 149 183 227 298 348
#     4   9  20  32  56  83 114 148 177 237 281 355
#
# _framework density 24.670798999999999
#
# number of rings (size 3 to 8) (size 9 to 14) (size 15 to 20)
#    1.200    1.200    0.000    2.400    5.600    1.600 
#    0.000    0.000    0.000    1.200    0.000    0.000 
#    0.000    0.000    0.000    0.000    0.000    0.000 
#
# Total GULP energy -111377.588757 kJ/mol
# GULP energy per Si atom -5568.879438 kJ/mol
# Density = 2.461465 g / cm^3
# Si number density = 24.670799 Si / 1000 Ang^3
#
#
#
# Elastic Constant Matrix: (Units=GPa)
#
#
# Indices 1 2 3 4 5 6 
#
# 1 43.1189 33.5799 24.0392 0.0000 1.0539 0.0000
# 2 33.5799 144.7203 19.0369 0.0000 6.2300 0.0000
# 3 24.0392 19.0369 57.8139 0.0000 7.9163 0.0000
# 4 0.0000 0.0000 0.0000 27.4761 0.0000 6.2467
# 5 1.0539 6.2300 7.9163 0.0000 30.5064 0.0000
# 6 0.0000 0.0000 0.0000 6.2467 0.0000 29.5514
#
#
#
# Elastic Compliance Matrix: (Units=1/GPa)
#
#
# Indices 1 2 3 4 5 6 
#
# 1 0.035616 -0.006694 -0.013089 0.000000 0.003533 0.000000
# 2 -0.006694 0.008504 0.000196 0.000000 -0.001556 0.000000
# 3 -0.013089 0.000196 0.023451 0.000000 -0.005673 0.000000
# 4 0.000000 0.000000 0.000000 0.038233 0.000000 -0.008082
# 5 0.003533 -0.001556 -0.005673 0.000000 0.034448 0.000000
# 6 0.000000 0.000000 0.000000 -0.008082 0.000000 0.035548
#
#
# Mechanical properties :
#
#
# Convention : Reuss Voigt Hill
#
# Bulk Modulus (GPa) = 35.21352 44.32947 39.77149
# Shear Modulus (GPa) = 22.27775 28.77326 25.52551
#
# Velocity S-wave (km/s) = 3.00826 3.41880 3.22008
# Velocity P-wave (km/s) = 5.13522 5.79583 5.47550
#
# Compressibility (1/GPa) = 0.02839819
#
# Stress axis : x y z
#
# Youngs Moduli (GPa) = 28.07747 117.58641 42.64149
#
# Poissons Ratio (x) = 0.78717 0.55812
# Poissons Ratio (y) = 0.18796 -0.00837
# Poissons Ratio (z) = 0.36749 -0.02309
#
# Static dielectric constant tensor:
#      x y z
#    x 1.927730 0.000000 -0.037350 
#    y 0.000000 2.056050 0.000000 
#    z -0.037350 0.000000 2.059920 
# 
# From -- ./inp_files/84007.got.cif
#   From: 2010.05.17/outbox.cif.g08.bks.cpg/sg13_43_cif.got.tgz:84007.got - 2010.06.03 16:44:36.
