data_PCOD9228408
_publ_section_title
;
Structure prediction by ZEFSAII (Michael W. Deem and Ramdas Pophale) SiO2 
 PCOD9228408
Probable space group: P 2/C
;
_chemical_formula_sum "Si O2"
_cell_formula_units_Z 24
_cell_length_a 20.117083
_cell_length_b 5.001952
_cell_length_c 26.518240
_cell_angle_alpha 90.000000
_cell_angle_beta 26.583361
_cell_angle_gamma 90.000000
_cell_volume 1194.102709
_symmetry_space_group_name_H-M "P 2/C"
_symmetry_group_IT_number 13
_symmetry_cell_setting 'monoclinic'
loop_
_space_group_symop_operation_xyz
x,y,z
-x,y,1/2-z
-x,-y,-z
x,-y,1/2+z
loop_
_atom_site_type_symbol
_atom_site_label
_atom_site_fract_x
_atom_site_fract_y
_atom_site_fract_z
Si Si1 0.317357 0.636662 0.138253
Si Si2 0.369244 0.870946 0.662539
Si Si3 0.325699 0.757092 0.018613
Si Si4 0.976818 0.901695 0.571986
Si Si5 0.857213 0.737593 0.884506
Si Si6 0.025835 0.414195 0.597901
O O1 0.376343 0.341049 0.111150
O O2 0.318935 0.784441 0.083700
O O3 0.143857 0.609731 0.268931
O O4 0.394040 0.831807 0.126009
O O5 0.501129 0.797316 0.611333
O O6 0.200654 0.875002 0.797230
O O7 0.269662 0.456591 0.050408
O O8 0.214386 0.965941 0.067105
O O9 0.039970 0.609387 0.540503
O O10 0.000000 0.000000 0.500000
O O11 0.052746 0.113915 0.559437
O O12 0.899102 0.582677 0.907711
O O13 0.000000 0.740738 0.750000
#
# Coordination Sequence:
#
# PCOD9228408 Si02
#       6
#     4   4   4   4   4   4
#     4  10  19  34  54  80 114 150 186 234 279 341
#     4  10  21  35  55  84 113 144 193 239 292 334
#     4  12  22  34  55  80 120 158 186 226 281 343
#     4  10  21  39  65  84 106 143 192 255 299 327
#     4  12  24  36  55  81 122 162 191 216 271 358
#     4  10  21  37  57  85 114 145 195 235 281 344
#
# _framework density 20.098776000000001
#
# number of rings (size 3 to 8) (size 9 to 14) (size 15 to 20)
#    0.000    1.333    1.667    5.000    4.667    0.000 
#    0.000    0.000    0.000    6.000    0.000    0.000 
#    0.000    0.000    0.000    0.000    0.000    0.000 
#
# Total GULP energy -133723.281442 kJ/mol
# GULP energy per Si atom -5571.803393 kJ/mol
# Density = 2.005303 g / cm^3
# Si number density = 20.098776 Si / 1000 Ang^3
#
#
#
# Elastic Constant Matrix: (Units=GPa)
#
#
# Indices 1 2 3 4 5 6 
#
# 1 54.1131 3.2458 17.8509 0.0000 -3.6218 0.0000
# 2 3.2458 99.7058 21.3295 0.0000 -6.3932 0.0000
# 3 17.8509 21.3295 40.8218 0.0000 0.6627 0.0000
# 4 0.0000 0.0000 0.0000 17.4023 0.0000 2.8988
# 5 -3.6218 -6.3932 0.6627 0.0000 15.5574 0.0000
# 6 0.0000 0.0000 0.0000 2.8988 0.0000 30.9869
#
#
#
# Elastic Compliance Matrix: (Units=1/GPa)
#
#
# Indices 1 2 3 4 5 6 
#
# 1 0.022413 0.002035 -0.010970 0.000000 0.006522 0.000000
# 2 0.002035 0.011862 -0.007180 0.000000 0.005654 0.000000
# 3 -0.010970 -0.007180 0.033158 0.000000 -0.006917 0.000000
# 4 0.000000 0.000000 0.000000 0.058373 0.000000 -0.005461
# 5 0.006522 0.005654 -0.006917 0.000000 0.068415 0.000000
# 6 0.000000 0.000000 0.000000 -0.005461 0.000000 0.032783
#
#
# Mechanical properties :
#
#
# Convention : Reuss Voigt Hill
#
# Bulk Modulus (GPa) = 28.40650 31.05480 29.73065
# Shear Modulus (GPa) = 18.45244 22.93694 20.69469
#
# Velocity S-wave (km/s) = 3.03328 3.38185 3.21230
# Velocity P-wave (km/s) = 5.14119 5.54381 5.34629
#
# Compressibility (1/GPa) = 0.03520321
#
# Stress axis : x y z
#
# Youngs Moduli (GPa) = 44.61661 84.30498 30.15895
#
# Poissons Ratio (x) = -0.17159 0.33086
# Poissons Ratio (y) = -0.09081 0.21653
# Poissons Ratio (z) = 0.48946 0.60528
#
# Static dielectric constant tensor:
#      x y z
#    x 1.799260 0.000000 -0.006330 
#    y 0.000000 1.714320 0.000000 
#    z -0.006330 0.000000 1.723390 
# 
# From -- ./inp_files/87682.got.cif
#   From: 2010.05.17/outbox.cif.g08.bks.cpg/sg13_44_cif.got.tgz:87682.got - 2010.06.03 16:44:36.
