data_PCOD9228112
_publ_section_title
;
Structure prediction by ZEFSAII (Michael W. Deem and Ramdas Pophale) SiO2 
 PCOD9228112
Probable space group: P 2/C
;
_chemical_formula_sum "Si O2"
_cell_formula_units_Z 32
_cell_length_a 18.758115
_cell_length_b 13.842649
_cell_length_c 21.548499
_cell_angle_alpha 90.000000
_cell_angle_beta 160.348908
_cell_angle_gamma 90.000000
_cell_volume 1881.660654
_symmetry_space_group_name_H-M "P 2/C"
_symmetry_group_IT_number 13
_symmetry_cell_setting 'monoclinic'
loop_
_space_group_symop_operation_xyz
x,y,z
-x,y,1/2-z
-x,-y,-z
x,-y,1/2+z
loop_
_atom_site_type_symbol
_atom_site_label
_atom_site_fract_x
_atom_site_fract_y
_atom_site_fract_z
Si Si1 0.540094 0.134656 0.028486
Si Si2 0.909186 0.138399 0.239079
Si Si3 0.909186 0.361601 0.239079
Si Si4 0.250649 0.986025 0.215548
Si Si5 0.749351 0.486025 0.784453
Si Si6 0.329638 0.859081 0.164720
Si Si7 0.670362 0.359081 0.835280
Si Si8 0.459906 0.634656 0.971513
O O1 0.703871 0.103327 0.107593
O O2 0.538612 0.250000 0.032230
O O3 0.634290 0.083422 0.166815
O O4 0.316241 0.090574 0.823258
O O5 0.856670 0.250000 0.179843
O O6 0.000000 0.092910 0.250000
O O7 0.100285 0.137954 0.444618
O O8 0.703871 0.396673 0.107593
O O9 0.000000 0.407090 0.250000
O O10 0.100285 0.362046 0.444617
O O11 0.338110 0.939432 0.224025
O O12 0.000000 0.000000 0.000000
O O13 0.661891 0.439432 0.775975
O O14 0.634290 0.583422 0.666815
O O15 0.683759 0.409426 0.676742
O O16 0.000000 0.500000 0.000000
O O17 0.500000 0.871990 0.250000
O O18 0.359895 0.750000 0.215636
O O19 0.500000 0.371990 0.750000
#
# Coordination Sequence:
#
# PCOD9228112 Si02
#       8
#     4   4   4   4   4   4   4   4
#     4  10  21  35  52  77 111 146 182 224 271 323
#     4   9  16  28  47  74 108 141 171 210 265 322
#     4   9  16  28  47  74 108 141 171 210 265 322
#     4  11  21  34  54  81 111 145 183 224 271 326
#     4  11  21  34  54  81 111 145 183 224 271 326
#     4  10  19  32  53  82 114 143 174 221 277 327
#     4  10  19  32  53  82 114 143 174 221 277 327
#     4  10  21  35  52  77 111 146 182 224 271 323
#
# _framework density 17.006253999999998
#
# number of rings (size 3 to 8) (size 9 to 14) (size 15 to 20)
#    0.000    2.000    2.500    2.250    0.000    5.000 
#    0.000    0.000    0.000    0.750    0.000    1.750 
#    0.000    0.000    0.000    0.000    0.000    0.000 
#
# Total GULP energy -178288.251633 kJ/mol
# GULP energy per Si atom -5571.507864 kJ/mol
# Density = 1.696755 g / cm^3
# Si number density = 17.006254 Si / 1000 Ang^3
#
#
#
# Elastic Constant Matrix: (Units=GPa)
#
#
# Indices 1 2 3 4 5 6 
#
# 1 76.7314 46.4863 25.9149 0.0000 -4.4587 0.0000
# 2 46.4863 102.2146 44.8708 0.0000 -8.4637 0.0000
# 3 25.9149 44.8708 129.5708 0.0000 -8.4538 0.0000
# 4 0.0000 0.0000 0.0000 19.2891 0.0000 -5.3882
# 5 -4.4587 -8.4637 -8.4538 0.0000 23.1691 0.0000
# 6 0.0000 0.0000 0.0000 -5.3882 0.0000 33.7425
#
#
#
# Elastic Compliance Matrix: (Units=1/GPa)
#
#
# Indices 1 2 3 4 5 6 
#
# 1 0.018081 -0.007806 -0.000893 0.000000 0.000302 0.000000
# 2 -0.007806 0.015090 -0.003486 0.000000 0.002738 0.000000
# 3 -0.000893 -0.003486 0.009229 0.000000 0.001922 0.000000
# 4 0.000000 0.000000 0.000000 0.054263 0.000000 0.008665
# 5 0.000302 0.002738 0.001922 0.000000 0.044921 0.000000
# 6 0.000000 0.000000 0.000000 0.008665 0.000000 0.031020
#
#
# Mechanical properties :
#
#
# Convention : Reuss Voigt Hill
#
# Bulk Modulus (GPa) = 55.46329 60.34009 57.90169
# Shear Modulus (GPa) = 24.63244 27.98978 26.31111
#
# Velocity S-wave (km/s) = 3.80996 4.06131 3.93764
# Velocity P-wave (km/s) = 7.21378 7.58620 7.40234
#
# Compressibility (1/GPa) = 0.01802994
#
# Stress axis : x y z
#
# Youngs Moduli (GPa) = 55.30745 66.26733 108.35314
#
# Poissons Ratio (x) = 0.51727 0.09680
# Poissons Ratio (y) = 0.43172 0.37772
# Poissons Ratio (z) = 0.04941 0.23101
#
# Static dielectric constant tensor:
#      x y z
#    x 1.609780 0.000000 -0.002430 
#    y 0.000000 1.580150 0.000000 
#    z -0.002430 0.000000 1.639280 
# 
# From -- ./inp_files/81151.got.cif
#   From: 2010.05.17/outbox.cif.g08.bks.cpg/sg13_41_cif.got.tgz:81151.got - 2010.06.03 16:44:36.
