data_PCOD9228554
_publ_section_title
;
Structure prediction by ZEFSAII (Michael W. Deem and Ramdas Pophale) SiO2 
 PCOD9228554
Probable space group: P 2/C
;
_chemical_formula_sum "Si O2"
_cell_formula_units_Z 28
_cell_length_a 11.980277
_cell_length_b 6.992306
_cell_length_c 14.251728
_cell_angle_alpha 90.000000
_cell_angle_beta 107.152458
_cell_angle_gamma 90.000000
_cell_volume 1140.764869
_symmetry_space_group_name_H-M "P 2/C"
_symmetry_group_IT_number 13
_symmetry_cell_setting 'monoclinic'
loop_
_space_group_symop_operation_xyz
x,y,z
-x,y,1/2-z
-x,-y,-z
x,-y,1/2+z
loop_
_atom_site_type_symbol
_atom_site_label
_atom_site_fract_x
_atom_site_fract_y
_atom_site_fract_z
Si Si1 0.490579 0.216340 0.058555
Si Si2 0.457584 0.636742 0.134626
Si Si3 0.197582 0.550105 0.049382
Si Si4 0.748962 0.898331 0.926596
Si Si5 0.736220 0.855524 0.710484
Si Si6 0.901112 0.145388 0.092704
Si Si7 0.913409 0.424270 0.309221
O O1 0.478280 0.412255 0.115890
O O2 0.377781 0.088798 0.055224
O O3 0.614103 0.139130 0.126582
O O4 0.492838 0.265002 0.948021
O O5 0.500000 0.686152 0.250000
O O6 0.317884 0.654475 0.101659
O O7 0.218348 0.324471 0.048558
O O8 0.102995 0.567128 0.108968
O O9 0.154225 0.646409 0.944537
O O10 0.727732 0.939585 0.811930
O O11 0.855190 0.019179 0.996104
O O12 0.835699 0.939113 0.666726
O O13 0.784803 0.638072 0.741740
O O14 0.031332 0.218124 0.143824
O O15 0.000000 0.493100 0.250000
#
# Coordination Sequence:
#
# PCOD9228554 Si02
#       7
#     4   4   4   4   4   4   4
#     4  10  19  37  61  90 133 174 214 264 342 402
#     4  10  19  34  60  96 130 170 215 275 327 396
#     4  10  20  40  62  89 128 168 212 272 327 391
#     4  10  23  40  63  94 125 176 214 269 340 399
#     4  10  20  40  62  87 131 171 213 274 334 391
#     4  11  22  41  61  95 126 167 225 275 321 391
#     4   9  20  37  66  92 125 177 220 272 334 389
#
# _framework density 24.544937000000001
#
# number of rings (size 3 to 8) (size 9 to 14) (size 15 to 20)
#    0.000    2.000    1.429    3.429    0.000    2.857 
#    2.571    0.000    0.000    7.714    0.000    0.000 
#    0.000    0.000    0.000    0.000    0.000    0.000 
#
# Total GULP energy -156375.733934 kJ/mol
# GULP energy per Si atom -5584.847641 kJ/mol
# Density = 2.448907 g / cm^3
# Si number density = 24.544937 Si / 1000 Ang^3
#
#
#
# Elastic Constant Matrix: (Units=GPa)
#
#
# Indices 1 2 3 4 5 6 
#
# 1 136.1249 15.5675 56.8223 0.0000 -11.6268 0.0000
# 2 15.5675 45.6464 20.2379 0.0000 -5.6061 0.0000
# 3 56.8223 20.2379 183.3330 0.0000 -18.2693 0.0000
# 4 0.0000 0.0000 0.0000 25.9518 0.0000 -1.5700
# 5 -11.6268 -5.6061 -18.2693 0.0000 48.9843 0.0000
# 6 0.0000 0.0000 0.0000 -1.5700 0.0000 28.2842
#
#
#
# Elastic Compliance Matrix: (Units=1/GPa)
#
#
# Indices 1 2 3 4 5 6 
#
# 1 0.008625 -0.001768 -0.002383 0.000000 0.000956 0.000000
# 2 -0.001768 0.023543 -0.001895 0.000000 0.001568 0.000000
# 3 -0.002383 -0.001895 0.006568 0.000000 0.001667 0.000000
# 4 0.000000 0.000000 0.000000 0.038663 0.000000 0.002146
# 5 0.000956 0.001568 0.001667 0.000000 0.021443 0.000000
# 6 0.000000 0.000000 0.000000 0.002146 0.000000 0.035475
#
#
# Mechanical properties :
#
#
# Convention : Reuss Voigt Hill
#
# Bulk Modulus (GPa) = 37.52923 61.15110 49.34016
# Shear Modulus (GPa) = 32.19815 38.80917 35.50366
#
# Velocity S-wave (km/s) = 3.62581 3.98068 3.80738
# Velocity P-wave (km/s) = 5.73166 6.78939 6.28282
#
# Compressibility (1/GPa) = 0.02664590
#
# Stress axis : x y z
#
# Youngs Moduli (GPa) = 115.94718 42.47545 152.24473
#
# Poissons Ratio (x) = 0.07508 0.36276
# Poissons Ratio (y) = 0.20494 0.28847
# Poissons Ratio (z) = 0.27627 0.08048
#
# Static dielectric constant tensor:
#      x y z
#    x 2.036770 0.000000 -0.016610 
#    y 0.000000 1.974020 0.000000 
#    z -0.016610 0.000000 2.001400 
# 
# From -- ./inp_files/50107.got.cif
#   From: 2010.05.17/outbox.cif.g08.bks.cpg/sg13_26_cif.got.tgz:50107.got - 2010.06.03 16:44:36.
