data_PCOD9228518
_publ_section_title
;
Structure prediction by ZEFSAII (Michael W. Deem and Ramdas Pophale) SiO2 
 PCOD9228518
Probable space group: P 2/C
;
_chemical_formula_sum "Si O2"
_cell_formula_units_Z 32
_cell_length_a 24.069614
_cell_length_b 7.224441
_cell_length_c 17.259023
_cell_angle_alpha 90.000000
_cell_angle_beta 147.909926
_cell_angle_gamma 90.000000
_cell_volume 1594.373284
_symmetry_space_group_name_H-M "P 2/C"
_symmetry_group_IT_number 13
_symmetry_cell_setting 'monoclinic'
loop_
_space_group_symop_operation_xyz
x,y,z
-x,y,1/2-z
-x,-y,-z
x,-y,1/2+z
loop_
_atom_site_type_symbol
_atom_site_label
_atom_site_fract_x
_atom_site_fract_y
_atom_site_fract_z
Si Si1 0.974484 0.259353 0.639431
Si Si2 0.798067 0.237073 0.310061
Si Si3 0.228937 0.675324 0.196615
Si Si4 0.388127 0.048027 0.899840
Si Si5 0.611946 0.978405 0.918430
Si Si6 0.890407 0.337673 0.093806
Si Si7 0.751021 0.309694 0.081968
Si Si8 0.205839 0.277421 0.844023
O O1 0.088736 0.296437 0.737893
O O2 0.000000 0.154073 0.750000
O O3 0.898539 0.187281 0.481526
O O4 0.916353 0.447067 0.601686
O O5 0.774077 0.453942 0.298738
O O6 0.700012 0.109492 0.217556
O O7 0.808748 0.229225 0.228161
O O8 0.195747 0.761094 0.240167
O O9 0.342400 0.759781 0.313973
O O10 0.155763 0.738106 0.040147
O O11 0.399599 0.064893 0.005110
O O12 0.500000 0.000000 0.000000
O O13 0.500000 0.935433 0.750000
O O14 0.646086 0.191343 0.948896
O O15 0.718174 0.865762 0.022131
O O16 0.814596 0.308749 0.076959
O O17 0.000000 0.258490 0.250000
O O18 0.736370 0.525571 0.081930
#
# Coordination Sequence:
#
# PCOD9228518 Si02
#       8
#     4   4   4   4   4   4   4   4
#     4  10  19  36  58  91 122 149 197 241 283 362
#     4   9  21  38  60  85 119 160 192 236 307 351
#     4   9  21  37  58  87 115 157 195 235 302 349
#     4  10  22  42  60  83 116 152 204 253 286 349
#     4  10  24  42  60  90 115 155 209 243 296 356
#     4  10  19  34  58  93 121 150 200 238 285 361
#     4  10  20  39  61  85 124 157 195 245 296 352
#     4  10  20  40  62  84 124 159 192 243 299 354
#
# _framework density 20.070582999999999
#
# number of rings (size 3 to 8) (size 9 to 14) (size 15 to 20)
#    0.000    2.250    2.500    0.000    3.500    3.500 
#    2.250    1.875    0.000    0.000    0.000    0.000 
#    0.000    0.000    0.000    0.000    0.000    0.000 
#
# Total GULP energy -178218.645377 kJ/mol
# GULP energy per Si atom -5569.332668 kJ/mol
# Density = 2.002490 g / cm^3
# Si number density = 20.070583 Si / 1000 Ang^3
#
#
#
# Elastic Constant Matrix: (Units=GPa)
#
#
# Indices 1 2 3 4 5 6 
#
# 1 85.5113 13.3187 49.8636 0.0000 -7.0119 0.0000
# 2 13.3187 54.6183 37.3352 0.0000 -8.4852 0.0000
# 3 49.8636 37.3352 158.4697 0.0000 -12.7000 0.0000
# 4 0.0000 0.0000 0.0000 35.0480 0.0000 1.5456
# 5 -7.0119 -8.4852 -12.7000 0.0000 21.8082 0.0000
# 6 0.0000 0.0000 0.0000 1.5456 0.0000 10.9815
#
#
#
# Elastic Compliance Matrix: (Units=1/GPa)
#
#
# Indices 1 2 3 4 5 6 
#
# 1 0.014415 -0.000251 -0.004314 0.000000 0.002025 0.000000
# 2 -0.000251 0.022542 -0.004757 0.000000 0.005919 0.000000
# 3 -0.004314 -0.004757 0.008947 0.000000 0.001972 0.000000
# 4 0.000000 0.000000 0.000000 0.028711 0.000000 -0.004041
# 5 0.002025 0.005919 0.001972 0.000000 0.049957 0.000000
# 6 0.000000 0.000000 0.000000 -0.004041 0.000000 0.091631
#
#
# Mechanical properties :
#
#
# Convention : Reuss Voigt Hill
#
# Bulk Modulus (GPa) = 36.68712 55.51491 46.10101
# Shear Modulus (GPa) = 20.49731 26.77299 23.63515
#
# Velocity S-wave (km/s) = 3.19918 3.65628 3.43534
# Velocity P-wave (km/s) = 5.65377 6.74866 6.22533
#
# Compressibility (1/GPa) = 0.02725753
#
# Stress axis : x y z
#
# Youngs Moduli (GPa) = 69.37044 44.36222 111.77253
#
# Poissons Ratio (x) = 0.01116 0.48223
# Poissons Ratio (y) = 0.01745 0.53173
# Poissons Ratio (z) = 0.29929 0.21104
#
# Static dielectric constant tensor:
#      x y z
#    x 1.691170 0.000000 0.007470 
#    y 0.000000 1.766890 0.000000 
#    z 0.007470 0.000000 1.693780 
# 
# From -- ./inp_files/71150.got.cif
#   From: 2010.05.17/outbox.cif.g08.bks.cpg/sg13_36_cif.got.tgz:71150.got - 2010.06.03 16:44:36.
