data_PCOD9228471
_publ_section_title
;
Structure prediction by ZEFSAII (Michael W. Deem and Ramdas Pophale) SiO2 
 PCOD9228471
Probable space group: P 2/C
;
_chemical_formula_sum "Si O2"
_cell_formula_units_Z 20
_cell_length_a 17.273082
_cell_length_b 10.483537
_cell_length_c 14.215865
_cell_angle_alpha 90.000000
_cell_angle_beta 156.050662
_cell_angle_gamma 90.000000
_cell_volume 1044.962551
_symmetry_space_group_name_H-M "P 2/C"
_symmetry_group_IT_number 13
_symmetry_cell_setting 'monoclinic'
loop_
_space_group_symop_operation_xyz
x,y,z
-x,y,1/2-z
-x,-y,-z
x,-y,1/2+z
loop_
_atom_site_type_symbol
_atom_site_label
_atom_site_fract_x
_atom_site_fract_y
_atom_site_fract_z
Si Si1 0.547819 0.079618 0.197183
Si Si2 0.209148 0.041190 0.202382
Si Si3 0.116694 0.331772 0.116112
Si Si4 0.219706 0.550876 0.354770
Si Si5 0.640981 0.380330 0.290573
O O1 0.500000 0.036919 0.250000
O O2 0.729970 0.027752 0.339959
O O3 0.585109 0.231342 0.240700
O O4 0.365850 0.037957 0.933833
O O5 0.205276 0.191829 0.222790
O O6 0.000000 0.000000 0.000000
O O7 0.128447 0.417003 0.222167
O O8 0.242957 0.398727 0.175392
O O9 0.903199 0.340903 0.836106
O O10 0.233020 0.579383 0.479940
O O11 0.439804 0.548651 0.567679
#
# Coordination Sequence:
#
# PCOD9228471 Si02
#       5
#     4   4   4   4   4
#     4  10  20  38  60  85 110 148 197 233 272 349
#     4  10  22  37  59  85 117 149 185 237 293 331
#     4  10  21  35  56  84 115 144 185 235 276 335
#     4  10  19  34  57  82 112 144 189 225 275 332
#     4  10  19  35  60  83 107 149 189 228 277 332
#
# _framework density 19.139441999999999
#
# number of rings (size 3 to 8) (size 9 to 14) (size 15 to 20)
#    0.000    2.000    2.000    2.400    0.000    0.800 
#    3.600    0.000    8.800    0.000    0.000    0.000 
#    0.000    0.000    0.000    0.000    0.000    0.000 
#
# Total GULP energy -111453.558848 kJ/mol
# GULP energy per Si atom -5572.677942 kJ/mol
# Density = 1.909588 g / cm^3
# Si number density = 19.139442 Si / 1000 Ang^3
#
#
#
# Elastic Constant Matrix: (Units=GPa)
#
#
# Indices 1 2 3 4 5 6 
#
# 1 107.3497 41.4882 37.3693 0.0000 0.1399 0.0000
# 2 41.4882 44.7197 12.0800 0.0000 -12.8143 0.0000
# 3 37.3693 12.0800 82.9786 0.0000 0.9377 0.0000
# 4 0.0000 0.0000 0.0000 9.6637 0.0000 0.7235
# 5 0.1399 -12.8143 0.9377 0.0000 38.2670 0.0000
# 6 0.0000 0.0000 0.0000 0.7235 0.0000 25.1364
#
#
#
# Elastic Compliance Matrix: (Units=1/GPa)
#
#
# Indices 1 2 3 4 5 6 
#
# 1 0.017540 -0.016347 -0.005458 0.000000 -0.005404 0.000000
# 2 -0.016347 0.041157 0.001214 0.000000 0.013812 0.000000
# 3 -0.005458 0.001214 0.014332 0.000000 0.000075 0.000000
# 4 0.000000 0.000000 0.000000 0.103704 0.000000 -0.002985
# 5 -0.005404 0.013812 0.000075 0.000000 0.030775 0.000000
# 6 0.000000 0.000000 0.000000 -0.002985 0.000000 0.039869
#
#
# Mechanical properties :
#
#
# Convention : Reuss Voigt Hill
#
# Bulk Modulus (GPa) = 31.40039 46.32478 38.86259
# Shear Modulus (GPa) = 16.71266 24.22078 20.46672
#
# Velocity S-wave (km/s) = 2.95821 3.56123 3.27364
# Velocity P-wave (km/s) = 5.30186 6.41609 5.88540
#
# Compressibility (1/GPa) = 0.03184673
#
# Stress axis : x y z
#
# Youngs Moduli (GPa) = 57.01198 24.29727 69.77461
#
# Poissons Ratio (x) = 0.39718 0.38085
# Poissons Ratio (y) = 0.93197 -0.08471
# Poissons Ratio (z) = 0.31119 -0.02950
#
# Static dielectric constant tensor:
#      x y z
#    x 1.688620 0.000000 0.021850 
#    y 0.000000 1.679760 0.000000 
#    z 0.021850 0.000000 1.678970 
# 
# From -- ./inp_files/34022.got.cif
#   From: 2010.05.17/outbox.cif.g08.bks.cpg/sg13_18_cif.got.tgz:34022.got - 2010.06.03 16:44:36.
