data_PCOD9228611
_publ_section_title
;
Structure prediction by ZEFSAII (Michael W. Deem and Ramdas Pophale) SiO2 
 PCOD9228611
Probable space group: P 2/C
;
_chemical_formula_sum "Si O2"
_cell_formula_units_Z 24
_cell_length_a 10.412683
_cell_length_b 14.805320
_cell_length_c 8.566014
_cell_angle_alpha 90.000000
_cell_angle_beta 94.198276
_cell_angle_gamma 90.000000
_cell_volume 1317.019813
_symmetry_space_group_name_H-M "P 2/C"
_symmetry_group_IT_number 13
_symmetry_cell_setting 'monoclinic'
loop_
_space_group_symop_operation_xyz
x,y,z
-x,y,1/2-z
-x,-y,-z
x,-y,1/2+z
loop_
_atom_site_type_symbol
_atom_site_label
_atom_site_fract_x
_atom_site_fract_y
_atom_site_fract_z
Si Si1 0.500000 0.521991 0.750000
Si Si2 0.000000 0.755605 0.250000
Si Si3 0.397377 0.630737 0.444616
Si Si4 0.900682 0.046039 0.115548
Si Si5 0.500000 0.787642 0.250000
Si Si6 0.109614 0.620528 0.474364
Si Si7 0.228132 0.887112 0.195627
Si Si8 0.000000 0.533176 0.750000
O O1 0.449115 0.584594 0.606680
O O2 0.599654 0.450446 0.682923
O O3 0.993010 0.691869 0.098560
O O4 0.874099 0.815609 0.247536
O O5 0.477901 0.716610 0.390940
O O6 0.250528 0.657575 0.455920
O O7 0.000000 0.090356 0.250000
O O8 0.811531 0.976700 0.207956
O O9 0.808556 0.100510 0.990475
O O10 0.000000 0.000000 0.000000
O O11 0.372520 0.849415 0.225185
O O12 0.088878 0.593813 0.649564
O O13 0.084153 0.530886 0.369322
#
# Coordination Sequence:
#
# PCOD9228611 Si02
#       8
#     2   2   4   4   2   4   4   2
#     4   9  20  34  56  77 108 160 212 227 278 362
#     4  11  20  36  60  83 118 150 188 245 290 338
#     4  10  19  37  55  81 112 162 193 244 288 339
#     4   9  18  37  67  88 110 148 190 232 287 357
#     4  11  24  38  60  85 128 154 190 247 296 342
#     4  10  19  35  56  81 115 152 191 248 290 331
#     4  11  21  41  61  91 115 152 194 235 295 360
#     4   9  20  34  52  87 110 150 202 243 286 340
#
# _framework density 18.22296
#
# number of rings (size 3 to 8) (size 9 to 14) (size 15 to 20)
#    0.000    2.000    4.167    1.000    0.000    0.667 
#    7.500    3.333    0.000    0.000    0.000    0.000 
#    0.000    0.000    0.000    0.000    0.000    0.000 
#
# Total GULP energy -133620.103101 kJ/mol
# GULP energy per Si atom -5567.504296 kJ/mol
# Density = 1.818148 g / cm^3
# Si number density = 18.222960 Si / 1000 Ang^3
#
#
#
# Elastic Constant Matrix: (Units=GPa)
#
#
# Indices 1 2 3 4 5 6 
#
# 1 109.9237 32.6319 24.9838 0.0000 -2.4749 0.0000
# 2 32.6319 62.2875 32.5702 0.0000 5.6465 0.0000
# 3 24.9838 32.5702 102.7859 0.0000 -1.9240 0.0000
# 4 0.0000 0.0000 0.0000 52.0432 0.0000 -14.8775
# 5 -2.4749 5.6465 -1.9240 0.0000 19.8109 0.0000
# 6 0.0000 0.0000 0.0000 -14.8775 0.0000 38.9777
#
#
#
# Elastic Compliance Matrix: (Units=1/GPa)
#
#
# Indices 1 2 3 4 5 6 
#
# 1 0.011014 -0.005586 -0.000853 0.000000 0.002885 0.000000
# 2 -0.005586 0.022838 -0.006025 0.000000 -0.007792 0.000000
# 3 -0.000853 -0.006025 0.011897 0.000000 0.002766 0.000000
# 4 0.000000 0.000000 0.000000 0.021568 0.000000 0.008232
# 5 0.002885 -0.007792 0.002766 0.000000 0.053327 0.000000
# 6 0.000000 0.000000 0.000000 0.008232 0.000000 0.028798
#
#
# Mechanical properties :
#
#
# Convention : Reuss Voigt Hill
#
# Bulk Modulus (GPa) = 48.02687 50.59654 49.31170
# Shear Modulus (GPa) = 27.57703 34.48711 31.03207
#
# Velocity S-wave (km/s) = 3.89435 4.35502 4.13111
# Velocity P-wave (km/s) = 6.82888 7.28792 7.06213
#
# Compressibility (1/GPa) = 0.02082168
#
# Stress axis : x y z
#
# Youngs Moduli (GPa) = 90.79141 43.78748 84.05319
#
# Poissons Ratio (x) = 0.24458 0.07172
# Poissons Ratio (y) = 0.50713 0.50640
# Poissons Ratio (z) = 0.07747 0.26381
#
# Static dielectric constant tensor:
#      x y z
#    x 1.620340 0.000000 -0.001820 
#    y 0.000000 1.635270 0.000000 
#    z -0.001820 0.000000 1.644290 
# 
# From -- ./inp_files/12532.got.cif
#   From: 2010.05.17/outbox.cif.g08.bks.cpg/sg13_7_cif.got.tgz:12532.got - 2010.06.03 16:44:36.
