data_PCOD9228129
_publ_section_title
;
Structure prediction by ZEFSAII (Michael W. Deem and Ramdas Pophale) SiO2 
 PCOD9228129
Probable space group: P 2/C
;
_chemical_formula_sum "Si O2"
_cell_formula_units_Z 28
_cell_length_a 7.932327
_cell_length_b 11.898232
_cell_length_c 15.194866
_cell_angle_alpha 90.000000
_cell_angle_beta 127.633465
_cell_angle_gamma 90.000000
_cell_volume 1135.712570
_symmetry_space_group_name_H-M "P 2/C"
_symmetry_group_IT_number 13
_symmetry_cell_setting 'monoclinic'
loop_
_space_group_symop_operation_xyz
x,y,z
-x,y,1/2-z
-x,-y,-z
x,-y,1/2+z
loop_
_atom_site_type_symbol
_atom_site_label
_atom_site_fract_x
_atom_site_fract_y
_atom_site_fract_z
Si Si1 0.183871 0.915626 0.162552
Si Si2 0.751890 0.071030 0.155617
Si Si3 0.849658 0.453492 0.784646
Si Si4 0.869677 0.709630 0.449777
Si Si5 0.277443 0.661628 0.652641
Si Si6 0.582096 0.538097 0.432284
Si Si7 0.281591 0.936896 0.527422
O O1 0.268546 0.805382 0.140202
O O2 0.248164 0.961899 0.278239
O O3 0.231339 0.014552 0.108002
O O4 0.932428 0.882383 0.082239
O O5 0.514283 0.122146 0.100168
O O6 0.000000 0.115585 0.250000
O O7 0.719137 0.041719 0.042488
O O8 0.921076 0.381810 0.890499
O O9 0.814956 0.583190 0.799415
O O10 0.615772 0.413236 0.684610
O O11 0.000000 0.440600 0.750000
O O12 0.750647 0.637598 0.486141
O O13 0.093827 0.744207 0.564209
O O14 0.500000 0.714368 0.750000
O O15 0.334323 0.569144 0.595750
O O16 0.500000 0.500000 0.500000
#
# Coordination Sequence:
#
# PCOD9228129 Si02
#       7
#     4   4   4   4   4   4   4
#     4  10  21  36  59  87 115 151 195 253 306 354
#     4   9  18  35  60  84 109 147 192 238 294 367
#     4  10  19  32  55  81 110 153 196 234 287 350
#     4  11  21  35  55  87 119 144 192 251 296 343
#     4   9  19  35  53  75 110 155 195 231 282 352
#     4  10  19  34  55  80 115 159 198 234 287 351
#     4   9  19  37  57  81 115 156 190 233 308 378
#
# _framework density 24.654126000000002
#
# number of rings (size 3 to 8) (size 9 to 14) (size 15 to 20)
#    0.000    2.286    0.000    5.143    0.000    4.000 
#    0.000   10.000    0.000   16.286    0.000    0.000 
#    0.000    0.000    0.000    0.000    0.000    0.000 
#
# Total GULP energy -156076.431682 kJ/mol
# GULP energy per Si atom -5574.158274 kJ/mol
# Density = 2.459801 g / cm^3
# Si number density = 24.654126 Si / 1000 Ang^3
#
#
#
# Elastic Constant Matrix: (Units=GPa)
#
#
# Indices 1 2 3 4 5 6 
#
# 1 101.3106 14.2985 40.6679 0.0000 5.7000 0.0000
# 2 14.2985 45.2123 15.5797 0.0000 -9.7995 0.0000
# 3 40.6679 15.5797 115.8621 0.0000 27.5141 0.0000
# 4 0.0000 0.0000 0.0000 22.5340 0.0000 -6.6849
# 5 5.7000 -9.7995 27.5141 0.0000 66.8598 0.0000
# 6 0.0000 0.0000 0.0000 -6.6849 0.0000 -2.1527
#
#
#
# Elastic Compliance Matrix: (Units=1/GPa)
#
#
# Indices 1 2 3 4 5 6 
#
# 1 0.011737 -0.002325 -0.003866 0.000000 0.000250 0.000000
# 2 -0.002325 0.025401 -0.003913 0.000000 0.005531 0.000000
# 3 -0.003866 -0.003913 0.011717 0.000000 -0.005066 0.000000
# 4 0.000000 0.000000 0.000000 0.023099 0.000000 -0.071728
# 5 0.000250 0.005531 -0.005066 0.000000 0.017831 0.000000
# 6 0.000000 0.000000 0.000000 -0.071728 0.000000 -0.241787
#
#
# Mechanical properties :
#
#
# Convention : Reuss Voigt Hill
#
# Bulk Modulus (GPa) = 34.90959 44.83078 39.87018
# Shear Modulus (GPa) = -40.90114 30.23747 -5.33183
#
# Velocity S-wave (km/s) = -4.07750 3.50589 -1.47219
# Velocity P-wave (km/s) = 2.82445 5.88318 3.64926
#
# Compressibility (1/GPa) = 0.02864542
#
# Stress axis : x y z
#
# Youngs Moduli (GPa) = 85.20238 39.36922 85.34509
#
# Poissons Ratio (x) = 0.09155 0.32996
# Poissons Ratio (y) = 0.19813 0.33395
# Poissons Ratio (z) = 0.32941 0.15405
#
# Static dielectric constant tensor:
#      x y z
#    x 1.931750 0.000000 0.020030 
#    y 0.000000 1.991390 0.000000 
#    z 0.020030 0.000000 2.001030 
# 
# From -- ./inp_files/47739.got.cif
#   From: 2010.05.17/outbox.cif.g08.bks.cpg/sg13_24_cif.got.tgz:47739.got - 2010.06.03 16:44:36.
