data_PCOD9228935
_publ_section_title
;
Structure prediction by ZEFSAII (Michael W. Deem and Ramdas Pophale) SiO2 
 PCOD9228935
Probable space group: P 2/C
;
_chemical_formula_sum "Si O2"
_cell_formula_units_Z 24
_cell_length_a 13.974536
_cell_length_b 15.053133
_cell_length_c 9.999604
_cell_angle_alpha 90.000000
_cell_angle_beta 34.871695
_cell_angle_gamma 90.000000
_cell_volume 1202.669113
_symmetry_space_group_name_H-M "P 2/C"
_symmetry_group_IT_number 13
_symmetry_cell_setting 'monoclinic'
loop_
_space_group_symop_operation_xyz
x,y,z
-x,y,1/2-z
-x,-y,-z
x,-y,1/2+z
loop_
_atom_site_type_symbol
_atom_site_label
_atom_site_fract_x
_atom_site_fract_y
_atom_site_fract_z
Si Si1 0.650224 0.551520 0.463637
Si Si2 0.300771 0.847805 0.996308
Si Si3 0.081910 0.308341 0.803477
Si Si4 0.378322 0.974485 0.514888
Si Si5 0.224847 0.798808 0.790240
Si Si6 0.552177 0.360738 0.539161
O O1 0.500000 0.562827 0.750000
O O2 0.826883 0.597650 0.289417
O O3 0.673309 0.446174 0.417240
O O4 0.586039 0.596832 0.400175
O O5 0.500000 0.843541 0.750000
O O6 0.216191 0.841538 0.948082
O O7 0.265830 0.939095 0.112757
O O8 0.234450 0.760701 0.143490
O O9 0.000000 0.308662 0.750000
O O10 0.936681 0.261467 0.057247
O O11 0.500000 0.962537 0.250000
O O12 0.273479 0.884584 0.649461
O O13 0.500000 0.000000 0.500000
O O14 0.371653 0.725781 0.617020
O O15 0.500000 0.337057 0.750000
#
# Coordination Sequence:
#
# PCOD9228935 Si02
#       6
#     4   4   4   4   4   4
#     4  10  20  39  66  93 119 165 214 248 305 374
#     4  10  19  36  61  86 110 159 215 254 297 371
#     4  10  21  35  61  93 126 163 202 256 311 379
#     4  11  21  37  63  90 113 160 213 263 302 363
#     4  11  21  37  57  88 124 158 201 255 322 360
#     4  10  22  39  64  91 123 160 208 265 303 370
#
# _framework density 19.955613
#
# number of rings (size 3 to 8) (size 9 to 14) (size 15 to 20)
#    0.000    1.667    3.333    4.000    0.000    1.333 
#    0.000    0.833    0.000    0.000    0.000    0.000 
#    0.000    0.000    0.000    0.000    0.000    0.000 
#
# Total GULP energy -133635.122265 kJ/mol
# GULP energy per Si atom -5568.130094 kJ/mol
# Density = 1.991019 g / cm^3
# Si number density = 19.955613 Si / 1000 Ang^3
#
#
#
# Elastic Constant Matrix: (Units=GPa)
#
#
# Indices 1 2 3 4 5 6 
#
# 1 64.3387 31.8694 22.1876 0.0000 9.8398 0.0000
# 2 31.8694 136.5253 15.4731 0.0000 -12.9357 0.0000
# 3 22.1876 15.4731 26.6493 0.0000 -6.4908 0.0000
# 4 0.0000 0.0000 0.0000 -190.8185 0.0000 52.1066
# 5 9.8398 -12.9357 -6.4908 0.0000 27.4593 0.0000
# 6 0.0000 0.0000 0.0000 52.1066 0.0000 16.0481
#
#
#
# Elastic Compliance Matrix: (Units=1/GPa)
#
#
# Indices 1 2 3 4 5 6 
#
# 1 0.031151 -0.006112 -0.027384 0.000000 -0.020515 0.000000
# 2 -0.006112 0.009245 0.001396 0.000000 0.006875 0.000000
# 3 -0.027384 0.001396 0.065855 0.000000 0.026037 0.000000
# 4 0.000000 0.000000 0.000000 -0.002778 0.000000 0.009019
# 5 -0.020515 0.006875 0.026037 0.000000 0.053162 0.000000
# 6 0.000000 0.000000 0.000000 0.009019 0.000000 0.033029
#
#
# Mechanical properties :
#
#
# Convention : Reuss Voigt Hill
#
# Bulk Modulus (GPa) = 23.78096 40.73040 32.25568
# Shear Modulus (GPa) = 18.66499 -18.93001 -0.13251
#
# Velocity S-wave (km/s) = 3.06163 -3.08329 -0.25797
# Velocity P-wave (km/s) = 4.94377 2.78914 4.01374
#
# Compressibility (1/GPa) = 0.04205044
#
# Stress axis : x y z
#
# Youngs Moduli (GPa) = 32.10147 108.17111 15.18486
#
# Poissons Ratio (x) = 0.66113 0.41582
# Poissons Ratio (y) = 0.19620 -0.02119
# Poissons Ratio (z) = 0.87906 -0.15096
#
# Static dielectric constant tensor:
#      x y z
#    x 1.854940 0.000000 -0.000800 
#    y 0.000000 1.755170 0.000000 
#    z -0.000800 0.000000 1.754860 
# 
# From -- ./inp_files/37450.got.cif
#   From: 2010.05.17/outbox.cif.g08.bks.cpg/sg13_19_cif.got.tgz:37450.got - 2010.06.03 16:44:36.
