data_PCOD9228889
_publ_section_title
;
Structure prediction by ZEFSAII (Michael W. Deem and Ramdas Pophale) SiO2 
 PCOD9228889
Probable space group: P 2/C
;
_chemical_formula_sum "Si O2"
_cell_formula_units_Z 24
_cell_length_a 27.487146
_cell_length_b 6.942318
_cell_length_c 18.564125
_cell_angle_alpha 90.000000
_cell_angle_beta 20.615506
_cell_angle_gamma 90.000000
_cell_volume 1247.292892
_symmetry_space_group_name_H-M "P 2/C"
_symmetry_group_IT_number 13
_symmetry_cell_setting 'monoclinic'
loop_
_space_group_symop_operation_xyz
x,y,z
-x,y,1/2-z
-x,-y,-z
x,-y,1/2+z
loop_
_atom_site_type_symbol
_atom_site_label
_atom_site_fract_x
_atom_site_fract_y
_atom_site_fract_z
Si Si1 0.775899 0.003493 0.354886
Si Si2 0.979274 0.711706 0.497167
Si Si3 0.603091 0.068760 0.964052
Si Si4 0.349727 0.400026 0.707683
Si Si5 0.709619 0.038887 0.613553
Si Si6 0.806380 0.216253 0.098529
O O1 0.858549 0.188015 0.210880
O O2 0.878846 0.828590 0.193580
O O3 0.639701 0.961889 0.496609
O O4 0.750936 0.029973 0.473489
O O5 0.000000 0.500000 0.500000
O O6 0.929825 0.745814 0.483240
O O7 0.659209 0.266249 0.851327
O O8 0.684442 0.895049 0.811559
O O9 0.441229 0.060750 0.171781
O O10 0.500000 0.500000 0.500000
O O11 0.243637 0.574473 0.855687
O O12 0.317643 0.251710 0.816812
O O13 0.818091 0.923324 0.513310
#
# Coordination Sequence:
#
# PCOD9228889 Si02
#       6
#     4   4   4   4   4   4
#     4  10  23  39  59  82 116 153 195 242 291 346
#     4  10  22  43  60  78 111 160 204 237 288 347
#     4  10  19  36  59  85 117 153 181 232 298 354
#     4  11  18  34  59  88 117 150 186 227 291 355
#     4  11  21  35  58  91 118 146 189 242 295 347
#     4  10  20  36  60  84 116 152 192 235 287 350
#
# _framework density 19.241671
#
# number of rings (size 3 to 8) (size 9 to 14) (size 15 to 20)
#    0.000    1.667    3.333    2.500    0.000    3.333 
#    0.000    0.000    0.000    0.000    0.000    0.000 
#    0.000    0.000    0.000    0.000    0.000    0.000 
#
# Total GULP energy -133873.977083 kJ/mol
# GULP energy per Si atom -5578.082378 kJ/mol
# Density = 1.919788 g / cm^3
# Si number density = 19.241671 Si / 1000 Ang^3
#
#
#
# Elastic Constant Matrix: (Units=GPa)
#
#
# Indices 1 2 3 4 5 6 
#
# 1 141.7199 42.0626 17.0345 0.0000 9.1671 0.0000
# 2 42.0626 132.3832 10.4058 0.0000 1.0822 0.0000
# 3 17.0345 10.4058 20.3250 0.0000 -2.5701 0.0000
# 4 0.0000 0.0000 0.0000 -10.4435 0.0000 1.0363
# 5 9.1671 1.0822 -2.5701 0.0000 36.2282 0.0000
# 6 0.0000 0.0000 0.0000 1.0363 0.0000 23.4443
#
#
#
# Elastic Compliance Matrix: (Units=1/GPa)
#
#
# Indices 1 2 3 4 5 6 
#
# 1 0.008658 -0.002223 -0.006444 0.000000 -0.002581 0.000000
# 2 -0.002223 0.008451 -0.002446 0.000000 0.000137 0.000000
# 3 -0.006444 -0.002446 0.056577 0.000000 0.005717 0.000000
# 4 0.000000 0.000000 0.000000 -0.095335 0.000000 0.004214
# 5 -0.002581 0.000137 0.005717 0.000000 0.028658 0.000000
# 6 0.000000 0.000000 0.000000 0.004214 0.000000 0.042468
#
#
# Mechanical properties :
#
#
# Convention : Reuss Voigt Hill
#
# Bulk Modulus (GPa) = 19.43316 48.15932 33.79624
# Shear Modulus (GPa) = 56.27044 24.84080 40.55562
#
# Velocity S-wave (km/s) = 5.41364 3.59693 4.59595
# Velocity P-wave (km/s) = 7.01414 6.50642 6.76505
#
# Compressibility (1/GPa) = 0.05145843
#
# Stress axis : x y z
#
# Youngs Moduli (GPa) = 115.50594 118.32388 17.67506
#
# Poissons Ratio (x) = 0.26305 0.11390
# Poissons Ratio (y) = 0.25679 0.04324
# Poissons Ratio (z) = 0.74434 0.28946
#
# Static dielectric constant tensor:
#      x y z
#    x 1.717950 0.000000 -0.027880 
#    y 0.000000 1.648850 0.000000 
#    z -0.027880 0.000000 1.693180 
# 
# From -- ./inp_files/82640.got.cif
#   From: 2010.05.17/outbox.cif.g08.bks.cpg/sg13_42_cif.got.tgz:82640.got - 2010.06.03 16:44:36.
