data_PCOD9228839
_publ_section_title
;
Structure prediction by ZEFSAII (Michael W. Deem and Ramdas Pophale) SiO2 
 PCOD9228839
Probable space group: P 2/C
;
_chemical_formula_sum "Si O2"
_cell_formula_units_Z 32
_cell_length_a 23.170915
_cell_length_b 14.381413
_cell_length_c 8.898776
_cell_angle_alpha 90.000000
_cell_angle_beta 143.281485
_cell_angle_gamma 90.000000
_cell_volume 1772.932085
_symmetry_space_group_name_H-M "P 2/C"
_symmetry_group_IT_number 13
_symmetry_cell_setting 'monoclinic'
loop_
_space_group_symop_operation_xyz
x,y,z
-x,y,1/2-z
-x,-y,-z
x,-y,1/2+z
loop_
_atom_site_type_symbol
_atom_site_label
_atom_site_fract_x
_atom_site_fract_y
_atom_site_fract_z
Si Si1 0.306372 0.435853 0.919727
Si Si2 0.404860 0.069492 0.654823
Si Si3 0.585961 0.688272 0.622264
Si Si4 0.287187 0.247549 0.371919
Si Si5 0.098531 0.361169 0.897919
Si Si6 0.628718 0.616232 0.269331
Si Si7 0.094726 0.441164 0.542791
Si Si8 0.459079 0.130011 0.310954
O O1 0.360852 0.421832 0.877413
O O2 0.193905 0.410912 0.671045
O O3 0.344387 0.370399 0.129500
O O4 0.326959 0.538239 0.028044
O O5 0.500000 0.087639 0.750000
O O6 0.317281 0.138796 0.433693
O O7 0.393067 0.958144 0.630349
O O8 0.446692 0.092260 0.906168
O O9 0.628344 0.700763 0.546247
O O10 0.481918 0.641685 0.426637
O O11 0.587896 0.793092 0.686412
O O12 0.306900 0.290835 0.577012
O O13 0.187262 0.288938 0.099747
O O14 0.094309 0.406897 0.718100
O O15 0.000000 0.313352 0.750000
O O16 0.103182 0.447168 0.028211
O O17 0.000000 0.411785 0.250000
O O18 0.500000 0.179348 0.250000
#
# Coordination Sequence:
#
# PCOD9228839 Si02
#       8
#     4   4   4   4   4   4   4   4
#     4  12  24  38  54  82 113 162 198 235 285 338
#     4  10  19  36  57  82 115 151 186 233 285 342
#     4  12  23  39  53  83 119 157 196 233 276 348
#     4  12  22  38  59  82 114 154 196 233 294 343
#     4  11  23  39  60  83 111 150 198 250 294 342
#     4  12  24  37  54  77 120 163 196 230 270 344
#     4  11  22  39  60  80 111 150 201 251 293 328
#     4  10  20  34  56  83 115 150 192 233 279 334
#
# _framework density 18.049195000000001
#
# number of rings (size 3 to 8) (size 9 to 14) (size 15 to 20)
#    0.000    0.750    5.000    4.875    1.750    1.000 
#    0.000    0.000    0.000    0.000    0.000    1.750 
#    0.000    0.000    0.000    0.000    0.000    0.000 
#
# Total GULP energy -178250.705235 kJ/mol
# GULP energy per Si atom -5570.334539 kJ/mol
# Density = 1.800811 g / cm^3
# Si number density = 18.049195 Si / 1000 Ang^3
#
#
#
# Elastic Constant Matrix: (Units=GPa)
#
#
# Indices 1 2 3 4 5 6 
#
# 1 53.2215 13.3131 5.4658 0.0000 7.5402 0.0000
# 2 13.3131 85.5090 30.4424 0.0000 9.1824 0.0000
# 3 5.4658 30.4424 75.6558 0.0000 24.2919 0.0000
# 4 0.0000 0.0000 0.0000 8.2653 0.0000 -2.8184
# 5 7.5402 9.1824 24.2919 0.0000 31.7325 0.0000
# 6 0.0000 0.0000 0.0000 -2.8184 0.0000 17.8301
#
#
#
# Elastic Compliance Matrix: (Units=1/GPa)
#
#
# Indices 1 2 3 4 5 6 
#
# 1 0.020122 -0.003092 0.001377 0.000000 -0.004940 0.000000
# 2 -0.003092 0.014128 -0.005814 0.000000 0.001097 0.000000
# 3 0.001377 -0.005814 0.019918 0.000000 -0.013893 0.000000
# 4 0.000000 0.000000 0.000000 0.127881 0.000000 0.020214
# 5 -0.004940 0.001097 -0.013893 0.000000 0.043005 0.000000
# 6 0.000000 0.000000 0.000000 0.020214 0.000000 0.059280
#
#
# Mechanical properties :
#
#
# Convention : Reuss Voigt Hill
#
# Bulk Modulus (GPa) = 25.56920 34.75877 30.16399
# Shear Modulus (GPa) = 16.00363 22.57656 19.29010
#
# Velocity S-wave (km/s) = 2.98093 3.54055 3.27272
# Velocity P-wave (km/s) = 5.10343 6.00113 5.57040
#
# Compressibility (1/GPa) = 0.03910955
#
# Stress axis : x y z
#
# Youngs Moduli (GPa) = 49.69806 70.78092 50.20489
#
# Poissons Ratio (x) = 0.21889 -0.06913
# Poissons Ratio (y) = 0.15369 0.29188
# Poissons Ratio (z) = -0.06843 0.41150
#
# Static dielectric constant tensor:
#      x y z
#    x 1.920090 0.000000 -0.095790 
#    y 0.000000 1.803940 0.000000 
#    z -0.095790 0.000000 1.704390 
# 
# From -- ./inp_files/23582.got.cif
#   From: 2010.05.17/outbox.cif.g08.bks.cpg/sg13_12_cif.got.tgz:23582.got - 2010.06.03 16:44:36.
