data_PCOD9228282
_publ_section_title
;
Structure prediction by ZEFSAII (Michael W. Deem and Ramdas Pophale) SiO2 
 PCOD9228282
Probable space group: P 2/C
;
_chemical_formula_sum "Si O2"
_cell_formula_units_Z 24
_cell_length_a 7.699130
_cell_length_b 14.666652
_cell_length_c 14.570549
_cell_angle_alpha 90.000000
_cell_angle_beta 36.770559
_cell_angle_gamma 90.000000
_cell_volume 984.904281
_symmetry_space_group_name_H-M "P 2/C"
_symmetry_group_IT_number 13
_symmetry_cell_setting 'monoclinic'
loop_
_space_group_symop_operation_xyz
x,y,z
-x,y,1/2-z
-x,-y,-z
x,-y,1/2+z
loop_
_atom_site_type_symbol
_atom_site_label
_atom_site_fract_x
_atom_site_fract_y
_atom_site_fract_z
Si Si1 0.173678 0.870948 0.852499
Si Si2 0.018799 0.354241 0.924240
Si Si3 0.612819 0.288270 0.363349
Si Si4 0.794384 0.071214 0.680644
Si Si5 0.302230 0.760378 0.169660
Si Si6 0.800503 0.452983 0.184276
O O1 0.500000 0.874593 0.750000
O O2 0.196443 0.786529 0.772273
O O3 0.090990 0.970083 0.844929
O O4 0.989411 0.873105 0.024760
O O5 0.278027 0.293896 0.774596
O O6 0.052880 0.450892 0.856970
O O7 0.712975 0.300778 0.042091
O O8 0.011114 0.391857 0.030908
O O9 0.555721 0.260720 0.492057
O O10 0.731127 0.389631 0.299274
O O11 0.500000 0.058298 0.750000
O O12 0.724040 0.133331 0.796942
O O13 0.000000 0.731983 0.250000
O O14 0.500000 0.465750 0.250000
#
# Coordination Sequence:
#
# PCOD9228282 Si02
#       6
#     4   4   4   4   4   4
#     4  10  19  37  63  87 116 159 199 231 283 353
#     4   9  18  32  52  78 108 147 196 232 275 344
#     4  10  19  33  56  80 110 151 191 233 286 350
#     4  10  22  38  60  89 119 152 196 246 284 331
#     4  10  20  35  56  84 118 158 193 232 292 353
#     4   9  17  31  53  80 108 145 193 243 285 330
#
# _framework density 24.367849
#
# number of rings (size 3 to 8) (size 9 to 14) (size 15 to 20)
#    0.000    2.333    0.000    4.500    0.000    2.000 
#    0.000    2.500    0.000    0.000    0.000    0.000 
#    0.000    0.000    0.000    0.000    0.000    0.000 
#
# Total GULP energy -133884.478636 kJ/mol
# GULP energy per Si atom -5578.519943 kJ/mol
# Density = 2.431239 g / cm^3
# Si number density = 24.367849 Si / 1000 Ang^3
#
#
#
# Elastic Constant Matrix: (Units=GPa)
#
#
# Indices 1 2 3 4 5 6 
#
# 1 60.4984 17.3120 12.6368 0.0000 -16.8891 0.0000
# 2 17.3120 174.8645 80.7923 0.0000 13.8007 0.0000
# 3 12.6368 80.7923 107.4524 0.0000 -4.4971 0.0000
# 4 0.0000 0.0000 0.0000 59.0676 0.0000 6.5254
# 5 -16.8891 13.8007 -4.4971 0.0000 13.9959 0.0000
# 6 0.0000 0.0000 0.0000 6.5254 0.0000 18.6638
#
#
#
# Elastic Compliance Matrix: (Units=1/GPa)
#
#
# Indices 1 2 3 4 5 6 
#
# 1 0.032184 -0.009776 0.005671 0.000000 0.050299 0.000000
# 2 -0.009776 0.013753 -0.010392 0.000000 -0.028697 0.000000
# 3 0.005671 -0.010392 0.017402 0.000000 0.022681 0.000000
# 4 0.000000 0.000000 0.000000 0.017610 0.000000 -0.006157
# 5 0.050299 -0.028697 0.022681 0.000000 0.167730 0.000000
# 6 0.000000 0.000000 0.000000 -0.006157 0.000000 0.055732
#
#
# Mechanical properties :
#
#
# Convention : Reuss Voigt Hill
#
# Bulk Modulus (GPa) = 29.11666 62.69972 45.90819
# Shear Modulus (GPa) = 14.49887 33.81705 24.15796
#
# Velocity S-wave (km/s) = 2.44191 3.72932 3.15205
# Velocity P-wave (km/s) = 4.46378 6.65809 5.66813
#
# Compressibility (1/GPa) = 0.03434460
#
# Stress axis : x y z
#
# Youngs Moduli (GPa) = 31.07135 72.71312 57.46360
#
# Poissons Ratio (x) = 0.71084 -0.32585
# Poissons Ratio (y) = 0.30375 0.59715
# Poissons Ratio (z) = -0.17619 0.75562
#
# Static dielectric constant tensor:
#      x y z
#    x 1.989530 0.000000 0.047880 
#    y 0.000000 1.990470 0.000000 
#    z 0.047880 0.000000 2.288950 
# 
# From -- ./inp_files/47531.got.cif
#   From: 2010.05.17/outbox.cif.g08.bks.cpg/sg13_24_cif.got.tgz:47531.got - 2010.06.03 16:44:36.
