data_PCOD9228768
_publ_section_title
;
Structure prediction by ZEFSAII (Michael W. Deem and Ramdas Pophale) SiO2 
 PCOD9228768
Probable space group: P 2/C
;
_chemical_formula_sum "Si O2"
_cell_formula_units_Z 24
_cell_length_a 16.274918
_cell_length_b 7.715262
_cell_length_c 16.016738
_cell_angle_alpha 90.000000
_cell_angle_beta 36.652257
_cell_angle_gamma 90.000000
_cell_volume 1200.567254
_symmetry_space_group_name_H-M "P 2/C"
_symmetry_group_IT_number 13
_symmetry_cell_setting 'monoclinic'
loop_
_space_group_symop_operation_xyz
x,y,z
-x,y,1/2-z
-x,-y,-z
x,-y,1/2+z
loop_
_atom_site_type_symbol
_atom_site_label
_atom_site_fract_x
_atom_site_fract_y
_atom_site_fract_z
Si Si1 0.254868 0.464888 0.062641
Si Si2 0.190292 0.453720 0.427293
Si Si3 0.546359 0.388997 0.882223
Si Si4 0.891331 0.893570 0.769341
Si Si5 0.253234 0.199599 0.683951
Si Si6 0.995108 0.246542 0.486621
O O1 0.163267 0.297994 0.161678
O O2 0.242779 0.623082 0.138269
O O3 0.217045 0.543551 0.003638
O O4 0.410971 0.390484 0.936024
O O5 0.326899 0.520922 0.269197
O O6 0.064572 0.585594 0.513198
O O7 0.132303 0.283914 0.428516
O O8 0.608930 0.214916 0.872444
O O9 0.500000 0.500000 0.000000
O O10 0.000000 0.953481 0.750000
O O11 0.969989 0.879109 0.617261
O O12 0.769077 0.031818 0.855230
O O13 0.127687 0.202617 0.851221
#
# Coordination Sequence:
#
# PCOD9228768 Si02
#       6
#     4   4   4   4   4   4
#     4  11  22  39  63  88 123 159 200 254 298 361
#     4  10  19  35  63  90 118 159 201 242 305 360
#     4   9  19  39  61  86 116 159 203 241 297 360
#     4  12  24  38  60  92 122 159 208 253 301 361
#     4  10  24  39  62  89 123 161 200 250 308 360
#     4  10  20  37  58  88 124 158 197 249 304 357
#
# _framework density 19.990551
#
# number of rings (size 3 to 8) (size 9 to 14) (size 15 to 20)
#    0.000    1.667    1.667    5.000    2.333    0.667 
#    0.000    0.000    0.000    4.000    0.000    0.000 
#    0.000    0.000    0.000    0.000    0.000    0.000 
#
# Total GULP energy -133798.704768 kJ/mol
# GULP energy per Si atom -5574.946032 kJ/mol
# Density = 1.994505 g / cm^3
# Si number density = 19.990551 Si / 1000 Ang^3
#
#
#
# Elastic Constant Matrix: (Units=GPa)
#
#
# Indices 1 2 3 4 5 6 
#
# 1 151.0512 24.7615 44.0479 0.0000 7.4050 0.0000
# 2 24.7615 52.3412 15.7817 0.0000 8.3115 0.0000
# 3 44.0479 15.7817 86.6810 0.0000 2.6278 0.0000
# 4 0.0000 0.0000 0.0000 3.2834 0.0000 -1.2277
# 5 7.4050 8.3115 2.6278 0.0000 32.1209 0.0000
# 6 0.0000 0.0000 0.0000 -1.2277 0.0000 11.0217
#
#
#
# Elastic Compliance Matrix: (Units=1/GPa)
#
#
# Indices 1 2 3 4 5 6 
#
# 1 0.008155 -0.002617 -0.003640 0.000000 -0.000905 0.000000
# 2 -0.002617 0.021869 -0.002505 0.000000 -0.004851 0.000000
# 3 -0.003640 -0.002505 0.013832 0.000000 0.000356 0.000000
# 4 0.000000 0.000000 0.000000 0.317801 0.000000 0.035399
# 5 -0.000905 -0.004851 0.000356 0.000000 0.032567 0.000000
# 6 0.000000 0.000000 0.000000 0.035399 0.000000 0.094673
#
#
# Mechanical properties :
#
#
# Convention : Reuss Voigt Hill
#
# Bulk Modulus (GPa) = 37.97661 51.02841 44.50251
# Shear Modulus (GPa) = 9.70501 22.98401 16.34451
#
# Velocity S-wave (km/s) = 2.20575 3.39447 2.86249
# Velocity P-wave (km/s) = 5.05229 6.39882 5.76500
#
# Compressibility (1/GPa) = 0.02633200
#
# Stress axis : x y z
#
# Youngs Moduli (GPa) = 122.62224 45.72728 72.29791
#
# Poissons Ratio (x) = 0.11965 0.26318
# Poissons Ratio (y) = 0.32086 0.18109
# Poissons Ratio (z) = 0.44638 0.11454
#
# Static dielectric constant tensor:
#      x y z
#    x 1.733770 0.000000 -0.010890 
#    y 0.000000 1.811350 0.000000 
#    z -0.010890 0.000000 1.681820 
# 
# From -- ./inp_files/52896.got.cif
#   From: 2010.05.17/outbox.cif.g08.bks.cpg/sg13_27_cif.got.tgz:52896.got - 2010.06.03 16:44:36.
