data_PCOD9228932
_publ_section_title
;
Structure prediction by ZEFSAII (Michael W. Deem and Ramdas Pophale) SiO2 
 PCOD9228932
Probable space group: P 2/C
;
_chemical_formula_sum "Si O2"
_cell_formula_units_Z 28
_cell_length_a 14.133403
_cell_length_b 6.580427
_cell_length_c 13.232522
_cell_angle_alpha 90.000000
_cell_angle_beta 103.942855
_cell_angle_gamma 90.000000
_cell_volume 1194.415220
_symmetry_space_group_name_H-M "P 2/C"
_symmetry_group_IT_number 13
_symmetry_cell_setting 'monoclinic'
loop_
_space_group_symop_operation_xyz
x,y,z
-x,y,1/2-z
-x,-y,-z
x,-y,1/2+z
loop_
_atom_site_type_symbol
_atom_site_label
_atom_site_fract_x
_atom_site_fract_y
_atom_site_fract_z
Si Si1 0.293429 0.815823 0.347902
Si Si2 0.458891 0.913749 0.842434
Si Si3 0.969431 0.317194 0.066666
Si Si4 0.389167 0.428145 0.465166
Si Si5 0.670688 0.937418 0.451833
Si Si6 0.863698 0.929707 0.951954
Si Si7 0.098934 0.677047 0.330626
O O1 0.326332 0.618631 0.419051
O O2 0.283348 0.990834 0.429738
O O3 0.188659 0.745199 0.281899
O O4 0.386281 0.894342 0.307861
O O5 0.500000 0.830567 0.750000
O O6 0.399742 0.737624 0.880323
O O7 0.559786 0.979681 0.922738
O O8 0.914786 0.438668 0.142443
O O9 0.068134 0.185390 0.112082
O O10 0.902586 0.153611 0.991444
O O11 0.000000 0.500000 0.000000
O O12 0.500000 0.500000 0.500000
O O13 0.344319 0.304815 0.548283
O O14 0.749263 0.039180 0.397443
O O15 0.882313 0.795477 0.058831
O O16 0.000000 0.738474 0.250000
#
# Coordination Sequence:
#
# PCOD9228932 Si02
#       7
#     4   4   4   4   4   4   4
#     4  10  20  39  61  82 113 158 199 238 285 357
#     4  11  23  38  53  88 127 147 189 250 300 349
#     4   9  18  37  56  81 114 143 193 245 281 345
#     4  11  18  36  64  81 108 157 206 235 282 357
#     4  10  19  36  61  85 109 155 196 235 283 366
#     4   9  19  36  60  82 113 152 191 237 300 346
#     4  10  21  37  59  87 116 149 198 244 289 349
#
# _framework density 23.442433999999999
#
# number of rings (size 3 to 8) (size 9 to 14) (size 15 to 20)
#    0.000    2.000    2.857    1.714    0.000    1.143 
#   10.286    0.000    0.000    0.000    0.000    0.000 
#    0.000    0.000    0.000    0.000    0.000    0.000 
#
# Total GULP energy -155942.728463 kJ/mol
# GULP energy per Si atom -5569.383159 kJ/mol
# Density = 2.338908 g / cm^3
# Si number density = 23.442434 Si / 1000 Ang^3
#
#
#
# Elastic Constant Matrix: (Units=GPa)
#
#
# Indices 1 2 3 4 5 6 
#
# 1 141.5813 43.4200 19.6227 0.0000 34.8149 0.0000
# 2 43.4200 125.4430 8.5686 0.0000 8.1868 0.0000
# 3 19.6227 8.5686 31.7028 0.0000 20.1835 0.0000
# 4 0.0000 0.0000 0.0000 11.3417 0.0000 -1.3743
# 5 34.8149 8.1868 20.1835 0.0000 39.0855 0.0000
# 6 0.0000 0.0000 0.0000 -1.3743 0.0000 28.5739
#
#
#
# Elastic Compliance Matrix: (Units=1/GPa)
#
#
# Indices 1 2 3 4 5 6 
#
# 1 0.009999 -0.002913 -0.000178 0.000000 -0.008204 0.000000
# 2 -0.002913 0.008989 -0.001609 0.000000 0.001543 0.000000
# 3 -0.000178 -0.001609 0.047334 0.000000 -0.023947 0.000000
# 4 0.000000 0.000000 0.000000 0.088687 0.000000 0.004266
# 5 -0.008204 0.001543 -0.023947 0.000000 0.044935 0.000000
# 6 0.000000 0.000000 0.000000 0.004266 0.000000 0.035202
#
#
# Mechanical properties :
#
#
# Convention : Reuss Voigt Hill
#
# Bulk Modulus (GPa) = 17.56812 49.10551 33.33682
# Shear Modulus (GPa) = 18.97385 30.94126 24.95756
#
# Velocity S-wave (km/s) = 2.84805 3.63696 3.26641
# Velocity P-wave (km/s) = 4.28084 6.21525 5.33643
#
# Compressibility (1/GPa) = 0.05692128
#
# Stress axis : x y z
#
# Youngs Moduli (GPa) = 100.01463 111.24312 21.12649
#
# Poissons Ratio (x) = 0.32408 0.00377
# Poissons Ratio (y) = 0.29137 0.03398
# Poissons Ratio (z) = 0.01784 0.17895
#
# Static dielectric constant tensor:
#      x y z
#    x 2.202730 0.000000 -0.032320 
#    y 0.000000 1.897180 0.000000 
#    z -0.032320 0.000000 1.977740 
# 
# From -- ./inp_files/67623.got.cif
#   From: 2010.05.17/outbox.cif.g08.bks.cpg/sg13_34_cif.got.tgz:67623.got - 2010.06.03 16:44:36.
