data_PCOD9228689
_publ_section_title
;
Structure prediction by ZEFSAII (Michael W. Deem and Ramdas Pophale) SiO2 
 PCOD9228689
Probable space group: P 2/C
;
_chemical_formula_sum "Si O2"
_cell_formula_units_Z 20
_cell_length_a 7.711324
_cell_length_b 12.150571
_cell_length_c 10.168334
_cell_angle_alpha 90.000000
_cell_angle_beta 48.034616
_cell_angle_gamma 90.000000
_cell_volume 708.410531
_symmetry_space_group_name_H-M "P 2/C"
_symmetry_group_IT_number 13
_symmetry_cell_setting 'monoclinic'
loop_
_space_group_symop_operation_xyz
x,y,z
-x,y,1/2-z
-x,-y,-z
x,-y,1/2+z
loop_
_atom_site_type_symbol
_atom_site_label
_atom_site_fract_x
_atom_site_fract_y
_atom_site_fract_z
Si Si1 0.363543 0.071527 0.957637
Si Si2 0.767348 0.860148 0.559866
Si Si3 0.070727 0.678945 0.494642
Si Si4 0.589710 0.721163 0.415354
Si Si5 0.693854 0.522730 0.540422
O O1 0.500000 0.080778 0.750000
O O2 0.368028 0.197036 0.007176
O O3 0.165377 0.983496 0.018662
O O4 0.500000 0.000000 0.000000
O O5 0.500000 0.857828 0.750000
O O6 0.749075 0.790465 0.435539
O O7 0.929743 0.793624 0.578955
O O8 0.273352 0.707558 0.288888
O O9 0.180645 0.594987 0.545387
O O10 0.888993 0.600072 0.509500
O O11 0.586800 0.600502 0.481739
O O12 0.500000 0.506839 0.750000
#
# Coordination Sequence:
#
# PCOD9228689 Si02
#       5
#     4   4   4   4   4
#     4   9  19  36  63  94 128 173 220 273 337 402
#     4   9  17  35  61  91 127 166 217 277 337 402
#     4  10  20  35  60  89 125 172 220 272 330 400
#     4  10  19  35  59  88 128 170 218 273 331 403
#     4  10  21  37  58  88 127 173 221 275 335 398
#
# _framework density 28.232218
#
# number of rings (size 3 to 8) (size 9 to 14) (size 15 to 20)
#    0.000    2.400    0.000    4.800    0.000    2.400 
#    0.000    6.000    0.000   18.000    0.000    1.400 
#    0.000    0.000    0.000    0.000    0.000    0.000 
#
# Total GULP energy -111749.123953 kJ/mol
# GULP energy per Si atom -5587.456198 kJ/mol
# Density = 2.816796 g / cm^3
# Si number density = 28.232218 Si / 1000 Ang^3
#
#
#
# Elastic Constant Matrix: (Units=GPa)
#
#
# Indices 1 2 3 4 5 6 
#
# 1 192.4455 81.2018 23.3341 0.0000 -6.5501 0.0000
# 2 81.2018 337.1010 31.4144 0.0000 -20.6735 0.0000
# 3 23.3341 31.4144 118.4864 0.0000 7.8210 0.0000
# 4 0.0000 0.0000 0.0000 3456.5858 0.0000-1593.5310
# 5 -6.5501 -20.6735 7.8210 0.0000 33.9663 0.0000
# 6 0.0000 0.0000 0.0000-1593.5310 0.0000 819.2407
#
#
#
# Elastic Compliance Matrix: (Units=1/GPa)
#
#
# Indices 1 2 3 4 5 6 
#
# 1 0.005866 -0.001302 -0.000845 0.000000 0.000534 0.000000
# 2 -0.001302 0.003481 -0.000802 0.000000 0.002052 0.000000
# 3 -0.000845 -0.000802 0.008999 0.000000 -0.002723 0.000000
# 4 0.000000 0.000000 0.000000 0.002801 0.000000 0.005449
# 5 0.000534 0.002052 -0.002723 0.000000 0.031420 0.000000
# 6 0.000000 0.000000 0.000000 0.005449 0.000000 0.011820
#
#
# Mechanical properties :
#
#
# Convention : Reuss Voigt Hill
#
# Bulk Modulus (GPa) = 80.33685 102.21484 91.27585
# Shear Modulus (GPa) = 67.17388 896.09738 481.63563
#
# Velocity S-wave (km/s) = 4.88313 17.83512 13.07548
# Velocity P-wave (km/s) = 7.76601 21.45706 16.13562
#
# Compressibility (1/GPa) = 0.01244759
#
# Stress axis : x y z
#
# Youngs Moduli (GPa) = 170.47022 287.30926 111.12783
#
# Poissons Ratio (x) = 0.37394 0.09395
# Poissons Ratio (y) = 0.22187 0.08912
# Poissons Ratio (z) = 0.14412 0.23041
#
# Static dielectric constant tensor:
#      x y z
#    x 2.319050 0.000000 -0.011910 
#    y 0.000000 2.276650 0.000000 
#    z -0.011910 0.000000 2.102100 
# 
# From -- ./inp_files/29258.got.cif
#   From: 2010.05.17/outbox.cif.g08.bks.cpg/sg13_15_cif.got.tgz:29258.got - 2010.06.03 16:44:36.
