data_PCOD9228795
_publ_section_title
;
Structure prediction by ZEFSAII (Michael W. Deem and Ramdas Pophale) SiO2 
 PCOD9228795
Probable space group: P 2/C
;
_chemical_formula_sum "Si O2"
_cell_formula_units_Z 32
_cell_length_a 33.967967
_cell_length_b 5.265224
_cell_length_c 18.511164
_cell_angle_alpha 90.000000
_cell_angle_beta 25.700588
_cell_angle_gamma 90.000000
_cell_volume 1435.746761
_symmetry_space_group_name_H-M "P 2/C"
_symmetry_group_IT_number 13
_symmetry_cell_setting 'monoclinic'
loop_
_space_group_symop_operation_xyz
x,y,z
-x,y,1/2-z
-x,-y,-z
x,-y,1/2+z
loop_
_atom_site_type_symbol
_atom_site_label
_atom_site_fract_x
_atom_site_fract_y
_atom_site_fract_z
Si Si1 0.798841 0.773249 0.529752
Si Si2 0.893456 0.730663 0.939656
Si Si3 0.456100 0.963568 0.718055
Si Si4 0.348131 0.520876 0.639950
Si Si5 0.285248 0.612222 0.975101
Si Si6 0.582779 0.696581 0.342715
Si Si7 0.617164 0.093037 0.520989
Si Si8 0.779885 0.732882 0.261475
O O1 0.857086 0.532828 0.463947
O O2 0.700157 0.726124 0.728025
O O3 0.778899 0.754833 0.477325
O O4 0.842281 0.034385 0.485285
O O5 0.000000 0.749611 0.750000
O O6 0.871285 0.753322 0.062805
O O7 0.458844 0.074644 0.633523
O O8 0.549601 0.874799 0.601262
O O9 0.413059 0.154630 0.848661
O O10 0.378154 0.753397 0.843399
O O11 0.372753 0.293154 0.652099
O O12 0.413683 0.690566 0.483761
O O13 0.276807 0.445779 0.697660
O O14 0.331428 0.387296 0.850659
O O15 0.228318 0.613786 0.144670
O O16 0.500000 0.500000 0.500000
O O17 0.719850 0.992782 0.356051
#
# Coordination Sequence:
#
# PCOD9228795 Si02
#       8
#     4   4   4   4   4   4   4   4
#     4  10  23  42  67  98 132 165 205 263 324 386
#     4  11  23  45  74 102 127 162 210 262 323 399
#     4  10  22  33  54  80 121 163 219 266 309 367
#     4  10  20  35  57  81 116 163 212 261 319 379
#     4  10  24  40  57  88 126 173 209 264 320 380
#     4  11  22  34  51  82 115 164 218 273 316 362
#     4  10  19  36  52  83 116 164 215 269 312 365
#     4  10  22  40  62  85 123 168 211 261 329 386
#
# _framework density 22.288053999999999
#
# number of rings (size 3 to 8) (size 9 to 14) (size 15 to 20)
#    0.000    1.750    2.500    1.125    7.000    0.500 
#    0.000    1.250    0.000    0.000    0.000    0.000 
#    0.000    0.000    0.000    0.000    0.000    0.000 
#
# Total GULP energy -178162.422827 kJ/mol
# GULP energy per Si atom -5567.575713 kJ/mol
# Density = 2.223733 g / cm^3
# Si number density = 22.288054 Si / 1000 Ang^3
#
#
#
# Elastic Constant Matrix: (Units=GPa)
#
#
# Indices 1 2 3 4 5 6 
#
# 1 141.0309 15.9994 41.1486 0.0000 53.0223 0.0000
# 2 15.9994 63.9423 10.2266 0.0000 5.2786 0.0000
# 3 41.1486 10.2266 129.6071 0.0000 33.9744 0.0000
# 4 0.0000 0.0000 0.0000 23.4800 0.0000 1.5018
# 5 53.0223 5.2786 33.9744 0.0000 44.4864 0.0000
# 6 0.0000 0.0000 0.0000 1.5018 0.0000 31.1125
#
#
#
# Elastic Compliance Matrix: (Units=1/GPa)
#
#
# Indices 1 2 3 4 5 6 
#
# 1 0.013098 -0.002012 0.000037 0.000000 -0.015401 0.000000
# 2 -0.002012 0.016196 -0.000955 0.000000 0.001206 0.000000
# 3 0.000037 -0.000955 0.009704 0.000000 -0.007342 0.000000
# 4 0.000000 0.000000 0.000000 0.042721 0.000000 -0.002062
# 5 -0.015401 0.001206 -0.007342 0.000000 0.046299 0.000000
# 6 0.000000 0.000000 0.000000 -0.002062 0.000000 0.032241
#
#
# Mechanical properties :
#
#
# Convention : Reuss Voigt Hill
#
# Bulk Modulus (GPa) = 30.17657 52.14770 41.16213
# Shear Modulus (GPa) = 28.22224 37.62949 32.92586
#
# Velocity S-wave (km/s) = 3.56230 4.11338 3.84772
# Velocity P-wave (km/s) = 5.52166 6.78291 6.18452
#
# Compressibility (1/GPa) = 0.03313830
#
# Stress axis : x y z
#
# Youngs Moduli (GPa) = 76.34566 61.74453 103.05335
#
# Poissons Ratio (x) = 0.12423 -0.00386
# Poissons Ratio (y) = 0.15361 0.09844
# Poissons Ratio (z) = -0.00286 0.05898
#
# Static dielectric constant tensor:
#      x y z
#    x 1.854790 0.000000 0.006890 
#    y 0.000000 2.212510 0.000000 
#    z 0.006890 0.000000 1.979420 
# 
# From -- ./inp_files/70295.got.cif
#   From: 2010.05.17/outbox.cif.g08.bks.cpg/sg13_36_cif.got.tgz:70295.got - 2010.06.03 16:44:36.
