data_PCOD9228290
_publ_section_title
;
Structure prediction by ZEFSAII (Michael W. Deem and Ramdas Pophale) SiO2 
 PCOD9228290
Probable space group: P 2/C
;
_chemical_formula_sum "Si O2"
_cell_formula_units_Z 32
_cell_length_a 19.054868
_cell_length_b 12.173207
_cell_length_c 8.841560
_cell_angle_alpha 90.000000
_cell_angle_beta 53.382348
_cell_angle_gamma 90.000000
_cell_volume 1646.103988
_symmetry_space_group_name_H-M "P 2/C"
_symmetry_group_IT_number 13
_symmetry_cell_setting 'monoclinic'
loop_
_space_group_symop_operation_xyz
x,y,z
-x,y,1/2-z
-x,-y,-z
x,-y,1/2+z
loop_
_atom_site_type_symbol
_atom_site_label
_atom_site_fract_x
_atom_site_fract_y
_atom_site_fract_z
Si Si1 0.520182 0.723695 0.061717
Si Si2 0.209494 0.197468 0.005401
Si Si3 0.345382 0.356680 0.686203
Si Si4 0.954450 0.859097 0.643306
Si Si5 0.706700 0.025604 0.051691
Si Si6 0.404439 0.426058 0.292418
Si Si7 0.586593 0.037916 0.475403
Si Si8 0.126235 0.096698 0.812970
O O1 0.500000 0.669263 0.250000
O O2 0.425859 0.728759 0.102620
O O3 0.580647 0.658931 0.865312
O O4 0.563156 0.838493 0.048273
O O5 0.262442 0.298929 0.869658
O O6 0.170391 0.131609 0.912354
O O7 0.126418 0.222110 0.219971
O O8 0.269675 0.103256 0.001517
O O9 0.342809 0.387896 0.511367
O O10 0.371548 0.464425 0.749787
O O11 0.000000 0.878069 0.750000
O O12 0.035200 0.834651 0.426487
O O13 0.908926 0.971742 0.647236
O O14 0.619450 0.043141 0.064089
O O15 0.792590 0.096847 0.906718
O O16 0.672118 0.040921 0.262247
O O17 0.500000 0.436380 0.250000
O O18 0.500000 0.000000 0.500000
#
# Coordination Sequence:
#
# PCOD9228290 Si02
#       8
#     4   4   4   4   4   4   4   4
#     4  11  22  36  53  74 105 149 194 235 282 328
#     4  10  19  33  56  82 111 144 184 226 276 341
#     4  11  21  36  57  79 105 140 188 238 287 338
#     4   8  16  31  53  83 110 146 175 218 276 327
#     4  11  22  34  51  75 115 156 195 227 260 327
#     4  10  22  37  57  76 103 142 188 250 290 327
#     4  12  24  35  49  73 116 162 195 230 273 325
#     4   9  17  32  53  78 113 141 184 221 264 328
#
# _framework density 19.439841000000001
#
# number of rings (size 3 to 8) (size 9 to 14) (size 15 to 20)
#    0.000    1.750    1.250    5.250    1.750    2.000 
#    0.000    0.000    0.000    0.000    0.000    7.875 
#    0.000    0.000    0.000    0.000    0.000    0.125 
#
# Total GULP energy -178163.593179 kJ/mol
# GULP energy per Si atom -5567.612287 kJ/mol
# Density = 1.939560 g / cm^3
# Si number density = 19.439841 Si / 1000 Ang^3
#
#
#
# Elastic Constant Matrix: (Units=GPa)
#
#
# Indices 1 2 3 4 5 6 
#
# 1 51.4052 20.4358 32.8252 0.0000 -9.5103 0.0000
# 2 20.4358 38.8660 43.6744 0.0000 -10.1398 0.0000
# 3 32.8252 43.6744 142.2597 0.0000 -16.4129 0.0000
# 4 0.0000 0.0000 0.0000 19.8351 0.0000 -5.8491
# 5 -9.5103 -10.1398 -16.4129 0.0000 36.8111 0.0000
# 6 0.0000 0.0000 0.0000 -5.8491 0.0000 6.7488
#
#
#
# Elastic Compliance Matrix: (Units=1/GPa)
#
#
# Indices 1 2 3 4 5 6 
#
# 1 0.025495 -0.009824 -0.002550 0.000000 0.002744 0.000000
# 2 -0.009824 0.044250 -0.010758 0.000000 0.004854 0.000000
# 3 -0.002550 -0.010758 0.011072 0.000000 0.001315 0.000000
# 4 0.000000 0.000000 0.000000 0.067724 0.000000 0.058695
# 5 0.002744 0.004854 0.001315 0.000000 0.029798 0.000000
# 6 0.000000 0.000000 0.000000 0.058695 0.000000 0.199043
#
#
# Mechanical properties :
#
#
# Convention : Reuss Voigt Hill
#
# Bulk Modulus (GPa) = 28.94094 47.37799 38.15947
# Shear Modulus (GPa) = 11.48990 21.71870 16.60430
#
# Velocity S-wave (km/s) = 2.43379 3.34612 2.92573
# Velocity P-wave (km/s) = 4.77677 6.27321 5.57542
#
# Compressibility (1/GPa) = 0.03455312
#
# Stress axis : x y z
#
# Youngs Moduli (GPa) = 39.22386 22.59864 90.31487
#
# Poissons Ratio (x) = 0.22200 0.23033
# Poissons Ratio (y) = 0.38532 0.97164
# Poissons Ratio (z) = 0.10003 0.24312
#
# Static dielectric constant tensor:
#      x y z
#    x 1.784020 0.000000 0.020360 
#    y 0.000000 1.684520 0.000000 
#    z 0.020360 0.000000 1.787690 
# 
# From -- ./inp_files/23337.got.cif
#   From: 2010.05.17/outbox.cif.g08.bks.cpg/sg13_12_cif.got.tgz:23337.got - 2010.06.03 16:44:36.
