data_PCOD9228118
_publ_section_title
;
Structure prediction by ZEFSAII (Michael W. Deem and Ramdas Pophale) SiO2 
 PCOD9228118
Probable space group: P 2/C
;
_chemical_formula_sum "Si O2"
_cell_formula_units_Z 30
_cell_length_a 17.230632
_cell_length_b 19.040679
_cell_length_c 13.951838
_cell_angle_alpha 90.000000
_cell_angle_beta 18.920147
_cell_angle_gamma 90.000000
_cell_volume 1484.209285
_symmetry_space_group_name_H-M "P 2/C"
_symmetry_group_IT_number 13
_symmetry_cell_setting 'monoclinic'
loop_
_space_group_symop_operation_xyz
x,y,z
-x,y,1/2-z
-x,-y,-z
x,-y,1/2+z
loop_
_atom_site_type_symbol
_atom_site_label
_atom_site_fract_x
_atom_site_fract_y
_atom_site_fract_z
Si Si1 0.154772 0.457139 0.395896
Si Si2 0.610379 0.450639 0.725280
Si Si3 0.069142 0.924529 0.380568
Si Si4 0.087008 0.299981 0.457013
Si Si5 0.500000 0.890494 0.750000
Si Si6 0.782402 0.204598 0.678851
Si Si7 0.583453 0.290880 0.755622
Si Si8 0.252346 0.172720 0.370859
O O1 0.201934 0.498743 0.439797
O O2 0.046870 0.379617 0.535637
O O3 0.000000 0.500000 0.500000
O O4 0.401284 0.447652 0.049212
O O5 0.500000 0.472636 0.750000
O O6 0.690755 0.369534 0.619635
O O7 0.074685 0.865279 0.458186
O O8 0.881943 0.891959 0.523090
O O9 0.329624 0.929861 0.024542
O O10 0.000000 0.000000 0.500000
O O11 0.116096 0.244643 0.508409
O O12 0.882201 0.267718 0.628457
O O13 0.338033 0.297206 0.104500
O O14 0.687288 0.843958 0.590626
O O15 0.763249 0.237492 0.596487
O O16 0.512756 0.183779 0.020468
O O17 0.500000 0.265430 0.750000
#
# Coordination Sequence:
#
# PCOD9228118 Si02
#       8
#     4   4   4   4   2   4   4   4
#     4  10  19  32  54  77 110 150 191 243 300 355
#     4   9  19  34  51  76 109 149 193 240 296 358
#     4  10  21  38  65  85 119 154 190 235 289 349
#     4   9  18  33  53  79 105 149 193 237 291 344
#     4  10  20  36  64  90 112 154 196 234 282 352
#     4   9  18  33  56  79 109 148 187 233 286 340
#     4   9  17  31  54  76 106 147 192 238 290 353
#     4   9  19  37  60  81 110 145 195 231 279 341
#
# _framework density 20.212783000000002
#
# number of rings (size 3 to 8) (size 9 to 14) (size 15 to 20)
#    0.000    2.667    0.000    1.200    0.000    4.267 
#    1.200    4.000   44.000    0.000    0.000    0.000 
#    0.000    0.000    0.000    0.000    0.000    0.000 
#
# Total GULP energy -167186.466963 kJ/mol
# GULP energy per Si atom -5572.882232 kJ/mol
# Density = 2.016678 g / cm^3
# Si number density = 20.212783 Si / 1000 Ang^3
#
#
#
# Elastic Constant Matrix: (Units=GPa)
#
#
# Indices 1 2 3 4 5 6 
#
# 1 174.4478 96.6527 21.1925 0.0000 -17.6519 0.0000
# 2 96.6527 157.8070 29.4214 0.0000 -16.9157 0.0000
# 3 21.1925 29.4214 60.3132 0.0000 -3.7356 0.0000
# 4 0.0000 0.0000 0.0000 17.9026 0.0000 -1.3822
# 5 -17.6519 -16.9157 -3.7356 0.0000 29.2500 0.0000
# 6 0.0000 0.0000 0.0000 -1.3822 0.0000 16.5692
#
#
#
# Elastic Compliance Matrix: (Units=1/GPa)
#
#
# Indices 1 2 3 4 5 6 
#
# 1 0.008838 -0.005072 -0.000487 0.000000 0.002338 0.000000
# 2 -0.005072 0.010285 -0.003080 0.000000 0.002494 0.000000
# 3 -0.000487 -0.003080 0.018270 0.000000 0.000258 0.000000
# 4 0.000000 0.000000 0.000000 0.056220 0.000000 0.004690
# 5 0.002338 0.002494 0.000258 0.000000 0.037074 0.000000
# 6 0.000000 0.000000 0.000000 0.004690 0.000000 0.060744
#
#
# Mechanical properties :
#
#
# Convention : Reuss Voigt Hill
#
# Bulk Modulus (GPa) = 49.71410 76.34459 63.02934
# Shear Modulus (GPa) = 23.21116 29.09780 26.15448
#
# Velocity S-wave (km/s) = 3.39239 3.79829 3.60106
# Velocity P-wave (km/s) = 6.32402 7.55569 6.96712
#
# Compressibility (1/GPa) = 0.02011502
#
# Stress axis : x y z
#
# Youngs Moduli (GPa) = 113.14665 97.23107 54.73516
#
# Poissons Ratio (x) = 0.49313 0.02664
# Poissons Ratio (y) = 0.57385 0.16861
# Poissons Ratio (z) = 0.05506 0.29952
#
# Static dielectric constant tensor:
#      x y z
#    x 1.710890 0.000000 -0.022180 
#    y 0.000000 1.705780 0.000000 
#    z -0.022180 0.000000 1.754300 
# 
# From -- ./inp_files/55948.got.cif
#   From: 2010.05.17/outbox.cif.g08.bks.cpg/sg13_28_cif.got.tgz:55948.got - 2010.06.03 16:44:36.
