data_PCOD9228989
_publ_section_title
;
Structure prediction by ZEFSAII (Michael W. Deem and Ramdas Pophale) SiO2 
 PCOD9228989
Probable space group: P 2/C
;
_chemical_formula_sum "Si O2"
_cell_formula_units_Z 28
_cell_length_a 7.973355
_cell_length_b 5.394098
_cell_length_c 26.672031
_cell_angle_alpha 90.000000
_cell_angle_beta 101.965827
_cell_angle_gamma 90.000000
_cell_volume 1122.213249
_symmetry_space_group_name_H-M "P 2/C"
_symmetry_group_IT_number 13
_symmetry_cell_setting 'monoclinic'
loop_
_space_group_symop_operation_xyz
x,y,z
-x,y,1/2-z
-x,-y,-z
x,-y,1/2+z
loop_
_atom_site_type_symbol
_atom_site_label
_atom_site_fract_x
_atom_site_fract_y
_atom_site_fract_z
Si Si1 0.522976 0.792130 0.191614
Si Si2 0.404172 0.706399 0.690981
Si Si3 0.256338 0.584692 0.056102
Si Si4 0.027669 0.105041 0.192370
Si Si5 0.866576 0.614446 0.048166
Si Si6 0.355001 0.076207 0.031038
Si Si7 0.845230 0.386776 0.655494
O O1 0.500000 0.826533 0.250000
O O2 0.396842 0.568483 0.167049
O O3 0.706356 0.682300 0.188560
O O4 0.506048 0.071420 0.170574
O O5 0.500000 0.663535 0.750000
O O6 0.218893 0.817202 0.690159
O O7 0.206621 0.595059 0.992933
O O8 0.370425 0.336408 0.062608
O O9 0.068186 0.566306 0.069115
O O10 0.335766 0.851930 0.068308
O O11 0.000000 0.087214 0.250000
O O12 0.913550 0.337019 0.167547
O O13 0.982160 0.836719 0.167461
O O14 0.772675 0.627267 0.095000
O O15 0.183384 0.145281 0.987925
O O16 0.500000 0.000000 0.000000
#
# Coordination Sequence:
#
# PCOD9228989 Si02
#       7
#     4   4   4   4   4   4   4
#     4  10  19  37  59  82 113 159 192 244 315 366
#     4  10  20  38  60  79 112 153 199 241 310 376
#     4   9  20  38  65  85 125 168 200 239 319 376
#     4  12  24  41  63  91 119 164 213 264 315 373
#     4   9  23  38  64  90 125 163 209 249 314 365
#     4  10  19  36  64  94 121 165 208 241 300 380
#     4  12  25  39  65  94 125 157 219 271 298 375
#
# _framework density 24.950692
#
# number of rings (size 3 to 8) (size 9 to 14) (size 15 to 20)
#    0.857    0.857    0.000    6.429    2.000    0.000 
#    0.000    4.286    0.000    0.000    0.000    0.000 
#    0.000    0.000    0.000    0.000    0.000    0.000 
#
# Total GULP energy -156375.889067 kJ/mol
# GULP energy per Si atom -5584.853181 kJ/mol
# Density = 2.489390 g / cm^3
# Si number density = 24.950692 Si / 1000 Ang^3
#
#
#
# Elastic Constant Matrix: (Units=GPa)
#
#
# Indices 1 2 3 4 5 6 
#
# 1 69.8145 10.1081 -6.4307 0.0000 -19.4367 0.0000
# 2 10.1081 177.7269 21.6514 0.0000 1.9573 0.0000
# 3 -6.4307 21.6514 70.9464 0.0000 9.0866 0.0000
# 4 0.0000 0.0000 0.0000 36.1341 0.0000 1.0874
# 5 -19.4367 1.9573 9.0866 0.0000 20.1447 0.0000
# 6 0.0000 0.0000 0.0000 1.0874 0.0000 41.0131
#
#
#
# Elastic Compliance Matrix: (Units=1/GPa)
#
#
# Indices 1 2 3 4 5 6 
#
# 1 0.019906 -0.001311 -0.000288 0.000000 0.019464 0.000000
# 2 -0.001311 0.005931 -0.001797 0.000000 -0.001031 0.000000
# 3 -0.000288 -0.001797 0.015528 0.000000 -0.007108 0.000000
# 4 0.000000 0.000000 0.000000 0.027697 0.000000 -0.000734
# 5 0.019464 -0.001031 -0.007108 0.000000 0.071727 0.000000
# 6 0.000000 0.000000 0.000000 -0.000734 0.000000 0.024402
#
#
# Mechanical properties :
#
#
# Convention : Reuss Voigt Hill
#
# Bulk Modulus (GPa) = 28.92549 41.01618 34.97083
# Shear Modulus (GPa) = 27.24680 39.00232 33.12456
#
# Velocity S-wave (km/s) = 3.30817 3.95799 3.64758
# Velocity P-wave (km/s) = 5.11959 6.11246 5.63792
#
# Compressibility (1/GPa) = 0.03457158
#
# Stress axis : x y z
#
# Youngs Moduli (GPa) = 50.23668 168.59254 64.40081
#
# Poissons Ratio (x) = 0.22108 0.01857
# Poissons Ratio (y) = 0.06588 0.11573
# Poissons Ratio (z) = 0.01449 0.30296
#
# Static dielectric constant tensor:
#      x y z
#    x 2.030100 0.000000 0.051520 
#    y 0.000000 2.086770 0.000000 
#    z 0.051520 0.000000 2.078410 
# 
# From -- ./inp_files/95455.got.cif
#   From: 2010.05.17/outbox.cif.g08.bks.cpg/sg13_48_cif.got.tgz:95455.got - 2010.06.03 16:44:36.
