data_PCOD9228267
_publ_section_title
;
Structure prediction by ZEFSAII (Michael W. Deem and Ramdas Pophale) SiO2 
 PCOD9228267
Probable space group: P 2/C
;
_chemical_formula_sum "Si O2"
_cell_formula_units_Z 30
_cell_length_a 12.946548
_cell_length_b 5.618568
_cell_length_c 18.485173
_cell_angle_alpha 90.000000
_cell_angle_beta 71.924851
_cell_angle_gamma 90.000000
_cell_volume 1278.274068
_symmetry_space_group_name_H-M "P 2/C"
_symmetry_group_IT_number 13
_symmetry_cell_setting 'monoclinic'
loop_
_space_group_symop_operation_xyz
x,y,z
-x,y,1/2-z
-x,-y,-z
x,-y,1/2+z
loop_
_atom_site_type_symbol
_atom_site_label
_atom_site_fract_x
_atom_site_fract_y
_atom_site_fract_z
Si Si1 0.950497 0.999332 0.840643
Si Si2 0.345450 0.017870 0.686939
Si Si3 0.185742 0.029391 0.847803
Si Si4 0.918652 0.503811 0.406693
Si Si5 0.834989 0.473756 0.085838
Si Si6 0.475857 0.411357 0.888615
Si Si7 0.500000 0.685808 0.750000
Si Si8 0.591094 0.804020 0.963418
O O1 0.055625 0.017052 0.870538
O O2 0.894877 0.748570 0.873516
O O3 0.000000 0.979881 0.750000
O O4 0.895885 0.258557 0.864520
O O5 0.426709 0.236931 0.656435
O O6 0.238240 0.054812 0.756843
O O7 0.417069 0.841963 0.721532
O O8 0.324952 0.917250 0.610944
O O9 0.217114 0.777389 0.877585
O O10 0.216359 0.272348 0.881599
O O11 0.046786 0.487010 0.399701
O O12 0.856197 0.532447 0.495746
O O13 0.438110 0.527045 0.822530
O O14 0.532975 0.605732 0.927145
O O15 0.387015 0.296505 0.961575
O O16 0.500000 0.000000 0.000000
#
# Coordination Sequence:
#
# PCOD9228267 Si02
#       8
#     4   4   4   4   4   4   2   4
#     4  10  19  33  55  83 109 149 187 225 267 328
#     4  10  20  33  53  81 109 142 183 240 280 337
#     4  10  21  33  55  83 113 141 185 232 280 326
#     4   9  17  32  56  77 108 145 187 223 264 330
#     4   9  18  33  53  82 106 144 184 226 274 329
#     4   9  17  32  54  76 101 140 183 231 273 340
#     4  10  20  32  54  80 104 142 186 234 282 332
#     4   8  16  31  53  76  99 136 185 219 272 340
#
# _framework density 23.469145999999999
#
# number of rings (size 3 to 8) (size 9 to 14) (size 15 to 20)
#    0.000    2.667    0.000    1.600    3.733    3.200 
#    0.000    0.000    2.933   12.800    0.000    0.000 
#    0.000    0.000    0.000    0.000    0.000    0.000 
#
# Total GULP energy -167358.171698 kJ/mol
# GULP energy per Si atom -5578.605723 kJ/mol
# Density = 2.341573 g / cm^3
# Si number density = 23.469146 Si / 1000 Ang^3
#
#
#
# Elastic Constant Matrix: (Units=GPa)
#
#
# Indices 1 2 3 4 5 6 
#
# 1 59.1012 30.6492 2.2356 0.0000 -0.8250 0.0000
# 2 30.6492 215.4500 108.2381 0.0000 1.2955 0.0000
# 3 2.2356 108.2381 157.6512 0.0000 3.8178 0.0000
# 4 0.0000 0.0000 0.0000 65.6852 0.0000 9.6181
# 5 -0.8250 1.2955 3.8178 0.0000 23.1292 0.0000
# 6 0.0000 0.0000 0.0000 9.6181 0.0000 10.4747
#
#
#
# Elastic Compliance Matrix: (Units=1/GPa)
#
#
# Indices 1 2 3 4 5 6 
#
# 1 0.018851 -0.003884 0.002387 0.000000 0.000496 0.000000
# 2 -0.003884 0.007889 -0.005369 0.000000 0.000306 0.000000
# 3 0.002387 -0.005369 0.010026 0.000000 -0.001269 0.000000
# 4 0.000000 0.000000 0.000000 0.017589 0.000000 -0.016151
# 5 0.000496 0.000306 -0.001269 0.000000 0.043445 0.000000
# 6 0.000000 0.000000 0.000000 -0.016151 0.000000 0.110298
#
#
# Mechanical properties :
#
#
# Convention : Reuss Voigt Hill
#
# Bulk Modulus (GPa) = 43.41177 79.38312 61.39745
# Shear Modulus (GPa) = 21.78570 39.26314 30.52442
#
# Velocity S-wave (km/s) = 3.05006 4.09463 3.61032
# Velocity P-wave (km/s) = 5.56249 7.50017 6.60280
#
# Compressibility (1/GPa) = 0.02303523
#
# Stress axis : x y z
#
# Youngs Moduli (GPa) = 53.04773 126.75277 99.73949
#
# Poissons Ratio (x) = 0.49231 -0.23811
# Poissons Ratio (y) = 0.20604 0.53549
# Poissons Ratio (z) = -0.12664 0.68052
#
# Static dielectric constant tensor:
#      x y z
#    x 1.925210 0.000000 -0.032510 
#    y 0.000000 1.926250 0.000000 
#    z -0.032510 0.000000 1.831650 
# 
# From -- ./inp_files/69173.got.cif
#   From: 2010.05.17/outbox.cif.g08.bks.cpg/sg13_35_cif.got.tgz:69173.got - 2010.06.03 16:44:36.
