data_PCOD9228066
_publ_section_title
;
Structure prediction by ZEFSAII (Michael W. Deem and Ramdas Pophale) SiO2 
 PCOD9228066
Probable space group: P 2/C
;
_chemical_formula_sum "Si O2"
_cell_formula_units_Z 28
_cell_length_a 4.938830
_cell_length_b 23.111882
_cell_length_c 13.219152
_cell_angle_alpha 90.000000
_cell_angle_beta 98.461104
_cell_angle_gamma 90.000000
_cell_volume 1492.485783
_symmetry_space_group_name_H-M "P 2/C"
_symmetry_group_IT_number 13
_symmetry_cell_setting 'monoclinic'
loop_
_space_group_symop_operation_xyz
x,y,z
-x,y,1/2-z
-x,-y,-z
x,-y,1/2+z
loop_
_atom_site_type_symbol
_atom_site_label
_atom_site_fract_x
_atom_site_fract_y
_atom_site_fract_z
Si Si1 0.228292 0.069339 0.442124
Si Si2 0.449529 0.385857 0.029453
Si Si3 0.011187 0.434716 0.365285
Si Si4 0.512047 0.733376 0.868676
Si Si5 0.684174 0.992418 0.857386
Si Si6 0.011161 0.811557 0.868957
Si Si7 0.738574 0.557658 0.181693
O O1 0.506520 0.059898 0.395607
O O2 0.125031 0.134636 0.437379
O O3 0.993539 0.032053 0.370450
O O4 0.287655 0.042434 0.555942
O O5 0.768744 0.398142 0.061721
O O6 0.393458 0.320703 0.060435
O O7 0.277669 0.427986 0.095284
O O8 0.372280 0.402316 0.912434
O O9 0.132068 0.499419 0.361014
O O10 0.000000 0.412074 0.250000
O O11 0.500000 0.714973 0.750000
O O12 0.217328 0.757352 0.883771
O O13 0.718339 0.787365 0.884871
O O14 0.500000 0.010007 0.750000
O O15 0.000000 0.829883 0.750000
O O16 0.500000 0.543993 0.250000
O O17 0.000000 0.585713 0.250000
#
# Coordination Sequence:
#
# PCOD9228066 Si02
#       7
#     4   4   4   4   4   4   4
#     4  10  20  32  52  78 106 143 176 210 262 316
#     4  12  22  37  58  79 109 144 175 220 273 318
#     4  11  21  35  56  84 111 136 169 214 273 338
#     4  10  21  34  52  79 103 133 174 217 265 314
#     4  10  19  32  51  79 109 137 175 216 259 311
#     4  10  19  33  51  73 106 138 171 213 258 310
#     4  11  23  39  56  80 108 141 182 220 262 320
#
# _framework density 18.760646000000001
#
# number of rings (size 3 to 8) (size 9 to 14) (size 15 to 20)
#    0.000    1.429    0.000    7.714    0.000    2.286 
#    0.000    0.000    0.000    2.571    0.000    0.000 
#    0.000    0.000    0.000    0.000    0.000    0.000 
#
# Total GULP energy -156356.445897 kJ/mol
# GULP energy per Si atom -5584.158782 kJ/mol
# Density = 1.871795 g / cm^3
# Si number density = 18.760646 Si / 1000 Ang^3
#
#
#
# Elastic Constant Matrix: (Units=GPa)
#
#
# Indices 1 2 3 4 5 6 
#
# 1 56.1752 -10.9015 0.8009 0.0000 9.9815 0.0000
# 2 -10.9015 66.6665 34.6030 0.0000 6.8195 0.0000
# 3 0.8009 34.6030 95.9810 0.0000 23.6404 0.0000
# 4 0.0000 0.0000 0.0000 40.2350 0.0000 39.9172
# 5 9.9815 6.8195 23.6404 0.0000 28.4521 0.0000
# 6 0.0000 0.0000 0.0000 39.9172 0.0000 47.7082
#
#
#
# Elastic Compliance Matrix: (Units=1/GPa)
#
#
# Indices 1 2 3 4 5 6 
#
# 1 0.020033 0.003874 0.000498 0.000000 -0.008370 0.000000
# 2 0.003874 0.019246 -0.006915 0.000000 -0.000226 0.000000
# 3 0.000498 -0.006915 0.015770 0.000000 -0.011620 0.000000
# 4 0.000000 0.000000 0.000000 0.146272 0.000000 -0.122385
# 5 -0.008370 -0.000226 -0.011620 0.000000 0.047792 0.000000
# 6 0.000000 0.000000 0.000000 -0.122385 0.000000 0.123359
#
#
# Mechanical properties :
#
#
# Convention : Reuss Voigt Hill
#
# Bulk Modulus (GPa) = 20.01526 29.75860 24.88693
# Shear Modulus (GPa) = 12.68349 36.23377 24.45863
#
# Velocity S-wave (km/s) = 2.60295 4.39950 3.61462
# Velocity P-wave (km/s) = 4.44137 6.45788 5.54211
#
# Compressibility (1/GPa) = 0.04996188
#
# Stress axis : x y z
#
# Youngs Moduli (GPa) = 49.91675 51.95919 63.41308
#
# Poissons Ratio (x) = -0.20127 -0.03157
# Poissons Ratio (y) = -0.19336 0.43851
# Poissons Ratio (z) = -0.02485 0.35930
#
# Static dielectric constant tensor:
#      x y z
#    x 1.651560 0.000000 0.001600 
#    y 0.000000 1.634280 0.000000 
#    z 0.001600 0.000000 1.658620 
# 
# From -- ./inp_files/26758.got.cif
#   From: 2010.05.17/outbox.cif.g08.bks.cpg/sg13_14_cif.got.tgz:26758.got - 2010.06.03 16:44:36.
