data_PCOD9228322
_publ_section_title
;
Structure prediction by ZEFSAII (Michael W. Deem and Ramdas Pophale) SiO2 
 PCOD9228322
Probable space group: P 2/C
;
_chemical_formula_sum "Si O2"
_cell_formula_units_Z 28
_cell_length_a 20.473289
_cell_length_b 15.239069
_cell_length_c 8.306074
_cell_angle_alpha 90.000000
_cell_angle_beta 31.012000
_cell_angle_gamma 90.000000
_cell_volume 1335.157590
_symmetry_space_group_name_H-M "P 2/C"
_symmetry_group_IT_number 13
_symmetry_cell_setting 'monoclinic'
loop_
_space_group_symop_operation_xyz
x,y,z
-x,y,1/2-z
-x,-y,-z
x,-y,1/2+z
loop_
_atom_site_type_symbol
_atom_site_label
_atom_site_fract_x
_atom_site_fract_y
_atom_site_fract_z
Si Si1 0.326755 0.247721 0.858624
Si Si2 0.752986 0.234360 0.136099
Si Si3 0.000000 0.854270 0.250000
Si Si4 0.260044 0.078119 0.589771
Si Si5 0.500000 0.152156 0.250000
Si Si6 0.151479 0.914372 0.646006
Si Si7 0.138592 0.601328 0.258138
Si Si8 0.845591 0.402377 0.390314
O O1 0.446210 0.216643 0.502138
O O2 0.345986 0.236123 0.008584
O O3 0.220278 0.178623 0.025033
O O4 0.263496 0.341710 0.954769
O O5 0.738189 0.161338 0.031135
O O6 0.773120 0.328238 0.014099
O O7 0.882614 0.205581 0.950278
O O8 0.967165 0.909574 0.481010
O O9 0.390029 0.089740 0.413291
O O10 0.241374 0.990835 0.526034
O O11 0.148871 0.076803 0.959400
O O12 0.164969 0.503458 0.140262
O O13 0.158192 0.604697 0.408454
O O14 0.990146 0.623909 0.536772
#
# Coordination Sequence:
#
# PCOD9228322 Si02
#       8
#     4   4   2   4   2   4   4   4
#     4  10  21  39  60  83 114 152 200 248 296 350
#     4  11  22  37  60  89 121 157 196 241 300 367
#     4  10  22  38  60  88 128 164 192 240 302 366
#     4  11  24  40  60  86 116 156 205 250 298 351
#     4  10  24  44  64  82 114 158 206 264 304 336
#     4  10  21  38  58  87 119 154 195 238 295 363
#     4  10  19  33  57  89 125 157 189 237 296 360
#     4  10  20  34  57  89 122 159 196 236 294 362
#
# _framework density 20.971306999999999
#
# number of rings (size 3 to 8) (size 9 to 14) (size 15 to 20)
#    0.000    1.714    0.000    6.000    0.000    9.143 
#    0.000    0.000    0.000    7.714    0.000    0.000 
#    0.000    0.000    0.000    0.000    0.000    0.000 
#
# Total GULP energy -156377.655010 kJ/mol
# GULP energy per Si atom -5584.916250 kJ/mol
# Density = 2.092358 g / cm^3
# Si number density = 20.971307 Si / 1000 Ang^3
#
#
#
# Elastic Constant Matrix: (Units=GPa)
#
#
# Indices 1 2 3 4 5 6 
#
# 1 74.2183 16.3925 35.2116 0.0000 24.6721 0.0000
# 2 16.3925 75.2642 27.5585 0.0000 10.2834 0.0000
# 3 35.2116 27.5585 108.8132 0.0000 33.2950 0.0000
# 4 0.0000 0.0000 0.0000 27.0089 0.0000 5.8408
# 5 24.6721 10.2834 33.2950 0.0000 42.8871 0.0000
# 6 0.0000 0.0000 0.0000 5.8408 0.0000 39.6579
#
#
#
# Elastic Compliance Matrix: (Units=1/GPa)
#
#
# Indices 1 2 3 4 5 6 
#
# 1 0.017774 -0.001744 -0.003029 0.000000 -0.007456 0.000000
# 2 -0.001744 0.014838 -0.003164 0.000000 -0.000099 0.000000
# 3 -0.003029 -0.003164 0.013386 0.000000 -0.007891 0.000000
# 4 0.000000 0.000000 0.000000 0.038243 0.000000 -0.005632
# 5 -0.007456 -0.000099 -0.007891 0.000000 0.033756 0.000000
# 6 0.000000 0.000000 0.000000 -0.005632 0.000000 0.026045
#
#
# Mechanical properties :
#
#
# Convention : Reuss Voigt Hill
#
# Bulk Modulus (GPa) = 33.19320 46.29122 39.74221
# Shear Modulus (GPa) = 29.41931 33.85297 31.63614
#
# Velocity S-wave (km/s) = 3.74951 4.02213 3.88821
# Velocity P-wave (km/s) = 5.88280 6.60996 6.25695
#
# Compressibility (1/GPa) = 0.03012665
#
# Stress axis : x y z
#
# Youngs Moduli (GPa) = 56.26104 67.39395 74.70530
#
# Poissons Ratio (x) = 0.11750 0.22627
# Poissons Ratio (y) = 0.09809 0.23633
# Poissons Ratio (z) = 0.17040 0.21320
#
# Static dielectric constant tensor:
#      x y z
#    x 1.775270 0.000000 0.029910 
#    y 0.000000 1.701580 0.000000 
#    z 0.029910 0.000000 1.813410 
# 
# From -- ./inp_files/23620.got.cif
#   From: 2010.05.17/outbox.cif.g08.bks.cpg/sg13_12_cif.got.tgz:23620.got - 2010.06.03 16:44:36.
