data_PCOD9228426
_publ_section_title
;
Structure prediction by ZEFSAII (Michael W. Deem and Ramdas Pophale) SiO2 
 PCOD9228426
Probable space group: P 2/C
;
_chemical_formula_sum "Si O2"
_cell_formula_units_Z 24
_cell_length_a 11.318526
_cell_length_b 5.603414
_cell_length_c 27.987855
_cell_angle_alpha 90.000000
_cell_angle_beta 147.436139
_cell_angle_gamma 90.000000
_cell_volume 955.405217
_symmetry_space_group_name_H-M "P 2/C"
_symmetry_group_IT_number 13
_symmetry_cell_setting 'monoclinic'
loop_
_space_group_symop_operation_xyz
x,y,z
-x,y,1/2-z
-x,-y,-z
x,-y,1/2+z
loop_
_atom_site_type_symbol
_atom_site_label
_atom_site_fract_x
_atom_site_fract_y
_atom_site_fract_z
Si Si1 0.764891 0.500000 0.391567
Si Si2 0.049884 0.999999 0.898682
Si Si3 0.258849 0.500000 0.827121
Si Si4 0.766742 1.000000 0.893470
Si Si5 0.528874 0.000000 0.567166
Si Si6 0.901915 0.500001 0.326845
O O1 0.652706 0.249161 0.364349
O O2 0.000000 0.500000 0.500000
O O3 0.819225 0.500001 0.353468
O O4 0.652706 0.750840 0.364349
O O5 0.035645 0.748113 0.866757
O O6 0.844800 0.999999 0.864911
O O7 0.035644 0.251884 0.866756
O O8 0.282304 1.000000 0.004627
O O9 0.359936 0.749501 0.880328
O O10 0.000000 0.500000 0.750000
O O11 0.271460 0.500000 0.774230
O O12 0.359937 0.250501 0.880328
O O13 0.000000 0.000000 0.000000
O O14 0.500000 0.000000 0.500000
#
# Coordination Sequence:
#
# PCOD9228426 Si02
#       6
#     4   4   4   4   4   4
#     4   8  14  25  45  75 101 128 169 219 257 300
#     4  10  19  34  55  81 108 139 182 226 268 322
#     4  12  24  39  57  80 111 147 183 227 275 326
#     4   8  14  25  45  75 101 128 169 219 257 300
#     4  12  24  39  57  80 111 147 183 227 275 326
#     4  10  19  34  55  81 108 139 182 226 268 322
#
# _framework density 25.120232000000001
#
# number of rings (size 3 to 8) (size 9 to 14) (size 15 to 20)
#    0.000    2.000    0.000    5.000    0.000    0.000 
#    0.000    0.000    0.000    0.000    0.000  112.000 
#    0.000    0.000    0.000    0.000    0.000    0.000 
#
# Total GULP energy -134096.295285 kJ/mol
# GULP energy per Si atom -5587.345637 kJ/mol
# Density = 2.506306 g / cm^3
# Si number density = 25.120232 Si / 1000 Ang^3
#
#
#
# Elastic Constant Matrix: (Units=GPa)
#
#
# Indices 1 2 3 4 5 6 
#
# 1 78.6608 43.0302 50.6213 0.0000 2.3012 0.0000
# 2 43.0302 388.7794 103.5719 0.0000 13.4738 0.0000
# 3 50.6213 103.5719 139.4315 0.0000 -27.3696 0.0000
# 4 0.0000 0.0000 0.0000 55.0815 0.0000 15.8535
# 5 2.3012 13.4738 -27.3696 0.0000 48.4823 0.0000
# 6 0.0000 0.0000 0.0000 15.8535 0.0000 -0.5444
#
#
#
# Elastic Compliance Matrix: (Units=1/GPa)
#
#
# Indices 1 2 3 4 5 6 
#
# 1 0.017622 0.000257 -0.007611 0.000000 -0.005204 0.000000
# 2 0.000257 0.003508 -0.003254 0.000000 -0.002824 0.000000
# 3 -0.007611 -0.003254 0.014171 0.000000 0.009265 0.000000
# 4 0.000000 0.000000 0.000000 0.001935 0.000000 0.056354
# 5 -0.005204 -0.002824 0.009265 0.000000 0.026888 0.000000
# 6 0.000000 0.000000 0.000000 0.056354 0.000000 -0.195798
#
#
# Mechanical properties :
#
#
# Convention : Reuss Voigt Hill
#
# Bulk Modulus (GPa) = 70.98694 111.25759 91.12227
# Shear Modulus (GPa) = -47.27524 47.91377 0.31926
#
# Velocity S-wave (km/s) = -4.34286 4.37209 0.35689
# Velocity P-wave (km/s) = 1.78128 8.35901 6.04343
#
# Compressibility (1/GPa) = 0.01408710
#
# Stress axis : x y z
#
# Youngs Moduli (GPa) = 56.74750 285.03118 70.56760
#
# Poissons Ratio (x) = -0.07338 0.53706
# Poissons Ratio (y) = -0.01461 0.22962
# Poissons Ratio (z) = 0.43188 0.92747
#
# Static dielectric constant tensor:
#      x y z
#    x 1.985690 0.000000 -0.024460 
#    y 0.000000 1.985280 0.000000 
#    z -0.024460 0.000000 1.943320 
# 
# From -- ./inp_files/52100.got.cif
#   From: 2010.05.17/outbox.cif.g08.bks.cpg/sg13_27_cif.got.tgz:52100.got - 2010.06.03 16:44:36.
