data_PCOD9228641
_publ_section_title
;
Structure prediction by ZEFSAII (Michael W. Deem and Ramdas Pophale) SiO2 
 PCOD9228641
Probable space group: P 2/C
;
_chemical_formula_sum "Si O2"
_cell_formula_units_Z 20
_cell_length_a 10.181633
_cell_length_b 11.612167
_cell_length_c 11.401945
_cell_angle_alpha 90.000000
_cell_angle_beta 139.521616
_cell_angle_gamma 90.000000
_cell_volume 875.109013
_symmetry_space_group_name_H-M "P 2/C"
_symmetry_group_IT_number 13
_symmetry_cell_setting 'monoclinic'
loop_
_space_group_symop_operation_xyz
x,y,z
-x,y,1/2-z
-x,-y,-z
x,-y,1/2+z
loop_
_atom_site_type_symbol
_atom_site_label
_atom_site_fract_x
_atom_site_fract_y
_atom_site_fract_z
Si Si1 0.655065 0.336776 0.618996
Si Si2 0.251285 0.949461 0.085641
Si Si3 0.284812 0.934742 0.369798
Si Si4 0.168338 0.689042 0.018346
Si Si5 0.777218 0.418215 0.198852
O O1 0.699683 0.204547 0.618017
O O2 0.668320 0.334403 0.770144
O O3 0.447762 0.379161 0.417582
O O4 0.800353 0.445477 0.696563
O O5 0.500000 0.939537 0.250000
O O6 0.190650 0.972428 0.180181
O O7 0.160103 0.825041 0.996548
O O8 0.202690 0.030026 0.941870
O O9 0.500000 0.000000 0.500000
O O10 0.212210 0.635610 0.922898
O O11 0.948039 0.636052 0.897413
#
# Coordination Sequence:
#
# PCOD9228641 Si02
#       5
#     4   4   4   4   4
#     4  10  20  36  56  82 115 150 192 245 297 348
#     4   9  17  32  58  85 115 159 201 244 299 356
#     4   9  17  32  57  83 114 154 195 240 297 352
#     4  10  19  35  58  80 112 150 192 241 299 356
#     4  10  20  33  57  84 107 148 198 237 295 362
#
# _framework density 22.854296000000001
#
# number of rings (size 3 to 8) (size 9 to 14) (size 15 to 20)
#    0.000    2.400    0.000    4.800    0.000    0.000 
#    0.000   14.000    0.000   78.000    0.000    0.000 
#    0.000    0.000    0.000    0.000    0.000    0.000 
#
# Total GULP energy -111425.392661 kJ/mol
# GULP energy per Si atom -5571.269633 kJ/mol
# Density = 2.280228 g / cm^3
# Si number density = 22.854296 Si / 1000 Ang^3
#
#
#
# Elastic Constant Matrix: (Units=GPa)
#
#
# Indices 1 2 3 4 5 6 
#
# 1 74.2483 34.6254 36.8030 0.0000 -28.2878 0.0000
# 2 34.6254 138.8555 81.4998 0.0000 -21.7958 0.0000
# 3 36.8030 81.4998 121.3345 0.0000 -0.0894 0.0000
# 4 0.0000 0.0000 0.0000 25.5609 0.0000 -12.1072
# 5 -28.2878 -21.7958 -0.0894 0.0000 46.2978 0.0000
# 6 0.0000 0.0000 0.0000 -12.1072 0.0000 26.6808
#
#
#
# Elastic Compliance Matrix: (Units=1/GPa)
#
#
# Indices 1 2 3 4 5 6 
#
# 1 0.021891 0.000996 -0.007299 0.000000 0.013830 0.000000
# 2 0.000996 0.013576 -0.009416 0.000000 0.006981 0.000000
# 3 -0.007299 -0.009416 0.016773 0.000000 -0.008860 0.000000
# 4 0.000000 0.000000 0.000000 0.049833 0.000000 0.022613
# 5 0.013830 0.006981 -0.008860 0.000000 0.033319 0.000000
# 6 0.000000 0.000000 0.000000 0.022613 0.000000 0.047742
#
#
# Mechanical properties :
#
#
# Convention : Reuss Voigt Hill
#
# Bulk Modulus (GPa) = 48.06981 71.14385 59.60683
# Shear Modulus (GPa) = 22.57288 31.80857 27.19073
#
# Velocity S-wave (km/s) = 3.14616 3.73473 3.45301
# Velocity P-wave (km/s) = 5.85462 7.05652 6.48348
#
# Compressibility (1/GPa) = 0.02080308
#
# Stress axis : x y z
#
# Youngs Moduli (GPa) = 45.68165 73.66133 59.61811
#
# Poissons Ratio (x) = -0.07337 0.43513
# Poissons Ratio (y) = -0.04550 0.56134
# Poissons Ratio (z) = 0.33341 0.69357
#
# Static dielectric constant tensor:
#      x y z
#    x 2.025180 0.000000 0.007860 
#    y 0.000000 1.816470 0.000000 
#    z 0.007860 0.000000 1.734190 
# 
# From -- ./inp_files/33034.got.cif
#   From: 2010.05.17/outbox.cif.g08.bks.cpg/sg13_17_cif.got.tgz:33034.got - 2010.06.03 16:44:36.
