data_PCOD9228922
_publ_section_title
;
Structure prediction by ZEFSAII (Michael W. Deem and Ramdas Pophale) SiO2 
 PCOD9228922
Probable space group: P 2/C
;
_chemical_formula_sum "Si O2"
_cell_formula_units_Z 26
_cell_length_a 9.107781
_cell_length_b 15.161633
_cell_length_c 14.242533
_cell_angle_alpha 90.000000
_cell_angle_beta 134.863874
_cell_angle_gamma 90.000000
_cell_volume 1393.991628
_symmetry_space_group_name_H-M "P 2/C"
_symmetry_group_IT_number 13
_symmetry_cell_setting 'monoclinic'
loop_
_space_group_symop_operation_xyz
x,y,z
-x,y,1/2-z
-x,-y,-z
x,-y,1/2+z
loop_
_atom_site_type_symbol
_atom_site_label
_atom_site_fract_x
_atom_site_fract_y
_atom_site_fract_z
Si Si1 0.988308 0.880794 0.401268
Si Si2 0.290270 0.266616 0.998593
Si Si3 0.185678 0.466846 0.648313
Si Si4 0.500000 0.311123 0.750000
Si Si5 0.500000 0.616674 0.750000
Si Si6 0.415768 0.829072 0.381014
Si Si7 0.680572 0.026630 0.906005
Si Si8 0.000000 0.391539 0.750000
O O1 0.114330 0.790961 0.470369
O O2 0.821415 0.861541 0.243845
O O3 0.837509 0.911908 0.416933
O O4 0.171268 0.953757 0.480017
O O5 0.428859 0.206426 0.992504
O O6 0.174186 0.330881 0.874619
O O7 0.408940 0.322320 0.128362
O O8 0.304838 0.379381 0.662877
O O9 0.337618 0.549378 0.721385
O O10 0.000000 0.500000 0.500000
O O11 0.100160 0.445829 0.711891
O O12 0.528897 0.246470 0.672423
O O13 0.562520 0.911738 0.426246
O O14 0.500000 0.994774 0.750000
#
# Coordination Sequence:
#
# PCOD9228922 Si02
#       8
#     4   4   4   2   2   4   4   2
#     4  10  19  36  60  92 124 164 203 255 306 371
#     4  12  23  40  64  94 123 165 214 257 304 379
#     4  11  24  41  64  94 128 162 202 265 317 372
#     4  11  20  38  63  94 122 166 213 250 314 381
#     4  11  28  42  61  96 128 162 205 264 324 361
#     4  11  20  38  65  94 120 169 213 253 305 380
#     4   9  20  35  60  95 126 163 208 257 312 362
#     4  12  22  40  70  92 116 168 214 248 314 380
#
# _framework density 18.651475000000001
#
# number of rings (size 3 to 8) (size 9 to 14) (size 15 to 20)
#    0.000    1.231    6.923    0.000    1.077    2.462 
#    0.000    0.000    0.000    0.000    0.000    0.000 
#    0.000    0.000    0.000    0.000    0.000    0.000 
#
# Total GULP energy -145039.706522 kJ/mol
# GULP energy per Si atom -5578.450251 kJ/mol
# Density = 1.860902 g / cm^3
# Si number density = 18.651475 Si / 1000 Ang^3
#
#
#
# Elastic Constant Matrix: (Units=GPa)
#
#
# Indices 1 2 3 4 5 6 
#
# 1 100.5361 52.3961 41.2572 0.0000 10.8159 0.0000
# 2 52.3961 94.2197 56.1336 0.0000 7.4447 0.0000
# 3 41.2572 56.1336 77.7592 0.0000 7.8130 0.0000
# 4 0.0000 0.0000 0.0000 8.8129 0.0000 -11.2750
# 5 10.8159 7.4447 7.8130 0.0000 29.8369 0.0000
# 6 0.0000 0.0000 0.0000 -11.2750 0.0000 24.3103
#
#
#
# Elastic Compliance Matrix: (Units=1/GPa)
#
#
# Indices 1 2 3 4 5 6 
#
# 1 0.014724 -0.006099 -0.003107 0.000000 -0.003002 0.000000
# 2 -0.006099 0.021189 -0.012068 0.000000 0.000084 0.000000
# 3 -0.003107 -0.012068 0.023421 0.000000 -0.001996 0.000000
# 4 0.000000 0.000000 0.000000 0.279056 0.000000 0.129425
# 5 -0.003002 0.000084 -0.001996 0.000000 0.035105 0.000000
# 6 0.000000 0.000000 0.000000 0.129425 0.000000 0.101162
#
#
# Mechanical properties :
#
#
# Convention : Reuss Voigt Hill
#
# Bulk Modulus (GPa) = 59.58130 63.56542 61.57336
# Shear Modulus (GPa) = 9.56388 20.77388 15.16888
#
# Velocity S-wave (km/s) = 2.26689 3.34097 2.85490
# Velocity P-wave (km/s) = 6.23423 7.00267 6.62960
#
# Compressibility (1/GPa) = 0.01678379
#
# Stress axis : x y z
#
# Youngs Moduli (GPa) = 67.91827 47.19508 42.69638
#
# Poissons Ratio (x) = 0.28787 0.13267
# Poissons Ratio (y) = 0.41427 0.51526
# Poissons Ratio (z) = 0.21104 0.56956
#
# Static dielectric constant tensor:
#      x y z
#    x 1.658280 0.000000 0.015490 
#    y 0.000000 1.657670 0.000000 
#    z 0.015490 0.000000 1.636390 
# 
# From -- ./inp_files/47836.got.cif
#   From: 2010.05.17/outbox.cif.g08.bks.cpg/sg13_24_cif.got.tgz:47836.got - 2010.06.03 16:44:36.
