data_PCOD9228114
_publ_section_title
;
Structure prediction by ZEFSAII (Michael W. Deem and Ramdas Pophale) SiO2 
 PCOD9228114
Probable space group: P 2/C
;
_chemical_formula_sum "Si O2"
_cell_formula_units_Z 32
_cell_length_a 7.990028
_cell_length_b 12.905733
_cell_length_c 18.947954
_cell_angle_alpha 90.000000
_cell_angle_beta 53.809049
_cell_angle_gamma 90.000000
_cell_volume 1576.869187
_symmetry_space_group_name_H-M "P 2/C"
_symmetry_group_IT_number 13
_symmetry_cell_setting 'monoclinic'
loop_
_space_group_symop_operation_xyz
x,y,z
-x,y,1/2-z
-x,-y,-z
x,-y,1/2+z
loop_
_atom_site_type_symbol
_atom_site_label
_atom_site_fract_x
_atom_site_fract_y
_atom_site_fract_z
Si Si1 0.859176 0.573008 0.983986
Si Si2 0.712522 0.641887 0.164499
Si Si3 0.897168 0.447818 0.845232
Si Si4 0.709299 0.035541 0.155362
Si Si5 0.983863 0.203448 0.429967
Si Si6 0.588116 0.072415 0.540123
Si Si7 0.947801 0.160859 0.603497
Si Si8 0.783598 0.221545 0.844981
O O1 0.777869 0.513504 0.934806
O O2 0.977137 0.673459 0.923484
O O3 0.710296 0.620405 0.081340
O O4 0.000000 0.500000 0.000000
O O5 0.500000 0.606091 0.250000
O O6 0.756749 0.762774 0.169128
O O7 0.906386 0.590585 0.156688
O O8 0.774171 0.346781 0.846624
O O9 0.000000 0.499532 0.750000
O O10 0.500000 0.021577 0.250000
O O11 0.808897 0.146847 0.146378
O O12 0.670341 0.001060 0.083511
O O13 0.883426 0.954282 0.136813
O O14 0.771275 0.144482 0.461932
O O15 0.984002 0.180005 0.513103
O O16 0.416740 0.150812 0.617774
O O17 0.500000 0.000000 0.500000
O O18 0.153505 0.195087 0.591013
O O19 0.000000 0.194734 0.750000
#
# Coordination Sequence:
#
# PCOD9228114 Si02
#       8
#     4   4   4   4   4   4   4   4
#     4   9  19  37  58  76 105 147 186 229 274 320
#     4   9  17  31  54  82 106 136 183 230 274 327
#     4   9  19  34  53  78 110 143 180 232 280 319
#     4  11  21  35  56  80 108 144 183 221 264 323
#     4  10  21  37  56  79 107 143 188 225 263 324
#     4  11  22  36  56  82 114 145 174 217 276 333
#     4   9  17  32  54  78 108 141 175 220 272 326
#     4  10  19  32  53  83 113 139 176 228 277 322
#
# _framework density 20.293375999999999
#
# number of rings (size 3 to 8) (size 9 to 14) (size 15 to 20)
#    0.000    2.250    0.000    4.875    0.000    8.000 
#    0.000    6.250    0.000    0.000    0.000    0.000 
#    0.000    0.000    0.000    0.000    0.000    0.000 
#
# Total GULP energy -178186.453136 kJ/mol
# GULP energy per Si atom -5568.326661 kJ/mol
# Density = 2.024719 g / cm^3
# Si number density = 20.293376 Si / 1000 Ang^3
#
#
#
# Elastic Constant Matrix: (Units=GPa)
#
#
# Indices 1 2 3 4 5 6 
#
# 1 51.6165 18.5516 6.8924 0.0000 1.6516 0.0000
# 2 18.5516 86.1801 15.9591 0.0000 0.4783 0.0000
# 3 6.8924 15.9591 47.9537 0.0000 8.1714 0.0000
# 4 0.0000 0.0000 0.0000 19.3778 0.0000 8.7737
# 5 1.6516 0.4783 8.1714 0.0000 27.1499 0.0000
# 6 0.0000 0.0000 0.0000 8.7737 0.0000 17.0205
#
#
#
# Elastic Compliance Matrix: (Units=1/GPa)
#
#
# Indices 1 2 3 4 5 6 
#
# 1 0.021131 -0.004269 -0.001486 0.000000 -0.000763 0.000000
# 2 -0.004269 0.013258 -0.004009 0.000000 0.001233 0.000000
# 3 -0.001486 -0.004009 0.023583 0.000000 -0.006937 0.000000
# 4 0.000000 0.000000 0.000000 0.067317 0.000000 -0.034700
# 5 -0.000763 0.001233 -0.006937 0.000000 0.038945 0.000000
# 6 0.000000 0.000000 0.000000 -0.034700 0.000000 0.076640
#
#
# Mechanical properties :
#
#
# Convention : Reuss Voigt Hill
#
# Bulk Modulus (GPa) = 26.01213 29.83962 27.92587
# Shear Modulus (GPa) = 18.30048 22.33279 20.31663
#
# Velocity S-wave (km/s) = 3.00625 3.32097 3.16752
# Velocity P-wave (km/s) = 4.98958 5.42597 5.21235
#
# Compressibility (1/GPa) = 0.03844360
#
# Stress axis : x y z
#
# Youngs Moduli (GPa) = 47.32394 75.42527 42.40297
#
# Poissons Ratio (x) = 0.32201 0.06303
# Poissons Ratio (y) = 0.20204 0.16998
# Poissons Ratio (z) = 0.07034 0.30236
#
# Static dielectric constant tensor:
#      x y z
#    x 1.783870 0.000000 -0.022020 
#    y 0.000000 1.846190 0.000000 
#    z -0.022020 0.000000 1.789450 
# 
# From -- ./inp_files/76440.got.cif
#   From: 2010.05.17/outbox.cif.g08.bks.cpg/sg13_39_cif.got.tgz:76440.got - 2010.06.03 16:44:36.
