data_PCOD9228820
_publ_section_title
;
Structure prediction by ZEFSAII (Michael W. Deem and Ramdas Pophale) SiO2 
 PCOD9228820
Probable space group: P 2/C
;
_chemical_formula_sum "Si O2"
_cell_formula_units_Z 30
_cell_length_a 5.232485
_cell_length_b 8.681053
_cell_length_c 30.613972
_cell_angle_alpha 90.000000
_cell_angle_beta 90.622092
_cell_angle_gamma 90.000000
_cell_volume 1390.511168
_symmetry_space_group_name_H-M "P 2/C"
_symmetry_group_IT_number 13
_symmetry_cell_setting 'monoclinic'
loop_
_space_group_symop_operation_xyz
x,y,z
-x,y,1/2-z
-x,-y,-z
x,-y,1/2+z
loop_
_atom_site_type_symbol
_atom_site_label
_atom_site_fract_x
_atom_site_fract_y
_atom_site_fract_z
Si Si1 0.008023 0.010348 0.448160
Si Si2 0.991742 0.274025 0.889625
Si Si3 0.487978 0.853388 0.905034
Si Si4 0.125712 0.773473 0.702972
Si Si5 0.762623 0.435287 0.368775
Si Si6 0.500000 0.580533 0.750000
Si Si7 0.386689 0.650038 0.313330
Si Si8 0.366698 0.062084 0.668811
O O1 0.232157 0.123478 0.431915
O O2 0.734969 0.072418 0.429939
O O3 0.076763 0.841533 0.427894
O O4 0.000000 0.000000 0.500000
O O5 0.191105 0.313811 0.851614
O O6 0.892769 0.443828 0.902003
O O7 0.775921 0.171215 0.865801
O O8 0.572239 0.681897 0.892132
O O9 0.456594 0.949746 0.859732
O O10 0.047225 0.671770 0.660572
O O11 0.401348 0.698662 0.713636
O O12 0.000000 0.755939 0.750000
O O13 0.163217 0.950098 0.690900
O O14 0.614193 0.549872 0.335478
O O15 0.693826 0.459320 0.727092
O O16 0.486258 0.818889 0.300340
#
# Coordination Sequence:
#
# PCOD9228820 Si02
#       8
#     4   4   4   4   4   2   4   4
#     4  11  23  41  66  92 126 160 202 257 312 374
#     4  10  20  37  61  83 112 160 200 246 313 371
#     4  10  21  41  62  93 121 160 206 246 307 369
#     4  10  20  36  51  79 116 151 206 252 311 350
#     4   9  21  37  60  85 117 160 205 251 308 376
#     4  10  22  32  50  80 110 154 190 256 302 354
#     4  10  19  36  56  81 117 149 202 248 310 360
#     4   9  20  35  54  82 109 155 200 248 293 372
#
# _framework density 21.574798999999999
#
# number of rings (size 3 to 8) (size 9 to 14) (size 15 to 20)
#    0.000    2.133    1.333    1.200    1.867    2.667 
#    7.200    2.667    0.000    0.000    0.000    0.000 
#    0.000    0.000    0.000    0.000    0.000    0.000 
#
# Total GULP energy -167137.542093 kJ/mol
# GULP energy per Si atom -5571.251403 kJ/mol
# Density = 2.152569 g / cm^3
# Si number density = 21.574799 Si / 1000 Ang^3
#
#
#
# Elastic Constant Matrix: (Units=GPa)
#
#
# Indices 1 2 3 4 5 6 
#
# 1 45.5061 15.6832 13.8922 0.0000 -12.2683 0.0000
# 2 15.6832 156.9728 42.4931 0.0000 -6.7036 0.0000
# 3 13.8922 42.4931 91.9478 0.0000 -19.0435 0.0000
# 4 0.0000 0.0000 0.0000 21.5230 0.0000 -1.6332
# 5 -12.2683 -6.7036 -19.0435 0.0000 27.0080 0.0000
# 6 0.0000 0.0000 0.0000 -1.6332 0.0000 16.3062
#
#
#
# Elastic Compliance Matrix: (Units=1/GPa)
#
#
# Indices 1 2 3 4 5 6 
#
# 1 0.025749 -0.001899 -0.000805 0.000000 0.010657 0.000000
# 2 -0.001899 0.007432 -0.003448 0.000000 -0.001449 0.000000
# 3 -0.000805 -0.003448 0.014448 0.000000 0.008966 0.000000
# 4 0.000000 0.000000 0.000000 0.046818 0.000000 0.004689
# 5 0.010657 -0.001449 0.008966 0.000000 0.047829 0.000000
# 6 0.000000 0.000000 0.000000 0.004689 0.000000 0.061796
#
#
# Mechanical properties :
#
#
# Convention : Reuss Voigt Hill
#
# Bulk Modulus (GPa) = 28.31006 48.72928 38.51967
# Shear Modulus (GPa) = 21.91539 27.79130 24.85334
#
# Velocity S-wave (km/s) = 3.19060 3.59296 3.39774
# Velocity P-wave (km/s) = 5.16948 6.31250 5.76937
#
# Compressibility (1/GPa) = 0.03532314
#
# Stress axis : x y z
#
# Youngs Moduli (GPa) = 38.83698 134.55844 69.21568
#
# Poissons Ratio (x) = 0.25559 0.05574
# Poissons Ratio (y) = 0.07377 0.23863
# Poissons Ratio (z) = 0.03128 0.46391
#
# Static dielectric constant tensor:
#      x y z
#    x 1.895940 0.000000 0.025580 
#    y 0.000000 1.820660 0.000000 
#    z 0.025580 0.000000 1.851790 
# 
# From -- ./inp_files/94869.got.cif
#   From: 2010.05.17/outbox.cif.g08.bks.cpg/sg13_48_cif.got.tgz:94869.got - 2010.06.03 16:44:36.
