data_PCOD9228388
_publ_section_title
;
Structure prediction by ZEFSAII (Michael W. Deem and Ramdas Pophale) SiO2 
 PCOD9228388
Probable space group: P 2/C
;
_chemical_formula_sum "Si O2"
_cell_formula_units_Z 22
_cell_length_a 16.498014
_cell_length_b 5.152953
_cell_length_c 18.698334
_cell_angle_alpha 90.000000
_cell_angle_beta 149.329279
_cell_angle_gamma 90.000000
_cell_volume 810.865880
_symmetry_space_group_name_H-M "P 2/C"
_symmetry_group_IT_number 13
_symmetry_cell_setting 'monoclinic'
loop_
_space_group_symop_operation_xyz
x,y,z
-x,y,1/2-z
-x,-y,-z
x,-y,1/2+z
loop_
_atom_site_type_symbol
_atom_site_label
_atom_site_fract_x
_atom_site_fract_y
_atom_site_fract_z
Si Si1 0.366970 0.783659 0.514125
Si Si2 0.224343 0.769687 0.673157
Si Si3 0.500000 0.468348 0.250000
Si Si4 0.298031 0.257954 0.809709
Si Si5 0.018954 0.998146 0.907708
Si Si6 0.226119 0.296390 0.465956
O O1 0.490728 0.706804 0.671547
O O2 0.405301 0.721608 0.460979
O O3 0.309126 0.077479 0.480074
O O4 0.228161 0.573253 0.429195
O O5 0.284639 0.497023 0.746852
O O6 0.169088 0.841011 0.551542
O O7 0.327974 0.004684 0.784554
O O8 0.053901 0.806400 0.587151
O O9 0.653592 0.649625 0.375962
O O10 0.124535 0.195743 0.711675
O O11 0.068823 0.826099 0.878900
#
# Coordination Sequence:
#
# PCOD9228388 Si02
#       6
#     4   4   2   4   4   4
#     4  10  21  36  53  83 107 143 185 225 283 321
#     4   9  20  34  52  80 108 153 178 212 280 329
#     4   8  22  36  58  74 110 142 198 216 282 314
#     4  10  19  34  53  78 114 142 174 227 273 335
#     4   9  21  33  56  77 114 142 188 217 273 334
#     4  10  21  35  55  81 105 146 183 230 270 325
#
# _framework density 27.131492999999999
#
# number of rings (size 3 to 8) (size 9 to 14) (size 15 to 20)
#    2.182    0.364    0.000    2.182    2.545    0.727 
#    0.000    0.000    0.000    2.182    0.000    0.000 
#    0.000    0.000    0.000    0.000    0.000    0.000 
#
# Total GULP energy -123034.603978 kJ/mol
# GULP energy per Si atom -5592.481999 kJ/mol
# Density = 2.706974 g / cm^3
# Si number density = 27.131493 Si / 1000 Ang^3
#
#
#
# Elastic Constant Matrix: (Units=GPa)
#
#
# Indices 1 2 3 4 5 6 
#
# 1 61.6012 24.2534 25.8769 0.0000 -18.7721 0.0000
# 2 24.2534 159.9131 57.1748 0.0000 -20.5667 0.0000
# 3 25.8769 57.1748 135.1852 0.0000 -23.1959 0.0000
# 4 0.0000 0.0000 0.0000 33.7223 0.0000 -10.7905
# 5 -18.7721 -20.5667 -23.1959 0.0000 41.7116 0.0000
# 6 0.0000 0.0000 0.0000 -10.7905 0.0000 40.9244
#
#
#
# Elastic Compliance Matrix: (Units=1/GPa)
#
#
# Indices 1 2 3 4 5 6 
#
# 1 0.019777 -0.001375 -0.001982 0.000000 0.007120 0.000000
# 2 -0.001375 0.007633 -0.002681 0.000000 0.001654 0.000000
# 3 -0.001982 -0.002681 0.009431 0.000000 0.003030 0.000000
# 4 0.000000 0.000000 0.000000 0.032386 0.000000 0.008539
# 5 0.007120 0.001654 0.003030 0.000000 0.029679 0.000000
# 6 0.000000 0.000000 0.000000 0.008539 0.000000 0.026687
#
#
# Mechanical properties :
#
#
# Convention : Reuss Voigt Hill
#
# Bulk Modulus (GPa) = 40.38178 63.47886 51.93032
# Shear Modulus (GPa) = 34.26389 39.89796 37.08092
#
# Velocity S-wave (km/s) = 3.55756 3.83892 3.70092
# Velocity P-wave (km/s) = 5.63835 6.56485 6.11916
#
# Compressibility (1/GPa) = 0.02476364
#
# Stress axis : x y z
#
# Youngs Moduli (GPa) = 50.56276 131.00401 106.03611
#
# Poissons Ratio (x) = 0.18013 0.21021
# Poissons Ratio (y) = 0.06952 0.28433
# Poissons Ratio (z) = 0.10024 0.35128
#
# Static dielectric constant tensor:
#      x y z
#    x 2.268810 0.000000 0.142790 
#    y 0.000000 2.024990 0.000000 
#    z 0.142790 0.000000 2.238110 
# 
# From -- ./inp_files/81869.got.cif
#   From: 2010.05.17/outbox.cif.g08.bks.cpg/sg13_41_cif.got.tgz:81869.got - 2010.06.03 16:44:36.
