data_PCOD9228595
_publ_section_title
;
Structure prediction by ZEFSAII (Michael W. Deem and Ramdas Pophale) SiO2 
 PCOD9228595
Probable space group: P 2/C
;
_chemical_formula_sum "Si O2"
_cell_formula_units_Z 20
_cell_length_a 5.068059
_cell_length_b 16.259509
_cell_length_c 12.596337
_cell_angle_alpha 90.000000
_cell_angle_beta 76.620070
_cell_angle_gamma 90.000000
_cell_volume 1009.816277
_symmetry_space_group_name_H-M "P 2/C"
_symmetry_group_IT_number 13
_symmetry_cell_setting 'monoclinic'
loop_
_space_group_symop_operation_xyz
x,y,z
-x,y,1/2-z
-x,-y,-z
x,-y,1/2+z
loop_
_atom_site_type_symbol
_atom_site_label
_atom_site_fract_x
_atom_site_fract_y
_atom_site_fract_z
Si Si1 0.828077 0.025875 0.361677
Si Si2 0.665319 0.437900 0.125666
Si Si3 0.222880 0.266438 0.822925
Si Si4 0.692623 0.914144 0.092977
Si Si5 0.764340 0.391247 0.492875
O O1 0.575231 0.967253 0.355788
O O2 0.000000 0.065353 0.250000
O O3 0.047775 0.964213 0.391270
O O4 0.719201 0.086974 0.462252
O O5 0.500000 0.442196 0.250000
O O6 0.495537 0.381612 0.058660
O O7 0.973511 0.407506 0.104482
O O8 0.696460 0.528084 0.069816
O O9 0.500000 0.302778 0.750000
O O10 0.291765 0.174857 0.857006
O O11 0.000000 0.265495 0.750000
O O12 0.157700 0.320088 0.932156
#
# Coordination Sequence:
#
# PCOD9228595 Si02
#       5
#     4   4   4   4   4
#     4  10  19  35  55  78 109 145 183 227 272 326
#     4  10  20  38  59  81 112 150 188 231 275 329
#     4  12  23  37  58  84 116 147 182 238 291 331
#     4  10  21  34  55  82 107 141 187 225 273 336
#     4  10  22  36  57  86 112 144 192 230 275 339
#
# _framework density 19.805582000000001
#
# number of rings (size 3 to 8) (size 9 to 14) (size 15 to 20)
#    0.000    1.600    0.000    6.000    0.000    3.200 
#    0.000    2.000    0.000    0.000    0.000    0.000 
#    0.000    0.000    0.000    0.000    0.000    0.000 
#
# Total GULP energy -111595.930674 kJ/mol
# GULP energy per Si atom -5579.796534 kJ/mol
# Density = 1.976050 g / cm^3
# Si number density = 19.805582 Si / 1000 Ang^3
#
#
#
# Elastic Constant Matrix: (Units=GPa)
#
#
# Indices 1 2 3 4 5 6 
#
# 1 131.4698 25.2358 35.6819 0.0000 2.1720 0.0000
# 2 25.2358 41.0863 21.6814 0.0000 5.5307 0.0000
# 3 35.6819 21.6814 136.4965 0.0000 -19.7835 0.0000
# 4 0.0000 0.0000 0.0000 24.3299 0.0000 -2.1831
# 5 2.1720 5.5307 -19.7835 0.0000 38.1753 0.0000
# 6 0.0000 0.0000 0.0000 -2.1831 0.0000 8.7711
#
#
#
# Elastic Compliance Matrix: (Units=1/GPa)
#
#
# Indices 1 2 3 4 5 6 
#
# 1 0.008950 -0.004477 -0.001739 0.000000 -0.000762 0.000000
# 2 -0.004477 0.030399 -0.004606 0.000000 -0.006536 0.000000
# 3 -0.001739 -0.004606 0.009324 0.000000 0.005598 0.000000
# 4 0.000000 0.000000 0.000000 0.042041 0.000000 0.010464
# 5 -0.000762 -0.006536 0.005598 0.000000 0.030086 0.000000
# 6 0.000000 0.000000 0.000000 0.010464 0.000000 0.116616
#
#
# Mechanical properties :
#
#
# Convention : Reuss Voigt Hill
#
# Bulk Modulus (GPa) = 36.99640 52.69452 44.84546
# Shear Modulus (GPa) = 18.65191 29.35215 24.00203
#
# Velocity S-wave (km/s) = 3.07212 3.85387 3.48499
# Velocity P-wave (km/s) = 5.59502 6.81665 6.23582
#
# Compressibility (1/GPa) = 0.02702965
#
# Stress axis : x y z
#
# Youngs Moduli (GPa) = 111.72859 32.89563 107.25362
#
# Poissons Ratio (x) = 0.14728 0.18651
# Poissons Ratio (y) = 0.50023 0.49397
# Poissons Ratio (z) = 0.19429 0.15150
#
# Static dielectric constant tensor:
#      x y z
#    x 1.703790 0.000000 -0.018190 
#    y 0.000000 1.659520 0.000000 
#    z -0.018190 0.000000 1.831270 
# 
# From -- ./inp_files/26399.got.cif
#   From: 2010.05.17/outbox.cif.g08.bks.cpg/sg13_14_cif.got.tgz:26399.got - 2010.06.03 16:44:36.
