data_PCOD9228498
_publ_section_title
;
Structure prediction by ZEFSAII (Michael W. Deem and Ramdas Pophale) SiO2 
 PCOD9228498
Probable space group: P 2/C
;
_chemical_formula_sum "Si O2"
_cell_formula_units_Z 28
_cell_length_a 5.694899
_cell_length_b 16.083289
_cell_length_c 15.158847
_cell_angle_alpha 90.000000
_cell_angle_beta 56.758543
_cell_angle_gamma 90.000000
_cell_volume 1161.246498
_symmetry_space_group_name_H-M "P 2/C"
_symmetry_group_IT_number 13
_symmetry_cell_setting 'monoclinic'
loop_
_space_group_symop_operation_xyz
x,y,z
-x,y,1/2-z
-x,-y,-z
x,-y,1/2+z
loop_
_atom_site_type_symbol
_atom_site_label
_atom_site_fract_x
_atom_site_fract_y
_atom_site_fract_z
Si Si1 0.913344 0.039630 0.924492
Si Si2 0.752510 0.193923 0.632957
Si Si3 0.895567 0.382987 0.589526
Si Si4 0.257243 0.619872 0.846109
Si Si5 0.593418 0.580302 0.423893
Si Si6 0.297376 0.697416 0.620465
Si Si7 0.312388 0.875246 0.554549
O O1 0.622493 0.087699 0.999150
O O2 0.109067 0.112889 0.849897
O O3 0.875778 0.954243 0.879782
O O4 0.000000 0.000000 0.000000
O O5 0.500000 0.215626 0.750000
O O6 0.909299 0.282101 0.590260
O O7 0.707282 0.158836 0.542901
O O8 0.580160 0.410365 0.630405
O O9 0.080466 0.411864 0.466109
O O10 0.069807 0.417141 0.636846
O O11 0.500000 0.564151 0.750000
O O12 0.484915 0.681831 0.844601
O O13 0.007709 0.654286 0.835170
O O14 0.500000 0.500000 0.500000
O O15 0.476914 0.660494 0.501465
O O16 0.253267 0.794760 0.623317
#
# Coordination Sequence:
#
# PCOD9228498 Si02
#       7
#     4   4   4   4   4   4   4
#     4   9  20  35  60  82 112 158 202 253 309 362
#     4  11  22  38  63  89 124 170 210 255 316 385
#     4  10  21  38  60  89 120 161 208 253 314 369
#     4  10  19  34  58  84 111 145 198 250 299 363
#     4  10  19  35  62  89 121 163 207 252 317 382
#     4  10  20  34  60  88 116 154 200 248 315 365
#     4  10  19  38  61  84 118 163 205 262 310 372
#
# _framework density 24.112022
#
# number of rings (size 3 to 8) (size 9 to 14) (size 15 to 20)
#    0.000    2.000    2.857    2.571    2.000    0.571 
#    0.000    0.714    9.429   20.571    0.000    0.000 
#    0.000    0.000    0.000    0.000    0.000    0.000 
#
# Total GULP energy -155939.283139 kJ/mol
# GULP energy per Si atom -5569.260112 kJ/mol
# Density = 2.405714 g / cm^3
# Si number density = 24.112022 Si / 1000 Ang^3
#
#
#
# Elastic Constant Matrix: (Units=GPa)
#
#
# Indices 1 2 3 4 5 6 
#
# 1 196.2444 53.5833 39.5446 0.0000 2.4639 0.0000
# 2 53.5833 164.4119 27.3505 0.0000 -1.9094 0.0000
# 3 39.5446 27.3505 75.3039 0.0000 4.6712 0.0000
# 4 0.0000 0.0000 0.0000 1.4753 0.0000 -1.2666
# 5 2.4639 -1.9094 4.6712 0.0000 23.6348 0.0000
# 6 0.0000 0.0000 0.0000 -1.2666 0.0000 36.9758
#
#
#
# Elastic Compliance Matrix: (Units=1/GPa)
#
#
# Indices 1 2 3 4 5 6 
#
# 1 0.006043 -0.001540 -0.002599 0.000000 -0.000241 0.000000
# 2 -0.001540 0.006889 -0.001760 0.000000 0.001065 0.000000
# 3 -0.002599 -0.001760 0.015465 0.000000 -0.002928 0.000000
# 4 0.000000 0.000000 0.000000 0.698381 0.000000 0.023922
# 5 -0.000241 0.001065 -0.002928 0.000000 0.043000 0.000000
# 6 0.000000 0.000000 0.000000 0.023922 0.000000 0.027864
#
#
# Mechanical properties :
#
#
# Convention : Reuss Voigt Hill
#
# Bulk Modulus (GPa) = 60.24069 75.21299 67.72684
# Shear Modulus (GPa) = 6.13517 33.44929 19.79223
#
# Velocity S-wave (km/s) = 1.59686 3.72862 2.86815
# Velocity P-wave (km/s) = 5.33272 7.05674 6.25442
#
# Compressibility (1/GPa) = 0.01660008
#
# Stress axis : x y z
#
# Youngs Moduli (GPa) = 165.48345 145.15433 64.66166
#
# Poissons Ratio (x) = 0.22352 0.16806
# Poissons Ratio (y) = 0.25482 0.11378
# Poissons Ratio (z) = 0.43011 0.25541
#
# Static dielectric constant tensor:
#      x y z
#    x 2.029900 0.000000 0.097080 
#    y 0.000000 1.998140 0.000000 
#    z 0.097080 0.000000 2.502680 
# 
# From -- ./inp_files/61521.got.cif
#   From: 2010.05.17/outbox.cif.g08.bks.cpg/sg13_31_cif.got.tgz:61521.got - 2010.06.03 16:44:36.
