data_PCOD9228229
_publ_section_title
;
Structure prediction by ZEFSAII (Michael W. Deem and Ramdas Pophale) SiO2 
 PCOD9228229
Probable space group: P 2/C
;
_chemical_formula_sum "Si O2"
_cell_formula_units_Z 20
_cell_length_a 11.583258
_cell_length_b 10.638549
_cell_length_c 7.608060
_cell_angle_alpha 90.000000
_cell_angle_beta 106.620888
_cell_angle_gamma 90.000000
_cell_volume 898.362354
_symmetry_space_group_name_H-M "P 2/C"
_symmetry_group_IT_number 13
_symmetry_cell_setting 'monoclinic'
loop_
_space_group_symop_operation_xyz
x,y,z
-x,y,1/2-z
-x,-y,-z
x,-y,1/2+z
loop_
_atom_site_type_symbol
_atom_site_label
_atom_site_fract_x
_atom_site_fract_y
_atom_site_fract_z
Si Si1 0.737056 0.424225 0.658922
Si Si2 0.500000 0.979619 0.750000
Si Si3 0.625752 0.829252 0.511395
Si Si4 0.189585 0.312205 0.187521
Si Si5 0.958023 0.641106 0.430134
Si Si6 0.500000 0.387585 0.750000
O O1 0.749281 0.355554 0.474610
O O2 0.801467 0.560456 0.691188
O O3 0.815092 0.346769 0.838606
O O4 0.603589 0.449205 0.675190
O O5 0.530124 0.888913 0.603718
O O6 0.386018 0.069650 0.652427
O O7 0.741752 0.796193 0.677753
O O8 0.573268 0.701112 0.413485
O O9 0.050460 0.279656 0.087266
O O10 0.000000 0.662050 0.250000
O O11 0.000000 0.500000 0.500000
#
# Coordination Sequence:
#
# PCOD9228229 Si02
#       6
#     4   2   4   4   4   2
#     4  10  20  32  49  80 118 143 169 208 251 321
#     4   9  20  37  54  74 104 133 182 237 268 312
#     4  10  20  35  54  77  99 137 180 221 271 311
#     4  10  19  33  54  78 108 144 178 211 257 315
#     4   8  16  31  49  72 104 142 176 205 241 298
#     4  11  22  33  50  80 110 139 170 207 270 328
#
# _framework density 22.262733000000001
#
# number of rings (size 3 to 8) (size 9 to 14) (size 15 to 20)
#    0.000    2.400    0.000    2.400    0.000    5.600 
#    0.000    0.000    0.000    0.000    0.000   63.000 
#    0.000    0.000    0.000    0.000    0.000    0.000 
#
# Total GULP energy -111372.855557 kJ/mol
# GULP energy per Si atom -5568.642778 kJ/mol
# Density = 2.221206 g / cm^3
# Si number density = 22.262733 Si / 1000 Ang^3
#
#
#
# Elastic Constant Matrix: (Units=GPa)
#
#
# Indices 1 2 3 4 5 6 
#
# 1 88.4402 0.9505 48.4349 0.0000 13.9906 0.0000
# 2 0.9505 33.9866 28.1596 0.0000 9.3222 0.0000
# 3 48.4349 28.1596 151.0217 0.0000 16.7431 0.0000
# 4 0.0000 0.0000 0.0000 30.2391 0.0000 8.6800
# 5 13.9906 9.3222 16.7431 0.0000 53.0357 0.0000
# 6 0.0000 0.0000 0.0000 8.6800 0.0000 14.6614
#
#
#
# Elastic Compliance Matrix: (Units=1/GPa)
#
#
# Indices 1 2 3 4 5 6 
#
# 1 0.014603 0.004762 -0.005235 0.000000 -0.003037 0.000000
# 2 0.004762 0.037286 -0.007890 0.000000 -0.005319 0.000000
# 3 -0.005235 -0.007890 0.009808 0.000000 -0.000329 0.000000
# 4 0.000000 0.000000 0.000000 0.039840 0.000000 -0.023587
# 5 -0.003037 -0.005319 -0.000329 0.000000 0.020695 0.000000
# 6 0.000000 0.000000 0.000000 -0.023587 0.000000 0.082170
#
#
# Mechanical properties :
#
#
# Convention : Reuss Voigt Hill
#
# Bulk Modulus (GPa) = 22.23620 47.61539 34.92579
# Shear Modulus (GPa) = 21.17575 32.64748 26.91161
#
# Velocity S-wave (km/s) = 3.08746 3.83360 3.48058
# Velocity P-wave (km/s) = 4.76651 6.40544 5.64576
#
# Compressibility (1/GPa) = 0.04497171
#
# Stress axis : x y z
#
# Youngs Moduli (GPa) = 68.47881 26.81949 101.95791
#
# Poissons Ratio (x) = -0.12771 0.53371
# Poissons Ratio (y) = -0.32607 0.80443
# Poissons Ratio (z) = 0.35846 0.21160
#
# Static dielectric constant tensor:
#      x y z
#    x 1.936780 0.000000 0.007190 
#    y 0.000000 1.787800 0.000000 
#    z 0.007190 0.000000 1.974880 
# 
# From -- ./inp_files/15309.got.cif
#   From: 2010.05.17/outbox.cif.g08.bks.cpg/sg13_8_cif.got.tgz:15309.got - 2010.06.03 16:44:36.
