data_PCOD9228576
_publ_section_title
;
Structure prediction by ZEFSAII (Michael W. Deem and Ramdas Pophale) SiO2 
 PCOD9228576
Probable space group: P 2/C
;
_chemical_formula_sum "Si O2"
_cell_formula_units_Z 22
_cell_length_a 19.810920
_cell_length_b 6.695588
_cell_length_c 8.232426
_cell_angle_alpha 90.000000
_cell_angle_beta 43.872184
_cell_angle_gamma 90.000000
_cell_volume 756.810208
_symmetry_space_group_name_H-M "P 2/C"
_symmetry_group_IT_number 13
_symmetry_cell_setting 'monoclinic'
loop_
_space_group_symop_operation_xyz
x,y,z
-x,y,1/2-z
-x,-y,-z
x,-y,1/2+z
loop_
_atom_site_type_symbol
_atom_site_label
_atom_site_fract_x
_atom_site_fract_y
_atom_site_fract_z
Si Si1 0.238886 0.813985 0.330835
Si Si2 0.500000 0.278814 0.750000
Si Si3 0.939739 0.223869 0.188660
Si Si4 0.592100 0.096699 0.167857
Si Si5 0.120784 0.308614 0.709867
Si Si6 0.689576 0.614462 0.754743
O O1 0.162213 0.890256 0.599199
O O2 0.177890 0.739502 0.278891
O O3 0.289260 0.617141 0.316944
O O4 0.324565 0.951171 0.111561
O O5 0.598192 0.390286 0.534370
O O6 0.455840 0.115078 0.698405
O O7 0.908350 0.457027 0.235051
O O8 0.000000 0.201942 0.250000
O O9 0.016586 0.195642 0.908326
O O10 0.500000 0.204140 0.250000
O O11 0.643480 0.248237 0.196503
O O12 0.198795 0.298896 0.426194
#
# Coordination Sequence:
#
# PCOD9228576 Si02
#       6
#     4   2   4   4   4   4
#     4   9  17  30  50  79 100 129 164 210 253 297
#     4  10  22  36  50  68  98 146 172 208 250 292
#     4   8  13  25  47  74 105 127 150 196 258 299
#     4   9  21  36  49  71 101 136 169 212 254 293
#     4   8  15  28  47  76 105 126 157 203 249 300
#     4  10  19  35  52  74 100 131 176 207 249 302
#
# _framework density 29.069375000000001
#
# number of rings (size 3 to 8) (size 9 to 14) (size 15 to 20)
#    0.545    2.545    0.000    0.545    1.273    0.727 
#    6.545    0.000    0.000    1.091    0.000   50.909 
#    0.000    0.000    0.000    0.000    0.000    0.000 
#
# Total GULP energy -122854.424998 kJ/mol
# GULP energy per Si atom -5584.292045 kJ/mol
# Density = 2.900321 g / cm^3
# Si number density = 29.069375 Si / 1000 Ang^3
#
#
#
# Elastic Constant Matrix: (Units=GPa)
#
#
# Indices 1 2 3 4 5 6 
#
# 1 102.0066 41.7433 27.4406 0.0000 -3.4461 0.0000
# 2 41.7433 81.0618 54.8952 0.0000 -13.4531 0.0000
# 3 27.4406 54.8952 289.0945 0.0000 -35.5620 0.0000
# 4 0.0000 0.0000 0.0000 65.3472 0.0000 -10.9808
# 5 -3.4461 -13.4531 -35.5620 0.0000 34.4679 0.0000
# 6 0.0000 0.0000 0.0000 -10.9808 0.0000 37.6939
#
#
#
# Elastic Compliance Matrix: (Units=1/GPa)
#
#
# Indices 1 2 3 4 5 6 
#
# 1 0.012482 -0.006592 -0.000110 0.000000 -0.001438 0.000000
# 2 -0.006592 0.017943 -0.002292 0.000000 0.003980 0.000000
# 3 -0.000110 -0.002292 0.004345 0.000000 0.003577 0.000000
# 4 0.000000 0.000000 0.000000 0.016091 0.000000 0.004687
# 5 -0.001438 0.003980 0.003577 0.000000 0.034113 0.000000
# 6 0.000000 0.000000 0.000000 0.004687 0.000000 0.027895
#
#
# Mechanical properties :
#
#
# Convention : Reuss Voigt Hill
#
# Bulk Modulus (GPa) = 59.58642 80.03568 69.81105
# Shear Modulus (GPa) = 36.64351 50.70737 43.67544
#
# Velocity S-wave (km/s) = 3.55428 4.18108 3.88036
# Velocity P-wave (km/s) = 6.11444 7.13449 6.64407
#
# Compressibility (1/GPa) = 0.01678235
#
# Stress axis : x y z
#
# Youngs Moduli (GPa) = 80.11672 55.73091 230.16245
#
# Poissons Ratio (x) = 0.36737 0.02532
# Poissons Ratio (y) = 0.52811 0.52753
# Poissons Ratio (z) = 0.00881 0.12773
#
# Static dielectric constant tensor:
#      x y z
#    x 2.211220 0.000000 0.078140 
#    y 0.000000 2.283100 0.000000 
#    z 0.078140 0.000000 2.471610 
# 
# From -- ./inp_files/42114.got.cif
#   From: 2010.05.17/outbox.cif.g08.bks.cpg/sg13_22_cif.got.tgz:42114.got - 2010.06.03 16:44:36.
