data_PCOD9228648
_publ_section_title
;
Structure prediction by ZEFSAII (Michael W. Deem and Ramdas Pophale) SiO2 
 PCOD9228648
Probable space group: P 2/C
;
_chemical_formula_sum "Si O2"
_cell_formula_units_Z 24
_cell_length_a 12.990911
_cell_length_b 11.514018
_cell_length_c 9.991869
_cell_angle_alpha 90.000000
_cell_angle_beta 112.045189
_cell_angle_gamma 90.000000
_cell_volume 1385.289545
_symmetry_space_group_name_H-M "P 2/C"
_symmetry_group_IT_number 13
_symmetry_cell_setting 'monoclinic'
loop_
_space_group_symop_operation_xyz
x,y,z
-x,y,1/2-z
-x,-y,-z
x,-y,1/2+z
loop_
_atom_site_type_symbol
_atom_site_label
_atom_site_fract_x
_atom_site_fract_y
_atom_site_fract_z
Si Si1 0.729278 0.825155 0.335588
Si Si2 0.431225 0.018803 0.332766
Si Si3 0.421197 0.635734 0.841903
Si Si4 0.758180 0.810996 0.666683
Si Si5 0.577779 0.637823 0.158093
Si Si6 0.078303 0.997661 0.166098
O O1 0.758293 0.800038 0.505093
O O2 0.689732 0.709756 0.239110
O O3 0.620302 0.906803 0.266582
O O4 0.827181 0.900867 0.316621
O O5 0.500000 0.081840 0.250000
O O6 0.329707 0.092005 0.335323
O O7 0.500000 0.000000 0.500000
O O8 0.500000 0.645575 0.750000
O O9 0.301551 0.699530 0.793878
O O10 0.400028 0.498512 0.854065
O O11 0.500726 0.682216 0.999580
O O12 0.869731 0.874226 0.775054
O O13 0.500000 0.647539 0.250000
O O14 0.000000 0.962904 0.250000
O O15 0.000000 0.000000 0.000000
#
# Coordination Sequence:
#
# PCOD9228648 Si02
#       6
#     4   4   4   4   4   4
#     4  11  21  35  59  79 108 153 187 225 282 342
#     4  11  20  30  48  81 116 142 176 222 272 335
#     4  10  21  34  54  89 120 153 188 224 264 331
#     4  11  21  35  58  80 109 151 189 225 280 341
#     4  10  19  35  58  82 121 157 185 218 271 336
#     4  11  24  41  60  85 108 141 192 248 298 334
#
# _framework density 17.324898000000001
#
# number of rings (size 3 to 8) (size 9 to 14) (size 15 to 20)
#    0.000    1.333    5.000    2.000    0.000    1.333 
#    0.000    0.000    0.000    2.000    0.000    0.000 
#    0.000    0.000    0.000    0.000    0.000    0.000 
#
# Total GULP energy -133655.043272 kJ/mol
# GULP energy per Si atom -5568.960136 kJ/mol
# Density = 1.728547 g / cm^3
# Si number density = 17.324898 Si / 1000 Ang^3
#
#
#
# Elastic Constant Matrix: (Units=GPa)
#
#
# Indices 1 2 3 4 5 6 
#
# 1 97.3560 28.4230 35.7221 0.0000 -0.0033 0.0000
# 2 28.4230 79.1080 15.8743 0.0000 14.6171 0.0000
# 3 35.7221 15.8743 113.5649 0.0000 4.5901 0.0000
# 4 0.0000 0.0000 0.0000 22.0519 0.0000 8.3556
# 5 -0.0033 14.6171 4.5901 0.0000 30.9908 0.0000
# 6 0.0000 0.0000 0.0000 8.3556 0.0000 25.2711
#
#
#
# Elastic Compliance Matrix: (Units=1/GPa)
#
#
# Indices 1 2 3 4 5 6 
#
# 1 0.012849 -0.004387 -0.003533 0.000000 0.002594 0.000000
# 2 -0.004387 0.015672 -0.000515 0.000000 -0.007316 0.000000
# 3 -0.003533 -0.000515 0.010039 0.000000 -0.001244 0.000000
# 4 0.000000 0.000000 0.000000 0.051842 0.000000 -0.017141
# 5 0.002594 -0.007316 -0.001244 0.000000 0.035903 0.000000
# 6 0.000000 0.000000 0.000000 -0.017141 0.000000 0.045238
#
#
# Mechanical properties :
#
#
# Convention : Reuss Voigt Hill
#
# Bulk Modulus (GPa) = 46.10411 50.00752 48.05582
# Shear Modulus (GPa) = 25.55657 29.66341 27.60999
#
# Velocity S-wave (km/s) = 3.84492 4.14234 3.99640
# Velocity P-wave (km/s) = 6.81032 7.19763 7.00665
#
# Compressibility (1/GPa) = 0.02169004
#
# Stress axis : x y z
#
# Youngs Moduli (GPa) = 77.82829 63.80696 99.60919
#
# Poissons Ratio (x) = 0.27990 0.35195
# Poissons Ratio (y) = 0.34141 0.05131
# Poissons Ratio (z) = 0.27499 0.03287
#
# Static dielectric constant tensor:
#      x y z
#    x 1.615200 0.000000 0.023600 
#    y 0.000000 1.656080 0.000000 
#    z 0.023600 0.000000 1.597970 
# 
# From -- ./inp_files/18485.got.cif
#   From: 2010.05.17/outbox.cif.g08.bks.cpg/sg13_10_cif.got.tgz:18485.got - 2010.06.03 16:44:36.
