data_PCOD9228233
_publ_section_title
;
Structure prediction by ZEFSAII (Michael W. Deem and Ramdas Pophale) SiO2 
 PCOD9228233
Probable space group: P 2/C
;
_chemical_formula_sum "Si O2"
_cell_formula_units_Z 20
_cell_length_a 10.216665
_cell_length_b 20.043326
_cell_length_c 12.437040
_cell_angle_alpha 90.000000
_cell_angle_beta 22.722517
_cell_angle_gamma 90.000000
_cell_volume 983.751352
_symmetry_space_group_name_H-M "P 2/C"
_symmetry_group_IT_number 13
_symmetry_cell_setting 'monoclinic'
loop_
_space_group_symop_operation_xyz
x,y,z
-x,y,1/2-z
-x,-y,-z
x,-y,1/2+z
loop_
_atom_site_type_symbol
_atom_site_label
_atom_site_fract_x
_atom_site_fract_y
_atom_site_fract_z
Si Si1 0.743796 0.644012 0.342515
Si Si2 0.395839 0.771992 0.946528
Si Si3 0.484581 0.945995 0.139910
Si Si4 0.242503 0.438196 0.342661
Si Si5 0.262489 0.088231 0.272244
O O1 0.568105 0.715964 0.487881
O O2 0.476586 0.585559 0.567437
O O3 0.000000 0.644641 0.250000
O O4 0.987042 0.623125 0.062215
O O5 0.500000 0.743489 0.750000
O O6 0.608618 0.838837 0.798596
O O7 0.000000 0.790644 0.250000
O O8 0.500000 0.921515 0.250000
O O9 0.099842 0.926088 0.399633
O O10 0.501379 0.026555 0.126140
O O11 0.734669 0.919240 0.859690
O O12 0.500000 0.449376 0.250000
O O13 0.000000 0.500000 0.500000
#
# Coordination Sequence:
#
# PCOD9228233 Si02
#       5
#     4   4   4   4   4
#     4   9  18  32  51  77 104 132 167 212 264 311
#     4  11  20  33  54  79 107 135 171 224 274 314
#     4  10  20  35  51  71 102 133 171 219 264 316
#     4  10  19  33  54  79 107 139 174 213 261 315
#     4  10  21  33  52  77  97 132 175 215 266 318
#
# _framework density 20.330338999999999
#
# number of rings (size 3 to 8) (size 9 to 14) (size 15 to 20)
#    0.000    2.000    0.000    6.000    0.000    3.200 
#    0.000    0.000    0.000    7.200    0.000    0.000 
#    0.000    0.000    0.000    0.000    0.000    0.000 
#
# Total GULP energy -111495.872710 kJ/mol
# GULP energy per Si atom -5574.793636 kJ/mol
# Density = 2.028407 g / cm^3
# Si number density = 20.330339 Si / 1000 Ang^3
#
#
#
# Elastic Constant Matrix: (Units=GPa)
#
#
# Indices 1 2 3 4 5 6 
#
# 1 40.1382 2.9822 9.5100 0.0000 12.3361 0.0000
# 2 2.9822 118.3303 27.7633 0.0000 -14.8127 0.0000
# 3 9.5100 27.7633 107.2630 0.0000 12.2113 0.0000
# 4 0.0000 0.0000 0.0000 22.2967 0.0000 15.2138
# 5 12.3361 -14.8127 12.2113 0.0000 25.3143 0.0000
# 6 0.0000 0.0000 0.0000 15.2138 0.0000 0.2540
#
#
#
# Elastic Compliance Matrix: (Units=1/GPa)
#
#
# Indices 1 2 3 4 5 6 
#
# 1 0.030142 -0.002771 -0.000104 0.000000 -0.016259 0.000000
# 2 -0.002771 0.010496 -0.003517 0.000000 0.009189 0.000000
# 3 -0.000104 -0.003517 0.011079 0.000000 -0.007352 0.000000
# 4 0.000000 0.000000 0.000000 -0.001125 0.000000 0.067378
# 5 -0.016259 0.009189 -0.007352 0.000000 0.056350 0.000000
# 6 0.000000 0.000000 0.000000 0.067378 0.000000 -0.098746
#
#
# Mechanical properties :
#
#
# Convention : Reuss Voigt Hill
#
# Bulk Modulus (GPa) = 25.68492 38.47139 32.07816
# Shear Modulus (GPa) = 147.23996 24.60472 85.92234
#
# Velocity S-wave (km/s) = 8.51945 3.48263 6.50806
# Velocity P-wave (km/s) = 10.46116 5.92755 8.50211
#
# Compressibility (1/GPa) = 0.03893335
#
# Stress axis : x y z
#
# Youngs Moduli (GPa) = 33.17669 95.27232 90.25699
#
# Poissons Ratio (x) = 0.26396 0.00941
# Poissons Ratio (y) = 0.09192 0.31745
# Poissons Ratio (z) = 0.00346 0.33509
#
# Static dielectric constant tensor:
#      x y z
#    x 1.787100 0.000000 -0.015190 
#    y 0.000000 1.758970 0.000000 
#    z -0.015190 0.000000 1.733060 
# 
# From -- ./inp_files/51589.got.cif
#   From: 2010.05.17/outbox.cif.g08.bks.cpg/sg13_26_cif.got.tgz:51589.got - 2010.06.03 16:44:36.
