data_PCOD9228654
_publ_section_title
;
Structure prediction by ZEFSAII (Michael W. Deem and Ramdas Pophale) SiO2 
 PCOD9228654
Probable space group: P 2/C
;
_chemical_formula_sum "Si O2"
_cell_formula_units_Z 30
_cell_length_a 23.918993
_cell_length_b 11.350200
_cell_length_c 29.373667
_cell_angle_alpha 90.000000
_cell_angle_beta 11.507026
_cell_angle_gamma 90.000000
_cell_volume 1590.821906
_symmetry_space_group_name_H-M "P 2/C"
_symmetry_group_IT_number 13
_symmetry_cell_setting 'monoclinic'
loop_
_space_group_symop_operation_xyz
x,y,z
-x,y,1/2-z
-x,-y,-z
x,-y,1/2+z
loop_
_atom_site_type_symbol
_atom_site_label
_atom_site_fract_x
_atom_site_fract_y
_atom_site_fract_z
Si Si1 0.201019 0.890562 0.852556
Si Si2 0.496788 0.350451 0.023326
Si Si3 0.431646 0.556715 0.474081
Si Si4 0.923118 0.664266 0.027885
Si Si5 0.723112 0.939766 0.605558
Si Si6 0.000000 0.311930 0.250000
Si Si7 0.501134 0.797603 0.198771
Si Si8 0.645640 0.081550 0.922255
O O1 0.239408 0.880700 0.875631
O O2 0.484397 0.923808 0.599056
O O3 0.066233 0.766909 0.944190
O O4 0.000000 0.000000 0.000000
O O5 0.655100 0.430473 0.934971
O O6 0.178558 0.378485 0.293044
O O7 0.499812 0.376961 0.967253
O O8 0.593137 0.216851 0.950692
O O9 0.722751 0.570700 0.213272
O O10 0.191945 0.611715 0.632274
O O11 0.717426 0.733842 0.158813
O O12 0.500000 0.880706 0.750000
O O13 0.026582 0.949219 0.339817
O O14 0.595862 0.067978 0.719018
O O15 0.800374 0.227374 0.438421
O O16 0.500000 0.744838 0.250000
O O17 0.500000 0.000000 0.000000
#
# Coordination Sequence:
#
# PCOD9228654 Si02
#       8
#     4   4   4   4   4   2   4   4
#     4  11  20  36  57  85 117 158 198 234 298 364
#     4  10  21  37  59  86 112 148 198 242 291 344
#     4  10  21  37  59  84 114 147 195 244 291 354
#     4  10  19  35  58  84 113 149 194 246 289 352
#     4  11  23  37  52  85 123 155 196 244 298 358
#     4  10  22  36  56  82 114 156 188 244 306 350
#     4  10  20  34  53  84 120 147 189 244 302 355
#     4  11  22  37  64  88 118 159 197 246 298 359
#
# _framework density 18.858177000000001
#
# number of rings (size 3 to 8) (size 9 to 14) (size 15 to 20)
#    0.000    1.600    2.667    2.800    0.000    3.733 
#    0.000    2.667    0.000    4.000    0.000    0.000 
#    0.000    0.000    0.000    0.000    0.000    0.000 
#
# Total GULP energy -167121.617508 kJ/mol
# GULP energy per Si atom -5570.720584 kJ/mol
# Density = 1.881525 g / cm^3
# Si number density = 18.858177 Si / 1000 Ang^3
#
#
#
# Elastic Constant Matrix: (Units=GPa)
#
#
# Indices 1 2 3 4 5 6 
#
# 1 113.0624 7.9022 46.7618 0.0000 2.1642 0.0000
# 2 7.9022 64.5187 12.7183 0.0000 2.4413 0.0000
# 3 46.7618 12.7183 131.7391 0.0000 4.2634 0.0000
# 4 0.0000 0.0000 0.0000 -30.9014 0.0000 124.2378
# 5 2.1642 2.4413 4.2634 0.0000 27.6582 0.0000
# 6 0.0000 0.0000 0.0000 124.2378 0.0000 -261.6659
#
#
#
# Elastic Compliance Matrix: (Units=1/GPa)
#
#
# Indices 1 2 3 4 5 6 
#
# 1 0.010387 -0.000549 -0.003627 0.000000 -0.000205 0.000000
# 2 -0.000549 0.015867 -0.001299 0.000000 -0.001157 0.000000
# 3 -0.003627 -0.001299 0.009036 0.000000 -0.000994 0.000000
# 4 0.000000 0.000000 0.000000 0.035605 0.000000 0.016905
# 5 -0.000205 -0.001157 -0.000994 0.000000 0.036427 0.000000
# 6 0.000000 0.000000 0.000000 0.016905 0.000000 0.004205
#
#
# Mechanical properties :
#
#
# Convention : Reuss Voigt Hill
#
# Bulk Modulus (GPa) = 41.08867 49.34274 45.21571
# Shear Modulus (GPa) = 38.28747 -36.85263 0.71742
#
# Velocity S-wave (km/s) = 4.51076 -4.42543 0.61746
# Velocity P-wave (km/s) = 6.99748 0.33079 4.95349
#
# Compressibility (1/GPa) = 0.02433761
#
# Stress axis : x y z
#
# Youngs Moduli (GPa) = 96.27191 63.02554 110.66929
#
# Poissons Ratio (x) = 0.03463 0.40144
# Poissons Ratio (y) = 0.05289 0.14379
# Poissons Ratio (z) = 0.34921 0.08189
#
# Static dielectric constant tensor:
#      x y z
#    x 1.690060 0.000000 0.001580 
#    y 0.000000 1.733940 0.000000 
#    z 0.001580 0.000000 1.689910 
# 
# From -- ./inp_files/97741.got.cif
#   From: 2010.05.17/outbox.cif.g08.bks.cpg/sg13_49_cif.got.tgz:97741.got - 2010.06.03 16:44:36.
