data_PCOD9228975
_publ_section_title
;
Structure prediction by ZEFSAII (Michael W. Deem and Ramdas Pophale) SiO2 
 PCOD9228975
Probable space group: P 2/C
;
_chemical_formula_sum "Si O2"
_cell_formula_units_Z 24
_cell_length_a 8.249218
_cell_length_b 9.025148
_cell_length_c 18.401621
_cell_angle_alpha 90.000000
_cell_angle_beta 122.935237
_cell_angle_gamma 90.000000
_cell_volume 1149.828301
_symmetry_space_group_name_H-M "P 2/C"
_symmetry_group_IT_number 13
_symmetry_cell_setting 'monoclinic'
loop_
_space_group_symop_operation_xyz
x,y,z
-x,y,1/2-z
-x,-y,-z
x,-y,1/2+z
loop_
_atom_site_type_symbol
_atom_site_label
_atom_site_fract_x
_atom_site_fract_y
_atom_site_fract_z
Si Si1 0.483538 0.670443 0.083549
Si Si2 0.067167 0.225255 0.985141
Si Si3 0.177130 0.510257 0.414906
Si Si4 0.316804 0.954440 0.066341
Si Si5 0.819806 0.341200 0.328054
Si Si6 0.500000 0.590033 0.250000
Si Si7 0.500000 0.106371 0.250000
O O1 0.677717 0.589652 0.105050
O O2 0.444650 0.840053 0.051132
O O3 0.484353 0.675061 0.170806
O O4 0.311585 0.571710 0.007456
O O5 0.062836 0.356780 0.926414
O O6 0.866267 0.142339 0.950184
O O7 0.133874 0.297931 0.077322
O O8 0.223312 0.097448 0.004653
O O9 0.026987 0.390129 0.347004
O O10 0.429528 0.014351 0.163900
O O11 0.683895 0.483042 0.290313
O O12 0.681597 0.208079 0.268257
#
# Coordination Sequence:
#
# PCOD9228975 Si02
#       7
#     4   4   4   4   4   2   2
#     4  11  23  37  61  95 127 164 208 262 311 374
#     4  10  19  36  63  89 121 168 209 254 306 384
#     4  11  22  38  61  95 129 161 213 260 310 372
#     4  10  20  36  60  91 124 165 208 251 316 382
#     4  10  19  37  63  88 120 162 211 258 314 367
#     4  11  21  36  62  86 122 162 210 264 310 364
#     4   9  21  36  62  96 122 162 214 262 316 378
#
# _framework density 20.872682000000001
#
# number of rings (size 3 to 8) (size 9 to 14) (size 15 to 20)
#    0.000    1.667    3.333    2.000    0.000    1.333 
#    0.000    0.000    0.000    2.000    0.000    0.000 
#    0.000    0.000    0.000    0.000    0.000    0.000 
#
# Total GULP energy -133940.393354 kJ/mol
# GULP energy per Si atom -5580.849723 kJ/mol
# Density = 2.082517 g / cm^3
# Si number density = 20.872682 Si / 1000 Ang^3
#
#
#
# Elastic Constant Matrix: (Units=GPa)
#
#
# Indices 1 2 3 4 5 6 
#
# 1 59.3343 27.6566 27.9975 0.0000 21.8345 0.0000
# 2 27.6566 108.9754 28.4788 0.0000 10.8568 0.0000
# 3 27.9975 28.4788 83.7164 0.0000 18.3704 0.0000
# 4 0.0000 0.0000 0.0000 36.4000 0.0000 16.6176
# 5 21.8345 10.8568 18.3704 0.0000 31.5846 0.0000
# 6 0.0000 0.0000 0.0000 16.6176 0.0000 29.4378
#
#
#
# Elastic Compliance Matrix: (Units=1/GPa)
#
#
# Indices 1 2 3 4 5 6 
#
# 1 0.025911 -0.004079 -0.004190 0.000000 -0.014073 0.000000
# 2 -0.004079 0.010793 -0.002421 0.000000 0.000518 0.000000
# 3 -0.004190 -0.002421 0.015305 0.000000 -0.005173 0.000000
# 4 0.000000 0.000000 0.000000 0.037010 0.000000 -0.020892
# 5 -0.014073 0.000518 -0.005173 0.000000 0.044221 0.000000
# 6 0.000000 0.000000 0.000000 -0.020892 0.000000 0.045764
#
#
# Mechanical properties :
#
#
# Convention : Reuss Voigt Hill
#
# Bulk Modulus (GPa) = 32.64851 46.69909 39.67380
# Shear Modulus (GPa) = 23.74259 30.67736 27.20998
#
# Velocity S-wave (km/s) = 3.37634 3.83787 3.61448
# Velocity P-wave (km/s) = 5.55655 6.48544 6.03888
#
# Compressibility (1/GPa) = 0.03062927
#
# Stress axis : x y z
#
# Youngs Moduli (GPa) = 38.59421 92.65584 65.33799
#
# Poissons Ratio (x) = 0.37793 0.27374
# Poissons Ratio (y) = 0.15742 0.15819
# Poissons Ratio (z) = 0.16170 0.22432
#
# Static dielectric constant tensor:
#      x y z
#    x 1.777800 0.000000 0.024850 
#    y 0.000000 1.758720 0.000000 
#    z 0.024850 0.000000 1.786820 
# 
# From -- ./inp_files/63479.got.cif
#   From: 2010.05.17/outbox.cif.g08.bks.cpg/sg13_32_cif.got.tgz:63479.got - 2010.06.03 16:44:36.
