data_PCOD9228602
_publ_section_title
;
Structure prediction by ZEFSAII (Michael W. Deem and Ramdas Pophale) SiO2 
 PCOD9228602
Probable space group: P 2/C
;
_chemical_formula_sum "Si O2"
_cell_formula_units_Z 32
_cell_length_a 17.600735
_cell_length_b 20.318789
_cell_length_c 16.807173
_cell_angle_alpha 90.000000
_cell_angle_beta 17.270533
_cell_angle_gamma 90.000000
_cell_volume 1784.472265
_symmetry_space_group_name_H-M "P 2/C"
_symmetry_group_IT_number 13
_symmetry_cell_setting 'monoclinic'
loop_
_space_group_symop_operation_xyz
x,y,z
-x,y,1/2-z
-x,-y,-z
x,-y,1/2+z
loop_
_atom_site_type_symbol
_atom_site_label
_atom_site_fract_x
_atom_site_fract_y
_atom_site_fract_z
Si Si1 0.750000 0.527163 0.555184
Si Si2 0.250025 0.266620 0.813873
Si Si3 0.750000 0.328255 0.055912
Si Si4 0.249982 0.912859 0.764630
Si Si5 0.250000 0.381601 0.943403
Si Si6 0.250019 0.048031 0.836129
Si Si7 0.249999 0.158701 0.949141
Si Si8 0.750026 0.241453 0.210531
O O1 0.500000 0.527314 0.750000
O O2 0.750001 0.598489 0.596359
O O3 0.750000 0.455267 0.594723
O O4 0.000000 0.527313 0.250000
O O5 0.250002 0.327727 0.874458
O O6 0.250004 0.202399 0.870105
O O7 0.500392 0.264264 0.508804
O O8 0.999698 0.264262 0.009481
O O9 0.500000 0.323160 0.250000
O O10 0.749999 0.273958 0.124045
O O11 0.000000 0.323160 0.750000
O O12 0.499259 0.927132 0.461656
O O13 0.249987 0.837944 0.792897
O O14 0.250009 0.968965 0.832602
O O15 0.000678 0.927131 0.960250
O O16 0.500000 0.374592 0.750000
O O17 0.000000 0.374592 0.250000
O O18 0.249997 0.083011 0.921180
O O19 0.500000 0.173834 0.750000
O O20 0.000000 0.173835 0.250000
#
# Coordination Sequence:
#
# PCOD9228602 Si02
#       8
#     4   4   4   4   4   4   4   4
#     4   8  16  32  56  77 105 145 188 224 272 338
#     4  12  23  36  53  85 116 152 190 222 275 338
#     4  10  21  39  60  85 107 140 186 236 291 339
#     4  10  19  37  58  77 104 142 184 228 268 331
#     4  10  19  35  55  80 113 155 193 228 265 318
#     4  10  20  36  57  78 102 143 194 220 264 329
#     4  12  22  35  54  81 117 148 181 233 272 317
#     4  12  22  38  59  83 114 147 182 235 281 342
#
# _framework density 17.932471
#
# number of rings (size 3 to 8) (size 9 to 14) (size 15 to 20)
#    0.000    1.500    2.500    3.750    0.000    0.000 
#    0.000    2.500    0.000    0.000    0.000    0.000 
#    0.000    0.000    0.000    0.000    0.000    0.000 
#
# Total GULP energy -178573.901143 kJ/mol
# GULP energy per Si atom -5580.434411 kJ/mol
# Density = 1.789166 g / cm^3
# Si number density = 17.932471 Si / 1000 Ang^3
#
#
#
# Elastic Constant Matrix: (Units=GPa)
#
#
# Indices 1 2 3 4 5 6 
#
# 1 79.0032 50.3563 49.7881 0.0000 -6.2339 0.0000
# 2 50.3563 157.2191 36.5852 0.0000 3.8720 0.0000
# 3 49.7881 36.5852 159.4256 0.0000 -16.5131 0.0000
# 4 0.0000 0.0000 0.0000 2.2710 0.0000 6.8231
# 5 -6.2339 3.8720 -16.5131 0.0000 28.5190 0.0000
# 6 0.0000 0.0000 0.0000 6.8231 0.0000 26.4255
#
#
#
# Elastic Compliance Matrix: (Units=1/GPa)
#
#
# Indices 1 2 3 4 5 6 
#
# 1 0.018900 -0.005057 -0.004513 0.000000 0.002205 0.000000
# 2 -0.005057 0.008173 -0.000559 0.000000 -0.002539 0.000000
# 3 -0.004513 -0.000559 0.008208 0.000000 0.003842 0.000000
# 4 0.000000 0.000000 0.000000 1.963564 0.000000 -0.506996
# 5 0.002205 -0.002539 0.003842 0.000000 0.038116 0.000000
# 6 0.000000 0.000000 0.000000 -0.506996 0.000000 0.168750
#
#
# Mechanical properties :
#
#
# Convention : Reuss Voigt Hill
#
# Bulk Modulus (GPa) = 66.57293 74.34523 70.45908
# Shear Modulus (GPa) = 2.24117 28.70433 15.47275
#
# Velocity S-wave (km/s) = 1.11915 4.00520 2.94059
# Velocity P-wave (km/s) = 6.23497 7.93330 7.13485
#
# Compressibility (1/GPa) = 0.01502112
#
# Stress axis : x y z
#
# Youngs Moduli (GPa) = 52.91115 122.35336 121.82810
#
# Poissons Ratio (x) = 0.61880 0.54985
# Poissons Ratio (y) = 0.26760 0.06812
# Poissons Ratio (z) = 0.23881 0.06841
#
# Static dielectric constant tensor:
#      x y z
#    x 1.565850 0.000000 -0.009640 
#    y 0.000000 1.663200 0.000000 
#    z -0.009640 0.000000 1.599970 
# 
# From -- ./inp_files/53991.got.cif
#   From: 2010.05.17/outbox.cif.g08.bks.cpg/sg13_27_cif.got.tgz:53991.got - 2010.06.03 16:44:36.
