data_PCOD9228729
_publ_section_title
;
Structure prediction by ZEFSAII (Michael W. Deem and Ramdas Pophale) SiO2 
 PCOD9228729
Probable space group: P 2/C
;
_chemical_formula_sum "Si O2"
_cell_formula_units_Z 24
_cell_length_a 14.929571
_cell_length_b 6.215368
_cell_length_c 14.405470
_cell_angle_alpha 90.000000
_cell_angle_beta 122.705238
_cell_angle_gamma 90.000000
_cell_volume 1124.801279
_symmetry_space_group_name_H-M "P 2/C"
_symmetry_group_IT_number 13
_symmetry_cell_setting 'monoclinic'
loop_
_space_group_symop_operation_xyz
x,y,z
-x,y,1/2-z
-x,-y,-z
x,-y,1/2+z
loop_
_atom_site_type_symbol
_atom_site_label
_atom_site_fract_x
_atom_site_fract_y
_atom_site_fract_z
Si Si1 0.772102 0.098077 0.470798
Si Si2 0.602120 0.586186 0.933481
Si Si3 0.146827 0.578422 0.631836
Si Si4 0.371941 0.546905 0.849040
Si Si5 0.614707 0.786976 0.287524
Si Si6 0.943816 0.187403 0.027752
O O1 0.685441 0.218436 0.484659
O O2 0.833044 0.285933 0.450590
O O3 0.701982 0.961192 0.359272
O O4 0.861613 0.927059 0.552141
O O5 0.477838 0.657299 0.864882
O O6 0.625760 0.427772 0.859674
O O7 0.617313 0.447757 0.035053
O O8 0.254103 0.608130 0.750470
O O9 0.120432 0.340079 0.580247
O O10 0.040698 0.670236 0.620756
O O11 0.383548 0.303562 0.815251
O O12 0.500000 0.876291 0.250000
O O13 0.000000 0.000000 0.000000
#
# Coordination Sequence:
#
# PCOD9228729 Si02
#       6
#     4   4   4   4   4   4
#     4  11  19  35  60  87 117 154 200 252 304 360
#     4  10  22  37  57  88 128 157 198 256 302 365
#     4  10  19  35  61  83 118 156 199 251 309 356
#     4  10  20  40  57  87 124 163 200 247 310 364
#     4  10  21  36  57  88 119 155 202 243 300 370
#     4   9  19  34  59  90 107 151 207 250 297 363
#
# _framework density 21.337102999999999
#
# number of rings (size 3 to 8) (size 9 to 14) (size 15 to 20)
#    0.000    2.000    3.333    0.000    2.333    0.000 
#    3.000    2.500    0.000   24.000    0.000    0.000 
#    0.000    0.000    0.000    0.000    0.000    0.000 
#
# Total GULP energy -133703.972610 kJ/mol
# GULP energy per Si atom -5570.998859 kJ/mol
# Density = 2.128854 g / cm^3
# Si number density = 21.337103 Si / 1000 Ang^3
#
#
#
# Elastic Constant Matrix: (Units=GPa)
#
#
# Indices 1 2 3 4 5 6 
#
# 1 102.9783 48.7431 28.1211 0.0000 37.6806 0.0000
# 2 48.7431 75.2735 9.6013 0.0000 13.7558 0.0000
# 3 28.1211 9.6013 56.5577 0.0000 10.2445 0.0000
# 4 0.0000 0.0000 0.0000 21.3501 0.0000 17.9656
# 5 37.6806 13.7558 10.2445 0.0000 37.9485 0.0000
# 6 0.0000 0.0000 0.0000 17.9656 0.0000 45.9201
#
#
#
# Elastic Compliance Matrix: (Units=1/GPa)
#
#
# Indices 1 2 3 4 5 6 
#
# 1 0.022819 -0.010852 -0.006426 0.000000 -0.016989 0.000000
# 2 -0.010852 0.019520 0.001484 0.000000 0.003299 0.000000
# 3 -0.006426 0.001484 0.020572 0.000000 0.000289 0.000000
# 4 0.000000 0.000000 0.000000 0.069826 0.000000 -0.027318
# 5 -0.016989 0.003299 0.000289 0.000000 0.041947 0.000000
# 6 0.000000 0.000000 0.000000 -0.027318 0.000000 0.032465
#
#
# Mechanical properties :
#
#
# Convention : Reuss Voigt Hill
#
# Bulk Modulus (GPa) = 31.92525 45.30449 38.61487
# Shear Modulus (GPa) = 20.06617 30.93334 25.49975
#
# Velocity S-wave (km/s) = 3.06998 3.81168 3.46076
# Velocity P-wave (km/s) = 5.24987 6.37579 5.84003
#
# Compressibility (1/GPa) = 0.03132317
#
# Stress axis : x y z
#
# Youngs Moduli (GPa) = 43.82407 51.23027 48.61012
#
# Poissons Ratio (x) = 0.55594 0.31237
# Poissons Ratio (y) = 0.47557 -0.07216
# Poissons Ratio (z) = 0.28162 -0.07605
#
# Static dielectric constant tensor:
#      x y z
#    x 1.856570 0.000000 0.053790 
#    y 0.000000 1.804230 0.000000 
#    z 0.053790 0.000000 1.753980 
# 
# From -- ./inp_files/52073.got.cif
#   From: 2010.05.17/outbox.cif.g08.bks.cpg/sg13_27_cif.got.tgz:52073.got - 2010.06.03 16:44:36.
