data_PCOD9228946
_publ_section_title
;
Structure prediction by ZEFSAII (Michael W. Deem and Ramdas Pophale) SiO2 
 PCOD9228946
Probable space group: P 2/C
;
_chemical_formula_sum "Si O2"
_cell_formula_units_Z 28
_cell_length_a 10.355822
_cell_length_b 16.910006
_cell_length_c 13.741131
_cell_angle_alpha 90.000000
_cell_angle_beta 149.007485
_cell_angle_gamma 90.000000
_cell_volume 1239.069644
_symmetry_space_group_name_H-M "P 2/C"
_symmetry_group_IT_number 13
_symmetry_cell_setting 'monoclinic'
loop_
_space_group_symop_operation_xyz
x,y,z
-x,y,1/2-z
-x,-y,-z
x,-y,1/2+z
loop_
_atom_site_type_symbol
_atom_site_label
_atom_site_fract_x
_atom_site_fract_y
_atom_site_fract_z
Si Si1 0.197545 0.008358 0.535635
Si Si2 0.368547 0.572817 0.466592
Si Si3 0.904314 0.437686 0.519815
Si Si4 0.975354 0.265203 0.515228
Si Si5 0.767302 0.840736 0.034974
Si Si6 0.515131 0.255032 0.522967
Si Si7 0.239025 0.183969 0.517958
O O1 0.500000 0.008334 0.750000
O O2 0.179198 0.931133 0.456606
O O3 0.150418 0.093154 0.455969
O O4 0.000000 0.000000 0.500000
O O5 0.500000 0.500000 0.500000
O O6 0.120757 0.576971 0.239752
O O7 0.495880 0.658755 0.534265
O O8 0.322366 0.549200 0.549706
O O9 0.875053 0.353492 0.450029
O O10 0.000000 0.500000 0.500000
O O11 0.236060 0.260278 0.746252
O O12 0.044799 0.233760 0.455156
O O13 0.784494 0.207887 0.447070
O O14 0.544225 0.813318 0.960266
O O15 0.000000 0.812016 0.250000
O O16 0.301544 0.227171 0.458443
O O17 0.500000 0.181844 0.750000
#
# Coordination Sequence:
#
# PCOD9228946 Si02
#       7
#     4   4   4   4   4   4   4
#     4  11  23  40  61  89 127 162 200 252 311 367
#     4  10  21  37  56  82 119 147 193 251 297 353
#     4  10  21  36  57  85 113 152 197 243 300 361
#     4   9  16  33  57  81 109 150 197 242 282 359
#     4  10  19  36  62  84 114 151 201 246 301 355
#     4   9  18  33  56  85 109 151 197 244 289 352
#     4   9  18  32  56  84 113 145 196 240 289 350
#
# _framework density 22.597598999999999
#
# number of rings (size 3 to 8) (size 9 to 14) (size 15 to 20)
#    0.000    2.286    2.857    0.000    4.000    1.143 
#    0.000    1.429    0.000    0.000    0.000    0.000 
#    0.000    0.000    0.000    0.000    0.000    0.000 
#
# Total GULP energy -156150.558007 kJ/mol
# GULP energy per Si atom -5576.805643 kJ/mol
# Density = 2.254617 g / cm^3
# Si number density = 22.597599 Si / 1000 Ang^3
#
#
#
# Elastic Constant Matrix: (Units=GPa)
#
#
# Indices 1 2 3 4 5 6 
#
# 1 269.7449 129.2167 31.7053 0.0000 -14.5066 0.0000
# 2 129.2167 163.5004 -4.5750 0.0000 -13.9192 0.0000
# 3 31.7053 -4.5750 71.3609 0.0000 -11.2380 0.0000
# 4 0.0000 0.0000 0.0000 16.6751 0.0000 8.6739
# 5 -14.5066 -13.9192 -11.2380 0.0000 28.8019 0.0000
# 6 0.0000 0.0000 0.0000 8.6739 0.0000 14.2030
#
#
#
# Elastic Compliance Matrix: (Units=1/GPa)
#
#
# Indices 1 2 3 4 5 6 
#
# 1 0.006671 -0.005417 -0.003403 0.000000 -0.000586 0.000000
# 2 -0.005417 0.010839 0.003726 0.000000 0.003964 0.000000
# 3 -0.003403 0.003726 0.016811 0.000000 0.006646 0.000000
# 4 0.000000 0.000000 0.000000 0.087890 0.000000 -0.053675
# 5 -0.000586 0.003964 0.006646 0.000000 0.038933 0.000000
# 6 0.000000 0.000000 0.000000 -0.053675 0.000000 0.103188
#
#
# Mechanical properties :
#
#
# Convention : Reuss Voigt Hill
#
# Bulk Modulus (GPa) = 41.43958 90.81112 66.12535
# Shear Modulus (GPa) = 17.69506 35.15326 26.42416
#
# Velocity S-wave (km/s) = 2.80134 3.94841 3.42326
# Velocity P-wave (km/s) = 5.37040 7.81409 6.70452
#
# Compressibility (1/GPa) = 0.02413152
#
# Stress axis : x y z
#
# Youngs Moduli (GPa) = 149.91055 92.25914 59.48553
#
# Poissons Ratio (x) = 0.49977 0.20245
# Poissons Ratio (y) = 0.81207 -0.22163
# Poissons Ratio (z) = 0.51019 -0.34374
#
# Static dielectric constant tensor:
#      x y z
#    x 1.828240 0.000000 0.009360 
#    y 0.000000 1.701390 0.000000 
#    z 0.009360 0.000000 1.881260 
# 
# From -- ./inp_files/47729.got.cif
#   From: 2010.05.17/outbox.cif.g08.bks.cpg/sg13_24_cif.got.tgz:47729.got - 2010.06.03 16:44:36.
