data_PCOD9228412
_publ_section_title
;
Structure prediction by ZEFSAII (Michael W. Deem and Ramdas Pophale) SiO2 
 PCOD9228412
Probable space group: P 2/C
;
_chemical_formula_sum "Si O2"
_cell_formula_units_Z 24
_cell_length_a 12.758188
_cell_length_b 12.982501
_cell_length_c 21.046443
_cell_angle_alpha 90.000000
_cell_angle_beta 161.609179
_cell_angle_gamma 90.000000
_cell_volume 1099.819284
_symmetry_space_group_name_H-M "P 2/C"
_symmetry_group_IT_number 13
_symmetry_cell_setting 'monoclinic'
loop_
_space_group_symop_operation_xyz
x,y,z
-x,y,1/2-z
-x,-y,-z
x,-y,1/2+z
loop_
_atom_site_type_symbol
_atom_site_label
_atom_site_fract_x
_atom_site_fract_y
_atom_site_fract_z
Si Si1 0.543653 0.136713 0.164485
Si Si2 0.822569 0.189062 0.890408
Si Si3 0.977564 0.325629 0.664952
Si Si4 0.025537 0.969291 0.843498
Si Si5 0.894742 0.594353 0.984028
Si Si6 0.611958 0.144766 0.628721
O O1 0.823257 0.152746 0.378630
O O2 0.776762 0.102009 0.239989
O O3 0.316303 0.238421 0.018082
O O4 0.304687 0.039477 0.040541
O O5 0.500000 0.173465 0.750000
O O6 0.755055 0.141132 0.782874
O O7 0.887890 0.309738 0.915520
O O8 0.954806 0.407906 0.594935
O O9 0.000000 0.364467 0.750000
O O10 0.314193 0.258682 0.851206
O O11 0.248886 0.896781 0.929136
O O12 0.799437 0.064879 0.690957
O O13 0.500000 0.612769 0.750000
O O14 0.000000 0.500000 0.000000
#
# Coordination Sequence:
#
# PCOD9228412 Si02
#       6
#     4   4   4   4   4   4
#     4  10  19  34  54  85 129 170 219 263 315 358
#     4  11  20  33  58  88 122 167 214 258 327 384
#     4  10  22  42  65  89 126 169 208 257 315 376
#     4   9  18  31  50  84 124 170 217 262 306 357
#     4  11  23  43  70  97 124 155 200 261 327 396
#     4   9  19  31  51  81 122 163 214 256 307 354
#
# _framework density 21.821767000000001
#
# number of rings (size 3 to 8) (size 9 to 14) (size 15 to 20)
#    0.000    2.000    3.333    0.500    0.000    4.000 
#    0.000   15.000    0.000    0.000    0.000    0.000 
#    0.000    0.000    0.000    0.000    0.000    0.000 
#
# Total GULP energy -133809.354648 kJ/mol
# GULP energy per Si atom -5575.389777 kJ/mol
# Density = 2.177210 g / cm^3
# Si number density = 21.821767 Si / 1000 Ang^3
#
#
#
# Elastic Constant Matrix: (Units=GPa)
#
#
# Indices 1 2 3 4 5 6 
#
# 1 153.5696 45.1834 55.6781 0.0000 2.9382 0.0000
# 2 45.1834 66.7564 43.5544 0.0000 -0.0356 0.0000
# 3 55.6781 43.5544 126.4020 0.0000 -4.1960 0.0000
# 4 0.0000 0.0000 0.0000 13.0031 0.0000 2.3108
# 5 2.9382 -0.0356 -4.1960 0.0000 55.9327 0.0000
# 6 0.0000 0.0000 0.0000 2.3108 0.0000 30.1285
#
#
#
# Elastic Compliance Matrix: (Units=1/GPa)
#
#
# Indices 1 2 3 4 5 6 
#
# 1 0.008644 -0.004326 -0.002338 0.000000 -0.000632 0.000000
# 2 -0.004326 0.021502 -0.005509 0.000000 -0.000172 0.000000
# 3 -0.002338 -0.005509 0.010871 0.000000 0.000935 0.000000
# 4 0.000000 0.000000 0.000000 0.077967 0.000000 -0.005980
# 5 -0.000632 -0.000172 0.000935 0.000000 0.017982 0.000000
# 6 0.000000 0.000000 0.000000 -0.005980 0.000000 0.033650
#
#
# Mechanical properties :
#
#
# Convention : Reuss Voigt Hill
#
# Bulk Modulus (GPa) = 59.98576 70.61776 65.30176
# Shear Modulus (GPa) = 24.93535 33.30034 29.11785
#
# Velocity S-wave (km/s) = 3.38403 3.91066 3.65684
# Velocity P-wave (km/s) = 6.54351 7.26791 6.91520
#
# Compressibility (1/GPa) = 0.01667062
#
# Stress axis : x y z
#
# Youngs Moduli (GPa) = 115.68448 46.50739 91.99153
#
# Poissons Ratio (x) = 0.20117 0.21509
# Poissons Ratio (y) = 0.50040 0.50681
# Poissons Ratio (z) = 0.27049 0.25622
#
# Static dielectric constant tensor:
#      x y z
#    x 1.937030 0.000000 -0.077180 
#    y 0.000000 1.789970 0.000000 
#    z -0.077180 0.000000 1.881430 
# 
# From -- ./inp_files/78736.got.cif
#   From: 2010.05.17/outbox.cif.g08.bks.cpg/sg13_40_cif.got.tgz:78736.got - 2010.06.03 16:44:36.
