data_PCOD9228064
_publ_section_title
;
Structure prediction by ZEFSAII (Michael W. Deem and Ramdas Pophale) SiO2 
 PCOD9228064
Probable space group: P 2/C
;
_chemical_formula_sum "Si O2"
_cell_formula_units_Z 24
_cell_length_a 18.845119
_cell_length_b 6.919272
_cell_length_c 7.588480
_cell_angle_alpha 90.000000
_cell_angle_beta 60.927197
_cell_angle_gamma 90.000000
_cell_volume 864.822526
_symmetry_space_group_name_H-M "P 2/C"
_symmetry_group_IT_number 13
_symmetry_cell_setting 'monoclinic'
loop_
_space_group_symop_operation_xyz
x,y,z
-x,y,1/2-z
-x,-y,-z
x,-y,1/2+z
loop_
_atom_site_type_symbol
_atom_site_label
_atom_site_fract_x
_atom_site_fract_y
_atom_site_fract_z
Si Si1 0.917821 0.307209 0.879473
Si Si2 0.266058 0.798577 0.398783
Si Si3 0.249677 0.401125 0.541108
Si Si4 0.913614 0.900155 0.758699
Si Si5 0.565503 0.755952 0.402347
Si Si6 0.405131 0.300854 0.218002
O O1 0.000000 0.422049 0.750000
O O2 0.922964 0.131939 0.732708
O O3 0.839253 0.423570 0.928839
O O4 0.910030 0.213695 0.080405
O O5 0.277909 0.620712 0.518240
O O6 0.178710 0.891440 0.549258
O O7 0.359356 0.877928 0.270030
O O8 0.252261 0.707558 0.221706
O O9 0.307808 0.286269 0.337132
O O10 0.000000 0.849077 0.750000
O O11 0.577494 0.532358 0.326608
O O12 0.577240 0.749942 0.599288
O O13 0.468617 0.797968 0.505694
#
# Coordination Sequence:
#
# PCOD9228064 Si02
#       6
#     4   4   4   4   4   4
#     4  11  22  38  57  76  99 130 168 207 252 305
#     4  10  19  32  51  78 108 136 169 209 252 295
#     4  10  19  32  51  78 108 136 169 209 252 295
#     4  11  22  38  57  76  99 130 168 207 252 305
#     4   8  14  25  43  68  99 133 166 201 242 289
#     4   8  14  25  43  68  99 133 166 201 242 289
#
# _framework density 27.751356999999999
#
# number of rings (size 3 to 8) (size 9 to 14) (size 15 to 20)
#    0.000    2.333    0.000    5.000    0.000    2.000 
#    0.000    3.333    0.000    1.000    0.000    0.000 
#    0.000    0.000    0.000    0.000    0.000    0.000 
#
# Total GULP energy -134026.401858 kJ/mol
# GULP energy per Si atom -5584.433411 kJ/mol
# Density = 2.768819 g / cm^3
# Si number density = 27.751357 Si / 1000 Ang^3
#
#
#
# Elastic Constant Matrix: (Units=GPa)
#
#
# Indices 1 2 3 4 5 6 
#
# 1 114.2105 -7.8040 85.5176 0.0000 -32.7770 0.0000
# 2 -7.8040 57.2583 19.2026 0.0000 -4.0476 0.0000
# 3 85.5176 19.2026 190.7839 0.0000 -60.5551 0.0000
# 4 0.0000 0.0000 0.0000 28.3720 0.0000 -11.4730
# 5 -32.7770 -4.0476 -60.5551 0.0000 80.5519 0.0000
# 6 0.0000 0.0000 0.0000 -11.4730 0.0000 30.3705
#
#
#
# Elastic Compliance Matrix: (Units=1/GPa)
#
#
# Indices 1 2 3 4 5 6 
#
# 1 0.014165 0.004159 -0.006399 0.000000 0.001162 0.000000
# 2 0.004159 0.019318 -0.003892 0.000000 -0.000263 0.000000
# 3 -0.006399 -0.003892 0.009999 0.000000 0.004717 0.000000
# 4 0.000000 0.000000 0.000000 0.041601 0.000000 0.015715
# 5 0.001162 -0.000263 0.004717 0.000000 0.016420 0.000000
# 6 0.000000 0.000000 0.000000 0.015715 0.000000 0.038864
#
#
# Mechanical properties :
#
#
# Convention : Reuss Voigt Hill
#
# Bulk Modulus (GPa) = 32.03327 61.78724 46.91026
# Shear Modulus (GPa) = 30.66789 45.54798 38.10793
#
# Velocity S-wave (km/s) = 3.32790 4.05568 3.70968
# Velocity P-wave (km/s) = 5.13173 6.65164 5.94049
#
# Compressibility (1/GPa) = 0.03121755
#
# Stress axis : x y z
#
# Youngs Moduli (GPa) = 70.59714 51.76470 100.01149
#
# Poissons Ratio (x) = -0.21528 0.63997
# Poissons Ratio (y) = -0.29360 0.38924
# Poissons Ratio (z) = 0.45175 0.20147
#
# Static dielectric constant tensor:
#      x y z
#    x 2.293690 0.000000 -0.103420 
#    y 0.000000 2.162170 0.000000 
#    z -0.103420 0.000000 2.198080 
# 
# From -- ./inp_files/20915.got.cif
#   From: 2010.05.17/outbox.cif.g08.bks.cpg/sg13_11_cif.got.tgz:20915.got - 2010.06.03 16:44:36.
