data_PCOD9228550
_publ_section_title
;
Structure prediction by ZEFSAII (Michael W. Deem and Ramdas Pophale) SiO2 
 PCOD9228550
Probable space group: P 2/C
;
_chemical_formula_sum "Si O2"
_cell_formula_units_Z 28
_cell_length_a 7.626074
_cell_length_b 18.012404
_cell_length_c 13.977875
_cell_angle_alpha 90.000000
_cell_angle_beta 137.147168
_cell_angle_gamma 90.000000
_cell_volume 1305.863698
_symmetry_space_group_name_H-M "P 2/C"
_symmetry_group_IT_number 13
_symmetry_cell_setting 'monoclinic'
loop_
_space_group_symop_operation_xyz
x,y,z
-x,y,1/2-z
-x,-y,-z
x,-y,1/2+z
loop_
_atom_site_type_symbol
_atom_site_label
_atom_site_fract_x
_atom_site_fract_y
_atom_site_fract_z
Si Si1 0.786643 0.098115 0.370001
Si Si2 0.297404 0.485764 0.832732
Si Si3 0.080034 0.053021 0.671975
Si Si4 0.058752 0.747418 0.571840
Si Si5 0.128909 0.787112 0.198423
Si Si6 0.466572 0.666170 0.091438
Si Si7 0.279988 0.649519 0.810237
O O1 0.500000 0.129296 0.250000
O O2 0.969222 0.165798 0.407960
O O3 0.854433 0.070609 0.504490
O O4 0.799289 0.024173 0.311854
O O5 0.416460 0.413197 0.831155
O O6 0.302913 0.565074 0.781605
O O7 0.000000 0.473205 0.750000
O O8 0.500000 0.500000 0.000000
O O9 0.236671 0.129877 0.723546
O O10 0.000000 0.046695 0.750000
O O11 0.272959 0.708993 0.723332
O O12 0.071451 0.760603 0.463137
O O13 0.816974 0.692041 0.490493
O O14 0.352283 0.728421 0.294017
O O15 0.000000 0.789624 0.250000
O O16 0.467980 0.664909 0.975161
O O17 0.000000 0.652144 0.750000
#
# Coordination Sequence:
#
# PCOD9228550 Si02
#       7
#     4   4   4   4   4   4   4
#     4  10  22  39  59  84 118 155 194 247 302 355
#     4   9  17  33  59  92 130 167 201 248 308 368
#     4   9  21  39  58  85 116 149 194 242 298 366
#     4  10  21  37  57  86 120 154 200 248 300 363
#     4  10  21  37  57  83 116 156 200 245 295 354
#     4  10  19  34  60  88 118 158 198 244 301 363
#     4   8  17  33  55  85 119 153 193 242 298 354
#
# _framework density 21.441745999999998
#
# number of rings (size 3 to 8) (size 9 to 14) (size 15 to 20)
#    0.000    2.571    0.000    1.714    0.000    9.143 
#    0.000    0.714    0.000    6.857    0.000    0.000 
#    0.000    0.000    0.000    0.000    0.000    0.000 
#
# Total GULP energy -155868.040389 kJ/mol
# GULP energy per Si atom -5566.715728 kJ/mol
# Density = 2.139294 g / cm^3
# Si number density = 21.441746 Si / 1000 Ang^3
#
#
#
# Elastic Constant Matrix: (Units=GPa)
#
#
# Indices 1 2 3 4 5 6 
#
# 1 59.5543 49.5291 21.6105 0.0000 -14.5345 0.0000
# 2 49.5291 179.7532 50.1645 0.0000 -26.9734 0.0000
# 3 21.6105 50.1645 78.8572 0.0000 -18.7261 0.0000
# 4 0.0000 0.0000 0.0000 36.5493 0.0000 -9.0695
# 5 -14.5345 -26.9734 -18.7261 0.0000 30.2140 0.0000
# 6 0.0000 0.0000 0.0000 -9.0695 0.0000 -2.8206
#
#
#
# Elastic Compliance Matrix: (Units=1/GPa)
#
#
# Indices 1 2 3 4 5 6 
#
# 1 0.022934 -0.004996 -0.001813 0.000000 0.005449 0.000000
# 2 -0.004996 0.008280 -0.003182 0.000000 0.003017 0.000000
# 3 -0.001813 -0.003182 0.016792 0.000000 0.006694 0.000000
# 4 0.000000 0.000000 0.000000 0.015218 0.000000 -0.048933
# 5 0.005449 0.003017 0.006694 0.000000 0.042561 0.000000
# 6 0.000000 0.000000 0.000000 -0.048933 0.000000 -0.197196
#
#
# Mechanical properties :
#
#
# Convention : Reuss Voigt Hill
#
# Bulk Modulus (GPa) = 35.68277 62.30809 48.99543
# Shear Modulus (GPa) = -80.53080 25.91258 -27.30911
#
# Velocity S-wave (km/s) = -6.13510 3.48014 -3.57268
# Velocity P-wave (km/s) = 5.78862 6.72836 2.42515
#
# Compressibility (1/GPa) = 0.02802473
#
# Stress axis : x y z
#
# Youngs Moduli (GPa) = 43.60398 120.76696 59.55218
#
# Poissons Ratio (x) = 0.60329 0.10797
# Poissons Ratio (y) = 0.21782 0.18950
# Poissons Ratio (z) = 0.07906 0.38429
#
# Static dielectric constant tensor:
#      x y z
#    x 1.787320 0.000000 -0.020630 
#    y 0.000000 1.814790 0.000000 
#    z -0.020630 0.000000 1.812590 
# 
# From -- ./inp_files/48116.got.cif
#   From: 2010.05.17/outbox.cif.g08.bks.cpg/sg13_25_cif.got.tgz:48116.got - 2010.06.03 16:44:36.
