data_PCOD9228262
_publ_section_title
;
Structure prediction by ZEFSAII (Michael W. Deem and Ramdas Pophale) SiO2 
 PCOD9228262
Probable space group: P 2/C
;
_chemical_formula_sum "Si O2"
_cell_formula_units_Z 28
_cell_length_a 5.108597
_cell_length_b 24.104737
_cell_length_c 12.686834
_cell_angle_alpha 90.000000
_cell_angle_beta 104.977446
_cell_angle_gamma 90.000000
_cell_volume 1509.200180
_symmetry_space_group_name_H-M "P 2/C"
_symmetry_group_IT_number 13
_symmetry_cell_setting 'monoclinic'
loop_
_space_group_symop_operation_xyz
x,y,z
-x,y,1/2-z
-x,-y,-z
x,-y,1/2+z
loop_
_atom_site_type_symbol
_atom_site_label
_atom_site_fract_x
_atom_site_fract_y
_atom_site_fract_z
Si Si1 0.203745 0.490557 0.925737
Si Si2 0.803499 0.021859 0.324727
Si Si3 0.847282 0.388530 0.131586
Si Si4 0.250587 0.629495 0.479642
Si Si5 0.051736 0.088396 0.955015
Si Si6 0.516294 0.150684 0.877749
Si Si7 0.701046 0.730528 0.175151
O O1 0.160527 0.544649 0.851337
O O2 0.500000 0.500000 0.000000
O O3 0.199996 0.425226 0.900315
O O4 0.000000 0.500000 0.000000
O O5 0.500000 0.017307 0.250000
O O6 0.832097 0.064874 0.423635
O O7 0.000000 0.038272 0.250000
O O8 0.908301 0.963012 0.380541
O O9 0.537129 0.373347 0.072068
O O10 0.000000 0.364363 0.250000
O O11 0.020072 0.373128 0.045410
O O12 0.256878 0.682629 0.405811
O O13 0.295081 0.112289 0.910893
O O14 0.816432 0.133889 0.945035
O O15 0.500000 0.142692 0.750000
O O16 0.436102 0.214560 0.887579
O O17 0.500000 0.712860 0.250000
O O18 0.000000 0.745721 0.250000
#
# Coordination Sequence:
#
# PCOD9228262 Si02
#       7
#     4   4   4   4   4   4   4
#     4   8  16  30  48  72 102 135 171 213 264 317
#     4  11  22  36  56  86 120 149 185 226 269 329
#     4  10  19  33  55  80 107 144 181 216 266 328
#     4  10  20  36  54  78 112 140 175 228 274 323
#     4  11  22  36  59  85 113 153 184 221 280 324
#     4  11  21  37  59  83 110 141 186 233 276 332
#     4  11  23  38  58  84 108 141 184 232 286 327
#
# _framework density 18.552873000000002
#
# number of rings (size 3 to 8) (size 9 to 14) (size 15 to 20)
#    0.000    1.714    0.000    6.429    0.000    2.857 
#    0.000    4.286    0.000    8.571    0.000    0.000 
#    0.000    0.000    0.000    0.000    0.000    0.000 
#
# Total GULP energy -156164.635415 kJ/mol
# GULP energy per Si atom -5577.308408 kJ/mol
# Density = 1.851065 g / cm^3
# Si number density = 18.552873 Si / 1000 Ang^3
#
#
#
# Elastic Constant Matrix: (Units=GPa)
#
#
# Indices 1 2 3 4 5 6 
#
# 1 118.4216 8.7696 22.3005 0.0000 -5.9174 0.0000
# 2 8.7696 83.6547 36.7199 0.0000 -22.5146 0.0000
# 3 22.3005 36.7199 69.0931 0.0000 0.9002 0.0000
# 4 0.0000 0.0000 0.0000 24.7696 0.0000 -0.6333
# 5 -5.9174 -22.5146 0.9002 0.0000 19.2781 0.0000
# 6 0.0000 0.0000 0.0000 -0.6333 0.0000 38.0535
#
#
#
# Elastic Compliance Matrix: (Units=1/GPa)
#
#
# Indices 1 2 3 4 5 6 
#
# 1 0.009414 0.002691 -0.004550 0.000000 0.006245 0.000000
# 2 0.002691 0.028018 -0.016206 0.000000 0.034304 0.000000
# 3 -0.004550 -0.016206 0.024834 0.000000 -0.021483 0.000000
# 4 0.000000 0.000000 0.000000 0.040389 0.000000 0.000672
# 5 0.006245 0.034304 -0.021483 0.000000 0.094856 0.000000
# 6 0.000000 0.000000 0.000000 0.000672 0.000000 0.026290
#
#
# Mechanical properties :
#
#
# Convention : Reuss Voigt Hill
#
# Bulk Modulus (GPa) = 38.26026 45.19438 41.72732
# Shear Modulus (GPa) = 18.61207 29.97886 24.29547
#
# Velocity S-wave (km/s) = 3.17075 4.02414 3.62266
# Velocity P-wave (km/s) = 5.83712 6.78264 6.32757
#
# Compressibility (1/GPa) = 0.02613678
#
# Stress axis : x y z
#
# Youngs Moduli (GPa) = 106.22469 35.69159 40.26689
#
# Poissons Ratio (x) = -0.09605 0.18322
# Poissons Ratio (y) = -0.28586 0.65255
# Poissons Ratio (z) = 0.48332 0.57841
#
# Static dielectric constant tensor:
#      x y z
#    x 1.630480 0.000000 0.004020 
#    y 0.000000 1.619100 0.000000 
#    z 0.004020 0.000000 1.629060 
# 
# From -- ./inp_files/26768.got.cif
#   From: 2010.05.17/outbox.cif.g08.bks.cpg/sg13_14_cif.got.tgz:26768.got - 2010.06.03 16:44:36.
