data_PCOD9228301
_publ_section_title
;
Structure prediction by ZEFSAII (Michael W. Deem and Ramdas Pophale) SiO2 
 PCOD9228301
Probable space group: P 2/C
;
_chemical_formula_sum "Si O2"
_cell_formula_units_Z 20
_cell_length_a 9.743581
_cell_length_b 13.204081
_cell_length_c 14.487937
_cell_angle_alpha 90.000000
_cell_angle_beta 29.047588
_cell_angle_gamma 90.000000
_cell_volume 905.012672
_symmetry_space_group_name_H-M "P 2/C"
_symmetry_group_IT_number 13
_symmetry_cell_setting 'monoclinic'
loop_
_space_group_symop_operation_xyz
x,y,z
-x,y,1/2-z
-x,-y,-z
x,-y,1/2+z
loop_
_atom_site_type_symbol
_atom_site_label
_atom_site_fract_x
_atom_site_fract_y
_atom_site_fract_z
Si Si1 0.851424 0.890758 0.937698
Si Si2 0.310902 0.465209 0.524754
Si Si3 0.729207 0.678342 0.978139
Si Si4 0.406679 0.062557 0.202812
Si Si5 0.666617 0.252845 0.950525
O O1 0.795524 0.775149 0.001856
O O2 0.000000 0.887665 0.750000
O O3 0.076705 0.942169 0.872967
O O4 0.569404 0.956655 0.093873
O O5 0.500000 0.500000 0.500000
O O6 0.311654 0.564687 0.459747
O O7 0.397681 0.351463 0.446674
O O8 0.000000 0.451151 0.750000
O O9 0.000000 0.668646 0.750000
O O10 0.466607 0.714027 0.069236
O O11 0.500000 0.094819 0.250000
O O12 0.523071 0.150586 0.068140
O O13 0.000000 0.235104 0.750000
#
# Coordination Sequence:
#
# PCOD9228301 Si02
#       5
#     4   4   4   4   4
#     4  11  22  39  61  81 106 146 191 231 267 324
#     4   8  15  27  50  83 110 131 173 233 267 307
#     4   9  16  32  56  84 107 138 184 231 267 310
#     4  12  25  39  55  81 116 148 179 229 286 329
#     4  10  19  33  56  86 110 142 184 228 266 324
#
# _framework density 22.099138
#
# number of rings (size 3 to 8) (size 9 to 14) (size 15 to 20)
#    0.000    2.000    4.000    1.800    2.800    0.000 
#    0.000    0.000    0.000    2.400    0.000    0.000 
#    0.000    0.000    0.000    0.000    0.000    0.000 
#
# Total GULP energy -111509.929263 kJ/mol
# GULP energy per Si atom -5575.496463 kJ/mol
# Density = 2.204884 g / cm^3
# Si number density = 22.099138 Si / 1000 Ang^3
#
#
#
# Elastic Constant Matrix: (Units=GPa)
#
#
# Indices 1 2 3 4 5 6 
#
# 1 49.7432 -7.3731 18.2277 0.0000 -15.9408 0.0000
# 2 -7.3731 158.1695 1.8575 0.0000 2.7597 0.0000
# 3 18.2277 1.8575 50.7379 0.0000 -31.8678 0.0000
# 4 0.0000 0.0000 0.0000 10.3331 0.0000 -21.2610
# 5 -15.9408 2.7597 -31.8678 0.0000 31.5013 0.0000
# 6 0.0000 0.0000 0.0000 -21.2610 0.0000 -0.6273
#
#
#
# Elastic Compliance Matrix: (Units=1/GPa)
#
#
# Indices 1 2 3 4 5 6 
#
# 1 0.024291 0.001008 -0.003013 0.000000 0.009156 0.000000
# 2 0.001008 0.006421 -0.001728 0.000000 -0.001801 0.000000
# 3 -0.003013 -0.001728 0.054833 0.000000 0.054097 0.000000
# 4 0.000000 0.000000 0.000000 0.001368 0.000000 -0.046370
# 5 0.009156 -0.001801 0.054097 0.000000 0.091263 0.000000
# 6 0.000000 0.000000 0.000000 -0.046370 0.000000 -0.022536
#
#
# Mechanical properties :
#
#
# Convention : Reuss Voigt Hill
#
# Bulk Modulus (GPa) = 12.80760 31.56387 22.18573
# Shear Modulus (GPa) = 26.43670 24.63730 25.53700
#
# Velocity S-wave (km/s) = 3.46248 3.34256 3.40305
# Velocity P-wave (km/s) = 4.66831 5.40471 5.04995
#
# Compressibility (1/GPa) = 0.07807862
#
# Stress axis : x y z
#
# Youngs Moduli (GPa) = 41.16791 155.73819 18.23734
#
# Poissons Ratio (x) = -0.15697 0.05494
# Poissons Ratio (y) = -0.04149 0.03152
# Poissons Ratio (z) = 0.12402 0.26916
#
# Static dielectric constant tensor:
#      x y z
#    x 1.818550 0.000000 -0.001350 
#    y 0.000000 1.922900 0.000000 
#    z -0.001350 0.000000 1.854500 
# 
# From -- ./inp_files/64531.got.cif
#   From: 2010.05.17/outbox.cif.g08.bks.cpg/sg13_33_cif.got.tgz:64531.got - 2010.06.03 16:44:36.
