data_PCOD9228499
_publ_section_title
;
Structure prediction by ZEFSAII (Michael W. Deem and Ramdas Pophale) SiO2 
 PCOD9228499
Probable space group: P 2/C
;
_chemical_formula_sum "Si O2"
_cell_formula_units_Z 28
_cell_length_a 9.560998
_cell_length_b 9.395846
_cell_length_c 27.889304
_cell_angle_alpha 90.000000
_cell_angle_beta 142.182042
_cell_angle_gamma 90.000000
_cell_volume 1536.196744
_symmetry_space_group_name_H-M "P 2/C"
_symmetry_group_IT_number 13
_symmetry_cell_setting 'monoclinic'
loop_
_space_group_symop_operation_xyz
x,y,z
-x,y,1/2-z
-x,-y,-z
x,-y,1/2+z
loop_
_atom_site_type_symbol
_atom_site_label
_atom_site_fract_x
_atom_site_fract_y
_atom_site_fract_z
Si Si1 0.979788 0.204254 0.398165
Si Si2 0.414072 0.624007 0.671128
Si Si3 0.593972 0.969493 0.473386
Si Si4 0.847484 0.784983 0.755537
Si Si5 0.428011 0.705514 0.174898
Si Si6 0.761997 0.897861 0.204478
Si Si7 0.970763 0.075872 0.940666
O O1 0.837373 0.307783 0.393840
O O2 0.962399 0.249317 0.338080
O O3 0.240933 0.169424 0.482011
O O4 0.870102 0.046924 0.378089
O O5 0.500000 0.634626 0.750000
O O6 0.599525 0.710400 0.690270
O O7 0.408905 0.459386 0.655764
O O8 0.770158 0.095187 0.506896
O O9 0.500000 0.000000 0.500000
O O10 0.394210 0.947662 0.382033
O O11 0.000000 0.748260 0.750000
O O12 0.817771 0.955518 0.746868
O O13 0.500000 0.710785 0.250000
O O14 0.620290 0.787857 0.197229
O O15 0.192729 0.790629 0.103267
O O16 0.000000 0.836812 0.250000
O O17 0.000000 0.000000 0.000000
#
# Coordination Sequence:
#
# PCOD9228499 Si02
#       7
#     4   4   4   4   4   4   4
#     4   9  19  36  56  81 111 148 187 231 275 334
#     4   9  20  35  55  82 114 150 188 231 270 333
#     4  10  21  36  57  83 116 142 181 237 286 321
#     4  10  19  34  58  84 111 150 192 230 277 333
#     4  11  21  36  58  87 116 147 187 229 284 327
#     4  11  22  35  57  87 113 143 188 233 282 336
#     4  10  20  37  58  84 113 146 183 236 275 333
#
# _framework density 18.226832999999999
#
# number of rings (size 3 to 8) (size 9 to 14) (size 15 to 20)
#    0.857    1.143    1.429    3.429    2.000    1.714 
#    0.000    2.857    0.000    0.857    0.000    0.000 
#    0.000    0.000    0.000    0.000    0.000    0.000 
#
# Total GULP energy -155995.207840 kJ/mol
# GULP energy per Si atom -5571.257423 kJ/mol
# Density = 1.818535 g / cm^3
# Si number density = 18.226833 Si / 1000 Ang^3
#
#
#
# Elastic Constant Matrix: (Units=GPa)
#
#
# Indices 1 2 3 4 5 6 
#
# 1 141.1950 38.8012 27.1121 0.0000 21.0929 0.0000
# 2 38.8012 56.6862 2.2582 0.0000 14.5816 0.0000
# 3 27.1121 2.2582 59.1126 0.0000 15.9744 0.0000
# 4 0.0000 0.0000 0.0000 11.7117 0.0000 -6.9657
# 5 21.0929 14.5816 15.9744 0.0000 33.0425 0.0000
# 6 0.0000 0.0000 0.0000 -6.9657 0.0000 7.5147
#
#
#
# Elastic Compliance Matrix: (Units=1/GPa)
#
#
# Indices 1 2 3 4 5 6 
#
# 1 0.009729 -0.006070 -0.003768 0.000000 -0.001711 0.000000
# 2 -0.006070 0.023865 0.004223 0.000000 -0.008698 0.000000
# 3 -0.003768 0.004223 0.021093 0.000000 -0.009655 0.000000
# 4 0.000000 0.000000 0.000000 0.190299 0.000000 0.176396
# 5 -0.001711 -0.008698 -0.009655 0.000000 0.039863 0.000000
# 6 0.000000 0.000000 0.000000 0.176396 0.000000 0.296582
#
#
# Mechanical properties :
#
#
# Convention : Reuss Voigt Hill
#
# Bulk Modulus (GPa) = 23.01111 43.70410 33.35760
# Shear Modulus (GPa) = 8.23524 23.04194 15.63859
#
# Velocity S-wave (km/s) = 2.12791 3.55938 2.93234
# Velocity P-wave (km/s) = 4.32315 6.39705 5.45948
#
# Compressibility (1/GPa) = 0.04345728
#
# Stress axis : x y z
#
# Youngs Moduli (GPa) = 102.78024 41.90257 47.40875
#
# Poissons Ratio (x) = 0.25433 0.17865
# Poissons Ratio (y) = 0.62384 -0.20020
# Poissons Ratio (z) = 0.38731 -0.17695
#
# Static dielectric constant tensor:
#      x y z
#    x 1.645220 0.000000 -0.007140 
#    y 0.000000 1.623730 0.000000 
#    z -0.007140 0.000000 1.624960 
# 
# From -- ./inp_files/95972.got.cif
#   From: 2010.05.17/outbox.cif.g08.bks.cpg/sg13_48_cif.got.tgz:95972.got - 2010.06.03 16:44:36.
