data_PCOD9228221
_publ_section_title
;
Structure prediction by ZEFSAII (Michael W. Deem and Ramdas Pophale) SiO2 
 PCOD9228221
Probable space group: P 2/C
;
_chemical_formula_sum "Si O2"
_cell_formula_units_Z 24
_cell_length_a 33.378691
_cell_length_b 7.930426
_cell_length_c 5.179763
_cell_angle_alpha 90.000000
_cell_angle_beta 107.083807
_cell_angle_gamma 90.000000
_cell_volume 1310.621537
_symmetry_space_group_name_H-M "P 2/C"
_symmetry_group_IT_number 13
_symmetry_cell_setting 'monoclinic'
loop_
_space_group_symop_operation_xyz
x,y,z
-x,y,1/2-z
-x,-y,-z
x,-y,1/2+z
loop_
_atom_site_type_symbol
_atom_site_label
_atom_site_fract_x
_atom_site_fract_y
_atom_site_fract_z
Si Si1 0.667853 0.617346 0.077085
Si Si2 0.162148 0.110973 0.619176
Si Si3 0.500000 0.880912 0.750000
Si Si4 0.000000 0.619401 0.750000
Si Si5 0.091211 0.383256 0.384277
Si Si6 0.741094 0.885253 0.245926
Si Si7 0.408013 0.879481 0.582881
O O1 0.666947 0.505353 0.331345
O O2 0.709289 0.732558 0.153398
O O3 0.628309 0.742723 0.994199
O O4 0.128850 0.255164 0.498166
O O5 0.210336 0.169982 0.681069
O O6 0.156623 0.964746 0.394305
O O7 0.454488 0.794576 0.665279
O O8 0.500000 0.000000 0.500000
O O9 0.045460 0.706396 0.827890
O O10 0.000000 0.500000 0.500000
O O11 0.093381 0.526473 0.610474
O O12 0.734266 0.978808 0.505155
O O13 0.404535 0.005222 0.331992
#
# Coordination Sequence:
#
# PCOD9228221 Si02
#       7
#     4   4   2   2   4   4   4
#     4  12  24  36  53  82 111 134 170 220 263 302
#     4  10  21  36  54  78 106 132 168 216 264 306
#     4   8  16  30  54  80  98 130 182 218 236 292
#     4   8  16  30  48  72 100 134 172 206 242 300
#     4  10  19  33  54  76 102 137 175 209 250 304
#     4  10  21  39  58  74 100 142 177 206 254 316
#     4  10  19  36  58  78 104 141 179 211 252 308
#
# _framework density 18.311924000000001
#
# number of rings (size 3 to 8) (size 9 to 14) (size 15 to 20)
#    0.000    2.000    0.000    4.000    0.000    1.333 
#    0.000    1.667    0.000    0.000    0.000    0.000 
#    0.000    0.000    0.000    0.000    0.000    0.000 
#
# Total GULP energy -133899.022669 kJ/mol
# GULP energy per Si atom -5579.125945 kJ/mol
# Density = 1.827025 g / cm^3
# Si number density = 18.311924 Si / 1000 Ang^3
#
#
#
# Elastic Constant Matrix: (Units=GPa)
#
#
# Indices 1 2 3 4 5 6 
#
# 1 111.6796 60.4183 31.2629 0.0000 35.2968 0.0000
# 2 60.4183 52.9491 15.4312 0.0000 27.9220 0.0000
# 3 31.2629 15.4312 102.6132 0.0000 1.2667 0.0000
# 4 0.0000 0.0000 0.0000 35.0871 0.0000 18.1764
# 5 35.2968 27.9220 1.2667 0.0000 40.1341 0.0000
# 6 0.0000 0.0000 0.0000 18.1764 0.0000 39.9704
#
#
#
# Elastic Compliance Matrix: (Units=1/GPa)
#
#
# Indices 1 2 3 4 5 6 
#
# 1 0.024960 -0.025060 -0.003782 0.000000 -0.004398 0.000000
# 2 -0.025060 0.056947 -0.000712 0.000000 -0.017557 0.000000
# 3 -0.003782 -0.000712 0.010962 0.000000 0.003475 0.000000
# 4 0.000000 0.000000 0.000000 0.037284 0.000000 -0.016955
# 5 -0.004398 -0.017557 0.003475 0.000000 0.040889 0.000000
# 6 0.000000 0.000000 0.000000 -0.016955 0.000000 0.032729
#
#
# Mechanical properties :
#
#
# Convention : Reuss Voigt Hill
#
# Bulk Modulus (GPa) = 29.61957 53.49630 41.55793
# Shear Modulus (GPa) = 18.23944 33.71362 25.97653
#
# Velocity S-wave (km/s) = 3.15944 4.29543 3.77046
# Velocity P-wave (km/s) = 5.43319 7.34018 6.45747
#
# Compressibility (1/GPa) = 0.03376147
#
# Stress axis : x y z
#
# Youngs Moduli (GPa) = 40.06428 17.56016 91.22690
#
# Poissons Ratio (x) = 0.44005 0.34499
# Poissons Ratio (y) = 1.00400 0.06498
# Poissons Ratio (z) = 0.15151 0.01251
#
# Static dielectric constant tensor:
#      x y z
#    x 1.662450 0.000000 0.019510 
#    y 0.000000 1.576280 0.000000 
#    z 0.019510 0.000000 1.622130 
# 
# From -- ./inp_files/8029.got.cif
#   From: 2010.05.17/outbox.cif.g08.bks.cpg/sg13_5_cif.got.tgz:8029.got - 2010.06.03 16:44:36.
