data_PCOD9228288
_publ_section_title
;
Structure prediction by ZEFSAII (Michael W. Deem and Ramdas Pophale) SiO2 
 PCOD9228288
Probable space group: P 2/C
;
_chemical_formula_sum "Si O2"
_cell_formula_units_Z 20
_cell_length_a 7.048576
_cell_length_b 22.089860
_cell_length_c 5.362475
_cell_angle_alpha 90.000000
_cell_angle_beta 77.382643
_cell_angle_gamma 90.000000
_cell_volume 814.784914
_symmetry_space_group_name_H-M "P 2/C"
_symmetry_group_IT_number 13
_symmetry_cell_setting 'monoclinic'
loop_
_space_group_symop_operation_xyz
x,y,z
-x,y,1/2-z
-x,-y,-z
x,-y,1/2+z
loop_
_atom_site_type_symbol
_atom_site_label
_atom_site_fract_x
_atom_site_fract_y
_atom_site_fract_z
Si Si1 0.220357 0.975453 0.961533
Si Si2 0.718367 0.327312 0.238642
Si Si3 0.629495 0.152210 0.960707
Si Si4 0.764768 0.465863 0.317900
Si Si5 0.269428 0.720434 0.261721
O O1 0.236014 0.905437 0.026207
O O2 0.308664 0.013423 0.164240
O O3 0.000000 0.000000 0.000000
O O4 0.500000 0.303929 0.250000
O O5 0.704964 0.396005 0.334936
O O6 0.811269 0.289585 0.438004
O O7 0.803808 0.323808 0.935358
O O8 0.500000 0.139770 0.750000
O O9 0.744871 0.212894 0.852163
O O10 0.500000 0.161208 0.250000
O O11 0.701974 0.501590 0.581683
O O12 0.000000 0.465531 0.250000
O O13 0.500000 0.709901 0.250000
#
# Coordination Sequence:
#
# PCOD9228288 Si02
#       5
#     4   4   4   4   4
#     4  10  22  39  58  80 117 160 185 233 291 351
#     4  10  19  33  56  81 112 144 181 230 283 335
#     4  11  21  35  60  90 115 147 199 243 282 349
#     4  10  21  36  54  77 110 152 189 232 278 328
#     4   9  18  33  53  82 110 143 177 229 289 330
#
# _framework density 24.546354999999998
#
# number of rings (size 3 to 8) (size 9 to 14) (size 15 to 20)
#    0.000    2.000    0.000    5.400    0.000    3.200 
#    0.000    0.000   13.200    0.000    0.000    0.000 
#    0.000    0.000    0.000    0.000    0.000    0.000 
#
# Total GULP energy -111818.899526 kJ/mol
# GULP energy per Si atom -5590.944976 kJ/mol
# Density = 2.449049 g / cm^3
# Si number density = 24.546355 Si / 1000 Ang^3
#
#
#
# Elastic Constant Matrix: (Units=GPa)
#
#
# Indices 1 2 3 4 5 6 
#
# 1 78.3828 -2.1455 31.6149 0.0000 -1.6768 0.0000
# 2 -2.1455 161.9481 68.4418 0.0000 9.4761 0.0000
# 3 31.6149 68.4418 241.5817 0.0000 11.5619 0.0000
# 4 0.0000 0.0000 0.0000 50.5787 0.0000 7.9547
# 5 -1.6768 9.4761 11.5619 0.0000 34.2255 0.0000
# 6 0.0000 0.0000 0.0000 7.9547 0.0000 52.3644
#
#
#
# Elastic Compliance Matrix: (Units=1/GPa)
#
#
# Indices 1 2 3 4 5 6 
#
# 1 0.013668 0.001016 -0.002130 0.000000 0.001108 0.000000
# 2 0.001016 0.007147 -0.002099 0.000000 -0.001220 0.000000
# 3 -0.002130 -0.002099 0.005072 0.000000 -0.001236 0.000000
# 4 0.000000 0.000000 0.000000 0.020255 0.000000 -0.003077
# 5 0.001108 -0.001220 -0.001236 0.000000 0.030028 0.000000
# 6 0.000000 0.000000 0.000000 -0.003077 0.000000 0.019564
#
#
# Mechanical properties :
#
#
# Convention : Reuss Voigt Hill
#
# Bulk Modulus (GPa) = 51.38269 75.30387 63.34328
# Shear Modulus (GPa) = 46.02050 53.03382 49.52716
#
# Velocity S-wave (km/s) = 4.33464 4.65322 4.49675
# Velocity P-wave (km/s) = 6.78458 7.72106 7.26792
#
# Compressibility (1/GPa) = 0.01946181
#
# Stress axis : x y z
#
# Youngs Moduli (GPa) = 73.16148 139.92102 197.15949
#
# Poissons Ratio (x) = -0.14220 0.41988
# Poissons Ratio (y) = -0.07435 0.41391
# Poissons Ratio (z) = 0.15581 0.29375
#
# Static dielectric constant tensor:
#      x y z
#    x 1.405880 0.000000 -0.159830 
#    y 0.000000 1.886290 0.000000 
#    z -0.159830 0.000000 2.086360 
# 
# From -- ./inp_files/2094.got.cif
#   From: 2010.05.17/outbox.cif.g08.bks.cpg/sg13_2_cif.got.tgz:2094.got - 2010.06.03 16:44:36.
