data_PCOD9228826
_publ_section_title
;
Structure prediction by ZEFSAII (Michael W. Deem and Ramdas Pophale) SiO2 
 PCOD9228826
Probable space group: P 2/C
;
_chemical_formula_sum "Si O2"
_cell_formula_units_Z 28
_cell_length_a 5.861459
_cell_length_b 7.192911
_cell_length_c 26.794040
_cell_angle_alpha 90.000000
_cell_angle_beta 92.418002
_cell_angle_gamma 90.000000
_cell_volume 1128.656434
_symmetry_space_group_name_H-M "P 2/C"
_symmetry_group_IT_number 13
_symmetry_cell_setting 'monoclinic'
loop_
_space_group_symop_operation_xyz
x,y,z
-x,y,1/2-z
-x,-y,-z
x,-y,1/2+z
loop_
_atom_site_type_symbol
_atom_site_label
_atom_site_fract_x
_atom_site_fract_y
_atom_site_fract_z
Si Si1 0.455457 0.827012 0.653834
Si Si2 0.025239 0.276395 0.641570
Si Si3 0.054752 0.837463 0.861823
Si Si4 0.374749 0.886286 0.070989
Si Si5 0.000000 0.290960 0.750000
Si Si6 0.127615 0.223450 0.476393
Si Si7 0.500000 0.909863 0.250000
Si Si8 0.757111 0.607076 0.043756
O O1 0.712433 0.742582 0.656292
O O2 0.193963 0.751172 0.654188
O O3 0.450710 0.930831 0.600171
O O4 0.466723 0.965597 0.700677
O O5 0.259484 0.235079 0.614222
O O6 0.016710 0.375829 0.694661
O O7 0.891315 0.387490 0.597781
O O8 0.945462 0.060264 0.651993
O O9 0.066782 0.848611 0.921801
O O10 0.574619 0.762527 0.052263
O O11 0.220402 0.910480 0.020427
O O12 0.744185 0.195501 0.746680
O O13 0.304539 0.394902 0.468325
O O14 0.912747 0.322455 0.500029
#
# Coordination Sequence:
#
# PCOD9228826 Si02
#       8
#     4   4   4   4   2   4   2   4
#     4  11  22  36  60  87 124 145 201 241 306 345
#     4  10  21  36  58  86 119 146 201 243 299 348
#     4  11  22  39  54  93 114 157 188 245 286 358
#     4  10  19  36  56  85 114 156 192 245 283 358
#     4  12  20  34  62  90 118 152 188 248 304 346
#     4  10  24  35  59  80 122 160 201 235 302 347
#     4  12  18  36  58  90 118 156 182 252 298 356
#     4  10  20  41  55  84 115 160 202 243 289 360
#
# _framework density 24.808259
#
# number of rings (size 3 to 8) (size 9 to 14) (size 15 to 20)
#    0.000    1.429    5.714    0.429    2.000    5.714 
#    0.000    0.000    0.000    2.571    0.000    0.000 
#    0.000    0.000    0.000    0.000    0.000    0.000 
#
# Total GULP energy -156133.378131 kJ/mol
# GULP energy per Si atom -5576.192076 kJ/mol
# Density = 2.475179 g / cm^3
# Si number density = 24.808259 Si / 1000 Ang^3
#
#
#
# Elastic Constant Matrix: (Units=GPa)
#
#
# Indices 1 2 3 4 5 6 
#
# 1 179.9869 22.3810 34.2790 0.0000 -15.9692 0.0000
# 2 22.3810 56.5178 19.7249 0.0000 -7.8785 0.0000
# 3 34.2790 19.7249 117.6211 0.0000 -2.7065 0.0000
# 4 0.0000 0.0000 0.0000 14.8100 0.0000 6.1974
# 5 -15.9692 -7.8785 -2.7065 0.0000 37.9020 0.0000
# 6 0.0000 0.0000 0.0000 6.1974 0.0000 20.5471
#
#
#
# Elastic Compliance Matrix: (Units=1/GPa)
#
#
# Indices 1 2 3 4 5 6 
#
# 1 0.006238 -0.001646 -0.001492 0.000000 0.002180 0.000000
# 2 -0.001646 0.019757 -0.002760 0.000000 0.003216 0.000000
# 3 -0.001492 -0.002760 0.009387 0.000000 -0.000532 0.000000
# 4 0.000000 0.000000 0.000000 0.077275 0.000000 -0.023308
# 5 0.002180 0.003216 -0.000532 0.000000 0.027933 0.000000
# 6 0.000000 0.000000 0.000000 -0.023308 0.000000 0.055699
#
#
# Mechanical properties :
#
#
# Convention : Reuss Voigt Hill
#
# Bulk Modulus (GPa) = 42.39504 56.32174 49.35839
# Shear Modulus (GPa) = 23.15400 33.16789 28.16095
#
# Velocity S-wave (km/s) = 3.05834 3.66043 3.37285
# Velocity P-wave (km/s) = 5.44035 6.37315 5.92514
#
# Compressibility (1/GPa) = 0.02358766
#
# Stress axis : x y z
#
# Youngs Moduli (GPa) = 160.30446 50.61579 106.52822
#
# Poissons Ratio (x) = 0.08330 0.15893
# Poissons Ratio (y) = 0.26383 0.29397
# Poissons Ratio (z) = 0.23915 0.13968
#
# Static dielectric constant tensor:
#      x y z
#    x 2.162740 0.000000 0.062120 
#    y 0.000000 1.991120 0.000000 
#    z 0.062120 0.000000 1.923900 
# 
# From -- ./inp_files/90292.got.cif
#   From: 2010.05.17/outbox.cif.g08.bks.cpg/sg13_46_cif.got.tgz:90292.got - 2010.06.03 16:44:36.
