data_PCOD9228431
_publ_section_title
;
Structure prediction by ZEFSAII (Michael W. Deem and Ramdas Pophale) SiO2 
 PCOD9228431
Probable space group: P 2/C
;
_chemical_formula_sum "Si O2"
_cell_formula_units_Z 32
_cell_length_a 17.806857
_cell_length_b 6.090417
_cell_length_c 28.295355
_cell_angle_alpha 90.000000
_cell_angle_beta 31.960926
_cell_angle_gamma 90.000000
_cell_volume 1624.369456
_symmetry_space_group_name_H-M "P 2/C"
_symmetry_group_IT_number 13
_symmetry_cell_setting 'monoclinic'
loop_
_space_group_symop_operation_xyz
x,y,z
-x,y,1/2-z
-x,-y,-z
x,-y,1/2+z
loop_
_atom_site_type_symbol
_atom_site_label
_atom_site_fract_x
_atom_site_fract_y
_atom_site_fract_z
Si Si1 0.450584 0.178934 0.403171
Si Si2 0.685846 0.825836 0.272827
Si Si3 0.506371 0.550642 0.190693
Si Si4 0.932599 0.110770 0.160387
Si Si5 0.689359 0.508240 0.453787
Si Si6 0.964953 0.788231 0.315397
Si Si7 0.757637 0.798482 0.004061
Si Si8 0.221908 0.521614 0.696990
O O1 0.498537 0.313949 0.331616
O O2 0.436814 0.360617 0.452233
O O3 0.565122 0.994772 0.354253
O O4 0.308726 0.042718 0.465062
O O5 0.620727 0.693739 0.263851
O O6 0.715533 0.657000 0.299818
O O7 0.826170 0.966840 0.185422
O O8 0.500000 0.540440 0.250000
O O9 0.651657 0.663916 0.094655
O O10 0.829604 0.270000 0.245335
O O11 0.079141 0.224455 0.065545
O O12 0.002413 0.934588 0.157934
O O13 0.736872 0.310591 0.462989
O O14 0.685990 0.444820 0.400178
O O15 0.810703 0.691855 0.393767
O O16 0.074662 0.586967 0.257893
O O17 0.000000 0.926617 0.250000
#
# Coordination Sequence:
#
# PCOD9228431 Si02
#       8
#     4   4   4   4   4   4   4   4
#     4  10  21  40  61  86 119 160 209 251 303 364
#     4  10  23  40  59  90 122 163 202 244 311 359
#     4  10  23  45  68  86 112 149 201 259 316 380
#     4  11  20  34  59  88 129 163 196 246 298 350
#     4  10  19  34  55  89 125 165 212 243 278 339
#     4   9  18  28  49  83 118 162 205 233 276 330
#     4  10  21  35  63  94 120 155 204 251 297 361
#     4  10  21  33  54  86 130 168 197 244 285 341
#
# _framework density 19.699950999999999
#
# number of rings (size 3 to 8) (size 9 to 14) (size 15 to 20)
#    0.000    2.000    2.500    0.750    1.750    3.500 
#    0.000    9.375    0.000    3.750    0.000    0.000 
#    0.000    0.000    0.000    0.000    0.000    0.000 
#
# Total GULP energy -178313.905655 kJ/mol
# GULP energy per Si atom -5572.309552 kJ/mol
# Density = 1.965511 g / cm^3
# Si number density = 19.699951 Si / 1000 Ang^3
#
#
#
# Elastic Constant Matrix: (Units=GPa)
#
#
# Indices 1 2 3 4 5 6 
#
# 1 101.1059 32.1558 55.7434 0.0000 1.5327 0.0000
# 2 32.1558 70.2436 31.1703 0.0000 -3.7857 0.0000
# 3 55.7434 31.1703 76.4018 0.0000 -2.5567 0.0000
# 4 0.0000 0.0000 0.0000 16.5320 0.0000 -3.4337
# 5 1.5327 -3.7857 -2.5567 0.0000 29.3127 0.0000
# 6 0.0000 0.0000 0.0000 -3.4337 0.0000 5.4132
#
#
#
# Elastic Compliance Matrix: (Units=1/GPa)
#
#
# Indices 1 2 3 4 5 6 
#
# 1 0.017127 -0.002911 -0.011385 0.000000 -0.002264 0.000000
# 2 -0.002911 0.017956 -0.005134 0.000000 0.002023 0.000000
# 3 -0.011385 -0.005134 0.023556 0.000000 0.001987 0.000000
# 4 0.000000 0.000000 0.000000 0.069667 0.000000 0.044190
# 5 -0.002264 0.002023 0.001987 0.000000 0.034668 0.000000
# 6 0.000000 0.000000 0.000000 0.044190 0.000000 0.212763
#
#
# Mechanical properties :
#
#
# Convention : Reuss Voigt Hill
#
# Bulk Modulus (GPa) = 50.55500 53.98781 52.27141
# Shear Modulus (GPa) = 11.87113 18.83037 15.35075
#
# Velocity S-wave (km/s) = 2.45745 3.09505 2.79449
# Velocity P-wave (km/s) = 5.81122 6.34326 6.08306
#
# Compressibility (1/GPa) = 0.01978044
#
# Stress axis : x y z
#
# Youngs Moduli (GPa) = 58.38596 55.69174 42.45172
#
# Poissons Ratio (x) = 0.16210 0.48330
# Poissons Ratio (y) = 0.16994 0.21796
# Poissons Ratio (z) = 0.66470 0.28594
#
# Static dielectric constant tensor:
#      x y z
#    x 1.691840 0.000000 -0.042760 
#    y 0.000000 1.728620 0.000000 
#    z -0.042760 0.000000 1.799690 
# 
# From -- ./inp_files/97249.got.cif
#   From: 2010.05.17/outbox.cif.g08.bks.cpg/sg13_49_cif.got.tgz:97249.got - 2010.06.03 16:44:36.
