data_PCOD9228281
_publ_section_title
;
Structure prediction by ZEFSAII (Michael W. Deem and Ramdas Pophale) SiO2 
 PCOD9228281
Probable space group: P 2/C
;
_chemical_formula_sum "Si O2"
_cell_formula_units_Z 24
_cell_length_a 7.947428
_cell_length_b 9.345686
_cell_length_c 20.761072
_cell_angle_alpha 90.000000
_cell_angle_beta 61.425041
_cell_angle_gamma 90.000000
_cell_volume 1354.182164
_symmetry_space_group_name_H-M "P 2/C"
_symmetry_group_IT_number 13
_symmetry_cell_setting 'monoclinic'
loop_
_space_group_symop_operation_xyz
x,y,z
-x,y,1/2-z
-x,-y,-z
x,-y,1/2+z
loop_
_atom_site_type_symbol
_atom_site_label
_atom_site_fract_x
_atom_site_fract_y
_atom_site_fract_z
Si Si1 0.368569 0.762905 0.213212
Si Si2 0.977750 0.730118 0.135824
Si Si3 0.295964 0.665712 0.430319
Si Si4 0.317570 0.590724 0.008971
Si Si5 0.581619 0.155511 0.467914
Si Si6 0.841286 0.001668 0.829961
O O1 0.500000 0.805442 0.250000
O O2 0.173861 0.697716 0.279120
O O3 0.501216 0.662743 0.144918
O O4 0.308997 0.899259 0.181669
O O5 0.858642 0.726068 0.091390
O O6 0.061083 0.885983 0.138314
O O7 0.155231 0.623333 0.091756
O O8 0.241002 0.508450 0.465668
O O9 0.328436 0.769087 0.485555
O O10 0.409607 0.743417 0.975007
O O11 0.500000 0.500000 0.000000
O O12 0.500000 0.000000 0.500000
O O13 0.740057 0.126372 0.385140
O O14 0.000000 0.954164 0.750000
#
# Coordination Sequence:
#
# PCOD9228281 Si02
#       6
#     4   4   4   4   4   4
#     4   9  18  33  55  80 105 141 182 225 267 332
#     4  10  19  33  56  80 107 143 186 226 265 335
#     4  10  20  34  55  84 108 140 185 226 277 325
#     4  10  20  35  52  76 106 143 178 225 270 321
#     4  11  19  35  55  78 111 142 179 223 277 319
#     4  10  19  34  53  80 109 141 183 223 275 325
#
# _framework density 17.722873
#
# number of rings (size 3 to 8) (size 9 to 14) (size 15 to 20)
#    0.000    2.000    3.333    1.500    0.000    0.667 
#    0.000    3.333    0.000    3.000    0.000    0.000 
#    0.000    0.000    0.000    0.000    0.000    0.000 
#
# Total GULP energy -133709.978818 kJ/mol
# GULP energy per Si atom -5571.249117 kJ/mol
# Density = 1.768254 g / cm^3
# Si number density = 17.722873 Si / 1000 Ang^3
#
#
#
# Elastic Constant Matrix: (Units=GPa)
#
#
# Indices 1 2 3 4 5 6 
#
# 1 83.8554 26.5812 45.2467 0.0000 -0.7583 0.0000
# 2 26.5812 85.6810 48.1693 0.0000 -1.5690 0.0000
# 3 45.2467 48.1693 126.8342 0.0000 -16.8519 0.0000
# 4 0.0000 0.0000 0.0000 29.8252 0.0000 -1.9176
# 5 -0.7583 -1.5690 -16.8519 0.0000 38.3294 0.0000
# 6 0.0000 0.0000 0.0000 -1.9176 0.0000 8.3665
#
#
#
# Elastic Compliance Matrix: (Units=1/GPa)
#
#
# Indices 1 2 3 4 5 6 
#
# 1 0.015194 -0.001979 -0.004927 0.000000 -0.001947 0.000000
# 2 -0.001979 0.015241 -0.005315 0.000000 -0.001752 0.000000
# 3 -0.004927 -0.005315 0.012340 0.000000 0.005110 0.000000
# 4 0.000000 0.000000 0.000000 0.034030 0.000000 0.007800
# 5 -0.001947 -0.001752 0.005110 0.000000 0.028226 0.000000
# 6 0.000000 0.000000 0.000000 0.007800 0.000000 0.121312
#
#
# Mechanical properties :
#
#
# Convention : Reuss Voigt Hill
#
# Bulk Modulus (GPa) = 54.55075 59.59612 57.07344
# Shear Modulus (GPa) = 19.46313 27.06247 23.26280
#
# Velocity S-wave (km/s) = 3.31749 3.91190 3.62689
# Velocity P-wave (km/s) = 6.74693 7.35551 7.05778
#
# Compressibility (1/GPa) = 0.01833155
#
# Stress axis : x y z
#
# Youngs Moduli (GPa) = 65.81690 65.61151 81.04030
#
# Poissons Ratio (x) = 0.12986 0.39930
# Poissons Ratio (y) = 0.13027 0.43073
# Poissons Ratio (z) = 0.32429 0.34873
#
# Static dielectric constant tensor:
#      x y z
#    x 1.662360 0.000000 -0.017850 
#    y 0.000000 1.584450 0.000000 
#    z -0.017850 0.000000 1.641500 
# 
# From -- ./inp_files/69427.got.cif
#   From: 2010.05.17/outbox.cif.g08.bks.cpg/sg13_35_cif.got.tgz:69427.got - 2010.06.03 16:44:36.
