data_PCOD9228658
_publ_section_title
;
Structure prediction by ZEFSAII (Michael W. Deem and Ramdas Pophale) SiO2 
 PCOD9228658
Probable space group: P 2/C
;
_chemical_formula_sum "Si O2"
_cell_formula_units_Z 24
_cell_length_a 10.102106
_cell_length_b 8.942895
_cell_length_c 21.861936
_cell_angle_alpha 90.000000
_cell_angle_beta 32.380468
_cell_angle_gamma 90.000000
_cell_volume 1057.717577
_symmetry_space_group_name_H-M "P 2/C"
_symmetry_group_IT_number 13
_symmetry_cell_setting 'monoclinic'
loop_
_space_group_symop_operation_xyz
x,y,z
-x,y,1/2-z
-x,-y,-z
x,-y,1/2+z
loop_
_atom_site_type_symbol
_atom_site_label
_atom_site_fract_x
_atom_site_fract_y
_atom_site_fract_z
Si Si1 0.023858 0.462623 0.419850
Si Si2 0.508070 0.585156 0.583871
Si Si3 0.447525 0.952089 0.123898
Si Si4 0.749047 0.667849 0.261278
Si Si5 0.263193 0.158099 0.567926
Si Si6 0.334791 0.799988 0.757070
O O1 0.223528 0.576210 0.311951
O O2 0.107901 0.295097 0.371723
O O3 0.000000 0.500000 0.500000
O O4 0.766924 0.499939 0.487050
O O5 0.296200 0.460149 0.669786
O O6 0.531295 0.709975 0.522460
O O7 0.479454 0.682468 0.657012
O O8 0.465682 0.791360 0.149163
O O9 0.308379 0.921409 0.114386
O O10 0.294979 0.060121 0.228393
O O11 0.689236 0.042158 0.006410
O O12 0.000657 0.761168 0.169661
O O13 0.500000 0.846558 0.750000
#
# Coordination Sequence:
#
# PCOD9228658 Si02
#       6
#     4   4   4   4   4   4
#     4  10  19  36  61  86 123 165 205 262 308 365
#     4   9  19  36  61  91 120 158 208 257 317 365
#     4  10  21  38  58  88 123 165 202 248 313 374
#     4  10  21  36  61  95 121 158 209 259 307 374
#     4   9  20  40  64  84 127 162 202 260 314 368
#     4  10  19  35  58  85 123 165 206 252 308 370
#
# _framework density 22.690366999999998
#
# number of rings (size 3 to 8) (size 9 to 14) (size 15 to 20)
#    0.000    2.333    1.667    0.500    0.000    2.000 
#    3.000    0.833    0.000   14.000    0.000    0.000 
#    0.000    0.000    0.000    0.000    0.000    0.000 
#
# Total GULP energy -133923.795850 kJ/mol
# GULP energy per Si atom -5580.158160 kJ/mol
# Density = 2.263872 g / cm^3
# Si number density = 22.690367 Si / 1000 Ang^3
#
#
#
# Elastic Constant Matrix: (Units=GPa)
#
#
# Indices 1 2 3 4 5 6 
#
# 1 55.7481 36.5516 30.4860 0.0000 21.4182 0.0000
# 2 36.5516 154.3553 67.1811 0.0000 17.7882 0.0000
# 3 30.4860 67.1811 102.5280 0.0000 23.1213 0.0000
# 4 0.0000 0.0000 0.0000 17.8771 0.0000 18.9442
# 5 21.4182 17.7882 23.1213 0.0000 35.3858 0.0000
# 6 0.0000 0.0000 0.0000 18.9442 0.0000 18.6864
#
#
#
# Elastic Compliance Matrix: (Units=1/GPa)
#
#
# Indices 1 2 3 4 5 6 
#
# 1 0.026634 -0.003702 -0.002672 0.000000 -0.012514 0.000000
# 2 -0.003702 0.009597 -0.005401 0.000000 0.000945 0.000000
# 3 -0.002672 -0.005401 0.015375 0.000000 -0.005714 0.000000
# 4 0.000000 0.000000 0.000000 -0.752729 0.000000 0.763116
# 5 -0.012514 0.000945 -0.005714 0.000000 0.039093 0.000000
# 6 0.000000 0.000000 0.000000 0.763116 0.000000 -0.720131
#
#
# Mechanical properties :
#
#
# Convention : Reuss Voigt Hill
#
# Bulk Modulus (GPa) = 35.64112 64.56319 50.10216
# Shear Modulus (GPa) = -3.70574 26.28403 11.28915
#
# Velocity S-wave (km/s) = -1.27934 3.40719 2.23296
# Velocity P-wave (km/s) = 3.68231 6.63282 5.36441
#
# Compressibility (1/GPa) = 0.02805748
#
# Stress axis : x y z
#
# Youngs Moduli (GPa) = 37.54596 104.20079 65.03963
#
# Poissons Ratio (x) = 0.38576 0.17376
# Poissons Ratio (y) = 0.13900 0.35126
# Poissons Ratio (z) = 0.10031 0.56276
#
# Static dielectric constant tensor:
#      x y z
#    x 1.810420 0.000000 -0.005670 
#    y 0.000000 1.894750 0.000000 
#    z -0.005670 0.000000 1.917640 
# 
# From -- ./inp_files/86260.got.cif
#   From: 2010.05.17/outbox.cif.g08.bks.cpg/sg13_44_cif.got.tgz:86260.got - 2010.06.03 16:44:36.
