data_PCOD9228047
_publ_section_title
;
Structure prediction by ZEFSAII (Michael W. Deem and Ramdas Pophale) SiO2 
 PCOD9228047
Probable space group: P 2/C
;
_chemical_formula_sum "Si O2"
_cell_formula_units_Z 26
_cell_length_a 5.792750
_cell_length_b 14.523690
_cell_length_c 13.070468
_cell_angle_alpha 90.000000
_cell_angle_beta 107.598877
_cell_angle_gamma 90.000000
_cell_volume 1048.178812
_symmetry_space_group_name_H-M "P 2/C"
_symmetry_group_IT_number 13
_symmetry_cell_setting 'monoclinic'
loop_
_space_group_symop_operation_xyz
x,y,z
-x,y,1/2-z
-x,-y,-z
x,-y,1/2+z
loop_
_atom_site_type_symbol
_atom_site_label
_atom_site_fract_x
_atom_site_fract_y
_atom_site_fract_z
Si Si1 0.786167 0.095644 0.588035
Si Si2 0.837522 0.415022 0.937944
Si Si3 0.467574 0.556576 0.867062
Si Si4 0.134980 0.227811 0.428219
Si Si5 0.000000 0.523468 0.250000
Si Si6 0.641283 0.251415 0.426993
Si Si7 0.714586 0.942487 0.409434
O O1 0.737595 0.199846 0.542164
O O2 0.574447 0.072414 0.641237
O O3 0.067146 0.068312 0.643596
O O4 0.730465 0.036647 0.476482
O O5 0.570861 0.458210 0.912284
O O6 0.886128 0.413186 0.822703
O O7 0.844807 0.318575 0.996860
O O8 0.000000 0.500000 0.000000
O O9 0.500000 0.570008 0.750000
O O10 0.620448 0.639046 0.934764
O O11 0.181099 0.546036 0.833046
O O12 0.354614 0.229530 0.376142
O O13 0.204295 0.138127 0.501986
O O14 0.845811 0.226554 0.370264
#
# Coordination Sequence:
#
# PCOD9228047 Si02
#       7
#     4   4   4   4   2   4   4
#     4   8  14  25  44  66 104 132 158 210 262 315
#     4  11  21  36  56  78 108 148 188 237 282 336
#     4  10  22  36  51  74 107 142 184 227 279 331
#     4  10  20  30  52  79 105 136 179 220 270 328
#     4  10  24  38  52  76 110 150 192 234 288 340
#     4  10  19  32  50  79 104 137 179 218 273 329
#     4   8  14  26  41  70 103 130 161 209 262 313
#
# _framework density 24.804929999999999
#
# number of rings (size 3 to 8) (size 9 to 14) (size 15 to 20)
#    0.000    2.462    1.538    0.923    4.308    1.231 
#    0.000    0.000    0.000    0.000    0.000    3.231 
#    0.000    1.231    0.000    0.000    0.000    0.308 
#
# Total GULP energy -144771.284152 kJ/mol
# GULP energy per Si atom -5568.126314 kJ/mol
# Density = 2.474847 g / cm^3
# Si number density = 24.804930 Si / 1000 Ang^3
#
#
#
# Elastic Constant Matrix: (Units=GPa)
#
#
# Indices 1 2 3 4 5 6 
#
# 1 250.4065 4.9079 39.6264 0.0000 27.9212 0.0000
# 2 4.9079 117.6977 32.9469 0.0000 6.8347 0.0000
# 3 39.6264 32.9469 65.1785 0.0000 12.0708 0.0000
# 4 0.0000 0.0000 0.0000 -57.4968 0.0000 10.9540
# 5 27.9212 6.8347 12.0708 0.0000 36.1352 0.0000
# 6 0.0000 0.0000 0.0000 10.9540 0.0000 37.4655
#
#
#
# Elastic Compliance Matrix: (Units=1/GPa)
#
#
# Indices 1 2 3 4 5 6 
#
# 1 0.004730 0.000729 -0.002709 0.000000 -0.002888 0.000000
# 2 0.000729 0.010011 -0.005381 0.000000 -0.000659 0.000000
# 3 -0.002709 -0.005381 0.020395 0.000000 -0.003702 0.000000
# 4 0.000000 0.000000 0.000000 -0.016475 0.000000 0.004817
# 5 -0.002888 -0.000659 -0.003702 0.000000 0.031266 0.000000
# 6 0.000000 0.000000 0.000000 0.004817 0.000000 0.025283
#
#
# Mechanical properties :
#
#
# Convention : Reuss Voigt Hill
#
# Bulk Modulus (GPa) = 48.98985 65.36056 57.17520
# Shear Modulus (GPa) = 51.68601 26.94090 39.31345
#
# Velocity S-wave (km/s) = 4.56971 3.29919 3.98541
# Velocity P-wave (km/s) = 6.90188 6.39687 6.65417
#
# Compressibility (1/GPa) = 0.02041239
#
# Stress axis : x y z
#
# Youngs Moduli (GPa) = 211.41925 99.89417 49.03080
#
# Poissons Ratio (x) = -0.07281 0.13284
# Poissons Ratio (y) = -0.15409 0.26385
# Poissons Ratio (z) = 0.57280 0.53756
#
# Static dielectric constant tensor:
#      x y z
#    x 2.163770 0.000000 -0.061010 
#    y 0.000000 1.903560 0.000000 
#    z -0.061010 0.000000 1.769940 
# 
# From -- ./inp_files/61267.got.cif
#   From: 2010.05.17/outbox.cif.g08.bks.cpg/sg13_31_cif.got.tgz:61267.got - 2010.06.03 16:44:36.
