data_PCOD9228905
_publ_section_title
;
Structure prediction by ZEFSAII (Michael W. Deem and Ramdas Pophale) SiO2 
 PCOD9228905
Probable space group: P 2/C
;
_chemical_formula_sum "Si O2"
_cell_formula_units_Z 20
_cell_length_a 18.980162
_cell_length_b 8.350763
_cell_length_c 17.302259
_cell_angle_alpha 90.000000
_cell_angle_beta 159.656096
_cell_angle_gamma 90.000000
_cell_volume 953.402736
_symmetry_space_group_name_H-M "P 2/C"
_symmetry_group_IT_number 13
_symmetry_cell_setting 'monoclinic'
loop_
_space_group_symop_operation_xyz
x,y,z
-x,y,1/2-z
-x,-y,-z
x,-y,1/2+z
loop_
_atom_site_type_symbol
_atom_site_label
_atom_site_fract_x
_atom_site_fract_y
_atom_site_fract_z
Si Si1 0.366958 0.379088 0.041550
Si Si2 0.886578 0.864961 0.832200
Si Si3 0.739431 0.293391 0.328630
Si Si4 0.997065 0.592064 0.652750
Si Si5 0.086421 0.085106 0.763959
O O1 0.500000 0.438121 0.250000
O O2 0.512287 0.304996 0.126206
O O3 0.217537 0.516872 0.859874
O O4 0.224185 0.236896 0.926450
O O5 0.758898 0.754749 0.758866
O O6 0.027704 0.750118 0.924808
O O7 0.786601 0.972506 0.662431
O O8 0.000000 0.000000 0.000000
O O9 0.838963 0.461198 0.458062
O O10 0.885862 0.161223 0.518613
O O11 0.000000 0.606953 0.750000
O O12 0.000000 0.998217 0.750000
#
# Coordination Sequence:
#
# PCOD9228905 Si02
#       5
#     4   4   4   4   4
#     4  11  19  36  63  87 112 147 198 244 280 326
#     4  10  23  39  57  85 122 155 183 233 295 341
#     4  10  20  38  61  85 115 150 189 244 288 327
#     4  11  21  38  64  88 108 148 199 236 280 342
#     4  10  19  36  60  84 115 156 195 229 285 348
#
# _framework density 20.977495999999999
#
# number of rings (size 3 to 8) (size 9 to 14) (size 15 to 20)
#    0.000    1.600    4.000    2.400    0.000    1.600 
#    0.000    5.000    0.000    0.000    0.000    0.000 
#    0.000    0.000    0.000    0.000    0.000    0.000 
#
# Total GULP energy -111367.433681 kJ/mol
# GULP energy per Si atom -5568.371684 kJ/mol
# Density = 2.092975 g / cm^3
# Si number density = 20.977496 Si / 1000 Ang^3
#
#
#
# Elastic Constant Matrix: (Units=GPa)
#
#
# Indices 1 2 3 4 5 6 
#
# 1 137.7140 57.2593 25.4497 0.0000 19.3348 0.0000
# 2 57.2593 87.6921 6.3925 0.0000 -0.7045 0.0000
# 3 25.4497 6.3925 55.7264 0.0000 17.1043 0.0000
# 4 0.0000 0.0000 0.0000 -3.2180 0.0000 -3.2555
# 5 19.3348 -0.7045 17.1043 0.0000 21.2677 0.0000
# 6 0.0000 0.0000 0.0000 -3.2555 0.0000 42.3356
#
#
#
# Elastic Compliance Matrix: (Units=1/GPa)
#
#
# Indices 1 2 3 4 5 6 
#
# 1 0.012313 -0.008007 -0.001577 0.000000 -0.010191 0.000000
# 2 -0.008007 0.016765 -0.000891 0.000000 0.008551 0.000000
# 3 -0.001577 -0.000891 0.024346 0.000000 -0.018176 0.000000
# 4 0.000000 0.000000 0.000000 -0.288320 0.000000 -0.022171
# 5 -0.010191 0.008551 -0.018176 0.000000 0.071185 0.000000
# 6 0.000000 0.000000 0.000000 -0.022171 0.000000 0.021916
#
#
# Mechanical properties :
#
#
# Convention : Reuss Voigt Hill
#
# Bulk Modulus (GPa) = 30.79318 51.03729 40.91523
# Shear Modulus (GPa) = -45.44565 24.87912 -10.28327
#
# Velocity S-wave (km/s) = -4.65951 3.44756 -2.21646
# Velocity P-wave (km/s) = 3.77320 6.34270 3.60506
#
# Compressibility (1/GPa) = 0.03247473
#
# Stress axis : x y z
#
# Youngs Moduli (GPa) = 81.21804 59.64771 41.07454
#
# Poissons Ratio (x) = 0.47757 0.06476
# Poissons Ratio (y) = 0.65027 0.03661
# Poissons Ratio (z) = 0.12806 0.05316
#
# Static dielectric constant tensor:
#      x y z
#    x 1.865960 0.000000 0.010060 
#    y 0.000000 1.799620 0.000000 
#    z 0.010060 0.000000 1.752920 
# 
# From -- ./inp_files/60705.got.cif
#   From: 2010.05.17/outbox.cif.g08.bks.cpg/sg13_31_cif.got.tgz:60705.got - 2010.06.03 16:44:36.
