data_PCOD9228286
_publ_section_title
;
Structure prediction by ZEFSAII (Michael W. Deem and Ramdas Pophale) SiO2 
 PCOD9228286
Probable space group: P 2/C
;
_chemical_formula_sum "Si O2"
_cell_formula_units_Z 20
_cell_length_a 7.914134
_cell_length_b 22.285037
_cell_length_c 7.240244
_cell_angle_alpha 90.000000
_cell_angle_beta 140.683976
_cell_angle_gamma 90.000000
_cell_volume 809.064709
_symmetry_space_group_name_H-M "P 2/C"
_symmetry_group_IT_number 13
_symmetry_cell_setting 'monoclinic'
loop_
_space_group_symop_operation_xyz
x,y,z
-x,y,1/2-z
-x,-y,-z
x,-y,1/2+z
loop_
_atom_site_type_symbol
_atom_site_label
_atom_site_fract_x
_atom_site_fract_y
_atom_site_fract_z
Si Si1 0.033108 0.631555 0.560545
Si Si2 0.542177 0.569968 0.067700
Si Si3 0.934193 0.768686 0.411251
Si Si4 0.204547 0.952552 0.581840
Si Si5 0.426255 0.837182 0.907749
O O1 0.000000 0.621187 0.750000
O O2 0.845087 0.587126 0.290779
O O3 0.918120 0.697948 0.429006
O O4 0.339463 0.614024 0.790260
O O5 0.500000 0.580374 0.250000
O O6 0.500000 0.500000 0.000000
O O7 0.000000 0.774970 0.250000
O O8 0.190336 0.790700 0.738644
O O9 0.684297 0.812863 0.230926
O O10 0.500000 0.972850 0.750000
O O11 0.299643 0.903432 0.813596
O O12 0.000000 0.000000 0.500000
O O13 0.000000 0.926125 0.250000
O O14 0.500000 0.836226 0.750000
#
# Coordination Sequence:
#
# PCOD9228286 Si02
#       5
#     4   4   4   4   4
#     4  10  21  36  53  79 112 145 179 229 294 346
#     4  10  21  36  54  76 107 144 183 227 281 343
#     4  10  19  33  56  81 106 143 192 236 279 345
#     4  11  22  39  64  93 127 167 209 259 316 379
#     4   9  18  34  56  83 113 149 192 241 293 345
#
# _framework density 24.719902000000001
#
# number of rings (size 3 to 8) (size 9 to 14) (size 15 to 20)
#    0.000    2.000    0.000    5.400    0.000    1.600 
#    0.000    1.000    0.000   10.800    0.000    0.000 
#    0.000    0.000    0.000    0.000    0.000    0.000 
#
# Total GULP energy -111629.008147 kJ/mol
# GULP energy per Si atom -5581.450407 kJ/mol
# Density = 2.466364 g / cm^3
# Si number density = 24.719902 Si / 1000 Ang^3
#
#
#
# Elastic Constant Matrix: (Units=GPa)
#
#
# Indices 1 2 3 4 5 6 
#
# 1 83.9327 5.2402 40.7751 0.0000 16.2629 0.0000
# 2 5.2402 144.7871 68.7775 0.0000 24.3967 0.0000
# 3 40.7751 68.7775 180.0515 0.0000 26.8127 0.0000
# 4 0.0000 0.0000 0.0000 211.8784 0.0000 -75.3079
# 5 16.2629 24.3967 26.8127 0.0000 31.7020 0.0000
# 6 0.0000 0.0000 0.0000 -75.3079 0.0000 63.6977
#
#
#
# Elastic Compliance Matrix: (Units=1/GPa)
#
#
# Indices 1 2 3 4 5 6 
#
# 1 0.014539 0.002030 -0.003117 0.000000 -0.006384 0.000000
# 2 0.002030 0.009270 -0.003184 0.000000 -0.005482 0.000000
# 3 -0.003117 -0.003184 0.007864 0.000000 -0.002601 0.000000
# 4 0.000000 0.000000 0.000000 0.008140 0.000000 0.009624
# 5 -0.006384 -0.005482 -0.002601 0.000000 0.041237 0.000000
# 6 0.000000 0.000000 0.000000 0.009624 0.000000 0.027078
#
#
# Mechanical properties :
#
#
# Convention : Reuss Voigt Hill
#
# Bulk Modulus (GPa) = 43.23471 70.92855 57.08163
# Shear Modulus (GPa) = 40.19938 81.05420 60.62679
#
# Velocity S-wave (km/s) = 4.03699 5.73238 4.95769
# Velocity P-wave (km/s) = 6.26558 8.51873 7.47751
#
# Compressibility (1/GPa) = 0.02312957
#
# Stress axis : x y z
#
# Youngs Moduli (GPa) = 68.78038 107.88029 127.16705
#
# Poissons Ratio (x) = -0.21904 0.39643
# Poissons Ratio (y) = -0.13965 0.40494
# Poissons Ratio (z) = 0.21442 0.34353
#
# Static dielectric constant tensor:
#      x y z
#    x 2.055040 0.000000 -0.028550 
#    y 0.000000 1.963240 0.000000 
#    z -0.028550 0.000000 1.968650 
# 
# From -- ./inp_files/13827.got.cif
#   From: 2010.05.17/outbox.cif.g08.bks.cpg/sg13_7_cif.got.tgz:13827.got - 2010.06.03 16:44:36.
