data_PCOD9228087
_publ_section_title
;
Structure prediction by ZEFSAII (Michael W. Deem and Ramdas Pophale) SiO2 
 PCOD9228087
Probable space group: P 2/C
;
_chemical_formula_sum "Si O2"
_cell_formula_units_Z 22
_cell_length_a 5.913212
_cell_length_b 9.652578
_cell_length_c 22.523856
_cell_angle_alpha 90.000000
_cell_angle_beta 129.427112
_cell_angle_gamma 90.000000
_cell_volume 993.048381
_symmetry_space_group_name_H-M "P 2/C"
_symmetry_group_IT_number 13
_symmetry_cell_setting 'monoclinic'
loop_
_space_group_symop_operation_xyz
x,y,z
-x,y,1/2-z
-x,-y,-z
x,-y,1/2+z
loop_
_atom_site_type_symbol
_atom_site_label
_atom_site_fract_x
_atom_site_fract_y
_atom_site_fract_z
Si Si1 0.000000 0.530120 0.750000
Si Si2 0.450716 0.299898 0.025204
Si Si3 0.638562 0.166478 0.945495
Si Si4 0.142693 0.332011 0.155804
Si Si5 0.388362 0.459653 0.599882
Si Si6 0.251535 0.904619 0.595710
O O1 0.843000 0.623582 0.773689
O O2 0.736754 0.449405 0.673312
O O3 0.343591 0.448802 0.032510
O O4 0.364337 0.192360 0.061424
O O5 0.799613 0.316540 0.085584
O O6 0.400667 0.227353 0.952733
O O7 0.740518 0.307520 0.930536
O O8 0.586558 0.050422 0.886667
O O9 0.898631 0.091491 0.026197
O O10 0.253878 0.454090 0.131488
O O11 0.286933 0.187181 0.160332
#
# Coordination Sequence:
#
# PCOD9228087 Si02
#       6
#     2   4   4   4   4   4
#     4  10  20  36  56  70  92 136 186 232 260 298
#     4   9  18  32  52  80 108 139 170 205 260 321
#     4  10  19  32  52  81 115 140 166 212 266 323
#     4   9  19  35  54  75 100 135 179 219 261 309
#     4  10  20  33  54  77 103 136 179 222 262 309
#     4   9  19  33  52  80 112 142 168 207 267 326
#
# _framework density 22.154008000000001
#
# number of rings (size 3 to 8) (size 9 to 14) (size 15 to 20)
#    0.000    2.545    0.000    1.636    0.000    9.455 
#    0.000    0.000    0.000   26.182    0.000    0.000 
#    0.000    0.000    0.000    0.000    0.000    0.000 
#
# Total GULP energy -122599.825584 kJ/mol
# GULP energy per Si atom -5572.719345 kJ/mol
# Density = 2.210358 g / cm^3
# Si number density = 22.154008 Si / 1000 Ang^3
#
#
#
# Elastic Constant Matrix: (Units=GPa)
#
#
# Indices 1 2 3 4 5 6 
#
# 1 67.6568 27.8384 28.2688 0.0000 -21.9699 0.0000
# 2 27.8384 168.9728 34.5002 0.0000 -23.9571 0.0000
# 3 28.2688 34.5002 70.3320 0.0000 -18.5719 0.0000
# 4 0.0000 0.0000 0.0000 17.2284 0.0000 -2.5353
# 5 -21.9699 -23.9571 -18.5719 0.0000 46.5414 0.0000
# 6 0.0000 0.0000 0.0000 -2.5353 0.0000 23.7600
#
#
#
# Elastic Compliance Matrix: (Units=1/GPa)
#
#
# Indices 1 2 3 4 5 6 
#
# 1 0.019718 -0.001182 -0.005643 0.000000 0.006448 0.000000
# 2 -0.001182 0.006885 -0.002363 0.000000 0.002043 0.000000
# 3 -0.005643 -0.002363 0.018578 0.000000 0.003534 0.000000
# 4 0.000000 0.000000 0.000000 0.058970 0.000000 0.006292
# 5 0.006448 0.002043 0.003534 0.000000 0.026992 0.000000
# 6 0.000000 0.000000 0.000000 0.006292 0.000000 0.042759
#
#
# Mechanical properties :
#
#
# Convention : Reuss Voigt Hill
#
# Bulk Modulus (GPa) = 37.30487 54.24183 45.77335
# Shear Modulus (GPa) = 24.84927 31.92958 28.38942
#
# Velocity S-wave (km/s) = 3.35275 3.80051 3.58363
# Velocity P-wave (km/s) = 5.64476 6.61782 6.15057
#
# Compressibility (1/GPa) = 0.02680615
#
# Stress axis : x y z
#
# Youngs Moduli (GPa) = 50.71382 145.24418 53.82592
#
# Poissons Ratio (x) = 0.17172 0.30374
# Poissons Ratio (y) = 0.05996 0.12717
# Poissons Ratio (z) = 0.28618 0.34315
#
# Static dielectric constant tensor:
#      x y z
#    x 1.903170 0.000000 0.018160 
#    y 0.000000 1.845400 0.000000 
#    z 0.018160 0.000000 1.891470 
# 
# From -- ./inp_files/73102.got.cif
#   From: 2010.05.17/outbox.cif.g08.bks.cpg/sg13_37_cif.got.tgz:73102.got - 2010.06.03 16:44:36.
