data_PCOD9228425
_publ_section_title
;
Structure prediction by ZEFSAII (Michael W. Deem and Ramdas Pophale) SiO2 
 PCOD9228425
Probable space group: P 2/C
;
_chemical_formula_sum "Si O2"
_cell_formula_units_Z 30
_cell_length_a 15.988803
_cell_length_b 8.550630
_cell_length_c 21.045407
_cell_angle_alpha 90.000000
_cell_angle_beta 148.195184
_cell_angle_gamma 90.000000
_cell_volume 1516.367440
_symmetry_space_group_name_H-M "P 2/C"
_symmetry_group_IT_number 13
_symmetry_cell_setting 'monoclinic'
loop_
_space_group_symop_operation_xyz
x,y,z
-x,y,1/2-z
-x,-y,-z
x,-y,1/2+z
loop_
_atom_site_type_symbol
_atom_site_label
_atom_site_fract_x
_atom_site_fract_y
_atom_site_fract_z
Si Si1 0.193087 0.705219 0.006936
Si Si2 0.740457 0.364083 0.395334
Si Si3 0.979342 0.816383 0.493146
Si Si4 0.660217 0.109826 0.732478
Si Si5 0.500000 0.100682 0.750000
Si Si6 0.397410 0.868574 0.897238
Si Si7 0.546306 0.654431 0.888064
Si Si8 0.640035 0.680983 0.505726
O O1 0.206484 0.530666 0.042593
O O2 0.045603 0.776115 0.949109
O O3 0.355639 0.792502 0.132571
O O4 0.208592 0.717300 0.941315
O O5 0.604844 0.386294 0.254279
O O6 0.670415 0.285463 0.414497
O O7 0.883173 0.274568 0.453830
O O8 0.808074 0.786172 0.349698
O O9 0.000000 0.000000 0.500000
O O10 0.582734 0.019409 0.743409
O O11 0.518326 0.220581 0.616288
O O12 0.714892 0.979890 0.717510
O O13 0.503691 0.778345 0.914354
O O14 0.332098 0.740845 0.904623
O O15 0.500000 0.000000 0.000000
O O16 0.601740 0.498429 0.961969
#
# Coordination Sequence:
#
# PCOD9228425 Si02
#       8
#     4   4   4   4   2   4   4   4
#     4   9  17  32  52  76 103 130 167 210 261 313
#     4  10  20  33  55  81 104 131 166 219 272 312
#     4  11  21  31  48  77 110 139 165 205 263 318
#     4   9  18  32  49  74 106 139 174 208 256 312
#     4   8  14  28  52  74 100 134 164 212 264 302
#     4  10  20  32  51  76 103 138 174 209 248 299
#     4  10  19  34  55  81 104 127 172 222 265 309
#     4   9  18  34  56  76 100 136 175 216 256 303
#
# _framework density 19.784123999999998
#
# number of rings (size 3 to 8) (size 9 to 14) (size 15 to 20)
#    0.000    2.400    0.000    4.800    0.000    5.333 
#    0.000    0.000    0.000   11.200    0.000   16.800 
#    0.000    0.000    0.000    0.000    0.000    0.000 
#
# Total GULP energy -167056.328668 kJ/mol
# GULP energy per Si atom -5568.544289 kJ/mol
# Density = 1.973909 g / cm^3
# Si number density = 19.784124 Si / 1000 Ang^3
#
#
#
# Elastic Constant Matrix: (Units=GPa)
#
#
# Indices 1 2 3 4 5 6 
#
# 1 180.3549 57.2786 29.1290 0.0000 -4.3764 0.0000
# 2 57.2786 55.2493 6.2724 0.0000 -8.6738 0.0000
# 3 29.1290 6.2724 21.5911 0.0000 0.7643 0.0000
# 4 0.0000 0.0000 0.0000 21.2218 0.0000 -6.6027
# 5 -4.3764 -8.6738 0.7643 0.0000 26.9582 0.0000
# 6 0.0000 0.0000 0.0000 -6.6027 0.0000 37.8413
#
#
#
# Elastic Compliance Matrix: (Units=1/GPa)
#
#
# Indices 1 2 3 4 5 6 
#
# 1 0.010399 -0.009687 -0.011176 0.000000 -0.001112 0.000000
# 2 -0.009687 0.028830 0.004425 0.000000 0.007578 0.000000
# 3 -0.011176 0.004425 0.060182 0.000000 -0.002097 0.000000
# 4 0.000000 0.000000 0.000000 0.049826 0.000000 0.008694
# 5 -0.001112 0.007578 -0.002097 0.000000 0.039412 0.000000
# 6 0.000000 0.000000 0.000000 0.008694 0.000000 0.027943
#
#
# Mechanical properties :
#
#
# Convention : Reuss Voigt Hill
#
# Bulk Modulus (GPa) = 15.02968 49.17283 32.10125
# Shear Modulus (GPa) = 18.40633 28.17195 23.28914
#
# Velocity S-wave (km/s) = 3.05349 3.77764 3.43470
# Velocity P-wave (km/s) = 4.47717 6.62843 5.65602
#
# Compressibility (1/GPa) = 0.06653504
#
# Stress axis : x y z
#
# Youngs Moduli (GPa) = 96.16203 34.68653 16.61626
#
# Poissons Ratio (x) = 0.33600 0.18571
# Poissons Ratio (y) = 0.93150 -0.07353
# Poissons Ratio (z) = 1.07473 -0.15349
#
# Static dielectric constant tensor:
#      x y z
#    x 1.716230 0.000000 -0.047240 
#    y 0.000000 1.733850 0.000000 
#    z -0.047240 0.000000 1.741650 
# 
# From -- ./inp_files/79691.got.cif
#   From: 2010.05.17/outbox.cif.g08.bks.cpg/sg13_40_cif.got.tgz:79691.got - 2010.06.03 16:44:36.
