data_PCOD9228078
_publ_section_title
;
Structure prediction by ZEFSAII (Michael W. Deem and Ramdas Pophale) SiO2 
 PCOD9228078
Probable space group: P 2/C
;
_chemical_formula_sum "Si O2"
_cell_formula_units_Z 32
_cell_length_a 26.881933
_cell_length_b 10.375630
_cell_length_c 22.127556
_cell_angle_alpha 90.000000
_cell_angle_beta 17.500577
_cell_angle_gamma 90.000000
_cell_volume 1855.940693
_symmetry_space_group_name_H-M "P 2/C"
_symmetry_group_IT_number 13
_symmetry_cell_setting 'monoclinic'
loop_
_space_group_symop_operation_xyz
x,y,z
-x,y,1/2-z
-x,-y,-z
x,-y,1/2+z
loop_
_atom_site_type_symbol
_atom_site_label
_atom_site_fract_x
_atom_site_fract_y
_atom_site_fract_z
Si Si1 0.991573 0.663734 0.948992
Si Si2 0.741304 0.169998 0.084158
Si Si3 0.523247 0.398957 0.384333
Si Si4 0.107758 0.170014 0.717706
Si Si5 0.372673 0.336265 0.686767
Si Si6 0.636252 0.045090 0.794047
Si Si7 0.996875 0.045091 0.072824
Si Si8 0.838401 0.398970 0.754021
O O1 0.059382 0.806408 0.858516
O O2 0.105863 0.544883 0.797789
O O3 0.815158 0.650712 0.119694
O O4 0.952508 0.649690 0.065818
O O5 0.648623 0.302103 0.207260
O O6 0.645251 0.052829 0.227751
O O7 0.768218 0.152287 0.981780
O O8 0.923209 0.174004 0.903579
O O9 0.489148 0.350333 0.492534
O O10 0.586861 0.544872 0.316788
O O11 0.348510 0.395982 0.552986
O O12 0.139615 0.302112 0.716266
O O13 0.108722 0.052846 0.764289
O O14 0.395168 0.193603 0.686940
O O15 0.815120 0.041858 0.619754
O O16 0.500000 0.000000 0.000000
O O17 0.000000 0.000000 0.000000
#
# Coordination Sequence:
#
# PCOD9228078 Si02
#       8
#     4   4   4   4   4   4   4   4
#     4   9  18  32  51  78 108 135 171 220 268 312
#     4  10  21  36  54  77 107 143 178 216 268 327
#     4  10  19  32  52  78 106 138 175 218 264 312
#     4  10  21  36  54  77 107 143 178 216 268 327
#     4   9  18  32  51  78 108 135 171 220 268 312
#     4  10  19  33  54  79 107 138 178 224 268 316
#     4  10  19  33  54  79 107 138 178 224 268 316
#     4  10  19  32  52  78 106 138 175 218 264 312
#
# _framework density 17.24193
#
# number of rings (size 3 to 8) (size 9 to 14) (size 15 to 20)
#    0.000    2.250    2.500    0.750    0.000    2.500 
#    0.000    1.250    0.000    4.500    0.000    0.000 
#    0.000    0.000    0.000    0.000    0.000    0.000 
#
# Total GULP energy -178529.454602 kJ/mol
# GULP energy per Si atom -5579.045456 kJ/mol
# Density = 1.720269 g / cm^3
# Si number density = 17.241930 Si / 1000 Ang^3
#
#
#
# Elastic Constant Matrix: (Units=GPa)
#
#
# Indices 1 2 3 4 5 6 
#
# 1 65.6869 59.5097 26.9396 0.0000 29.5830 0.0000
# 2 59.5097 178.8598 63.6921 0.0000 29.9663 0.0000
# 3 26.9396 63.6921 73.8691 0.0000 29.1383 0.0000
# 4 0.0000 0.0000 0.0000 24.1818 0.0000 0.8613
# 5 29.5830 29.9663 29.1383 0.0000 18.2765 0.0000
# 6 0.0000 0.0000 0.0000 0.8613 0.0000 24.0622
#
#
#
# Elastic Compliance Matrix: (Units=1/GPa)
#
#
# Indices 1 2 3 4 5 6 
#
# 1 -0.707705 0.133616 -0.599691 0.000000 1.882532 0.000000
# 2 0.133616 -0.016927 0.108403 0.000000 -0.361350 0.000000
# 3 -0.599691 0.108403 -0.468887 0.000000 1.540492 0.000000
# 4 0.000000 0.000000 0.000000 0.041406 0.000000 -0.001482
# 5 1.882532 -0.361350 1.540492 0.000000 -4.855966 0.000000
# 6 0.000000 0.000000 0.000000 -0.001482 0.000000 0.041612
#
#
# Mechanical properties :
#
#
# Convention : Reuss Voigt Hill
#
# Bulk Modulus (GPa) = -0.52387 68.74430 34.11022
# Shear Modulus (GPa) = -0.84927 24.52238 11.83655
#
# Velocity S-wave (km/s) = -0.70259 3.77537 2.62295
# Velocity P-wave (km/s) = 0.98116 7.67864 5.38511
#
# Compressibility (1/GPa) = -1.90886267
#
# Stress axis : x y z
#
# Youngs Moduli (GPa) = -1.41302 -59.07707 -2.13271
#
# Poissons Ratio (x) = 7.89362 -1.27897
# Poissons Ratio (y) = 0.18880 0.23119
# Poissons Ratio (z) = -0.84737 6.40416
#
# Static dielectric constant tensor:
#      x y z
#    x 1.569530 0.000000 -0.004490 
#    y 0.000000 1.583140 0.000000 
#    z -0.004490 0.000000 1.568840 
# 
# From -- ./inp_files/82508.got.cif
#   From: 2010.05.17/outbox.cif.g08.bks.cpg/sg13_42_cif.got.tgz:82508.got - 2010.06.03 16:44:36.
