data_PCOD9228164
_publ_section_title
;
Structure prediction by ZEFSAII (Michael W. Deem and Ramdas Pophale) SiO2 
 PCOD9228164
Probable space group: P 2/C
;
_chemical_formula_sum "Si O2"
_cell_formula_units_Z 32
_cell_length_a 20.139240
_cell_length_b 15.635490
_cell_length_c 8.944146
_cell_angle_alpha 90.000000
_cell_angle_beta 40.049205
_cell_angle_gamma 90.000000
_cell_volume 1812.195502
_symmetry_space_group_name_H-M "P 2/C"
_symmetry_group_IT_number 13
_symmetry_cell_setting 'monoclinic'
loop_
_space_group_symop_operation_xyz
x,y,z
-x,y,1/2-z
-x,-y,-z
x,-y,1/2+z
loop_
_atom_site_type_symbol
_atom_site_label
_atom_site_fract_x
_atom_site_fract_y
_atom_site_fract_z
Si Si1 0.900517 0.906980 0.774060
Si Si2 0.377758 0.896245 0.452827
Si Si3 0.874581 0.396802 0.298513
Si Si4 0.882596 0.853276 0.116046
Si Si5 0.877472 0.431832 0.629792
Si Si6 0.207496 0.773323 0.717374
Si Si7 0.728249 0.040946 0.061527
Si Si8 0.102045 0.293646 0.677907
O O1 0.859258 0.858815 0.699870
O O2 0.022032 0.920264 0.547662
O O3 0.877423 0.838734 0.947854
O O4 0.830138 0.987402 0.934765
O O5 0.500000 0.889568 0.250000
O O6 0.322574 0.808437 0.495201
O O7 0.329812 0.919714 0.697469
O O8 0.343304 0.972981 0.401607
O O9 0.837845 0.410522 0.532491
O O10 0.848409 0.472147 0.226293
O O11 0.832997 0.307168 0.308097
O O12 0.999178 0.410065 0.089016
O O13 0.777293 0.890133 0.363525
O O14 0.919658 0.774262 0.152373
O O15 0.849781 0.374156 0.820421
O O16 0.184939 0.747194 0.925233
O O17 0.000000 0.311203 0.750000
#
# Coordination Sequence:
#
# PCOD9228164 Si02
#       8
#     4   4   4   4   4   4   4   4
#     4  10  21  33  50  77 109 151 179 215 272 335
#     4  11  24  41  60  78 102 142 191 250 296 329
#     4  10  19  33  49  81 113 155 182 217 254 322
#     4  11  20  33  50  76 115 146 178 217 270 338
#     4  10  20  30  52  78 121 151 184 208 256 320
#     4  11  21  35  54  76 111 143 189 230 278 330
#     4  11  21  38  55  79 105 136 186 233 283 341
#     4  12  20  31  50  78 112 149 187 219 266 324
#
# _framework density 17.658138999999998
#
# number of rings (size 3 to 8) (size 9 to 14) (size 15 to 20)
#    0.000    1.250    5.000    2.250    1.750    2.000 
#    2.250    0.000    0.000    0.000    0.000    3.500 
#    0.000    0.000    0.000    0.000    0.000    0.000 
#
# Total GULP energy -178334.912828 kJ/mol
# GULP energy per Si atom -5572.966026 kJ/mol
# Density = 1.761795 g / cm^3
# Si number density = 17.658139 Si / 1000 Ang^3
#
#
#
# Elastic Constant Matrix: (Units=GPa)
#
#
# Indices 1 2 3 4 5 6 
#
# 1 47.5664 17.9070 24.9190 0.0000 -0.1055 0.0000
# 2 17.9070 69.6180 26.1006 0.0000 -1.7693 0.0000
# 3 24.9190 26.1006 65.8088 0.0000 0.6776 0.0000
# 4 0.0000 0.0000 0.0000 17.8591 0.0000 6.0502
# 5 -0.1055 -1.7693 0.6776 0.0000 38.2349 0.0000
# 6 0.0000 0.0000 0.0000 6.0502 0.0000 22.7906
#
#
#
# Elastic Compliance Matrix: (Units=1/GPa)
#
#
# Indices 1 2 3 4 5 6 
#
# 1 0.026995 -0.003653 -0.008774 0.000000 0.000061 0.000000
# 2 -0.003653 0.017398 -0.005526 0.000000 0.000893 0.000000
# 3 -0.008774 -0.005526 0.020716 0.000000 -0.000647 0.000000
# 4 0.000000 0.000000 0.000000 0.061527 0.000000 -0.016333
# 5 0.000061 0.000893 -0.000647 0.000000 0.026207 0.000000
# 6 0.000000 0.000000 0.000000 -0.016333 0.000000 0.048214
#
#
# Mechanical properties :
#
#
# Convention : Reuss Voigt Hill
#
# Bulk Modulus (GPa) = 34.24224 35.64962 34.94593
# Shear Modulus (GPa) = 20.26773 23.38137 21.82455
#
# Velocity S-wave (km/s) = 3.39157 3.64278 3.51942
# Velocity P-wave (km/s) = 5.89668 6.15839 6.02896
#
# Compressibility (1/GPa) = 0.02920370
#
# Stress axis : x y z
#
# Youngs Moduli (GPa) = 37.04411 57.47704 48.27112
#
# Poissons Ratio (x) = 0.20994 0.42352
# Poissons Ratio (y) = 0.13531 0.26677
# Poissons Ratio (z) = 0.32502 0.31765
#
# Static dielectric constant tensor:
#      x y z
#    x 1.650480 0.000000 0.037840 
#    y 0.000000 1.668700 0.000000 
#    z 0.037840 0.000000 1.607520 
# 
# From -- ./inp_files/23534.got.cif
#   From: 2010.05.17/outbox.cif.g08.bks.cpg/sg13_12_cif.got.tgz:23534.got - 2010.06.03 16:44:36.
