data_PCOD9228884
_publ_section_title
;
Structure prediction by ZEFSAII (Michael W. Deem and Ramdas Pophale) SiO2 
 PCOD9228884
Probable space group: P 2/C
;
_chemical_formula_sum "Si O2"
_cell_formula_units_Z 28
_cell_length_a 13.665763
_cell_length_b 19.588390
_cell_length_c 5.489021
_cell_angle_alpha 90.000000
_cell_angle_beta 64.547472
_cell_angle_gamma 90.000000
_cell_volume 1326.744254
_symmetry_space_group_name_H-M "P 2/C"
_symmetry_group_IT_number 13
_symmetry_cell_setting 'monoclinic'
loop_
_space_group_symop_operation_xyz
x,y,z
-x,y,1/2-z
-x,-y,-z
x,-y,1/2+z
loop_
_atom_site_type_symbol
_atom_site_label
_atom_site_fract_x
_atom_site_fract_y
_atom_site_fract_z
Si Si1 0.160306 0.312537 0.667484
Si Si2 0.853794 0.729438 0.820034
Si Si3 0.679415 0.182013 0.984474
Si Si4 0.611689 0.770092 0.058956
Si Si5 0.000000 0.145971 0.250000
Si Si6 0.870151 0.459648 0.895937
Si Si7 0.000000 0.938265 0.250000
Si Si8 0.759162 0.031939 0.999840
O O1 0.097615 0.288871 0.493084
O O2 0.245180 0.249828 0.605770
O O3 0.194646 0.388873 0.562771
O O4 0.113375 0.317316 0.989712
O O5 0.895493 0.804806 0.841796
O O6 0.723414 0.727441 0.930956
O O7 0.628760 0.178439 0.768973
O O8 0.742029 0.112459 0.977544
O O9 0.605111 0.195546 0.300823
O O10 0.500000 0.732887 0.250000
O O11 0.996552 0.106054 0.507082
O O12 0.848427 0.505560 0.680109
O O13 0.000000 0.443539 0.750000
O O14 0.111405 0.979906 0.126185
O O15 0.715396 0.993104 0.807648
#
# Coordination Sequence:
#
# PCOD9228884 Si02
#       8
#     4   4   4   4   2   4   2   4
#     4  10  20  36  55  79 115 143 197 232 271 329
#     4  10  21  32  52  87 115 147 183 233 284 331
#     4  10  21  38  58  87 107 140 190 242 284 341
#     4  10  19  36  59  84 116 145 183 240 293 335
#     4  12  22  35  56  84 118 139 178 238 278 335
#     4  10  21  35  52  76 114 157 194 228 271 334
#     4  12  22  37  54  76 106 149 190 220 278 345
#     4  12  24  40  59  78 114 153 187 237 291 346
#
# _framework density 21.104291
#
# number of rings (size 3 to 8) (size 9 to 14) (size 15 to 20)
#    0.000    1.429    0.000    7.714    2.000    0.000 
#    1.286    0.000    0.000    8.571    0.000    0.000 
#    0.000  182.857    0.000    0.000    0.000    0.000 
#
# Total GULP energy -156123.540235 kJ/mol
# GULP energy per Si atom -5575.840723 kJ/mol
# Density = 2.105626 g / cm^3
# Si number density = 21.104291 Si / 1000 Ang^3
#
#
#
# Elastic Constant Matrix: (Units=GPa)
#
#
# Indices 1 2 3 4 5 6 
#
# 1 63.7625 14.6716 41.4363 0.0000 4.8048 0.0000
# 2 14.6716 98.3094 34.2730 0.0000 15.1834 0.0000
# 3 41.4363 34.2730 175.3686 0.0000 47.9158 0.0000
# 4 0.0000 0.0000 0.0000 32.8174 0.0000 12.8825
# 5 4.8048 15.1834 47.9158 0.0000 52.0556 0.0000
# 6 0.0000 0.0000 0.0000 12.8825 0.0000 10.6251
#
#
#
# Elastic Compliance Matrix: (Units=1/GPa)
#
#
# Indices 1 2 3 4 5 6 
#
# 1 0.019137 -0.001592 -0.005150 0.000000 0.003438 0.000000
# 2 -0.001592 0.011153 -0.001276 0.000000 -0.001932 0.000000
# 3 -0.005150 -0.001276 0.009268 0.000000 -0.007683 0.000000
# 4 0.000000 0.000000 0.000000 0.058146 0.000000 -0.070500
# 5 0.003438 -0.001932 -0.007683 0.000000 0.026529 0.000000
# 6 0.000000 0.000000 0.000000 -0.070500 0.000000 0.179596
#
#
# Mechanical properties :
#
#
# Convention : Reuss Voigt Hill
#
# Bulk Modulus (GPa) = 42.51238 57.57806 50.04522
# Shear Modulus (GPa) = 15.25767 35.57025 25.41396
#
# Velocity S-wave (km/s) = 2.69172 4.10988 3.47394
# Velocity P-wave (km/s) = 5.46335 7.06140 6.31314
#
# Compressibility (1/GPa) = 0.02352256
#
# Stress axis : x y z
#
# Youngs Moduli (GPa) = 52.25422 89.66525 107.90061
#
# Poissons Ratio (x) = 0.14271 0.55571
# Poissons Ratio (y) = 0.08317 0.13765
# Poissons Ratio (z) = 0.26912 0.11439
#
# Static dielectric constant tensor:
#      x y z
#    x 1.803140 0.000000 0.003920 
#    y 0.000000 1.763280 0.000000 
#    z 0.003920 0.000000 1.868150 
# 
# From -- ./inp_files/5228.got.cif
#   From: 2010.05.17/outbox.cif.g08.bks.cpg/sg13_3_cif.got.tgz:5228.got - 2010.06.03 16:44:36.
