data_PCOD9228509
_publ_section_title
;
Structure prediction by ZEFSAII (Michael W. Deem and Ramdas Pophale) SiO2 
 PCOD9228509
Probable space group: P 2/C
;
_chemical_formula_sum "Si O2"
_cell_formula_units_Z 32
_cell_length_a 14.336658
_cell_length_b 5.502230
_cell_length_c 18.530939
_cell_angle_alpha 90.000000
_cell_angle_beta 80.629968
_cell_angle_gamma 90.000000
_cell_volume 1442.283028
_symmetry_space_group_name_H-M "P 2/C"
_symmetry_group_IT_number 13
_symmetry_cell_setting 'monoclinic'
loop_
_space_group_symop_operation_xyz
x,y,z
-x,y,1/2-z
-x,-y,-z
x,-y,1/2+z
loop_
_atom_site_type_symbol
_atom_site_label
_atom_site_fract_x
_atom_site_fract_y
_atom_site_fract_z
Si Si1 0.725983 0.634581 0.774968
Si Si2 0.627366 0.080905 0.407576
Si Si3 0.451369 0.854320 0.367058
Si Si4 0.594149 0.635097 0.661903
Si Si5 0.002627 0.282825 0.837697
Si Si6 0.926060 0.212411 0.192665
Si Si7 0.785744 0.305862 0.901407
Si Si8 0.330799 0.580121 0.479893
O O1 0.658680 0.819015 0.826064
O O2 0.674205 0.559941 0.708405
O O3 0.823204 0.761841 0.739828
O O4 0.752278 0.426433 0.829619
O O5 0.610993 0.315065 0.459766
O O6 0.534725 0.921019 0.411351
O O7 0.717312 0.924112 0.422780
O O8 0.477529 0.592328 0.329990
O O9 0.351081 0.792206 0.418746
O O10 0.438367 0.091862 0.320695
O O11 0.629508 0.637811 0.573884
O O12 0.896018 0.254326 0.879184
O O13 0.000000 0.293290 0.750000
O O14 0.048227 0.541021 0.853301
O O15 0.061084 0.041919 0.849750
O O16 0.000000 0.202702 0.250000
O O17 0.764368 0.494854 0.969130
#
# Coordination Sequence:
#
# PCOD9228509 Si02
#       8
#     4   4   4   4   4   4   4   4
#     4  11  24  39  63  96 129 169 213 272 329 398
#     4  11  23  37  66  96 128 163 227 277 311 373
#     4  10  24  44  62  90 128 178 216 257 321 380
#     4  10  25  44  62  89 129 182 209 257 328 391
#     4  10  19  34  58  88 127 151 198 265 328 372
#     4  10  19  36  57  90 117 165 197 259 326 382
#     4  11  22  38  63 103 123 162 218 275 318 383
#     4   9  23  40  67  91 128 176 219 269 317 380
#
# _framework density 22.187045999999999
#
# number of rings (size 3 to 8) (size 9 to 14) (size 15 to 20)
#    0.750    1.000    2.500    2.625    7.000    1.500 
#    0.000    0.000    0.000    1.500    0.000    0.000 
#    0.000    0.000    0.000    0.000    0.000    0.000 
#
# Total GULP energy -178286.045461 kJ/mol
# GULP energy per Si atom -5571.438921 kJ/mol
# Density = 2.213655 g / cm^3
# Si number density = 22.187046 Si / 1000 Ang^3
#
#
#
# Elastic Constant Matrix: (Units=GPa)
#
#
# Indices 1 2 3 4 5 6 
#
# 1 54.8143 8.1291 43.8636 0.0000 -20.5374 0.0000
# 2 8.1291 124.9531 25.3948 0.0000 -2.5267 0.0000
# 3 43.8636 25.3948 86.5851 0.0000 -24.5484 0.0000
# 4 0.0000 0.0000 0.0000 -8.9224 0.0000 -14.2282
# 5 -20.5374 -2.5267 -24.5484 0.0000 17.1491 0.0000
# 6 0.0000 0.0000 0.0000 -14.2282 0.0000 28.7229
#
#
#
# Elastic Compliance Matrix: (Units=1/GPa)
#
#
# Indices 1 2 3 4 5 6 
#
# 1 0.038251 0.000338 -0.010898 0.000000 0.030258 0.000000
# 2 0.000338 0.008671 -0.003766 0.000000 -0.003708 0.000000
# 3 -0.010898 -0.003766 0.024097 0.000000 0.020887 0.000000
# 4 0.000000 0.000000 0.000000 -0.062615 0.000000 -0.031017
# 5 0.030258 -0.003708 0.020887 0.000000 0.123901 0.000000
# 6 0.000000 0.000000 0.000000 -0.031017 0.000000 0.019451
#
#
# Mechanical properties :
#
#
# Convention : Reuss Voigt Hill
#
# Bulk Modulus (GPa) = 23.60312 46.79192 35.19752
# Shear Modulus (GPa) = 25.70287 19.98760 22.84523
#
# Velocity S-wave (km/s) = 3.40731 3.00470 3.21232
# Velocity P-wave (km/s) = 5.11283 5.75962 5.44583
#
# Compressibility (1/GPa) = 0.04236728
#
# Stress axis : x y z
#
# Youngs Moduli (GPa) = 26.14296 115.32181 41.49916
#
# Poissons Ratio (x) = -0.03901 0.45228
# Poissons Ratio (y) = -0.00884 0.15628
# Poissons Ratio (z) = 0.28492 0.43430
#
# Static dielectric constant tensor:
#      x y z
#    x 1.731600 0.000000 -0.030410 
#    y 0.000000 1.921050 0.000000 
#    z -0.030410 0.000000 1.831290 
# 
# From -- ./inp_files/67582.got.cif
#   From: 2010.05.17/outbox.cif.g08.bks.cpg/sg13_34_cif.got.tgz:67582.got - 2010.06.03 16:44:36.
