data_PCOD9228528
_publ_section_title
;
Structure prediction by ZEFSAII (Michael W. Deem and Ramdas Pophale) SiO2 
 PCOD9228528
Probable space group: P 2/C
;
_chemical_formula_sum "Si O2"
_cell_formula_units_Z 28
_cell_length_a 15.557844
_cell_length_b 5.460251
_cell_length_c 16.871810
_cell_angle_alpha 90.000000
_cell_angle_beta 116.124666
_cell_angle_gamma 90.000000
_cell_volume 1286.831624
_symmetry_space_group_name_H-M "P 2/C"
_symmetry_group_IT_number 13
_symmetry_cell_setting 'monoclinic'
loop_
_space_group_symop_operation_xyz
x,y,z
-x,y,1/2-z
-x,-y,-z
x,-y,1/2+z
loop_
_atom_site_type_symbol
_atom_site_label
_atom_site_fract_x
_atom_site_fract_y
_atom_site_fract_z
Si Si1 0.100425 0.068331 0.835238
Si Si2 0.829560 0.048690 0.460126
Si Si3 0.887551 0.454415 0.964029
Si Si4 0.509853 0.555013 0.346216
Si Si5 0.604309 0.393183 0.566281
Si Si6 0.807108 0.569683 0.611992
Si Si7 0.615314 0.051147 0.441353
O O1 0.158490 0.823299 0.837453
O O2 0.000000 0.057505 0.750000
O O3 0.151041 0.322728 0.832810
O O4 0.100500 0.066233 0.932991
O O5 0.838857 0.297632 0.414553
O O6 0.723579 0.036212 0.453951
O O7 0.857252 0.811050 0.421006
O O8 0.848408 0.434882 0.039028
O O9 0.000000 0.500000 0.000000
O O10 0.500000 0.575722 0.250000
O O11 0.405196 0.573539 0.344269
O O12 0.563860 0.296628 0.385635
O O13 0.563517 0.800839 0.398190
O O14 0.500000 0.500000 0.500000
O O15 0.693429 0.539592 0.567440
O O16 0.613806 0.121091 0.534213
#
# Coordination Sequence:
#
# PCOD9228528 Si02
#       7
#     4   4   4   4   4   4   4
#     4  10  20  35  61  84 124 160 203 266 330 367
#     4  10  20  35  63  88 120 158 216 260 314 381
#     4  10  19  34  59  84 121 152 201 266 323 356
#     4  11  25  41  65  94 141 168 216 271 342 387
#     4  10  22  39  71 101 126 174 228 270 323 399
#     4  10  21  37  60  89 125 159 212 263 317 385
#     4  11  21  41  69  96 124 178 223 267 319 401
#
# _framework density 21.758868
#
# number of rings (size 3 to 8) (size 9 to 14) (size 15 to 20)
#    0.000    1.714    2.857    2.571    6.000    2.286 
#    0.000    0.000   37.714    0.000    0.000    0.000 
#    0.000    0.000    0.000    0.000    0.000    0.000 
#
# Total GULP energy -156146.723602 kJ/mol
# GULP energy per Si atom -5576.668700 kJ/mol
# Density = 2.170934 g / cm^3
# Si number density = 21.758868 Si / 1000 Ang^3
#
#
#
# Elastic Constant Matrix: (Units=GPa)
#
#
# Indices 1 2 3 4 5 6 
#
# 1 144.6024 36.8026 19.5672 0.0000 7.7369 0.0000
# 2 36.8026 211.5219 29.7550 0.0000 17.0771 0.0000
# 3 19.5672 29.7550 50.4603 0.0000 4.4059 0.0000
# 4 0.0000 0.0000 0.0000 10.9974 0.0000 -12.6832
# 5 7.7369 17.0771 4.4059 0.0000 31.6573 0.0000
# 6 0.0000 0.0000 0.0000 -12.6832 0.0000 -65.4588
#
#
#
# Elastic Compliance Matrix: (Units=1/GPa)
#
#
# Indices 1 2 3 4 5 6 
#
# 1 0.007510 -0.000901 -0.002291 0.000000 -0.001030 0.000000
# 2 -0.000901 0.005448 -0.002658 0.000000 -0.002349 0.000000
# 3 -0.002291 -0.002658 0.022371 0.000000 -0.001120 0.000000
# 4 0.000000 0.000000 0.000000 0.074323 0.000000 -0.014401
# 5 -0.001030 -0.002349 -0.001120 0.000000 0.033263 0.000000
# 6 0.000000 0.000000 0.000000 -0.014401 0.000000 -0.012487
#
#
# Mechanical properties :
#
#
# Convention : Reuss Voigt Hill
#
# Bulk Modulus (GPa) = 42.32090 64.31490 53.31790
# Shear Modulus (GPa) = 33.33242 16.80317 25.06779
#
# Velocity S-wave (km/s) = 3.91820 2.78194 3.39790
# Velocity P-wave (km/s) = 6.32154 6.31990 6.32072
#
# Compressibility (1/GPa) = 0.02362898
#
# Stress axis : x y z
#
# Youngs Moduli (GPa) = 133.15578 183.55493 44.70081
#
# Poissons Ratio (x) = 0.16542 0.10240
# Poissons Ratio (y) = 0.12000 0.11881
# Poissons Ratio (z) = 0.30503 0.48788
#
# Static dielectric constant tensor:
#      x y z
#    x 1.840160 0.000000 -0.059390 
#    y 0.000000 1.898920 0.000000 
#    z -0.059390 0.000000 1.877150 
# 
# From -- ./inp_files/67625.got.cif
#   From: 2010.05.17/outbox.cif.g08.bks.cpg/sg13_34_cif.got.tgz:67625.got - 2010.06.03 16:44:36.
