data_PCOD9228356
_publ_section_title
;
Structure prediction by ZEFSAII (Michael W. Deem and Ramdas Pophale) SiO2 
 PCOD9228356
Probable space group: P 2/C
;
_chemical_formula_sum "Si O2"
_cell_formula_units_Z 28
_cell_length_a 13.670566
_cell_length_b 14.045293
_cell_length_c 13.915604
_cell_angle_alpha 90.000000
_cell_angle_beta 29.863297
_cell_angle_gamma 90.000000
_cell_volume 1330.422778
_symmetry_space_group_name_H-M "P 2/C"
_symmetry_group_IT_number 13
_symmetry_cell_setting 'monoclinic'
loop_
_space_group_symop_operation_xyz
x,y,z
-x,y,1/2-z
-x,-y,-z
x,-y,1/2+z
loop_
_atom_site_type_symbol
_atom_site_label
_atom_site_fract_x
_atom_site_fract_y
_atom_site_fract_z
Si Si1 0.891227 0.266788 0.246226
Si Si2 0.319319 0.401421 0.192021
Si Si3 0.833888 0.105484 0.172295
Si Si4 0.451918 0.785859 0.186331
Si Si5 0.783056 0.901303 0.270843
Si Si6 0.414625 0.427706 0.718192
Si Si7 0.479551 0.775565 0.882003
O O1 0.872190 0.343454 0.177972
O O2 0.957555 0.167736 0.143876
O O3 0.665752 0.242189 0.464612
O O4 0.000000 0.295952 0.250000
O O5 0.274281 0.489238 0.299997
O O6 0.475764 0.329023 0.109991
O O7 0.415911 0.433025 0.008236
O O8 0.654557 0.161870 0.278139
O O9 0.744458 0.014342 0.303190
O O10 0.987621 0.093450 0.954141
O O11 0.500000 0.825555 0.250000
O O12 0.338844 0.855287 0.213051
O O13 0.345069 0.682247 0.283486
O O14 0.715585 0.832681 0.415760
O O15 0.500000 0.449988 0.750000
O O16 0.500000 0.770326 0.750000
#
# Coordination Sequence:
#
# PCOD9228356 Si02
#       7
#     4   4   4   4   4   4   4
#     4  10  19  36  56  86 118 157 198 252 306 361
#     4   9  18  34  56  87 121 158 205 251 305 365
#     4  10  23  39  59  85 120 153 201 261 298 361
#     4  10  19  33  61  89 115 161 205 251 307 368
#     4  11  21  41  58  86 123 156 203 254 305 366
#     4   9  16  30  57  90 115 157 210 249 301 374
#     4  11  22  39  61  86 119 165 200 249 308 373
#
# _framework density 21.045943000000001
#
# number of rings (size 3 to 8) (size 9 to 14) (size 15 to 20)
#    0.000    2.000    4.286    1.714    0.000    1.143 
#    5.143    0.000    0.000   26.571    0.000    0.000 
#    0.000    0.000    0.000    0.000    0.000    0.000 
#
# Total GULP energy -155936.240089 kJ/mol
# GULP energy per Si atom -5569.151432 kJ/mol
# Density = 2.099804 g / cm^3
# Si number density = 21.045943 Si / 1000 Ang^3
#
#
#
# Elastic Constant Matrix: (Units=GPa)
#
#
# Indices 1 2 3 4 5 6 
#
# 1 109.9360 51.3948 8.5445 0.0000 32.2104 0.0000
# 2 51.3948 103.5383 0.7640 0.0000 8.1308 0.0000
# 3 8.5445 0.7640 63.4689 0.0000 9.5141 0.0000
# 4 0.0000 0.0000 0.0000 13.9026 0.0000 3.2302
# 5 32.2104 8.1308 9.5141 0.0000 37.2636 0.0000
# 6 0.0000 0.0000 0.0000 3.2302 0.0000 15.5042
#
#
#
# Elastic Compliance Matrix: (Units=1/GPa)
#
#
# Indices 1 2 3 4 5 6 
#
# 1 0.015939 -0.006952 -0.000233 0.000000 -0.012201 0.000000
# 2 -0.006952 0.012862 0.000313 0.000000 0.003123 0.000000
# 3 -0.000233 0.000313 0.016391 0.000000 -0.004052 0.000000
# 4 0.000000 0.000000 0.000000 0.075588 0.000000 -0.015748
# 5 -0.012201 0.003123 -0.004052 0.000000 0.037736 0.000000
# 6 0.000000 0.000000 0.000000 -0.015748 0.000000 0.067780
#
#
# Mechanical properties :
#
#
# Convention : Reuss Voigt Hill
#
# Bulk Modulus (GPa) = 31.79951 44.26107 38.03029
# Shear Modulus (GPa) = 19.95830 27.75006 23.85418
#
# Velocity S-wave (km/s) = 3.08282 3.63512 3.37030
# Velocity P-wave (km/s) = 5.27391 6.22054 5.76668
#
# Compressibility (1/GPa) = 0.03144702
#
# Stress axis : x y z
#
# Youngs Moduli (GPa) = 62.73773 77.75056 61.01020
#
# Poissons Ratio (x) = 0.54053 0.01422
# Poissons Ratio (y) = 0.43616 -0.01909
# Poissons Ratio (z) = 0.01463 -0.02433
#
# Static dielectric constant tensor:
#      x y z
#    x 1.743200 0.000000 0.008750 
#    y 0.000000 1.904760 0.000000 
#    z 0.008750 0.000000 1.883870 
# 
# From -- ./inp_files/53819.got.cif
#   From: 2010.05.17/outbox.cif.g08.bks.cpg/sg13_27_cif.got.tgz:53819.got - 2010.06.03 16:44:36.
