data_PCOD9228677
_publ_section_title
;
Structure prediction by ZEFSAII (Michael W. Deem and Ramdas Pophale) SiO2 
 PCOD9228677
Probable space group: P 2/C
;
_chemical_formula_sum "Si O2"
_cell_formula_units_Z 30
_cell_length_a 9.251377
_cell_length_b 10.606649
_cell_length_c 29.321508
_cell_angle_alpha 90.000000
_cell_angle_beta 147.560506
_cell_angle_gamma 90.000000
_cell_volume 1543.357944
_symmetry_space_group_name_H-M "P 2/C"
_symmetry_group_IT_number 13
_symmetry_cell_setting 'monoclinic'
loop_
_space_group_symop_operation_xyz
x,y,z
-x,y,1/2-z
-x,-y,-z
x,-y,1/2+z
loop_
_atom_site_type_symbol
_atom_site_label
_atom_site_fract_x
_atom_site_fract_y
_atom_site_fract_z
Si Si1 0.379794 0.468638 0.671148
Si Si2 0.748679 0.833219 0.048759
Si Si3 0.393434 0.571821 0.854007
Si Si4 0.059020 0.293757 0.988454
Si Si5 0.007456 0.709168 0.926285
Si Si6 0.593053 0.399044 0.562516
Si Si7 0.112002 0.098285 0.376647
Si Si8 0.000000 0.198062 0.250000
O O1 0.500000 0.419244 0.750000
O O2 0.606616 0.518929 0.696918
O O3 0.184908 0.587557 0.630898
O O4 0.209846 0.364668 0.598780
O O5 0.861659 0.805791 0.028781
O O6 0.771637 0.707038 0.085512
O O7 0.889315 0.953613 0.108447
O O8 0.428447 0.861479 0.959823
O O9 0.283423 0.475980 0.862458
O O10 0.249566 0.705615 0.818552
O O11 0.706099 0.599980 0.948873
O O12 0.043773 0.243323 0.035871
O O13 0.972154 0.811427 0.876924
O O14 0.318691 0.666605 0.006720
O O15 0.500000 0.500000 0.500000
O O16 0.995702 0.119970 0.295377
#
# Coordination Sequence:
#
# PCOD9228677 Si02
#       8
#     4   4   4   4   4   4   4   2
#     4  11  21  34  56  89 128 155 193 257 310 358
#     4  10  21  37  62  84 117 164 203 240 299 359
#     4  11  20  35  58  92 116 156 196 246 313 354
#     4  11  19  38  61  86 119 161 200 248 307 369
#     4  10  19  35  59  84 117 157 204 242 294 367
#     4  11  17  33  60  90 115 150 197 247 293 367
#     4  10  22  39  58  88 116 161 207 248 290 359
#     4  12  22  38  62  90 122 150 202 258 296 354
#
# _framework density 19.438134999999999
#
# number of rings (size 3 to 8) (size 9 to 14) (size 15 to 20)
#    0.000    1.333    5.333    2.400    0.000    1.600 
#    0.000    2.000    0.000    0.800    0.000    0.000 
#    0.000    0.000    0.000    0.000    0.000    0.000 
#
# Total GULP energy -167573.697492 kJ/mol
# GULP energy per Si atom -5585.789916 kJ/mol
# Density = 1.939389 g / cm^3
# Si number density = 19.438135 Si / 1000 Ang^3
#
#
#
# Elastic Constant Matrix: (Units=GPa)
#
#
# Indices 1 2 3 4 5 6 
#
# 1 103.5102 37.4477 29.5096 0.0000 -37.8939 0.0000
# 2 37.4477 88.9518 27.2713 0.0000 -31.7200 0.0000
# 3 29.5096 27.2713 72.6666 0.0000 -36.0392 0.0000
# 4 0.0000 0.0000 0.0000 24.0188 0.0000 -9.4596
# 5 -37.8939 -31.7200 -36.0392 0.0000 41.4768 0.0000
# 6 0.0000 0.0000 0.0000 -9.4596 0.0000 21.7954
#
#
#
# Elastic Compliance Matrix: (Units=1/GPa)
#
#
# Indices 1 2 3 4 5 6 
#
# 1 0.014814 -0.001934 0.001210 0.000000 0.013107 0.000000
# 2 -0.001934 0.015710 -0.000049 0.000000 0.010205 0.000000
# 3 0.001210 -0.000049 0.024282 0.000000 0.022167 0.000000
# 4 0.000000 0.000000 0.000000 0.050218 0.000000 0.021796
# 5 0.013107 0.010205 0.022167 0.000000 0.063150 0.000000
# 6 0.000000 0.000000 0.000000 0.021796 0.000000 0.055341
#
#
# Mechanical properties :
#
#
# Convention : Reuss Voigt Hill
#
# Bulk Modulus (GPa) = 18.77555 50.39843 34.58699
# Shear Modulus (GPa) = 20.59188 28.85152 24.72170
#
# Velocity S-wave (km/s) = 3.25830 3.85681 3.57012
# Velocity P-wave (km/s) = 4.88216 6.76884 5.90138
#
# Compressibility (1/GPa) = 0.05326076
#
# Stress axis : x y z
#
# Youngs Moduli (GPa) = 67.50527 63.65227 41.18237
#
# Poissons Ratio (x) = 0.12307 -0.04984
# Poissons Ratio (y) = 0.13052 0.00204
# Poissons Ratio (z) = -0.08170 0.00315
#
# Static dielectric constant tensor:
#      x y z
#    x 1.722340 0.000000 0.020120 
#    y 0.000000 1.665070 0.000000 
#    z 0.020120 0.000000 1.708760 
# 
# From -- ./inp_files/85220.got.cif
#   From: 2010.05.17/outbox.cif.g08.bks.cpg/sg13_43_cif.got.tgz:85220.got - 2010.06.03 16:44:36.
