data_PCOD9228385
_publ_section_title
;
Structure prediction by ZEFSAII (Michael W. Deem and Ramdas Pophale) SiO2 
 PCOD9228385
Probable space group: P 2/C
;
_chemical_formula_sum "Si O2"
_cell_formula_units_Z 28
_cell_length_a 5.401926
_cell_length_b 21.601844
_cell_length_c 10.114462
_cell_angle_alpha 90.000000
_cell_angle_beta 107.901115
_cell_angle_gamma 90.000000
_cell_volume 1123.133529
_symmetry_space_group_name_H-M "P 2/C"
_symmetry_group_IT_number 13
_symmetry_cell_setting 'monoclinic'
loop_
_space_group_symop_operation_xyz
x,y,z
-x,y,1/2-z
-x,-y,-z
x,-y,1/2+z
loop_
_atom_site_type_symbol
_atom_site_label
_atom_site_fract_x
_atom_site_fract_y
_atom_site_fract_z
Si Si1 0.709377 0.921373 0.955005
Si Si2 0.429036 0.241250 0.531911
Si Si3 0.421412 0.382941 0.592864
Si Si4 0.293304 0.062155 0.609779
Si Si5 0.892979 0.199766 0.484859
Si Si6 0.922093 0.442786 0.580884
Si Si7 0.756884 0.305149 0.263336
O O1 0.441125 0.922195 0.994712
O O2 0.767157 0.858104 0.885153
O O3 0.990543 0.919977 0.078322
O O4 0.715662 0.986855 0.883623
O O5 0.474000 0.310078 0.591824
O O6 0.699783 0.205431 0.576347
O O7 0.326435 0.255860 0.364835
O O8 0.198801 0.202127 0.559326
O O9 0.500000 0.405792 0.750000
O O10 0.620457 0.420467 0.531360
O O11 0.111027 0.391033 0.547071
O O12 0.500000 0.084541 0.750000
O O13 0.843001 0.263892 0.399574
O O14 0.000000 0.452078 0.750000
O O15 0.000000 0.500000 0.500000
O O16 0.500000 0.342871 0.250000
O O17 0.000000 0.342180 0.250000
#
# Coordination Sequence:
#
# PCOD9228385 Si02
#       7
#     4   4   4   4   4   4   4
#     4  10  21  37  57  81 107 143 185 232 291 349
#     4  10  19  34  54  80 111 145 186 227 275 343
#     4  10  21  38  60  83 119 162 196 237 289 344
#     4  10  21  38  57  79 109 141 184 235 289 350
#     4  10  19  34  53  77 110 142 182 233 285 344
#     4  10  21  40  64  91 122 158 202 249 292 341
#     4   8  16  29  47  71 102 135 169 220 275 327
#
# _framework density 24.930249
#
# number of rings (size 3 to 8) (size 9 to 14) (size 15 to 20)
#    0.000    2.286    0.000    2.571    0.000    1.714 
#    0.000   17.857    0.000    0.000    0.000    0.000 
#    0.000    0.000    0.000    0.000    0.000    0.000 
#
# Total GULP energy -155944.756739 kJ/mol
# GULP energy per Si atom -5569.455598 kJ/mol
# Density = 2.487351 g / cm^3
# Si number density = 24.930249 Si / 1000 Ang^3
#
#
#
# Elastic Constant Matrix: (Units=GPa)
#
#
# Indices 1 2 3 4 5 6 
#
# 1 247.0854 41.2906 9.6096 0.0000 1.8773 0.0000
# 2 41.2906 76.6124 6.6470 0.0000 -18.0315 0.0000
# 3 9.6096 6.6470 56.9665 0.0000 2.0768 0.0000
# 4 0.0000 0.0000 0.0000 -5.7571 0.0000 -10.0143
# 5 1.8773 -18.0315 2.0768 0.0000 17.4839 0.0000
# 6 0.0000 0.0000 0.0000 -10.0143 0.0000 6.9034
#
#
#
# Elastic Compliance Matrix: (Units=1/GPa)
#
#
# Indices 1 2 3 4 5 6 
#
# 1 0.004661 -0.003437 -0.000239 0.000000 -0.004017 0.000000
# 2 -0.003437 0.020185 -0.002559 0.000000 0.021490 0.000000
# 3 -0.000239 -0.002559 0.018067 0.000000 -0.004759 0.000000
# 4 0.000000 0.000000 0.000000 -0.049300 0.000000 -0.071516
# 5 -0.004017 0.021490 -0.004759 0.000000 0.080355 0.000000
# 6 0.000000 0.000000 0.000000 -0.071516 0.000000 0.041113
#
#
# Mechanical properties :
#
#
# Convention : Reuss Voigt Hill
#
# Bulk Modulus (GPa) = 32.84770 55.08430 43.96600
# Shear Modulus (GPa) = 36.31110 25.26719 30.78914
#
# Velocity S-wave (km/s) = 3.82056 3.18703 3.51809
# Velocity P-wave (km/s) = 5.71548 5.97379 5.84606
#
# Compressibility (1/GPa) = 0.03044353
#
# Stress axis : x y z
#
# Youngs Moduli (GPa) = 214.53098 49.54177 55.35092
#
# Poissons Ratio (x) = 0.17027 0.01322
# Poissons Ratio (y) = 0.73732 0.14164
# Poissons Ratio (z) = 0.05124 0.12677
#
# Static dielectric constant tensor:
#      x y z
#    x 6.132920 0.000000 1.476190 
#    y 0.000000 2.029860 0.000000 
#    z 1.476190 0.000000 2.571490 
# 
# From -- ./inp_files/26759.got.cif
#   From: 2010.05.17/outbox.cif.g08.bks.cpg/sg13_14_cif.got.tgz:26759.got - 2010.06.03 16:44:36.
