data_PCOD9228610
_publ_section_title
;
Structure prediction by ZEFSAII (Michael W. Deem and Ramdas Pophale) SiO2 
 PCOD9228610
Probable space group: P 2/C
;
_chemical_formula_sum "Si O2"
_cell_formula_units_Z 16
_cell_length_a 7.363880
_cell_length_b 6.060955
_cell_length_c 20.091584
_cell_angle_alpha 90.000000
_cell_angle_beta 41.351854
_cell_angle_gamma 90.000000
_cell_volume 592.453078
_symmetry_space_group_name_H-M "P 2/C"
_symmetry_group_IT_number 13
_symmetry_cell_setting 'monoclinic'
loop_
_space_group_symop_operation_xyz
x,y,z
-x,y,1/2-z
-x,-y,-z
x,-y,1/2+z
loop_
_atom_site_type_symbol
_atom_site_label
_atom_site_fract_x
_atom_site_fract_y
_atom_site_fract_z
Si Si1 0.732921 0.118161 0.629331
Si Si2 0.516385 0.805265 0.045699
Si Si3 0.285805 0.381166 0.370527
Si Si4 0.255867 0.412445 0.139903
O O1 0.500000 0.122743 0.750000
O O2 0.594845 0.114791 0.595702
O O3 0.858918 0.372329 0.593925
O O4 0.854226 0.864792 0.598086
O O5 0.234886 0.674743 0.135218
O O6 0.712716 0.657431 0.945098
O O7 0.500000 0.000000 0.000000
O O8 0.500000 0.385485 0.250000
O O9 0.476779 0.385674 0.385415
O O10 0.000000 0.316504 0.250000
#
# Coordination Sequence:
#
# PCOD9228610 Si02
#       4
#     4   4   4   4
#     4   9  17  31  55  80 106 148 194 226 278 344
#     4  10  19  35  56  81 113 154 191 232 291 348
#     4   9  17  32  54  79 108 153 190 222 284 343
#     4  10  21  35  56  87 116 147 193 243 285 338
#
# _framework density 27.006356
#
# number of rings (size 3 to 8) (size 9 to 14) (size 15 to 20)
#    0.000    2.500    2.500    0.000    0.000    1.000 
#    0.000    0.000    0.000   43.500    0.000    0.000 
#    0.000    0.000    0.000    0.000    0.000    0.000 
#
# Total GULP energy -89072.392931 kJ/mol
# GULP energy per Si atom -5567.024558 kJ/mol
# Density = 2.694489 g / cm^3
# Si number density = 27.006356 Si / 1000 Ang^3
#
#
#
# Elastic Constant Matrix: (Units=GPa)
#
#
# Indices 1 2 3 4 5 6 
#
# 1 114.1397 29.8855 73.1017 0.0000 39.8196 0.0000
# 2 29.8855 256.9889 32.9933 0.0000 -5.2394 0.0000
# 3 73.1017 32.9933 143.1264 0.0000 49.8852 0.0000
# 4 0.0000 0.0000 0.0000 58.5882 0.0000 11.0534
# 5 39.8196 -5.2394 49.8852 0.0000 53.7997 0.0000
# 6 0.0000 0.0000 0.0000 11.0534 0.0000 43.6284
#
#
#
# Elastic Compliance Matrix: (Units=1/GPa)
#
#
# Indices 1 2 3 4 5 6 
#
# 1 0.014376 -0.001167 -0.004913 0.000000 -0.006198 0.000000
# 2 -0.001167 0.004232 -0.001218 0.000000 0.002405 0.000000
# 3 -0.004913 -0.001218 0.012634 0.000000 -0.008197 0.000000
# 4 0.000000 0.000000 0.000000 0.017925 0.000000 -0.004541
# 5 -0.006198 0.002405 -0.008197 0.000000 0.031010 0.000000
# 6 0.000000 0.000000 0.000000 -0.004541 0.000000 0.024071
#
#
# Mechanical properties :
#
#
# Convention : Reuss Voigt Hill
#
# Bulk Modulus (GPa) = 60.07559 87.35733 73.71646
# Shear Modulus (GPa) = 40.19523 56.42157 48.30840
#
# Velocity S-wave (km/s) = 3.86211 4.57573 4.23398
# Velocity P-wave (km/s) = 6.49470 7.76747 7.15943
#
# Compressibility (1/GPa) = 0.01664570
#
# Stress axis : x y z
#
# Youngs Moduli (GPa) = 69.56139 236.27495 79.15319
#
# Poissons Ratio (x) = 0.27583 0.38887
# Poissons Ratio (y) = 0.08121 0.09639
# Poissons Ratio (z) = 0.34175 0.28772
#
# Static dielectric constant tensor:
#      x y z
#    x -7.588840 0.000000 13.780400 
#    y 0.000000 -8.691620 0.000000 
#    z 13.780400 0.000000 -18.110050 
# 
# From -- ./inp_files/31204.got.cif
#   From: 2010.05.17/outbox.cif.g08.bks.cpg/sg13_16_cif.got.tgz:31204.got - 2010.06.03 16:44:36.
