data_PCOD9228361
_publ_section_title
;
Structure prediction by ZEFSAII (Michael W. Deem and Ramdas Pophale) SiO2 
 PCOD9228361
Probable space group: P 2/C
;
_chemical_formula_sum "Si O2"
_cell_formula_units_Z 26
_cell_length_a 14.868460
_cell_length_b 4.962692
_cell_length_c 15.127318
_cell_angle_alpha 90.000000
_cell_angle_beta 103.956396
_cell_angle_gamma 90.000000
_cell_volume 1083.257336
_symmetry_space_group_name_H-M "P 2/C"
_symmetry_group_IT_number 13
_symmetry_cell_setting 'monoclinic'
loop_
_space_group_symop_operation_xyz
x,y,z
-x,y,1/2-z
-x,-y,-z
x,-y,1/2+z
loop_
_atom_site_type_symbol
_atom_site_label
_atom_site_fract_x
_atom_site_fract_y
_atom_site_fract_z
Si Si1 0.376574 0.020334 0.049492
Si Si2 0.296674 0.006726 0.720579
Si Si3 0.649846 0.649943 0.610374
Si Si4 0.500000 0.500000 0.500000
Si Si5 0.998759 0.253414 0.566856
Si Si6 0.815475 0.507584 0.347166
Si Si7 0.796577 0.644832 0.044026
O O1 0.360493 0.989732 0.149136
O O2 0.446961 0.254985 0.046722
O O3 0.275786 0.113703 0.988027
O O4 0.399070 0.751360 0.996779
O O5 0.342991 0.876544 0.816181
O O6 0.208224 0.802384 0.681152
O O7 0.259816 0.308503 0.718840
O O8 0.572430 0.427955 0.605001
O O9 0.749525 0.544335 0.604871
O O10 0.899255 0.255322 0.590551
O O11 0.000000 0.500000 0.500000
O O12 0.087026 0.340093 0.646472
O O13 0.000000 0.000000 0.500000
O O14 0.800463 0.511435 0.450414
#
# Coordination Sequence:
#
# PCOD9228361 Si02
#       7
#     4   4   4   2   4   4   4
#     4  10  21  43  64  95 129 171 221 281 335 408
#     4  11  24  40  68  94 135 180 221 277 338 398
#     4  11  23  42  66  92 133 178 225 278 348 411
#     4  10  24  42  66  96 122 166 218 284 338 416
#     4  10  19  33  63  96 127 172 223 272 330 394
#     4  10  20  40  60  97 132 171 224 276 325 400
#     4   9  20  36  65  90 129 174 222 270 344 393
#
# _framework density 24.001681999999999
#
# number of rings (size 3 to 8) (size 9 to 14) (size 15 to 20)
#    0.000    1.846    1.538    3.231    6.462    0.615 
#    0.000    2.308    0.000    0.000    0.000    0.000 
#    0.000    0.000    0.000    0.000    0.000    0.000 
#
# Total GULP energy -144837.648338 kJ/mol
# GULP energy per Si atom -5570.678782 kJ/mol
# Density = 2.394705 g / cm^3
# Si number density = 24.001682 Si / 1000 Ang^3
#
#
#
# Elastic Constant Matrix: (Units=GPa)
#
#
# Indices 1 2 3 4 5 6 
#
# 1 145.8411 24.9386 17.7360 0.0000 -3.5870 0.0000
# 2 24.9386 112.1403 18.8260 0.0000 -16.0084 0.0000
# 3 17.7360 18.8260 92.9721 0.0000 -10.6045 0.0000
# 4 0.0000 0.0000 0.0000 43.3647 0.0000 0.7286
# 5 -3.5870 -16.0084 -10.6045 0.0000 21.6604 0.0000
# 6 0.0000 0.0000 0.0000 0.7286 0.0000 36.2285
#
#
#
# Elastic Compliance Matrix: (Units=1/GPa)
#
#
# Indices 1 2 3 4 5 6 
#
# 1 0.007237 -0.001484 -0.001132 0.000000 -0.000452 0.000000
# 2 -0.001484 0.010412 -0.001033 0.000000 0.006944 0.000000
# 3 -0.001132 -0.001033 0.011727 0.000000 0.004790 0.000000
# 4 0.000000 0.000000 0.000000 0.023068 0.000000 -0.000464
# 5 -0.000452 0.006944 0.004790 0.000000 0.053569 0.000000
# 6 0.000000 0.000000 0.000000 -0.000464 0.000000 0.027612
#
#
# Mechanical properties :
#
#
# Convention : Reuss Voigt Hill
#
# Bulk Modulus (GPa) = 45.29260 52.66163 48.97712
# Shear Modulus (GPa) = 33.71921 39.54757 36.63339
#
# Velocity S-wave (km/s) = 3.75222 4.06359 3.91101
# Velocity P-wave (km/s) = 6.13871 6.63366 6.39098
#
# Compressibility (1/GPa) = 0.02207866
#
# Stress axis : x y z
#
# Youngs Moduli (GPa) = 138.17798 96.04201 85.27014
#
# Poissons Ratio (x) = 0.14253 0.09650
# Poissons Ratio (y) = 0.20506 0.08811
# Poissons Ratio (z) = 0.15637 0.09924
#
# Static dielectric constant tensor:
#      x y z
#    x 2.122530 0.000000 0.086560 
#    y 0.000000 2.018640 0.000000 
#    z 0.086560 0.000000 1.954840 
# 
# From -- ./inp_files/52306.got.cif
#   From: 2010.05.17/outbox.cif.g08.bks.cpg/sg13_27_cif.got.tgz:52306.got - 2010.06.03 16:44:36.
