data_PCOD9228402
_publ_section_title
;
Structure prediction by ZEFSAII (Michael W. Deem and Ramdas Pophale) SiO2 
 PCOD9228402
Probable space group: P 2/C
;
_chemical_formula_sum "Si O2"
_cell_formula_units_Z 30
_cell_length_a 24.873400
_cell_length_b 8.543674
_cell_length_c 12.074607
_cell_angle_alpha 90.000000
_cell_angle_beta 40.039102
_cell_angle_gamma 90.000000
_cell_volume 1650.719572
_symmetry_space_group_name_H-M "P 2/C"
_symmetry_group_IT_number 13
_symmetry_cell_setting 'monoclinic'
loop_
_space_group_symop_operation_xyz
x,y,z
-x,y,1/2-z
-x,-y,-z
x,-y,1/2+z
loop_
_atom_site_type_symbol
_atom_site_label
_atom_site_fract_x
_atom_site_fract_y
_atom_site_fract_z
Si Si1 0.657601 0.729392 0.373279
Si Si2 0.727486 0.023290 0.161008
Si Si3 0.488126 0.551332 0.647796
Si Si4 0.694780 0.305156 0.057182
Si Si5 0.000000 0.973727 0.250000
Si Si6 0.873782 0.184216 0.325351
Si Si7 0.147208 0.779871 0.901477
Si Si8 0.202318 0.514996 0.453491
O O1 0.562331 0.678657 0.540859
O O2 0.704783 0.747083 0.415636
O O3 0.712249 0.596642 0.224997
O O4 0.663483 0.892643 0.301252
O O5 0.689367 0.156677 0.145124
O O6 0.773642 0.112087 0.189144
O O7 0.797990 0.929506 0.981368
O O8 0.500000 0.460466 0.750000
O O9 0.500000 0.500000 0.500000
O O10 0.392532 0.604323 0.800737
O O11 0.769336 0.413385 0.984872
O O12 0.931010 0.863350 0.415439
O O13 0.044211 0.088414 0.268834
O O14 0.867681 0.220948 0.205562
O O15 0.859663 0.345078 0.415515
O O16 0.165414 0.608448 0.923850
#
# Coordination Sequence:
#
# PCOD9228402 Si02
#       8
#     4   4   4   4   2   4   4   4
#     4  10  19  34  54  78 111 145 182 230 273 321
#     4   9  20  34  54  81 106 140 186 221 268 326
#     4  10  20  35  54  80 114 152 188 231 282 326
#     4  10  19  34  54  78 111 145 182 230 273 321
#     4  10  22  38  56  80 108 136 174 214 268 332
#     4  10  20  37  57  79 107 140 174 219 269 320
#     4  10  20  37  57  79 107 140 174 219 269 320
#     4  10  20  34  56  82 106 136 186 218 266 326
#
# _framework density 18.173891999999999
#
# number of rings (size 3 to 8) (size 9 to 14) (size 15 to 20)
#    0.000    2.133    1.333    2.000    0.000    1.067 
#    0.000    6.667    0.000    0.000    0.000    0.000 
#    0.000    0.000    0.000    0.000    0.000    0.000 
#
# Total GULP energy -167070.058629 kJ/mol
# GULP energy per Si atom -5569.001954 kJ/mol
# Density = 1.813253 g / cm^3
# Si number density = 18.173892 Si / 1000 Ang^3
#
#
#
# Elastic Constant Matrix: (Units=GPa)
#
#
# Indices 1 2 3 4 5 6 
#
# 1 84.1449 22.9530 3.8779 0.0000 19.3927 0.0000
# 2 22.9530 66.7489 8.2729 0.0000 6.3722 0.0000
# 3 3.8779 8.2729 18.7466 0.0000 7.2223 0.0000
# 4 0.0000 0.0000 0.0000 2.0892 0.0000 12.4540
# 5 19.3927 6.3722 7.2223 0.0000 26.7952 0.0000
# 6 0.0000 0.0000 0.0000 12.4540 0.0000 4.8607
#
#
#
# Elastic Compliance Matrix: (Units=1/GPa)
#
#
# Indices 1 2 3 4 5 6 
#
# 1 0.015547 -0.004680 0.003075 0.000000 -0.010968 0.000000
# 2 -0.004680 0.017364 -0.007151 0.000000 0.001185 0.000000
# 3 0.003075 -0.007151 0.062561 0.000000 -0.017387 0.000000
# 4 0.000000 0.000000 0.000000 -0.033535 0.000000 0.085921
# 5 -0.010968 0.001185 -0.017387 0.000000 0.049662 0.000000
# 6 0.000000 0.000000 0.000000 0.085921 0.000000 -0.014414
#
#
# Mechanical properties :
#
#
# Convention : Reuss Voigt Hill
#
# Bulk Modulus (GPa) = 12.82731 26.64979 19.73855
# Shear Modulus (GPa) = 35.54002 15.71813 25.62907
#
# Velocity S-wave (km/s) = 4.42696 2.94406 3.75936
# Velocity P-wave (km/s) = 5.76230 5.12370 5.45236
#
# Compressibility (1/GPa) = 0.07795865
#
# Stress axis : x y z
#
# Youngs Moduli (GPa) = 64.32146 57.59012 15.98432
#
# Poissons Ratio (x) = 0.26953 -0.04915
# Poissons Ratio (y) = 0.30104 0.11431
# Poissons Ratio (z) = -0.19777 0.41185
#
# Static dielectric constant tensor:
#      x y z
#    x 1.638630 0.000000 0.032480 
#    y 0.000000 1.602950 0.000000 
#    z 0.032480 0.000000 1.621730 
# 
# From -- ./inp_files/38807.got.cif
#   From: 2010.05.17/outbox.cif.g08.bks.cpg/sg13_20_cif.got.tgz:38807.got - 2010.06.03 16:44:36.
