data_PCOD9228297
_publ_section_title
;
Structure prediction by ZEFSAII (Michael W. Deem and Ramdas Pophale) SiO2 
 PCOD9228297
Probable space group: P 2/C
;
_chemical_formula_sum "Si O2"
_cell_formula_units_Z 24
_cell_length_a 13.744720
_cell_length_b 18.261902
_cell_length_c 8.260925
_cell_angle_alpha 90.000000
_cell_angle_beta 146.847932
_cell_angle_gamma 90.000000
_cell_volume 1133.937557
_symmetry_space_group_name_H-M "P 2/C"
_symmetry_group_IT_number 13
_symmetry_cell_setting 'monoclinic'
loop_
_space_group_symop_operation_xyz
x,y,z
-x,y,1/2-z
-x,-y,-z
x,-y,1/2+z
loop_
_atom_site_type_symbol
_atom_site_label
_atom_site_fract_x
_atom_site_fract_y
_atom_site_fract_z
Si Si1 0.200164 0.550894 0.963606
Si Si2 0.808113 0.395973 0.415114
Si Si3 0.573663 0.185497 0.674333
Si Si4 0.456192 0.664419 0.501072
Si Si5 0.838440 0.941842 0.652297
Si Si6 0.662133 0.061007 0.245617
O O1 0.187483 0.572749 0.759460
O O2 0.000000 0.559092 0.750000
O O3 0.248394 0.465618 0.053336
O O4 0.337278 0.601193 0.253971
O O5 0.653658 0.336523 0.199704
O O6 0.000000 0.371763 0.750000
O O7 0.500000 0.206099 0.750000
O O8 0.631842 0.257775 0.662198
O O9 0.427296 0.139970 0.368770
O O10 0.719313 0.124076 0.915222
O O11 0.500000 0.654664 0.750000
O O12 0.804937 0.932191 0.797699
O O13 0.000000 0.940385 0.750000
O O14 0.763970 0.025002 0.534755
O O15 0.500000 0.000000 0.000000
#
# Coordination Sequence:
#
# PCOD9228297 Si02
#       6
#     4   4   4   4   4   4
#     4  11  22  39  63  89 119 154 195 248 300 355
#     4  11  22  40  62  89 120 153 197 247 297 356
#     4   9  20  37  53  75 110 152 190 235 294 355
#     4  12  24  39  59  86 118 159 203 245 299 363
#     4  10  19  33  56  84 111 143 190 244 295 352
#     4   9  18  34  55  77 108 145 184 229 287 351
#
# _framework density 21.165187
#
# number of rings (size 3 to 8) (size 9 to 14) (size 15 to 20)
#    0.000    1.667    0.000    8.000    0.000    3.333 
#    0.000    4.167    0.000    0.000    0.000    0.000 
#    0.000    0.000    0.000    0.000    0.000    0.000 
#
# Total GULP energy -133697.639399 kJ/mol
# GULP energy per Si atom -5570.734975 kJ/mol
# Density = 2.111701 g / cm^3
# Si number density = 21.165187 Si / 1000 Ang^3
#
#
#
# Elastic Constant Matrix: (Units=GPa)
#
#
# Indices 1 2 3 4 5 6 
#
# 1 69.5562 -9.3621 3.4516 0.0000 -3.7657 0.0000
# 2 -9.3621 56.3846 24.7933 0.0000 4.2345 0.0000
# 3 3.4516 24.7933 70.0286 0.0000 -5.1678 0.0000
# 4 0.0000 0.0000 0.0000 18.5578 0.0000 -4.7103
# 5 -3.7657 4.2345 -5.1678 0.0000 20.7682 0.0000
# 6 0.0000 0.0000 0.0000 -4.7103 0.0000 21.6878
#
#
#
# Elastic Compliance Matrix: (Units=1/GPa)
#
#
# Indices 1 2 3 4 5 6 
#
# 1 0.014971 0.003118 -0.001720 0.000000 0.001651 0.000000
# 2 0.003118 0.022482 -0.008567 0.000000 -0.006150 0.000000
# 3 -0.001720 -0.008567 0.017831 0.000000 0.005872 0.000000
# 4 0.000000 0.000000 0.000000 0.057029 0.000000 0.012386
# 5 0.001651 -0.006150 0.005872 0.000000 0.051165 0.000000
# 6 0.000000 0.000000 0.000000 0.012386 0.000000 0.048799
#
#
# Mechanical properties :
#
#
# Convention : Reuss Voigt Hill
#
# Bulk Modulus (GPa) = 24.42220 25.97056 25.19638
# Shear Modulus (GPa) = 20.81035 24.00853 22.40944
#
# Velocity S-wave (km/s) = 3.13906 3.37165 3.25743
# Velocity P-wave (km/s) = 4.97013 5.23970 5.10669
#
# Compressibility (1/GPa) = 0.04094635
#
# Stress axis : x y z
#
# Youngs Moduli (GPa) = 66.79445 44.47974 56.08152
#
# Poissons Ratio (x) = -0.13870 0.09646
# Poissons Ratio (y) = -0.20828 0.48047
# Poissons Ratio (z) = 0.11489 0.38107
#
# Static dielectric constant tensor:
#      x y z
#    x 1.846680 0.000000 0.014070 
#    y 0.000000 1.720920 0.000000 
#    z 0.014070 0.000000 1.829760 
# 
# From -- ./inp_files/20134.got.cif
#   From: 2010.05.17/outbox.cif.g08.bks.cpg/sg13_11_cif.got.tgz:20134.got - 2010.06.03 16:44:36.
