data_PCOD9228752
_publ_section_title
;
Structure prediction by ZEFSAII (Michael W. Deem and Ramdas Pophale) SiO2 
 PCOD9228752
Probable space group: P 2/C
;
_chemical_formula_sum "Si O2"
_cell_formula_units_Z 20
_cell_length_a 10.292604
_cell_length_b 8.222489
_cell_length_c 10.751780
_cell_angle_alpha 90.000000
_cell_angle_beta 121.549460
_cell_angle_gamma 90.000000
_cell_volume 775.433857
_symmetry_space_group_name_H-M "P 2/C"
_symmetry_group_IT_number 13
_symmetry_cell_setting 'monoclinic'
loop_
_space_group_symop_operation_xyz
x,y,z
-x,y,1/2-z
-x,-y,-z
x,-y,1/2+z
loop_
_atom_site_type_symbol
_atom_site_label
_atom_site_fract_x
_atom_site_fract_y
_atom_site_fract_z
Si Si1 0.172949 0.140395 0.500928
Si Si2 0.504898 0.227203 0.931752
Si Si3 0.193216 0.965828 0.270764
Si Si4 0.500000 0.512659 0.750000
Si Si5 0.000000 0.600390 0.750000
Si Si6 0.735930 0.326620 0.259849
O O1 0.356802 0.152205 0.581460
O O2 0.134214 0.996466 0.381922
O O3 0.101641 0.296617 0.398730
O O4 0.128952 0.134781 0.622279
O O5 0.457324 0.391732 0.839479
O O6 0.363934 0.106225 0.875236
O O7 0.590788 0.285989 0.098833
O O8 0.191258 0.146778 0.206663
O O9 0.345152 0.615215 0.655621
O O10 0.140153 0.545327 0.731942
#
# Coordination Sequence:
#
# PCOD9228752 Si02
#       6
#     4   4   4   2   2   4
#     4  10  19  35  62  86 115 158 196 245 303 356
#     4  10  20  37  56  85 121 152 194 256 302 340
#     4  10  20  35  63  86 116 152 202 250 302 347
#     4  12  22  34  60  90 118 154 206 246 298 352
#     4   8  20  42  56  84 126 158 188 246 308 356
#     4  10  23  36  60  88 117 157 200 246 301 361
#
# _framework density 25.792010999999999
#
# number of rings (size 3 to 8) (size 9 to 14) (size 15 to 20)
#    0.000    2.400    2.000    3.000    5.600    3.200 
#    0.000    4.000    0.000    4.800    0.000    0.000 
#    0.000    0.000    0.000    0.000    0.000    0.000 
#
# Total GULP energy -111374.074948 kJ/mol
# GULP energy per Si atom -5568.703747 kJ/mol
# Density = 2.573331 g / cm^3
# Si number density = 25.792011 Si / 1000 Ang^3
#
#
#
# Elastic Constant Matrix: (Units=GPa)
#
#
# Indices 1 2 3 4 5 6 
#
# 1 163.3910 12.6122 -2.6683 0.0000 -15.0285 0.0000
# 2 12.6122 41.4020 -9.2705 0.0000 -10.6248 0.0000
# 3 -2.6683 -9.2705 88.7630 0.0000 3.8888 0.0000
# 4 0.0000 0.0000 0.0000 13.2389 0.0000 -6.2643
# 5 -15.0285 -10.6248 3.8888 0.0000 31.5228 0.0000
# 6 0.0000 0.0000 0.0000 -6.2643 0.0000 18.8891
#
#
#
# Elastic Compliance Matrix: (Units=1/GPa)
#
#
# Indices 1 2 3 4 5 6 
#
# 1 0.006464 -0.001302 -0.000058 0.000000 0.002650 0.000000
# 2 -0.001302 0.027214 0.002442 0.000000 0.008251 0.000000
# 3 -0.000058 0.002442 0.011547 0.000000 -0.000629 0.000000
# 4 0.000000 0.000000 0.000000 0.089595 0.000000 0.029713
# 5 0.002650 0.008251 -0.000629 0.000000 0.035845 0.000000
# 6 0.000000 0.000000 0.000000 0.029713 0.000000 0.062794
#
#
# Mechanical properties :
#
#
# Convention : Reuss Voigt Hill
#
# Bulk Modulus (GPa) = 21.10222 32.76697 26.93459
# Shear Modulus (GPa) = 20.23550 32.25567 26.24559
#
# Velocity S-wave (km/s) = 2.80405 3.54023 3.19342
# Velocity P-wave (km/s) = 4.32239 5.42613 4.90540
#
# Compressibility (1/GPa) = 0.04738838
#
# Stress axis : x y z
#
# Youngs Moduli (GPa) = 154.71337 36.74571 86.60420
#
# Poissons Ratio (x) = 0.04784 0.00500
# Poissons Ratio (y) = 0.20142 -0.21146
# Poissons Ratio (z) = 0.00894 -0.08972
#
# Static dielectric constant tensor:
#      x y z
#    x 2.175220 0.000000 0.021080 
#    y 0.000000 2.125300 0.000000 
#    z 0.021080 0.000000 2.079110 
# 
# From -- ./inp_files/31869.got.cif
#   From: 2010.05.17/outbox.cif.g08.bks.cpg/sg13_16_cif.got.tgz:31869.got - 2010.06.03 16:44:36.
