data_PCOD9228696
_publ_section_title
;
Structure prediction by ZEFSAII (Michael W. Deem and Ramdas Pophale) SiO2 
 PCOD9228696
Probable space group: P 2/C
;
_chemical_formula_sum "Si O2"
_cell_formula_units_Z 22
_cell_length_a 11.271847
_cell_length_b 6.166763
_cell_length_c 17.033146
_cell_angle_alpha 90.000000
_cell_angle_beta 117.732063
_cell_angle_gamma 90.000000
_cell_volume 1047.987062
_symmetry_space_group_name_H-M "P 2/C"
_symmetry_group_IT_number 13
_symmetry_cell_setting 'monoclinic'
loop_
_space_group_symop_operation_xyz
x,y,z
-x,y,1/2-z
-x,-y,-z
x,-y,1/2+z
loop_
_atom_site_type_symbol
_atom_site_label
_atom_site_fract_x
_atom_site_fract_y
_atom_site_fract_z
Si Si1 0.309711 0.300942 0.784127
Si Si2 0.888630 0.649707 0.147810
Si Si3 0.500000 0.017114 0.750000
Si Si4 0.919021 0.056439 0.887710
Si Si5 0.728374 0.681316 0.836603
Si Si6 0.130249 0.616720 0.004716
O O1 0.250600 0.293067 0.852868
O O2 0.441290 0.169484 0.800605
O O3 0.193246 0.189475 0.696199
O O4 0.315233 0.545022 0.753015
O O5 0.000000 0.606544 0.250000
O O6 0.948166 0.845162 0.112388
O O7 0.867152 0.442321 0.085331
O O8 0.617160 0.861929 0.817799
O O9 0.890816 0.141392 0.968193
O O10 0.867242 0.811263 0.863519
O O11 0.750159 0.510645 0.913704
O O12 0.000000 0.500000 0.000000
#
# Coordination Sequence:
#
# PCOD9228696 Si02
#       6
#     4   4   2   4   4   4
#     4   9  18  34  54  77 106 139 181 232 272 313
#     4   9  17  33  52  78 115 143 171 223 281 327
#     4  10  20  36  56  78 104 142 198 236 264 322
#     4   8  17  33  53  80 109 139 177 218 268 335
#     4  10  19  35  60  80 105 151 188 220 274 332
#     4   9  18  33  53  81 117 147 176 222 276 332
#
# _framework density 20.992623999999999
#
# number of rings (size 3 to 8) (size 9 to 14) (size 15 to 20)
#    0.000    2.909    0.000    1.636    0.000    2.909 
#    0.000   38.182    0.000   15.273    0.000    0.000 
#    0.000    0.000    0.000    0.000    0.000    0.000 
#
# Total GULP energy -122592.038047 kJ/mol
# GULP energy per Si atom -5572.365366 kJ/mol
# Density = 2.094484 g / cm^3
# Si number density = 20.992624 Si / 1000 Ang^3
#
#
#
# Elastic Constant Matrix: (Units=GPa)
#
#
# Indices 1 2 3 4 5 6 
#
# 1 131.3066 56.8434 32.0524 0.0000 -23.1926 0.0000
# 2 56.8434 121.9397 31.9484 0.0000 -15.0058 0.0000
# 3 32.0524 31.9484 77.1607 0.0000 -27.4876 0.0000
# 4 0.0000 0.0000 0.0000 24.8544 0.0000 11.4526
# 5 -23.1926 -15.0058 -27.4876 0.0000 28.0629 0.0000
# 6 0.0000 0.0000 0.0000 11.4526 0.0000 39.8751
#
#
#
# Elastic Compliance Matrix: (Units=1/GPa)
#
#
# Indices 1 2 3 4 5 6 
#
# 1 0.010564 -0.004034 -0.000578 0.000000 0.006008 0.000000
# 2 -0.004034 0.010800 -0.002959 0.000000 -0.000457 0.000000
# 3 -0.000578 -0.002959 0.021029 0.000000 0.018538 0.000000
# 4 0.000000 0.000000 0.000000 0.046371 0.000000 -0.013318
# 5 0.006008 -0.000457 0.018538 0.000000 0.058513 0.000000
# 6 0.000000 0.000000 0.000000 -0.013318 0.000000 0.028903
#
#
# Mechanical properties :
#
#
# Convention : Reuss Voigt Hill
#
# Bulk Modulus (GPa) = 36.69438 63.56615 50.13027
# Shear Modulus (GPa) = 24.94917 32.52934 28.73925
#
# Velocity S-wave (km/s) = 3.45116 3.94072 3.70404
# Velocity P-wave (km/s) = 5.77913 7.14504 6.49807
#
# Compressibility (1/GPa) = 0.02725213
#
# Stress axis : x y z
#
# Youngs Moduli (GPa) = 94.65849 92.59054 47.55276
#
# Poissons Ratio (x) = 0.37350 0.02748
# Poissons Ratio (y) = 0.38184 0.14071
# Poissons Ratio (z) = 0.05471 0.27397
#
# Static dielectric constant tensor:
#      x y z
#    x 1.792160 0.000000 0.045500 
#    y 0.000000 1.824950 0.000000 
#    z 0.045500 0.000000 1.869600 
# 
# From -- ./inp_files/65126.got.cif
#   From: 2010.05.17/outbox.cif.g08.bks.cpg/sg13_33_cif.got.tgz:65126.got - 2010.06.03 16:44:36.
