data_PCOD9228961
_publ_section_title
;
Structure prediction by ZEFSAII (Michael W. Deem and Ramdas Pophale) SiO2 
 PCOD9228961
Probable space group: P 2/C
;
_chemical_formula_sum "Si O2"
_cell_formula_units_Z 32
_cell_length_a 19.822621
_cell_length_b 13.209558
_cell_length_c 13.540021
_cell_angle_alpha 90.000000
_cell_angle_beta 26.389007
_cell_angle_gamma 90.000000
_cell_volume 1575.812800
_symmetry_space_group_name_H-M "P 2/C"
_symmetry_group_IT_number 13
_symmetry_cell_setting 'monoclinic'
loop_
_space_group_symop_operation_xyz
x,y,z
-x,y,1/2-z
-x,-y,-z
x,-y,1/2+z
loop_
_atom_site_type_symbol
_atom_site_label
_atom_site_fract_x
_atom_site_fract_y
_atom_site_fract_z
Si Si1 0.651732 0.003022 0.864326
Si Si2 0.349849 0.790406 0.010019
Si Si3 0.093701 0.300817 0.722317
Si Si4 0.084660 0.657493 0.848434
Si Si5 0.236755 0.318227 0.840244
Si Si6 0.671061 0.834850 0.995108
Si Si7 0.821801 0.109084 0.484394
Si Si8 0.830980 0.511337 0.924789
O O1 0.784633 0.024512 0.612863
O O2 0.648547 0.099740 0.940848
O O3 0.500000 0.000000 0.000000
O O4 0.664671 0.899152 0.904535
O O5 0.500000 0.777659 0.750000
O O6 0.200025 0.778576 0.138798
O O7 0.337672 0.704477 0.111726
O O8 0.202352 0.393167 0.543937
O O9 0.000000 0.264435 0.750000
O O10 0.977241 0.345586 0.958358
O O11 0.210059 0.744306 0.672912
O O12 0.157758 0.560056 0.699300
O O13 0.935210 0.679471 0.977798
O O14 0.248622 0.216813 0.889530
O O15 0.259801 0.415429 0.880654
O O16 0.500000 0.804808 0.250000
O O17 0.742364 0.909068 0.984525
O O18 0.000000 0.123141 0.250000
O O19 0.000000 0.511053 0.750000
#
# Coordination Sequence:
#
# PCOD9228961 Si02
#       8
#     4   4   4   4   4   4   4   4
#     4  11  25  42  63  88 122 173 215 252 321 390
#     4  10  23  42  63  86 126 172 214 260 322 380
#     4  10  22  40  59  92 128 162 206 257 318 381
#     4  10  19  36  62  91 123 156 207 260 303 369
#     4   9  17  36  65  91 116 160 208 258 309 366
#     4  12  23  39  63  93 125 162 211 257 316 386
#     4  11  20  40  64  91 125 154 211 268 308 368
#     4   9  16  33  66  92 117 160 208 258 314 374
#
# _framework density 20.306982000000001
#
# number of rings (size 3 to 8) (size 9 to 14) (size 15 to 20)
#    0.000    1.750    3.750    1.125    0.000    2.500 
#    0.000    1.250    0.000    0.000    0.000    2.625 
#    0.000    0.000    0.000    0.000    0.000    0.000 
#
# Total GULP energy -178541.897751 kJ/mol
# GULP energy per Si atom -5579.434305 kJ/mol
# Density = 2.026076 g / cm^3
# Si number density = 20.306982 Si / 1000 Ang^3
#
#
#
# Elastic Constant Matrix: (Units=GPa)
#
#
# Indices 1 2 3 4 5 6 
#
# 1 114.1719 21.9121 22.5942 0.0000 7.3142 0.0000
# 2 21.9121 58.3692 9.9668 0.0000 -5.2168 0.0000
# 3 22.5942 9.9668 72.4405 0.0000 2.2328 0.0000
# 4 0.0000 0.0000 0.0000 5.0738 0.0000 1.2128
# 5 7.3142 -5.2168 2.2328 0.0000 14.3659 0.0000
# 6 0.0000 0.0000 0.0000 1.2128 0.0000 25.8378
#
#
#
# Elastic Compliance Matrix: (Units=1/GPa)
#
#
# Indices 1 2 3 4 5 6 
#
# 1 0.010444 -0.004066 -0.002501 0.000000 -0.006406 0.000000
# 2 -0.004066 0.019810 -0.001751 0.000000 0.009536 0.000000
# 3 -0.002501 -0.001751 0.014877 0.000000 -0.001675 0.000000
# 4 0.000000 0.000000 0.000000 0.199326 0.000000 -0.009356
# 5 -0.006406 0.009536 -0.001675 0.000000 0.076594 0.000000
# 6 0.000000 0.000000 0.000000 -0.009356 0.000000 0.039142
#
#
# Mechanical properties :
#
#
# Convention : Reuss Voigt Hill
#
# Bulk Modulus (GPa) = 35.09394 39.32533 37.20964
# Shear Modulus (GPa) = 12.94234 21.75607 17.34921
#
# Velocity S-wave (km/s) = 2.52729 3.27671 2.92609
# Velocity P-wave (km/s) = 5.08286 5.80717 5.45705
#
# Compressibility (1/GPa) = 0.02849495
#
# Stress axis : x y z
#
# Youngs Moduli (GPa) = 95.74512 50.47899 67.21796
#
# Poissons Ratio (x) = 0.20527 0.16809
# Poissons Ratio (y) = 0.38934 0.11771
# Poissons Ratio (z) = 0.23943 0.08840
#
# Static dielectric constant tensor:
#      x y z
#    x 1.733880 0.000000 0.038790 
#    y 0.000000 1.785560 0.000000 
#    z 0.038790 0.000000 1.737130 
# 
# From -- ./inp_files/39469.got.cif
#   From: 2010.05.17/outbox.cif.g08.bks.cpg/sg13_20_cif.got.tgz:39469.got - 2010.06.03 16:44:36.
