data_PCOD9228285
_publ_section_title
;
Structure prediction by ZEFSAII (Michael W. Deem and Ramdas Pophale) SiO2 
 PCOD9228285
Probable space group: P 2/C
;
_chemical_formula_sum "Si O2"
_cell_formula_units_Z 20
_cell_length_a 6.981651
_cell_length_b 22.589820
_cell_length_c 5.317262
_cell_angle_alpha 90.000000
_cell_angle_beta 100.656425
_cell_angle_gamma 90.000000
_cell_volume 824.145062
_symmetry_space_group_name_H-M "P 2/C"
_symmetry_group_IT_number 13
_symmetry_cell_setting 'monoclinic'
loop_
_space_group_symop_operation_xyz
x,y,z
-x,y,1/2-z
-x,-y,-z
x,-y,1/2+z
loop_
_atom_site_type_symbol
_atom_site_label
_atom_site_fract_x
_atom_site_fract_y
_atom_site_fract_z
Si Si1 0.780911 0.525802 0.946046
Si Si2 0.735664 0.662107 0.832602
Si Si3 0.737819 0.278092 0.836218
Si Si4 0.766140 0.032522 0.191800
Si Si5 0.375967 0.162586 0.466339
O O1 0.689323 0.498894 0.675303
O O2 0.783876 0.596198 0.931566
O O3 0.000000 0.500000 0.000000
O O4 0.500000 0.665830 0.750000
O O5 0.804020 0.675800 0.565690
O O6 0.803819 0.707065 0.069645
O O7 0.500000 0.281090 0.750000
O O8 0.769241 0.213884 0.970806
O O9 0.713999 0.100708 0.139034
O O10 0.000000 0.028397 0.250000
O O11 0.697431 0.007515 0.442004
O O12 0.500000 0.183920 0.250000
O O13 0.500000 0.150518 0.750000
#
# Coordination Sequence:
#
# PCOD9228285 Si02
#       5
#     4   4   4   4   4
#     4  10  21  36  54  75 107 145 174 225 277 335
#     4  10  19  33  56  81 105 142 183 224 271 342
#     4   9  18  33  53  83 112 140 179 227 288 333
#     4  10  22  39  58  82 120 167 201 241 292 344
#     4  11  21  35  60  90 120 152 193 250 297 343
#
# _framework density 24.267569999999999
#
# number of rings (size 3 to 8) (size 9 to 14) (size 15 to 20)
#    0.000    2.000    0.000    5.400    0.000    3.200 
#    0.000    0.000   13.200    0.000    0.000    0.000 
#    0.000    0.000    0.000    0.000    0.000    0.000 
#
# Total GULP energy -111882.067359 kJ/mol
# GULP energy per Si atom -5594.103368 kJ/mol
# Density = 2.421234 g / cm^3
# Si number density = 24.267570 Si / 1000 Ang^3
#
#
#
# Elastic Constant Matrix: (Units=GPa)
#
#
# Indices 1 2 3 4 5 6 
#
# 1 78.4311 5.6960 47.3088 0.0000 -16.1390 0.0000
# 2 5.6960 173.4342 81.3768 0.0000 -16.5226 0.0000
# 3 47.3088 81.3768 208.7290 0.0000 -29.0384 0.0000
# 4 0.0000 0.0000 0.0000 53.2052 0.0000 -1.5005
# 5 -16.1390 -16.5226 -29.0384 0.0000 38.7060 0.0000
# 6 0.0000 0.0000 0.0000 -1.5005 0.0000 28.0585
#
#
#
# Elastic Compliance Matrix: (Units=1/GPa)
#
#
# Indices 1 2 3 4 5 6 
#
# 1 0.015712 0.001581 -0.003542 0.000000 0.004569 0.000000
# 2 0.001581 0.007255 -0.002975 0.000000 0.001524 0.000000
# 3 -0.003542 -0.002975 0.007114 0.000000 0.002590 0.000000
# 4 0.000000 0.000000 0.000000 0.018824 0.000000 0.001007
# 5 0.004569 0.001524 0.002590 0.000000 0.030335 0.000000
# 6 0.000000 0.000000 0.000000 0.001007 0.000000 0.035694
#
#
# Mechanical properties :
#
#
# Convention : Reuss Voigt Hill
#
# Bulk Modulus (GPa) = 49.48158 81.03973 65.26066
# Shear Modulus (GPa) = 38.01117 45.74147 41.87632
#
# Velocity S-wave (km/s) = 3.96199 4.34623 4.15855
# Velocity P-wave (km/s) = 6.43149 7.65853 7.07167
#
# Compressibility (1/GPa) = 0.02020954
#
# Stress axis : x y z
#
# Youngs Moduli (GPa) = 63.64634 137.83669 140.57171
#
# Poissons Ratio (x) = -0.21794 0.49789
# Poissons Ratio (y) = -0.10063 0.41817
# Poissons Ratio (z) = 0.22543 0.41003
#
# Static dielectric constant tensor:
#      x y z
#    x 1.990520 0.000000 0.004120 
#    y 0.000000 1.874650 0.000000 
#    z 0.004120 0.000000 1.909560 
# 
# From -- ./inp_files/2126.got.cif
#   From: 2010.05.17/outbox.cif.g08.bks.cpg/sg13_2_cif.got.tgz:2126.got - 2010.06.03 16:44:36.
