data_PCOD9228226
_publ_section_title
;
Structure prediction by ZEFSAII (Michael W. Deem and Ramdas Pophale) SiO2 
 PCOD9228226
Probable space group: P 2/C
;
_chemical_formula_sum "Si O2"
_cell_formula_units_Z 26
_cell_length_a 27.813473
_cell_length_b 7.515243
_cell_length_c 5.554186
_cell_angle_alpha 90.000000
_cell_angle_beta 115.503941
_cell_angle_gamma 90.000000
_cell_volume 1047.834438
_symmetry_space_group_name_H-M "P 2/C"
_symmetry_group_IT_number 13
_symmetry_cell_setting 'monoclinic'
loop_
_space_group_symop_operation_xyz
x,y,z
-x,y,1/2-z
-x,-y,-z
x,-y,1/2+z
loop_
_atom_site_type_symbol
_atom_site_label
_atom_site_fract_x
_atom_site_fract_y
_atom_site_fract_z
Si Si1 0.871977 0.611765 0.716442
Si Si2 0.978445 0.796786 0.953489
Si Si3 0.250146 0.597355 0.010795
Si Si4 0.706428 0.052071 0.714405
Si Si5 0.500000 0.600556 0.250000
Si Si6 0.583043 0.068181 0.427118
Si Si7 0.389538 0.520315 0.504905
O O1 0.879506 0.504914 0.478874
O O2 0.915151 0.769195 0.815882
O O3 0.810507 0.671061 0.590579
O O4 0.000000 0.716442 0.750000
O O5 0.000000 0.716537 0.250000
O O6 0.000000 0.000000 0.000000
O O7 0.254259 0.457675 0.240472
O O8 0.289964 0.752753 0.169651
O O9 0.644362 0.000635 0.550365
O O10 0.729774 0.054793 0.494225
O O11 0.500000 0.500000 0.500000
O O12 0.564675 0.635802 0.389321
O O13 0.585006 0.282071 0.442791
O O14 0.558163 0.004793 0.121057
O O15 0.359922 0.512670 0.693071
#
# Coordination Sequence:
#
# PCOD9228226 Si02
#       7
#     4   4   4   4   2   4   4
#     4  10  21  37  57  81 108 140 173 213 264 308
#     4  10  21  37  53  78 110 136 174 215 253 298
#     4  10  21  38  59  84 113 140 179 227 268 315
#     4  10  21  38  56  82 111 147 181 217 272 331
#     4   8  16  30  48  72 104 136 174 232 274 316
#     4  10  21  36  53  76 114 143 175 225 278 322
#     4  10  19  33  54  78 103 140 189 226 271 326
#
# _framework density 24.813078000000001
#
# number of rings (size 3 to 8) (size 9 to 14) (size 15 to 20)
#    0.000    2.154    0.000    2.769    0.000    3.077 
#    5.538    0.769    0.000    0.000    0.000    0.000 
#    0.000    0.000    0.000    0.000    0.000    0.000 
#
# Total GULP energy -144847.923477 kJ/mol
# GULP energy per Si atom -5571.073980 kJ/mol
# Density = 2.475660 g / cm^3
# Si number density = 24.813078 Si / 1000 Ang^3
#
#
#
# Elastic Constant Matrix: (Units=GPa)
#
#
# Indices 1 2 3 4 5 6 
#
# 1 91.5304 21.3282 62.5387 0.0000 -16.2911 0.0000
# 2 21.3282 82.9881 28.9177 0.0000 -8.4255 0.0000
# 3 62.5387 28.9177 191.6209 0.0000 -52.1651 0.0000
# 4 0.0000 0.0000 0.0000 32.6999 0.0000 0.8643
# 5 -16.2911 -8.4255 -52.1651 0.0000 54.7207 0.0000
# 6 0.0000 0.0000 0.0000 0.8643 0.0000 29.6381
#
#
#
# Elastic Compliance Matrix: (Units=1/GPa)
#
#
# Indices 1 2 3 4 5 6 
#
# 1 0.014429 -0.002184 -0.004459 0.000000 -0.000291 0.000000
# 2 -0.002184 0.013051 -0.001197 0.000000 0.000218 0.000000
# 3 -0.004459 -0.001197 0.008701 0.000000 0.006783 0.000000
# 4 0.000000 0.000000 0.000000 0.030605 0.000000 -0.000892
# 5 -0.000291 0.000218 0.006783 0.000000 0.024688 0.000000
# 6 0.000000 0.000000 0.000000 -0.000892 0.000000 0.033766
#
#
# Mechanical properties :
#
#
# Convention : Reuss Voigt Hill
#
# Bulk Modulus (GPa) = 48.78051 65.74539 57.26295
# Shear Modulus (GPa) = 33.84024 40.30207 37.07115
#
# Velocity S-wave (km/s) = 3.69698 4.03454 3.86944
# Velocity P-wave (km/s) = 6.15836 6.94674 6.56440
#
# Compressibility (1/GPa) = 0.02049999
#
# Stress axis : x y z
#
# Youngs Moduli (GPa) = 69.30517 76.62485 114.92901
#
# Poissons Ratio (x) = 0.16736 0.51244
# Poissons Ratio (y) = 0.15137 0.13761
# Poissons Ratio (z) = 0.30902 0.09175
#
# Static dielectric constant tensor:
#      x y z
#    x 2.034240 0.000000 -0.061400 
#    y 0.000000 2.077430 0.000000 
#    z -0.061400 0.000000 2.093580 
# 
# From -- ./inp_files/8068.got.cif
#   From: 2010.05.17/outbox.cif.g08.bks.cpg/sg13_5_cif.got.tgz:8068.got - 2010.06.03 16:44:36.
