data_PCOD9228400
_publ_section_title
;
Structure prediction by ZEFSAII (Michael W. Deem and Ramdas Pophale) SiO2 
 PCOD9228400
Probable space group: P 2/C
;
_chemical_formula_sum "Si O2"
_cell_formula_units_Z 18
_cell_length_a 19.169862
_cell_length_b 11.170609
_cell_length_c 8.409812
_cell_angle_alpha 90.000000
_cell_angle_beta 148.720624
_cell_angle_gamma 90.000000
_cell_volume 935.031918
_symmetry_space_group_name_H-M "P 2/C"
_symmetry_group_IT_number 13
_symmetry_cell_setting 'monoclinic'
loop_
_space_group_symop_operation_xyz
x,y,z
-x,y,1/2-z
-x,-y,-z
x,-y,1/2+z
loop_
_atom_site_type_symbol
_atom_site_label
_atom_site_fract_x
_atom_site_fract_y
_atom_site_fract_z
Si Si1 0.127658 0.340944 0.275438
Si Si2 0.500000 0.024553 0.250000
Si Si3 0.832771 0.397959 0.777642
Si Si4 0.461440 0.629562 0.861565
Si Si5 0.358053 0.162345 0.696344
O O1 0.167867 0.372311 0.535744
O O2 0.162763 0.458415 0.240197
O O3 0.210563 0.221409 0.395498
O O4 0.965828 0.338219 0.962736
O O5 0.598397 0.939289 0.341172
O O6 0.597911 0.105067 0.548972
O O7 0.697139 0.350571 0.436299
O O8 0.500000 0.636414 0.750000
O O9 0.500000 0.500000 0.000000
O O10 0.542875 0.724739 0.121973
#
# Coordination Sequence:
#
# PCOD9228400 Si02
#       5
#     4   2   4   4   4
#     4  10  20  34  58  80 126 154 184 230 305 358
#     4  10  24  38  62  80 116 160 222 240 278 330
#     4  10  19  34  53  90 120 153 177 233 308 377
#     4  12  21  33  58  91 122 147 187 245 309 357
#     4  11  21  40  58  85 112 161 198 252 286 345
#
# _framework density 19.250679000000002
#
# number of rings (size 3 to 8) (size 9 to 14) (size 15 to 20)
#    0.000    1.333    5.556    0.000    1.556    1.778 
#    0.000    0.000    0.000   24.000    0.000    0.000 
#    0.000    0.000    0.000    0.000    0.000    0.000 
#
# Total GULP energy -100485.541341 kJ/mol
# GULP energy per Si atom -5582.530074 kJ/mol
# Density = 1.920686 g / cm^3
# Si number density = 19.250679 Si / 1000 Ang^3
#
#
#
# Elastic Constant Matrix: (Units=GPa)
#
#
# Indices 1 2 3 4 5 6 
#
# 1 42.7769 26.7583 22.0303 0.0000 12.2428 0.0000
# 2 26.7583 106.9680 34.9706 0.0000 10.5982 0.0000
# 3 22.0303 34.9706 99.2590 0.0000 37.7068 0.0000
# 4 0.0000 0.0000 0.0000 36.9971 0.0000 5.6938
# 5 12.2428 10.5982 37.7068 0.0000 25.5686 0.0000
# 6 0.0000 0.0000 0.0000 5.6938 0.0000 22.6700
#
#
#
# Elastic Compliance Matrix: (Units=1/GPa)
#
#
# Indices 1 2 3 4 5 6 
#
# 1 0.030930 -0.006555 0.000087 0.000000 -0.012222 0.000000
# 2 -0.006555 0.012027 -0.004732 0.000000 0.005132 0.000000
# 3 0.000087 -0.004732 0.024997 0.000000 -0.034945 0.000000
# 4 0.000000 0.000000 0.000000 0.028116 0.000000 -0.007062
# 5 -0.012222 0.005132 -0.034945 0.000000 0.094369 0.000000
# 6 0.000000 0.000000 0.000000 -0.007062 0.000000 0.045885
#
#
# Mechanical properties :
#
#
# Convention : Reuss Voigt Hill
#
# Bulk Modulus (GPa) = 21.95116 46.28026 34.11571
# Shear Modulus (GPa) = 18.25428 28.06346 23.15887
#
# Velocity S-wave (km/s) = 3.08269 3.82224 3.47221
# Velocity P-wave (km/s) = 4.90899 6.60094 5.81681
#
# Compressibility (1/GPa) = 0.04555568
#
# Stress axis : x y z
#
# Youngs Moduli (GPa) = 32.33068 83.14735 40.00442
#
# Poissons Ratio (x) = 0.54503 -0.00350
# Poissons Ratio (y) = 0.21193 0.18929
# Poissons Ratio (z) = -0.00283 0.39344
#
# Static dielectric constant tensor:
#      x y z
#    x 1.731660 0.000000 -0.003200 
#    y 0.000000 1.646110 0.000000 
#    z -0.003200 0.000000 1.711460 
# 
# From -- ./inp_files/15381.got.cif
#   From: 2010.05.17/outbox.cif.g08.bks.cpg/sg13_8_cif.got.tgz:15381.got - 2010.06.03 16:44:36.
