data_PCOD9228667
_publ_section_title
;
Structure prediction by ZEFSAII (Michael W. Deem and Ramdas Pophale) SiO2 
 PCOD9228667
Probable space group: P 2/C
;
_chemical_formula_sum "Si O2"
_cell_formula_units_Z 24
_cell_length_a 15.942580
_cell_length_b 9.101331
_cell_length_c 17.091588
_cell_angle_alpha 90.000000
_cell_angle_beta 31.358583
_cell_angle_gamma 90.000000
_cell_volume 1290.556298
_symmetry_space_group_name_H-M "P 2/C"
_symmetry_group_IT_number 13
_symmetry_cell_setting 'monoclinic'
loop_
_space_group_symop_operation_xyz
x,y,z
-x,y,1/2-z
-x,-y,-z
x,-y,1/2+z
loop_
_atom_site_type_symbol
_atom_site_label
_atom_site_fract_x
_atom_site_fract_y
_atom_site_fract_z
Si Si1 0.368187 0.583308 0.551583
Si Si2 0.369856 0.696807 0.959705
Si Si3 0.926318 0.357322 0.099856
Si Si4 0.141210 0.092398 0.929427
Si Si5 0.583404 0.845979 0.413799
Si Si6 0.273665 0.801128 0.878009
O O1 0.500000 0.500000 0.500000
O O2 0.359512 0.477982 0.483389
O O3 0.202006 0.597923 0.731478
O O4 0.447568 0.743122 0.482289
O O5 0.253671 0.740625 0.981458
O O6 0.546310 0.756057 0.793122
O O7 0.347512 0.773720 0.061542
O O8 0.834730 0.273955 0.102123
O O9 0.000000 0.500000 0.000000
O O10 0.058275 0.241051 0.026973
O O11 0.270423 0.136794 0.761594
O O12 0.233328 0.974537 0.910433
O O13 0.000000 0.000000 0.000000
O O14 0.500000 0.000000 0.500000
#
# Coordination Sequence:
#
# PCOD9228667 Si02
#       6
#     4   4   4   4   4   4
#     4  10  19  35  58  89 112 155 207 236 289 363
#     4  10  20  36  62  87 117 147 204 258 295 346
#     4  11  20  36  60  86 121 156 194 244 297 368
#     4  10  21  36  57  89 118 158 196 238 302 370
#     4  11  18  35  61  87 116 155 202 242 287 366
#     4  10  20  38  58  89 117 152 199 252 306 343
#
# _framework density 18.596632
#
# number of rings (size 3 to 8) (size 9 to 14) (size 15 to 20)
#    0.000    1.667    5.000    3.000    0.000    0.000 
#    0.000    9.167    0.000    4.000    0.000    0.000 
#    0.000    0.000    0.000    0.000    0.000    0.000 
#
# Total GULP energy -133714.393612 kJ/mol
# GULP energy per Si atom -5571.433067 kJ/mol
# Density = 1.855431 g / cm^3
# Si number density = 18.596632 Si / 1000 Ang^3
#
#
#
# Elastic Constant Matrix: (Units=GPa)
#
#
# Indices 1 2 3 4 5 6 
#
# 1 62.4896 27.5297 16.1601 0.0000 18.0399 0.0000
# 2 27.5297 140.5638 56.5761 0.0000 -2.3723 0.0000
# 3 16.1601 56.5761 122.6719 0.0000 -10.6357 0.0000
# 4 0.0000 0.0000 0.0000 40.0440 0.0000 -2.0045
# 5 18.0399 -2.3723 -10.6357 0.0000 18.4327 0.0000
# 6 0.0000 0.0000 0.0000 -2.0045 0.0000 18.8352
#
#
#
# Elastic Compliance Matrix: (Units=1/GPa)
#
#
# Indices 1 2 3 4 5 6 
#
# 1 0.027652 -0.004184 -0.004322 0.000000 -0.030095 0.000000
# 2 -0.004184 0.009397 -0.003498 0.000000 0.003286 0.000000
# 3 -0.004322 -0.003498 0.011224 0.000000 0.010256 0.000000
# 4 0.000000 0.000000 0.000000 0.025106 0.000000 0.002672
# 5 -0.030095 0.003286 0.010256 0.000000 0.090046 0.000000
# 6 0.000000 0.000000 0.000000 0.002672 0.000000 0.053376
#
#
# Mechanical properties :
#
#
# Convention : Reuss Voigt Hill
#
# Bulk Modulus (GPa) = 41.21299 58.47300 49.84299
# Shear Modulus (GPa) = 20.08868 30.49300 25.29084
#
# Velocity S-wave (km/s) = 3.29025 4.05372 3.69178
# Velocity P-wave (km/s) = 6.05343 7.30898 6.71064
#
# Compressibility (1/GPa) = 0.02426420
#
# Stress axis : x y z
#
# Youngs Moduli (GPa) = 36.16436 106.41782 89.09780
#
# Poissons Ratio (x) = 0.44523 0.38511
# Poissons Ratio (y) = 0.15130 0.31165
# Poissons Ratio (z) = 0.15631 0.37223
#
# Static dielectric constant tensor:
#      x y z
#    x 1.658510 0.000000 -0.011570 
#    y 0.000000 1.709890 0.000000 
#    z -0.011570 0.000000 1.638480 
# 
# From -- ./inp_files/69404.got.cif
#   From: 2010.05.17/outbox.cif.g08.bks.cpg/sg13_35_cif.got.tgz:69404.got - 2010.06.03 16:44:36.
