data_PCOD9228149
_publ_section_title
;
Structure prediction by ZEFSAII (Michael W. Deem and Ramdas Pophale) SiO2 
 PCOD9228149
Probable space group: P 2/C
;
_chemical_formula_sum "Si O2"
_cell_formula_units_Z 30
_cell_length_a 13.834274
_cell_length_b 5.818728
_cell_length_c 15.485800
_cell_angle_alpha 90.000000
_cell_angle_beta 92.266660
_cell_angle_gamma 90.000000
_cell_volume 1245.598685
_symmetry_space_group_name_H-M "P 2/C"
_symmetry_group_IT_number 13
_symmetry_cell_setting 'monoclinic'
loop_
_space_group_symop_operation_xyz
x,y,z
-x,y,1/2-z
-x,-y,-z
x,-y,1/2+z
loop_
_atom_site_type_symbol
_atom_site_label
_atom_site_fract_x
_atom_site_fract_y
_atom_site_fract_z
Si Si1 0.430727 0.594013 0.162496
Si Si2 0.763716 0.626323 0.796269
Si Si3 0.902137 0.110331 0.395367
Si Si4 0.115645 0.256400 0.465815
Si Si5 0.496175 0.092537 0.144172
Si Si6 0.149667 0.638761 0.352216
Si Si7 0.285200 0.959694 0.853703
Si Si8 0.000000 0.913669 0.250000
O O1 0.500000 0.600056 0.250000
O O2 0.320210 0.554580 0.186274
O O3 0.456316 0.347131 0.117647
O O4 0.444663 0.847220 0.120588
O O5 0.815044 0.711358 0.884779
O O6 0.718224 0.838136 0.740326
O O7 0.840016 0.517410 0.732263
O O8 0.005798 0.203140 0.430913
O O9 0.918685 0.053794 0.295397
O O10 0.875398 0.878459 0.444771
O O11 0.201741 0.154201 0.409353
O O12 0.130567 0.521237 0.442910
O O13 0.500000 0.096837 0.250000
O O14 0.605498 0.071250 0.112982
O O15 0.248748 0.780004 0.354283
O O16 0.054181 0.781007 0.327321
#
# Coordination Sequence:
#
# PCOD9228149 Si02
#       8
#     4   4   4   4   4   4   4   2
#     4  10  19  33  56  93 126 160 205 280 340 377
#     4  11  21  36  62  90 124 162 215 279 321 386
#     4  11  22  43  59  88 130 166 215 263 328 388
#     4  10  24  41  59  84 131 178 205 257 327 412
#     4  10  19  32  57  91 124 162 206 273 332 390
#     4  11  21  35  60  89 118 162 210 260 323 377
#     4  11  20  37  60  90 123 163 210 263 323 389
#     4  12  20  36  64  90 122 160 214 284 310 380
#
# _framework density 24.084802
#
# number of rings (size 3 to 8) (size 9 to 14) (size 15 to 20)
#    0.000    1.333    5.333    3.200    1.867    0.533 
#    2.400    0.000    0.000    1.600    0.000    0.000 
#    0.000    0.000    0.000    0.000    0.000    0.000 
#
# Total GULP energy -167426.101162 kJ/mol
# GULP energy per Si atom -5580.870039 kJ/mol
# Density = 2.402998 g / cm^3
# Si number density = 24.084802 Si / 1000 Ang^3
#
#
#
# Elastic Constant Matrix: (Units=GPa)
#
#
# Indices 1 2 3 4 5 6 
#
# 1 104.4961 19.4107 25.2637 0.0000 -19.7714 0.0000
# 2 19.4107 102.9772 17.2224 0.0000 -5.6359 0.0000
# 3 25.2637 17.2224 57.2789 0.0000 -1.7202 0.0000
# 4 0.0000 0.0000 0.0000 53.2756 0.0000 -7.4137
# 5 -19.7714 -5.6359 -1.7202 0.0000 11.4853 0.0000
# 6 0.0000 0.0000 0.0000 -7.4137 0.0000 15.9824
#
#
#
# Elastic Compliance Matrix: (Units=1/GPa)
#
#
# Indices 1 2 3 4 5 6 
#
# 1 0.016228 -0.000561 -0.006186 0.000000 0.026733 0.000000
# 2 -0.000561 0.010490 -0.002793 0.000000 0.003763 0.000000
# 3 -0.006186 -0.002793 0.020759 0.000000 -0.008910 0.000000
# 4 0.000000 0.000000 0.000000 0.020066 0.000000 0.009308
# 5 0.026733 0.003763 -0.008910 0.000000 0.133600 0.000000
# 6 0.000000 0.000000 0.000000 0.009308 0.000000 0.066886
#
#
# Mechanical properties :
#
#
# Convention : Reuss Voigt Hill
#
# Bulk Modulus (GPa) = 35.21674 43.17175 39.19425
# Shear Modulus (GPa) = 16.85913 29.67235 23.26574
#
# Velocity S-wave (km/s) = 2.64860 3.51379 3.11141
# Velocity P-wave (km/s) = 4.89971 5.86737 5.40524
#
# Compressibility (1/GPa) = 0.02839558
#
# Stress axis : x y z
#
# Youngs Moduli (GPa) = 61.62318 95.33053 48.17161
#
# Poissons Ratio (x) = 0.05350 0.29798
# Poissons Ratio (y) = 0.03458 0.13457
# Poissons Ratio (z) = 0.38119 0.26631
#
# Static dielectric constant tensor:
#      x y z
#    x 1.901150 0.000000 0.003490 
#    y 0.000000 2.156560 0.000000 
#    z 0.003490 0.000000 1.912120 
# 
# From -- ./inp_files/67381.got.cif
#   From: 2010.05.17/outbox.cif.g08.bks.cpg/sg13_34_cif.got.tgz:67381.got - 2010.06.03 16:44:36.
