data_PCOD9228860
_publ_section_title
;
Structure prediction by ZEFSAII (Michael W. Deem and Ramdas Pophale) SiO2 
 PCOD9228860
Probable space group: P 2/C
;
_chemical_formula_sum "Si O2"
_cell_formula_units_Z 20
_cell_length_a 10.029893
_cell_length_b 9.437859
_cell_length_c 14.232633
_cell_angle_alpha 90.000000
_cell_angle_beta 136.864981
_cell_angle_gamma 90.000000
_cell_volume 921.156176
_symmetry_space_group_name_H-M "P 2/C"
_symmetry_group_IT_number 13
_symmetry_cell_setting 'monoclinic'
loop_
_space_group_symop_operation_xyz
x,y,z
-x,y,1/2-z
-x,-y,-z
x,-y,1/2+z
loop_
_atom_site_type_symbol
_atom_site_label
_atom_site_fract_x
_atom_site_fract_y
_atom_site_fract_z
Si Si1 0.291908 0.699543 0.598999
Si Si2 0.720740 0.476785 0.581968
Si Si3 0.283361 0.965370 0.136135
Si Si4 0.049373 0.610820 0.643529
Si Si5 0.947262 0.920540 0.823802
O O1 0.500000 0.651181 0.750000
O O2 0.275769 0.661377 0.481777
O O3 0.286605 0.868433 0.608638
O O4 0.120167 0.626761 0.572533
O O5 0.500000 0.500000 0.500000
O O6 0.842171 0.488549 0.741015
O O7 0.826864 0.588239 0.563940
O O8 0.500000 0.907175 0.250000
O O9 0.191883 0.973347 0.192383
O O10 0.134006 0.897091 0.987041
O O11 0.133373 0.760840 0.727630
O O12 0.000000 0.976691 0.750000
#
# Coordination Sequence:
#
# PCOD9228860 Si02
#       5
#     4   4   4   4   4
#     4  10  19  36  58  83 119 151 184 236 288 337
#     4  11  20  34  59  85 111 150 199 227 284 347
#     4   9  21  37  61  90 117 152 193 239 291 347
#     4  10  21  37  58  81 115 154 186 240 287 337
#     4  10  19  39  64  83 119 155 191 238 297 341
#
# _framework density 21.711845
#
# number of rings (size 3 to 8) (size 9 to 14) (size 15 to 20)
#    0.000    2.000    4.000    0.600    0.000    0.800 
#    3.600    1.000    8.800    0.000    0.000    0.000 
#    0.000    0.000    0.000    0.000    0.000    0.000 
#
# Total GULP energy -111436.189804 kJ/mol
# GULP energy per Si atom -5571.809490 kJ/mol
# Density = 2.166243 g / cm^3
# Si number density = 21.711845 Si / 1000 Ang^3
#
#
#
# Elastic Constant Matrix: (Units=GPa)
#
#
# Indices 1 2 3 4 5 6 
#
# 1 152.7620 0.0456 39.8365 0.0000 -6.9315 0.0000
# 2 0.0456 19.0533 3.9521 0.0000 -6.4110 0.0000
# 3 39.8365 3.9521 53.4731 0.0000 -5.0664 0.0000
# 4 0.0000 0.0000 0.0000 -20.3616 0.0000 41.5475
# 5 -6.9315 -6.4110 -5.0664 0.0000 50.0622 0.0000
# 6 0.0000 0.0000 0.0000 41.5475 0.0000 -26.5421
#
#
#
# Elastic Compliance Matrix: (Units=1/GPa)
#
#
# Indices 1 2 3 4 5 6 
#
# 1 0.008178 0.001489 -0.006136 0.000000 0.000702 0.000000
# 2 0.001489 0.055746 -0.004578 0.000000 0.006882 0.000000
# 3 -0.006136 -0.004578 0.023702 0.000000 0.000963 0.000000
# 4 0.000000 0.000000 0.000000 0.022384 0.000000 0.035039
# 5 0.000702 0.006882 0.000963 0.000000 0.021051 0.000000
# 6 0.000000 0.000000 0.000000 0.035039 0.000000 0.017172
#
#
# Mechanical properties :
#
#
# Convention : Reuss Voigt Hill
#
# Bulk Modulus (GPa) = 14.45569 34.77301 24.61435
# Shear Modulus (GPa) = 26.35198 12.72862 19.54030
#
# Velocity S-wave (km/s) = 3.48762 2.42389 3.00323
# Velocity P-wave (km/s) = 4.78439 4.88714 4.83604
#
# Compressibility (1/GPa) = 0.06917691
#
# Stress axis : x y z
#
# Youngs Moduli (GPa) = 122.28549 17.93857 42.19136
#
# Poissons Ratio (x) = -0.02672 0.25887
# Poissons Ratio (y) = -0.18212 0.19314
# Poissons Ratio (z) = 0.75031 0.08212
#
# Static dielectric constant tensor:
#      x y z
#    x 1.847210 0.000000 0.019950 
#    y 0.000000 1.795920 0.000000 
#    z 0.019950 0.000000 1.827740 
# 
# From -- ./inp_files/29629.got.cif
#   From: 2010.05.17/outbox.cif.g08.bks.cpg/sg13_15_cif.got.tgz:29629.got - 2010.06.03 16:44:36.
