data_PCOD9228755
_publ_section_title
;
Structure prediction by ZEFSAII (Michael W. Deem and Ramdas Pophale) SiO2 
 PCOD9228755
Probable space group: P 2/C
;
_chemical_formula_sum "Si O2"
_cell_formula_units_Z 28
_cell_length_a 5.524433
_cell_length_b 13.650597
_cell_length_c 17.391180
_cell_angle_alpha 90.000000
_cell_angle_beta 70.986816
_cell_angle_gamma 90.000000
_cell_volume 1239.949647
_symmetry_space_group_name_H-M "P 2/C"
_symmetry_group_IT_number 13
_symmetry_cell_setting 'monoclinic'
loop_
_space_group_symop_operation_xyz
x,y,z
-x,y,1/2-z
-x,-y,-z
x,-y,1/2+z
loop_
_atom_site_type_symbol
_atom_site_label
_atom_site_fract_x
_atom_site_fract_y
_atom_site_fract_z
Si Si1 0.745139 0.657133 0.173105
Si Si2 0.059374 0.534094 0.905927
Si Si3 0.477618 0.595259 0.557764
Si Si4 0.049579 0.846315 0.142001
Si Si5 0.523591 0.763815 0.052469
Si Si6 0.993405 0.112937 0.475381
Si Si7 0.194682 0.058403 0.297056
O O1 0.500000 0.636240 0.250000
O O2 0.923746 0.562665 0.147917
O O3 0.660781 0.686906 0.095722
O O4 0.889192 0.754054 0.185915
O O5 0.342719 0.579313 0.887003
O O6 0.829354 0.602107 0.900071
O O7 0.000000 0.500000 0.000000
O O8 0.500000 0.500000 0.500000
O O9 0.577110 0.689342 0.501540
O O10 0.346151 0.827493 0.129079
O O11 0.914021 0.947302 0.176939
O O12 0.078167 0.838599 0.046320
O O13 0.712815 0.841521 0.993413
O O14 0.000000 0.000000 0.500000
O O15 0.148325 0.118063 0.380727
O O16 0.500000 0.056160 0.250000
O O17 0.000000 0.094719 0.250000
#
# Coordination Sequence:
#
# PCOD9228755 Si02
#       7
#     4   4   4   4   4   4   4
#     4  11  23  36  56  96 135 166 208 267 342 396
#     4  10  19  37  58  83 122 164 208 246 296 385
#     4  10  19  35  62  88 116 156 218 247 302 370
#     4  10  23  38  63  92 133 167 216 265 335 410
#     4  11  22  37  66  95 122 177 215 281 320 402
#     4   9  23  42  62  92 128 167 227 266 324 400
#     4  11  26  43  66  91 129 174 212 273 338 388
#
# _framework density 22.581561000000001
#
# number of rings (size 3 to 8) (size 9 to 14) (size 15 to 20)
#    0.000    1.714    2.857    2.143   12.000    1.143 
#    0.000    0.000    0.000    2.571    0.000    0.000 
#    0.000    0.000    0.000    0.000    0.000    0.000 
#
# Total GULP energy -156100.624842 kJ/mol
# GULP energy per Si atom -5575.022316 kJ/mol
# Density = 2.253016 g / cm^3
# Si number density = 22.581561 Si / 1000 Ang^3
#
#
#
# Elastic Constant Matrix: (Units=GPa)
#
#
# Indices 1 2 3 4 5 6 
#
# 1 97.3476 6.6786 30.1717 0.0000 -14.0526 0.0000
# 2 6.6786 56.0538 28.7860 0.0000 -15.8748 0.0000
# 3 30.1717 28.7860 119.3640 0.0000 -16.4877 0.0000
# 4 0.0000 0.0000 0.0000 22.9267 0.0000 -14.7720
# 5 -14.0526 -15.8748 -16.4877 0.0000 40.9874 0.0000
# 6 0.0000 0.0000 0.0000 -14.7720 0.0000 28.1220
#
#
#
# Elastic Compliance Matrix: (Units=1/GPa)
#
#
# Indices 1 2 3 4 5 6 
#
# 1 0.011507 0.000920 -0.002686 0.000000 0.003221 0.000000
# 2 0.000920 0.022074 -0.004586 0.000000 0.007020 0.000000
# 3 -0.002686 -0.004586 0.010366 0.000000 0.001473 0.000000
# 4 0.000000 0.000000 0.000000 0.065932 0.000000 0.034633
# 5 0.003221 0.007020 0.001473 0.000000 0.028814 0.000000
# 6 0.000000 0.000000 0.000000 0.034633 0.000000 0.053752
#
#
# Mechanical properties :
#
#
# Convention : Reuss Voigt Hill
#
# Bulk Modulus (GPa) = 32.00657 44.89312 38.44984
# Shear Modulus (GPa) = 23.19532 32.21582 27.70557
#
# Velocity S-wave (km/s) = 3.20844 3.78119 3.50653
# Velocity P-wave (km/s) = 5.28488 6.24394 5.78432
#
# Compressibility (1/GPa) = 0.03124359
#
# Stress axis : x y z
#
# Youngs Moduli (GPa) = 86.90594 45.30271 96.46872
#
# Poissons Ratio (x) = -0.04170 0.25907
# Poissons Ratio (y) = -0.07999 0.44244
# Poissons Ratio (z) = 0.23339 0.20777
#
# Static dielectric constant tensor:
#      x y z
#    x 1.889330 0.000000 -0.032870 
#    y 0.000000 1.809800 0.000000 
#    z -0.032870 0.000000 1.842710 
# 
# From -- ./inp_files/61516.got.cif
#   From: 2010.05.17/outbox.cif.g08.bks.cpg/sg13_31_cif.got.tgz:61516.got - 2010.06.03 16:44:36.
