data_PCOD9228072
_publ_section_title
;
Structure prediction by ZEFSAII (Michael W. Deem and Ramdas Pophale) SiO2 
 PCOD9228072
Probable space group: P 2/C
;
_chemical_formula_sum "Si O2"
_cell_formula_units_Z 28
_cell_length_a 10.063395
_cell_length_b 29.666206
_cell_length_c 5.209357
_cell_angle_alpha 90.000000
_cell_angle_beta 104.440707
_cell_angle_gamma 90.000000
_cell_volume 1506.080630
_symmetry_space_group_name_H-M "P 2/C"
_symmetry_group_IT_number 13
_symmetry_cell_setting 'monoclinic'
loop_
_space_group_symop_operation_xyz
x,y,z
-x,y,1/2-z
-x,-y,-z
x,-y,1/2+z
loop_
_atom_site_type_symbol
_atom_site_label
_atom_site_fract_x
_atom_site_fract_y
_atom_site_fract_z
Si Si1 0.098389 0.398090 0.547290
Si Si2 0.343998 0.530780 0.200381
Si Si3 0.902751 0.198189 0.953195
Si Si4 0.941328 0.949680 0.971563
Si Si5 0.904839 0.701916 0.454349
Si Si6 0.643600 0.926941 0.762377
Si Si7 0.648166 0.867543 0.266386
O O1 0.221926 0.433540 0.610141
O O2 0.000000 0.402901 0.750000
O O3 0.162872 0.347370 0.578719
O O4 0.000000 0.403123 0.250000
O O5 0.500000 0.549603 0.250000
O O6 0.331640 0.506402 0.469354
O O7 0.779057 0.163088 0.880005
O O8 0.000000 0.194303 0.750000
O O9 0.000000 0.192944 0.250000
O O10 0.836913 0.248837 0.924530
O O11 0.779729 0.954197 0.884738
O O12 0.000000 0.925651 0.750000
O O13 0.000000 0.925915 0.250000
O O14 0.000000 0.000000 0.000000
O O15 0.000000 0.701739 0.750000
O O16 0.000000 0.702121 0.250000
O O17 0.500000 0.951016 0.750000
O O18 0.650803 0.908139 0.477034
O O19 0.647910 0.886609 0.976024
O O20 0.500000 0.845015 0.250000
#
# Coordination Sequence:
#
# PCOD9228072 Si02
#       7
#     4   4   4   4   4   4   4
#     4  10  19  32  52  74  96 127 168 210 248 295
#     4  10  21  35  49  69 100 131 160 205 261 308
#     4  10  19  32  52  77 103 135 171 204 246 299
#     4  10  21  37  55  79 105 130 166 213 250 284
#     4   8  16  30  47  70 100 129 161 204 249 292
#     4  10  21  37  55  75 105 140 168 201 253 305
#     4  10  21  35  52  78 108 136 168 208 250 294
#
# _framework density 18.591301000000001
#
# number of rings (size 3 to 8) (size 9 to 14) (size 15 to 20)
#    0.000    2.286    0.000    2.571    0.000    5.143 
#    0.000    3.571    0.000    0.000    0.000   18.000 
#    0.000    0.000    0.000    0.000    0.000    0.000 
#
# Total GULP energy -156070.626782 kJ/mol
# GULP energy per Si atom -5573.950956 kJ/mol
# Density = 1.854899 g / cm^3
# Si number density = 18.591301 Si / 1000 Ang^3
#
#
#
# Elastic Constant Matrix: (Units=GPa)
#
#
# Indices 1 2 3 4 5 6 
#
# 1 117.4238 38.3253 29.3265 0.0000 23.9999 0.0000
# 2 38.3253 41.0245 -1.8761 0.0000 12.6982 0.0000
# 3 29.3265 -1.8761 121.5606 0.0000 -11.6271 0.0000
# 4 0.0000 0.0000 0.0000 -23.2580 0.0000 -11.8627
# 5 23.9999 12.6982 -11.6271 0.0000 34.4352 0.0000
# 6 0.0000 0.0000 0.0000 -11.8627 0.0000 -3.6455
#
#
#
# Elastic Compliance Matrix: (Units=1/GPa)
#
#
# Indices 1 2 3 4 5 6 
#
# 1 0.015133 -0.011971 -0.004570 0.000000 -0.007676 0.000000
# 2 -0.011971 0.037023 0.003050 0.000000 -0.004280 0.000000
# 3 -0.004570 0.003050 0.009892 0.000000 0.005401 0.000000
# 4 0.000000 0.000000 0.000000 0.065172 0.000000 -0.212073
# 5 -0.007676 -0.004280 0.005401 0.000000 0.037792 0.000000
# 6 0.000000 0.000000 0.000000 -0.212073 0.000000 0.415790
#
#
# Mechanical properties :
#
#
# Convention : Reuss Voigt Hill
#
# Bulk Modulus (GPa) = 28.51645 45.72895 37.12270
# Shear Modulus (GPa) = 8.07139 15.78855 11.92997
#
# Velocity S-wave (km/s) = 2.08588 2.91734 2.53592
# Velocity P-wave (km/s) = 4.60142 5.99985 5.34656
#
# Compressibility (1/GPa) = 0.03506748
#
# Stress axis : x y z
#
# Youngs Moduli (GPa) = 66.07882 27.01034 101.08708
#
# Poissons Ratio (x) = 0.32333 0.46196
# Poissons Ratio (y) = 0.79101 -0.30831
# Poissons Ratio (z) = 0.30197 -0.08238
#
# Static dielectric constant tensor:
#      x y z
#    x 1.641220 0.000000 -0.017760 
#    y 0.000000 1.624810 0.000000 
#    z -0.017760 0.000000 1.673500 
# 
# From -- ./inp_files/2642.got.cif
#   From: 2010.05.17/outbox.cif.g08.bks.cpg/sg13_2_cif.got.tgz:2642.got - 2010.06.03 16:44:36.
