data_PCOD9229390
_publ_section_title
;
Structure prediction by ZEFSAII (Michael W. Deem and Ramdas Pophale) SiO2 
 PCOD9229390
Probable space group: P 2/C
;
_chemical_formula_sum "Si O2"
_cell_formula_units_Z 20
_cell_length_a 10.378437
_cell_length_b 5.204415
_cell_length_c 14.452844
_cell_angle_alpha 90.000000
_cell_angle_beta 98.140942
_cell_angle_gamma 90.000000
_cell_volume 772.784639
_symmetry_space_group_name_H-M "P 2/C"
_symmetry_group_IT_number 13
_symmetry_cell_setting 'monoclinic'
loop_
_space_group_symop_operation_xyz
x,y,z
-x,y,1/2-z
-x,-y,-z
x,-y,1/2+z
loop_
_atom_site_type_symbol
_atom_site_label
_atom_site_fract_x
_atom_site_fract_y
_atom_site_fract_z
Si Si1 0.169244 0.193119 0.995282
Si Si2 0.039878 0.959921 0.155611
Si Si3 0.620775 0.105359 0.071647
Si Si4 0.403202 0.603576 0.620659
Si Si5 0.325674 0.880390 0.225043
O O1 0.070061 0.223371 0.900067
O O2 0.249766 0.932824 0.975819
O O3 0.287368 0.384250 0.032247
O O4 0.081182 0.153698 0.077579
O O5 0.174090 0.822251 0.193708
O O6 0.000000 0.080876 0.250000
O O7 0.551050 0.363519 0.100235
O O8 0.649481 0.936962 0.165455
O O9 0.500000 0.000000 0.000000
O O10 0.393170 0.351295 0.679663
O O11 0.367858 0.855240 0.678213
#
# Coordination Sequence:
#
# PCOD9229390 Si02
#       5
#     4   4   4   4   4
#     4   9  20  41  70 113 146 199 250 315 384 455
#     4  10  19  39  76 105 155 192 254 310 384 461
#     4  10  21  42  71 104 151 193 252 315 374 452
#     4  10  24  43  70 102 147 191 244 304 372 453
#     4  11  23  44  70 107 141 196 245 300 380 448
#
# _framework density 25.880431000000002
#
# number of rings (size 3 to 8) (size 9 to 14) (size 15 to 20)
#    0.000    2.000    2.000    0.600    0.000    4.000 
#    0.000   33.000    0.000    0.000    0.000    0.000 
#    0.000    0.000    0.000    0.000    0.000    0.000 
#
# Total GULP energy -111791.867503 kJ/mol
# GULP energy per Si atom -5589.593375 kJ/mol
# Density = 2.582153 g / cm^3
# Si number density = 25.880431 Si / 1000 Ang^3
#
#
#
# Elastic Constant Matrix: (Units=GPa)
#
#
# Indices 1 2 3 4 5 6 
#
# 1 157.0798 19.3193 68.1556 0.0000 12.6215 0.0000
# 2 19.3193 123.4119 49.2120 0.0000 -11.8770 0.0000
# 3 68.1556 49.2120 201.6142 0.0000 12.4646 0.0000
# 4 0.0000 0.0000 0.0000 19.6501 0.0000 -10.5858
# 5 12.6215 -11.8770 12.4646 0.0000 77.1373 0.0000
# 6 0.0000 0.0000 0.0000 -10.5858 0.0000 16.6971
#
#
#
# Elastic Compliance Matrix: (Units=1/GPa)
#
#
# Indices 1 2 3 4 5 6 
#
# 1 0.007522 -0.000300 -0.002415 0.000000 -0.000887 0.000000
# 2 -0.000300 0.009230 -0.002265 0.000000 0.001836 0.000000
# 3 -0.002415 -0.002265 0.006390 0.000000 -0.000986 0.000000
# 4 0.000000 0.000000 0.000000 0.077286 0.000000 0.048999
# 5 -0.000887 0.001836 -0.000986 0.000000 0.013551 0.000000
# 6 0.000000 0.000000 0.000000 0.048999 0.000000 0.090955
#
#
# Mechanical properties :
#
#
# Convention : Reuss Voigt Hill
#
# Bulk Modulus (GPa) = 75.85818 83.94219 79.90019
# Shear Modulus (GPa) = 22.80104 45.72486 34.26295
#
# Velocity S-wave (km/s) = 2.97141 4.20786 3.64248
# Velocity P-wave (km/s) = 6.41459 7.49087 6.97353
#
# Compressibility (1/GPa) = 0.01318249
#
# Stress axis : x y z
#
# Youngs Moduli (GPa) = 132.94169 108.34438 156.49124
#
# Poissons Ratio (x) = 0.03250 0.37790
# Poissons Ratio (y) = 0.03987 0.35446
# Poissons Ratio (z) = 0.32103 0.24540
#
# Static dielectric constant tensor:
#      x y z
#    x 2.117160 0.000000 -0.012630 
#    y 0.000000 2.071720 0.000000 
#    z -0.012630 0.000000 2.159170 
# 
# From -- ./inp_files/48985.got.cif
#   From: 2010.05.17/outbox.cif.g08.bks.cpg/sg13_25_cif.got.tgz:48985.got - 2010.06.03 16:44:36.
