data_PCOD9229114
_publ_section_title
;
Structure prediction by ZEFSAII (Michael W. Deem and Ramdas Pophale) SiO2 
 PCOD9229114
Probable space group: P 2/C
;
_chemical_formula_sum "Si O2"
_cell_formula_units_Z 26
_cell_length_a 15.854007
_cell_length_b 9.415054
_cell_length_c 8.258953
_cell_angle_alpha 90.000000
_cell_angle_beta 82.246611
_cell_angle_gamma 90.000000
_cell_volume 1221.513413
_symmetry_space_group_name_H-M "P 2/C"
_symmetry_group_IT_number 13
_symmetry_cell_setting 'monoclinic'
loop_
_space_group_symop_operation_xyz
x,y,z
-x,y,1/2-z
-x,-y,-z
x,-y,1/2+z
loop_
_atom_site_type_symbol
_atom_site_label
_atom_site_fract_x
_atom_site_fract_y
_atom_site_fract_z
Si Si1 0.045470 0.364412 0.071569
Si Si2 0.783381 0.651718 0.779360
Si Si3 0.736716 0.604868 0.435435
Si Si4 0.500000 0.980140 0.250000
Si Si5 0.384372 0.142378 0.511540
Si Si6 0.145241 0.809154 0.302768
Si Si7 0.215644 0.041533 0.097620
O O1 0.136863 0.393552 0.129765
O O2 0.000000 0.312024 0.250000
O O3 0.064402 0.254680 0.919732
O O4 0.000000 0.500000 0.000000
O O5 0.786641 0.610370 0.592247
O O6 0.712981 0.551948 0.880379
O O7 0.776508 0.820671 0.790784
O O8 0.653569 0.700829 0.483032
O O9 0.798123 0.682520 0.287812
O O10 0.543411 0.882856 0.373703
O O11 0.426694 0.081222 0.339512
O O12 0.302187 0.046137 0.573099
O O13 0.197918 0.890106 0.428437
O O14 0.140637 0.932083 0.168130
#
# Coordination Sequence:
#
# PCOD9229114 Si02
#       7
#     4   4   4   2   4   4   4
#     4  11  23  40  61  91 128 164 199 247 315 375
#     4  11  22  37  63  91 119 158 209 259 306 367
#     4  11  21  37  60  91 118 154 210 257 300 349
#     4  10  20  34  58  92 124 162 202 238 318 380
#     4  10  20  36  61  88 122 161 201 255 302 368
#     4  10  21  37  62  90 119 157 206 255 297 362
#     4  10  19  37  62  90 120 156 209 261 302 345
#
# _framework density 21.285070000000001
#
# number of rings (size 3 to 8) (size 9 to 14) (size 15 to 20)
#    0.000    1.538    0.000    8.308    0.000    0.000 
#    0.000    3.077    0.000   24.000    0.000    7.538 
#    0.000    0.000    0.000    0.000    0.000    0.000 
#
# Total GULP energy -145035.835906 kJ/mol
# GULP energy per Si atom -5578.301381 kJ/mol
# Density = 2.123662 g / cm^3
# Si number density = 21.285070 Si / 1000 Ang^3
#
#
#
# Elastic Constant Matrix: (Units=GPa)
#
#
# Indices 1 2 3 4 5 6 
#
# 1 52.6448 35.9221 17.7504 0.0000 -10.5049 0.0000
# 2 35.9221 113.7496 23.5964 0.0000 -14.2089 0.0000
# 3 17.7504 23.5964 97.0311 0.0000 -13.3476 0.0000
# 4 0.0000 0.0000 0.0000 43.6286 0.0000 -15.4605
# 5 -10.5049 -14.2089 -13.3476 0.0000 30.9961 0.0000
# 6 0.0000 0.0000 0.0000 -15.4605 0.0000 20.8043
#
#
#
# Elastic Compliance Matrix: (Units=1/GPa)
#
#
# Indices 1 2 3 4 5 6 
#
# 1 0.025439 -0.006997 -0.002346 0.000000 0.004404 0.000000
# 2 -0.006997 0.011550 -0.001198 0.000000 0.002408 0.000000
# 3 -0.002346 -0.001198 0.011524 0.000000 0.003618 0.000000
# 4 0.000000 0.000000 0.000000 0.031115 0.000000 0.023122
# 5 0.004404 0.002408 0.003618 0.000000 0.036416 0.000000
# 6 0.000000 0.000000 0.000000 0.023122 0.000000 0.065250
#
#
# Mechanical properties :
#
#
# Convention : Reuss Voigt Hill
#
# Bulk Modulus (GPa) = 36.45412 46.44038 41.44725
# Shear Modulus (GPa) = 23.63834 31.49624 27.56729
#
# Velocity S-wave (km/s) = 3.33612 3.85090 3.60272
# Velocity P-wave (km/s) = 5.65716 6.45277 6.06802
#
# Compressibility (1/GPa) = 0.02743174
#
# Stress axis : x y z
#
# Youngs Moduli (GPa) = 39.30901 86.57972 86.77391
#
# Poissons Ratio (x) = 0.60579 0.20361
# Poissons Ratio (y) = 0.27504 0.10392
# Poissons Ratio (z) = 0.09224 0.10369
#
# Static dielectric constant tensor:
#      x y z
#    x 1.810540 0.000000 -0.037480 
#    y 0.000000 1.824420 0.000000 
#    z -0.037480 0.000000 1.830620 
# 
# From -- ./inp_files/21164.got.cif
#   From: 2010.05.17/outbox.cif.g08.bks.cpg/sg13_11_cif.got.tgz:21164.got - 2010.06.03 16:44:36.
