data_PCOD9229328
_publ_section_title
;
Structure prediction by ZEFSAII (Michael W. Deem and Ramdas Pophale) SiO2 
 PCOD9229328
Probable space group: P 2/C
;
_chemical_formula_sum "Si O2"
_cell_formula_units_Z 30
_cell_length_a 15.082586
_cell_length_b 8.829001
_cell_length_c 15.785571
_cell_angle_alpha 90.000000
_cell_angle_beta 134.402234
_cell_angle_gamma 90.000000
_cell_volume 1501.815962
_symmetry_space_group_name_H-M "P 2/C"
_symmetry_group_IT_number 13
_symmetry_cell_setting 'monoclinic'
loop_
_space_group_symop_operation_xyz
x,y,z
-x,y,1/2-z
-x,-y,-z
x,-y,1/2+z
loop_
_atom_site_type_symbol
_atom_site_label
_atom_site_fract_x
_atom_site_fract_y
_atom_site_fract_z
Si Si1 0.718152 0.681239 0.693711
Si Si2 0.526393 0.133163 0.451316
Si Si3 0.860106 0.165999 0.135488
Si Si4 0.242976 0.318412 0.094199
Si Si5 0.109982 0.410711 0.688430
Si Si6 0.185667 0.811634 0.381734
Si Si7 0.500000 0.843862 0.750000
Si Si8 0.879153 0.627973 0.495454
O O1 0.574647 0.731939 0.604946
O O2 0.771631 0.760950 0.646530
O O3 0.783427 0.731894 0.826627
O O4 0.761687 0.506981 0.717620
O O5 0.668266 0.189475 0.547734
O O6 0.504464 0.068341 0.341350
O O7 0.500000 0.000000 0.500000
O O8 0.000000 0.210590 0.250000
O O9 0.160630 0.234877 0.471530
O O10 0.849344 0.986842 0.137251
O O11 0.381273 0.263189 0.171121
O O12 0.169050 0.250145 0.966016
O O13 0.225106 0.497550 0.076546
O O14 0.113026 0.290156 0.765558
O O15 0.098676 0.333700 0.588251
O O16 0.999873 0.536907 0.612619
#
# Coordination Sequence:
#
# PCOD9229328 Si02
#       8
#     4   4   4   4   4   4   2   4
#     4  10  20  40  64  84 124 165 206 253 316 360
#     4  10  19  39  60  87 125 165 205 253 315 369
#     4  12  24  38  58  93 126 163 199 256 312 377
#     4   9  20  37  64  86 115 166 205 257 305 364
#     4  10  22  42  63  91 120 166 208 262 303 371
#     4  11  24  38  62  94 122 159 214 252 313 374
#     4   8  18  36  60  86 120 160 210 254 306 364
#     4  10  22  41  63  85 128 161 205 252 318 362
#
# _framework density 19.975815000000001
#
# number of rings (size 3 to 8) (size 9 to 14) (size 15 to 20)
#    0.000    1.867    2.667    0.800    1.867    1.600 
#    2.400    4.000    0.000    0.000    0.000    0.000 
#    0.000    0.000    0.000    0.000    0.000    0.000 
#
# Total GULP energy -167242.728687 kJ/mol
# GULP energy per Si atom -5574.757623 kJ/mol
# Density = 1.993035 g / cm^3
# Si number density = 19.975815 Si / 1000 Ang^3
#
#
#
# Elastic Constant Matrix: (Units=GPa)
#
#
# Indices 1 2 3 4 5 6 
#
# 1 108.0364 39.8842 50.2058 0.0000 -24.2213 0.0000
# 2 39.8842 72.1306 45.4913 0.0000 -28.5008 0.0000
# 3 50.2058 45.4913 107.3454 0.0000 -23.6334 0.0000
# 4 0.0000 0.0000 0.0000 16.3934 0.0000 -8.2118
# 5 -24.2213 -28.5008 -23.6334 0.0000 36.5723 0.0000
# 6 0.0000 0.0000 0.0000 -8.2118 0.0000 30.8308
#
#
#
# Elastic Compliance Matrix: (Units=1/GPa)
#
#
# Indices 1 2 3 4 5 6 
#
# 1 0.013119 -0.003392 -0.003926 0.000000 0.003508 0.000000
# 2 -0.003392 0.024710 -0.005993 0.000000 0.013137 0.000000
# 3 -0.003926 -0.005993 0.014097 0.000000 0.001839 0.000000
# 4 0.000000 0.000000 0.000000 0.070392 0.000000 0.018749
# 5 0.003508 0.013137 0.001839 0.000000 0.041093 0.000000
# 6 0.000000 0.000000 0.000000 0.018749 0.000000 0.037429
#
#
# Mechanical properties :
#
#
# Convention : Reuss Voigt Hill
#
# Bulk Modulus (GPa) = 39.51967 62.07500 50.79733
# Shear Modulus (GPa) = 21.19582 26.88805 24.04193
#
# Velocity S-wave (km/s) = 3.26095 3.67281 3.47299
# Velocity P-wave (km/s) = 5.83139 7.00918 6.44723
#
# Compressibility (1/GPa) = 0.02530386
#
# Stress axis : x y z
#
# Youngs Moduli (GPa) = 76.22278 40.46987 70.93944
#
# Poissons Ratio (x) = 0.13727 0.27852
# Poissons Ratio (y) = 0.25854 0.42513
# Poissons Ratio (z) = 0.29926 0.24253
#
# Static dielectric constant tensor:
#      x y z
#    x 1.748600 0.000000 -0.005380 
#    y 0.000000 1.675510 0.000000 
#    z -0.005380 0.000000 1.751280 
# 
# From -- ./inp_files/69487.got.cif
#   From: 2010.05.17/outbox.cif.g08.bks.cpg/sg13_35_cif.got.tgz:69487.got - 2010.06.03 16:44:36.
