data_PCOD9229420
_publ_section_title
;
Structure prediction by ZEFSAII (Michael W. Deem and Ramdas Pophale) SiO2 
 PCOD9229420
Probable space group: P 2/C
;
_chemical_formula_sum "Si O2"
_cell_formula_units_Z 30
_cell_length_a 11.253751
_cell_length_b 9.257194
_cell_length_c 14.180481
_cell_angle_alpha 90.000000
_cell_angle_beta 73.626731
_cell_angle_gamma 90.000000
_cell_volume 1417.385490
_symmetry_space_group_name_H-M "P 2/C"
_symmetry_group_IT_number 13
_symmetry_cell_setting 'monoclinic'
loop_
_space_group_symop_operation_xyz
x,y,z
-x,y,1/2-z
-x,-y,-z
x,-y,1/2+z
loop_
_atom_site_type_symbol
_atom_site_label
_atom_site_fract_x
_atom_site_fract_y
_atom_site_fract_z
Si Si1 0.359471 0.863968 0.751162
Si Si2 0.396141 0.086669 0.582310
Si Si3 0.240856 0.413167 0.214168
Si Si4 0.528239 0.590508 0.400012
Si Si5 0.962600 0.342791 0.551859
Si Si6 0.265924 0.487041 0.913151
Si Si7 0.000000 0.556855 0.250000
Si Si8 0.785962 0.203443 0.025620
O O1 0.500000 0.821969 0.750000
O O2 0.299922 0.744124 0.695013
O O3 0.277710 0.859278 0.864953
O O4 0.367930 0.008081 0.687513
O O5 0.455987 0.241778 0.587155
O O6 0.272654 0.112941 0.547161
O O7 0.500000 0.000000 0.500000
O O8 0.345467 0.526659 0.166281
O O9 0.214134 0.439967 0.330013
O O10 0.113364 0.453803 0.193747
O O11 0.500000 0.500000 0.500000
O O12 0.406365 0.558325 0.366537
O O13 0.819366 0.346537 0.549954
O O14 0.000000 0.500000 0.500000
O O15 0.967622 0.349667 0.665039
O O16 0.065196 0.224191 0.500436
O O17 0.257898 0.628241 0.981754
#
# Coordination Sequence:
#
# PCOD9229420 Si02
#       8
#     4   4   4   4   4   4   2   4
#     4  11  22  40  63  89 133 176 218 263 338 407
#     4  12  24  39  60  90 130 181 212 266 334 402
#     4  10  21  38  63  94 129 165 215 276 329 390
#     4  12  22  36  63  98 128 158 216 280 327 384
#     4   9  19  36  64 100 129 165 210 282 343 396
#     4   9  19  37  63 101 125 158 210 276 338 383
#     4  10  20  36  64 102 132 166 222 280 342 404
#     4  10  19  40  65  91 130 171 219 267 335 395
#
# _framework density 21.165731000000001
#
# number of rings (size 3 to 8) (size 9 to 14) (size 15 to 20)
#    0.000    1.600    2.667    4.400    1.867    1.067 
#    0.000    0.000    0.000    7.200    0.000    0.000 
#    0.000    0.000    0.000    0.000    0.000    0.000 
#
# Total GULP energy -167234.514769 kJ/mol
# GULP energy per Si atom -5574.483826 kJ/mol
# Density = 2.111756 g / cm^3
# Si number density = 21.165731 Si / 1000 Ang^3
#
#
#
# Elastic Constant Matrix: (Units=GPa)
#
#
# Indices 1 2 3 4 5 6 
#
# 1 115.0293 28.7007 20.6722 0.0000 -23.0903 0.0000
# 2 28.7007 90.5693 26.0072 0.0000 -6.9991 0.0000
# 3 20.6722 26.0072 90.9782 0.0000 -5.9209 0.0000
# 4 0.0000 0.0000 0.0000 24.4135 0.0000 1.1097
# 5 -23.0903 -6.9991 -5.9209 0.0000 27.6145 0.0000
# 6 0.0000 0.0000 0.0000 1.1097 0.0000 26.5352
#
#
#
# Elastic Compliance Matrix: (Units=1/GPa)
#
#
# Indices 1 2 3 4 5 6 
#
# 1 0.011265 -0.002546 -0.001279 0.000000 0.008500 0.000000
# 2 -0.002546 0.012755 -0.003038 0.000000 0.000453 0.000000
# 3 -0.001279 -0.003038 0.012201 0.000000 0.000777 0.000000
# 4 0.000000 0.000000 0.000000 0.041039 0.000000 -0.001716
# 5 0.008500 0.000453 0.000777 0.000000 0.043601 0.000000
# 6 0.000000 0.000000 0.000000 -0.001716 0.000000 0.037758
#
#
# Mechanical properties :
#
#
# Convention : Reuss Voigt Hill
#
# Bulk Modulus (GPa) = 44.45261 49.70413 47.07837
# Shear Modulus (GPa) = 27.80201 30.45910 29.13055
#
# Velocity S-wave (km/s) = 3.62821 3.79763 3.71389
# Velocity P-wave (km/s) = 6.21286 6.53939 6.37821
#
# Compressibility (1/GPa) = 0.02249587
#
# Stress axis : x y z
#
# Youngs Moduli (GPa) = 88.77399 78.39797 81.95847
#
# Poissons Ratio (x) = 0.19957 0.10480
# Poissons Ratio (y) = 0.22599 0.24902
# Poissons Ratio (z) = 0.11352 0.23820
#
# Static dielectric constant tensor:
#      x y z
#    x 1.876400 0.000000 0.020300 
#    y 0.000000 1.764380 0.000000 
#    z 0.020300 0.000000 1.804360 
# 
# From -- ./inp_files/50293.got.cif
#   From: 2010.05.17/outbox.cif.g08.bks.cpg/sg13_26_cif.got.tgz:50293.got - 2010.06.03 16:44:36.
