data_PCOD9229713
_publ_section_title
;
Structure prediction by ZEFSAII (Michael W. Deem and Ramdas Pophale) SiO2 
 PCOD9229713
Probable space group: P 2/C
;
_chemical_formula_sum "Si O2"
_cell_formula_units_Z 16
_cell_length_a 10.294741
_cell_length_b 5.810866
_cell_length_c 18.862110
_cell_angle_alpha 90.000000
_cell_angle_beta 37.400899
_cell_angle_gamma 90.000000
_cell_volume 685.350894
_symmetry_space_group_name_H-M "P 2/C"
_symmetry_group_IT_number 13
_symmetry_cell_setting 'monoclinic'
loop_
_space_group_symop_operation_xyz
x,y,z
-x,y,1/2-z
-x,-y,-z
x,-y,1/2+z
loop_
_atom_site_type_symbol
_atom_site_label
_atom_site_fract_x
_atom_site_fract_y
_atom_site_fract_z
Si Si1 0.679953 0.345637 0.615863
Si Si2 0.659780 0.429531 0.838000
Si Si3 0.992752 0.262016 0.921287
Si Si4 0.621548 0.178706 0.995491
O O1 0.500000 0.427396 0.750000
O O2 0.532073 0.275597 0.613822
O O3 0.833142 0.550886 0.524579
O O4 0.163302 0.180003 0.906712
O O5 0.557259 0.684047 0.881790
O O6 0.861315 0.388173 0.700914
O O7 0.703715 0.361839 0.899982
O O8 0.828420 0.100168 0.950280
O O9 0.500000 0.000000 0.000000
#
# Coordination Sequence:
#
# PCOD9229713 Si02
#       4
#     4   4   4   4
#     4   8  15  29  54  79 101 135 176 217 265 321
#     4   9  18  34  54  77 107 139 176 221 268 323
#     4   9  16  31  54  78 103 138 178 217 270 323
#     4  10  20  34  52  78 111 142 178 222 266 319
#
# _framework density 23.345704999999999
#
# number of rings (size 3 to 8) (size 9 to 14) (size 15 to 20)
#    0.000    3.000    0.000    0.750    0.000    0.000 
#    0.000   16.250    0.000   42.000    0.000    0.000 
#    0.000    0.000    0.000    0.000    0.000    0.000 
#
# Total GULP energy -89098.544408 kJ/mol
# GULP energy per Si atom -5568.659026 kJ/mol
# Density = 2.329257 g / cm^3
# Si number density = 23.345705 Si / 1000 Ang^3
#
#
#
# Elastic Constant Matrix: (Units=GPa)
#
#
# Indices 1 2 3 4 5 6 
#
# 1 201.8263 19.9238 35.1865 0.0000 -33.2206 0.0000
# 2 19.9238 25.4569 30.2752 0.0000 -13.6653 0.0000
# 3 35.1865 30.2752 140.4913 0.0000 -17.1366 0.0000
# 4 0.0000 0.0000 0.0000 10.9913 0.0000 -5.1684
# 5 -33.2206 -13.6653 -17.1366 0.0000 40.4223 0.0000
# 6 0.0000 0.0000 0.0000 -5.1684 0.0000 32.1839
#
#
#
# Elastic Compliance Matrix: (Units=1/GPa)
#
#
# Indices 1 2 3 4 5 6 
#
# 1 0.005891 -0.001736 -0.000614 0.000000 0.003994 0.000000
# 2 -0.001736 0.061718 -0.011066 0.000000 0.014746 0.000000
# 3 -0.000614 -0.011066 0.009637 0.000000 -0.000160 0.000000
# 4 0.000000 0.000000 0.000000 0.098412 0.000000 0.015804
# 5 0.003994 0.014746 -0.000160 0.000000 0.032938 0.000000
# 6 0.000000 0.000000 0.000000 0.015804 0.000000 0.033609
#
#
# Mechanical properties :
#
#
# Convention : Reuss Voigt Hill
#
# Bulk Modulus (GPa) = 19.83653 59.83839 39.83746
# Shear Modulus (GPa) = 17.49220 35.54544 26.51882
#
# Velocity S-wave (km/s) = 2.74025 3.90624 3.37400
# Velocity P-wave (km/s) = 4.30433 6.78469 5.68152
#
# Compressibility (1/GPa) = 0.05041205
#
# Stress axis : x y z
#
# Youngs Moduli (GPa) = 169.76248 16.20285 103.76825
#
# Poissons Ratio (x) = 0.02813 0.06372
# Poissons Ratio (y) = 0.29472 1.14834
# Poissons Ratio (z) = 0.10424 0.17931
#
# Static dielectric constant tensor:
#      x y z
#    x 2.009880 0.000000 0.017320 
#    y 0.000000 1.929750 0.000000 
#    z 0.017320 0.000000 1.831750 
# 
# From -- ./inp_files/77078.got.cif
#   From: 2010.05.17/outbox.cif.g08.bks.cpg/sg13_39_cif.got.tgz:77078.got - 2010.06.03 16:44:36.
