data_PCOD9229752
_publ_section_title
;
Structure prediction by ZEFSAII (Michael W. Deem and Ramdas Pophale) SiO2 
 PCOD9229752
Probable space group: P 2/C
;
_chemical_formula_sum "Si O2"
_cell_formula_units_Z 30
_cell_length_a 9.014645
_cell_length_b 5.771227
_cell_length_c 28.289151
_cell_angle_alpha 90.000000
_cell_angle_beta 57.644334
_cell_angle_gamma 90.000000
_cell_volume 1243.257053
_symmetry_space_group_name_H-M "P 2/C"
_symmetry_group_IT_number 13
_symmetry_cell_setting 'monoclinic'
loop_
_space_group_symop_operation_xyz
x,y,z
-x,y,1/2-z
-x,-y,-z
x,-y,1/2+z
loop_
_atom_site_type_symbol
_atom_site_label
_atom_site_fract_x
_atom_site_fract_y
_atom_site_fract_z
Si Si1 0.307160 0.556432 0.150989
Si Si2 0.858510 0.307040 0.008613
Si Si3 0.556793 0.666004 0.686654
Si Si4 0.805765 0.477328 0.425143
Si Si5 0.837874 0.308676 0.665942
Si Si6 0.933287 0.918143 0.585155
Si Si7 0.291982 0.064307 0.722012
Si Si8 0.000000 0.280118 0.250000
O O1 0.455407 0.461623 0.161188
O O2 0.337502 0.485626 0.091686
O O3 0.287762 0.823035 0.170549
O O4 0.125445 0.431930 0.196394
O O5 0.745948 0.424704 0.986291
O O6 0.803376 0.200527 0.068313
O O7 0.959991 0.105633 0.963669
O O8 0.000000 0.500000 0.000000
O O9 0.500000 0.609326 0.750000
O O10 0.744363 0.530170 0.657567
O O11 0.472744 0.926314 0.697347
O O12 0.955860 0.642073 0.376022
O O13 0.916118 0.244187 0.417608
O O14 0.758742 0.260690 0.731161
O O15 0.821782 0.063222 0.641626
O O16 0.135035 0.880849 0.754987
#
# Coordination Sequence:
#
# PCOD9229752 Si02
#       8
#     4   4   4   4   4   4   4   2
#     4  11  22  37  53  80 115 154 197 249 299 360
#     4   8  16  33  55  93 123 148 182 242 310 362
#     4  11  26  39  51  77 113 160 206 246 290 354
#     4  10  20  34  61  90 118 146 198 245 300 374
#     4  11  22  37  58  83 113 159 207 245 299 360
#     4   9  18  33  61  89 122 149 188 251 305 356
#     4  11  23  37  58  75 118 158 201 252 303 341
#     4  10  20  34  54  82 106 144 198 248 298 360
#
# _framework density 24.130165000000002
#
# number of rings (size 3 to 8) (size 9 to 14) (size 15 to 20)
#    0.000    1.867    1.333    2.800    5.600    3.200 
#    0.000    0.000    0.000    0.800    0.000   32.667 
#    0.000    0.000    0.000    0.000    0.000    0.000 
#
# Total GULP energy -167219.284883 kJ/mol
# GULP energy per Si atom -5573.976163 kJ/mol
# Density = 2.407524 g / cm^3
# Si number density = 24.130165 Si / 1000 Ang^3
#
#
#
# Elastic Constant Matrix: (Units=GPa)
#
#
# Indices 1 2 3 4 5 6 
#
# 1 82.8136 18.1241 39.7149 0.0000 15.0550 0.0000
# 2 18.1241 70.3302 24.6748 0.0000 4.2424 0.0000
# 3 39.7149 24.6748 77.2076 0.0000 41.7044 0.0000
# 4 0.0000 0.0000 0.0000 48.5231 0.0000 7.9855
# 5 15.0550 4.2424 41.7044 0.0000 51.9681 0.0000
# 6 0.0000 0.0000 0.0000 7.9855 0.0000 34.1488
#
#
#
# Elastic Compliance Matrix: (Units=1/GPa)
#
#
# Indices 1 2 3 4 5 6 
#
# 1 0.016449 -0.000954 -0.009928 0.000000 0.003280 0.000000
# 2 -0.000954 0.016822 -0.007578 0.000000 0.004984 0.000000
# 3 -0.009928 -0.007578 0.032820 0.000000 -0.022843 0.000000
# 4 0.000000 0.000000 0.000000 0.021434 0.000000 -0.005012
# 5 0.003280 0.004984 -0.022843 0.000000 0.036217 0.000000
# 6 0.000000 0.000000 0.000000 -0.005012 0.000000 0.030456
#
#
# Mechanical properties :
#
#
# Convention : Reuss Voigt Hill
#
# Bulk Modulus (GPa) = 34.28000 43.93101 39.10551
# Shear Modulus (GPa) = 24.89526 36.78383 30.83954
#
# Velocity S-wave (km/s) = 3.21550 3.90858 3.57886
# Velocity P-wave (km/s) = 5.29368 6.21407 5.77225
#
# Compressibility (1/GPa) = 0.02917153
#
# Stress axis : x y z
#
# Youngs Moduli (GPa) = 60.79407 59.44438 30.46929
#
# Poissons Ratio (x) = 0.05668 0.30250
# Poissons Ratio (y) = 0.05797 0.23090
# Poissons Ratio (z) = 0.60357 0.45048
#
# Static dielectric constant tensor:
#      x y z
#    x 1.992120 0.000000 0.084250 
#    y 0.000000 1.991460 0.000000 
#    z 0.084250 0.000000 1.995550 
# 
# From -- ./inp_files/95624.got.cif
#   From: 2010.05.17/outbox.cif.g08.bks.cpg/sg13_48_cif.got.tgz:95624.got - 2010.06.03 16:44:36.
