data_PCOD9229463
_publ_section_title
;
Structure prediction by ZEFSAII (Michael W. Deem and Ramdas Pophale) SiO2 
 PCOD9229463
Probable space group: P 2/C
;
_chemical_formula_sum "Si O2"
_cell_formula_units_Z 20
_cell_length_a 11.627190
_cell_length_b 11.846233
_cell_length_c 13.851006
_cell_angle_alpha 90.000000
_cell_angle_beta 31.790276
_cell_angle_gamma 90.000000
_cell_volume 1005.059200
_symmetry_space_group_name_H-M "P 2/C"
_symmetry_group_IT_number 13
_symmetry_cell_setting 'monoclinic'
loop_
_space_group_symop_operation_xyz
x,y,z
-x,y,1/2-z
-x,-y,-z
x,-y,1/2+z
loop_
_atom_site_type_symbol
_atom_site_label
_atom_site_fract_x
_atom_site_fract_y
_atom_site_fract_z
Si Si1 0.949275 0.629365 0.057309
Si Si2 0.727755 0.250112 0.041208
Si Si3 0.012818 0.953748 0.357681
Si Si4 0.892005 0.204023 0.222371
Si Si5 0.626965 0.225477 0.889040
O O1 0.708616 0.675052 0.259107
O O2 0.000000 0.500000 0.000000
O O3 0.091530 0.665509 0.048499
O O4 0.035722 0.701232 0.904735
O O5 0.500000 0.280232 0.250000
O O6 0.699722 0.251631 0.946936
O O7 0.806904 0.127368 0.024417
O O8 0.228971 0.886108 0.236399
O O9 0.000000 0.959770 0.250000
O O10 0.027813 0.083122 0.377161
O O11 0.630731 0.203870 0.424821
O O12 0.000000 0.221423 0.250000
#
# Coordination Sequence:
#
# PCOD9229463 Si02
#       5
#     4   4   4   4   4
#     4  11  25  43  63  92 120 166 218 257 307 359
#     4  10  19  41  68  93 119 162 213 258 312 375
#     4   8  18  36  62  93 124 155 201 255 316 379
#     4  11  23  41  58  93 133 162 200 254 319 372
#     4  10  21  41  66  90 123 161 208 258 306 371
#
# _framework density 19.899327
#
# number of rings (size 3 to 8) (size 9 to 14) (size 15 to 20)
#    0.000    2.000    2.000    2.400    0.000    6.400 
#   14.400    0.000    0.000    0.000    0.000    0.000 
#    0.000    0.000    0.000    0.000    0.000    0.000 
#
# Total GULP energy -111579.332904 kJ/mol
# GULP energy per Si atom -5578.966645 kJ/mol
# Density = 1.985403 g / cm^3
# Si number density = 19.899327 Si / 1000 Ang^3
#
#
#
# Elastic Constant Matrix: (Units=GPa)
#
#
# Indices 1 2 3 4 5 6 
#
# 1 103.5812 22.7178 21.7609 0.0000 -7.8903 0.0000
# 2 22.7178 127.6428 15.5693 0.0000 4.4659 0.0000
# 3 21.7609 15.5693 88.4621 0.0000 -7.8656 0.0000
# 4 0.0000 0.0000 0.0000 20.5554 0.0000 12.4234
# 5 -7.8903 4.4659 -7.8656 0.0000 29.5195 0.0000
# 6 0.0000 0.0000 0.0000 12.4234 0.0000 15.2773
#
#
#
# Elastic Compliance Matrix: (Units=1/GPa)
#
#
# Indices 1 2 3 4 5 6 
#
# 1 0.010669 -0.001733 -0.002092 0.000000 0.002556 0.000000
# 2 -0.001733 0.008365 -0.001229 0.000000 -0.002056 0.000000
# 3 -0.002092 -0.001229 0.012293 0.000000 0.002902 0.000000
# 4 0.000000 0.000000 0.000000 0.095668 0.000000 -0.077797
# 5 0.002556 -0.002056 0.002902 0.000000 0.035644 0.000000
# 6 0.000000 0.000000 0.000000 -0.077797 0.000000 0.128720
#
#
# Mechanical properties :
#
#
# Convention : Reuss Voigt Hill
#
# Bulk Modulus (GPa) = 47.12791 48.86467 47.99629
# Shear Modulus (GPa) = 16.20541 30.37964 23.29252
#
# Velocity S-wave (km/s) = 2.85681 3.91150 3.42500
# Velocity P-wave (km/s) = 5.88357 6.70887 6.30973
#
# Compressibility (1/GPa) = 0.02121885
#
# Stress axis : x y z
#
# Youngs Moduli (GPa) = 93.73295 119.55124 81.34570
#
# Poissons Ratio (x) = 0.20719 0.17018
# Poissons Ratio (y) = 0.16244 0.09995
# Poissons Ratio (z) = 0.19610 0.14689
#
# Static dielectric constant tensor:
#      x y z
#    x 1.714310 0.000000 0.020780 
#    y 0.000000 1.718210 0.000000 
#    z 0.020780 0.000000 1.712000 
# 
# From -- ./inp_files/34027.got.cif
#   From: 2010.05.17/outbox.cif.g08.bks.cpg/sg13_18_cif.got.tgz:34027.got - 2010.06.03 16:44:36.
