data_PCOD9229054
_publ_section_title
;
Structure prediction by ZEFSAII (Michael W. Deem and Ramdas Pophale) SiO2 
 PCOD9229054
Probable space group: P 2/C
;
_chemical_formula_sum "Si O2"
_cell_formula_units_Z 28
_cell_length_a 15.826557
_cell_length_b 8.838751
_cell_length_c 18.303720
_cell_angle_alpha 90.000000
_cell_angle_beta 143.768682
_cell_angle_gamma 90.000000
_cell_volume 1513.346863
_symmetry_space_group_name_H-M "P 2/C"
_symmetry_group_IT_number 13
_symmetry_cell_setting 'monoclinic'
loop_
_space_group_symop_operation_xyz
x,y,z
-x,y,1/2-z
-x,-y,-z
x,-y,1/2+z
loop_
_atom_site_type_symbol
_atom_site_label
_atom_site_fract_x
_atom_site_fract_y
_atom_site_fract_z
Si Si1 0.597858 0.909894 0.640364
Si Si2 0.354183 0.275839 0.186084
Si Si3 0.163025 0.082119 0.951695
Si Si4 0.496430 0.469114 0.624425
Si Si5 0.581978 0.137010 0.882610
Si Si6 0.838818 0.907969 0.224800
Si Si7 0.371150 0.666924 0.425055
O O1 0.668209 0.813719 0.754525
O O2 0.490323 0.798197 0.522350
O O3 0.501557 0.036526 0.614677
O O4 0.723298 0.975942 0.677514
O O5 0.500000 0.218539 0.250000
O O6 0.401934 0.444688 0.246160
O O7 0.232795 0.222595 0.044846
O O8 0.163092 0.101111 0.864340
O O9 0.999524 0.060360 0.861674
O O10 0.264449 0.935396 0.028432
O O11 0.426847 0.312684 0.601175
O O12 0.375889 0.580172 0.506063
O O13 0.586788 0.434081 0.614533
O O14 0.500000 0.125901 0.750000
O O15 0.776239 0.744282 0.200528
#
# Coordination Sequence:
#
# PCOD9229054 Si02
#       7
#     4   4   4   4   4   4   4
#     4  11  19  36  66  87 116 155 211 247 287 351
#     4  11  20  40  59  86 120 163 198 245 303 362
#     4  11  22  37  59  91 123 158 202 246 305 356
#     4  10  22  33  63  90 119 149 204 253 299 347
#     4  12  20  37  61  94 114 149 206 259 292 348
#     4  11  22  35  61  91 120 159 203 248 294 355
#     4  10  19  37  59  91 115 158 204 243 293 363
#
# _framework density 18.502037999999999
#
# number of rings (size 3 to 8) (size 9 to 14) (size 15 to 20)
#    0.000    1.143    5.714    2.571    0.000    0.571 
#    0.000    0.714    0.000   29.143    0.000    0.000 
#    0.000    0.000    0.000    0.000    0.000    0.000 
#
# Total GULP energy -155954.103558 kJ/mol
# GULP energy per Si atom -5569.789413 kJ/mol
# Density = 1.845993 g / cm^3
# Si number density = 18.502038 Si / 1000 Ang^3
#
#
#
# Elastic Constant Matrix: (Units=GPa)
#
#
# Indices 1 2 3 4 5 6 
#
# 1 77.4885 34.8303 43.5242 0.0000 3.5445 0.0000
# 2 34.8303 115.2269 46.7673 0.0000 5.9566 0.0000
# 3 43.5242 46.7673 108.6693 0.0000 9.8972 0.0000
# 4 0.0000 0.0000 0.0000 23.6989 0.0000 -14.2373
# 5 3.5445 5.9566 9.8972 0.0000 33.6457 0.0000
# 6 0.0000 0.0000 0.0000 -14.2373 0.0000 32.3314
#
#
#
# Elastic Compliance Matrix: (Units=1/GPa)
#
#
# Indices 1 2 3 4 5 6 
#
# 1 0.017447 -0.002960 -0.005748 0.000000 0.000377 0.000000
# 2 -0.002960 0.011027 -0.003505 0.000000 -0.000610 0.000000
# 3 -0.005748 -0.003505 0.013256 0.000000 -0.002673 0.000000
# 4 0.000000 0.000000 0.000000 0.057374 0.000000 0.025265
# 5 0.000377 -0.000610 -0.002673 0.000000 0.030576 0.000000
# 6 0.000000 0.000000 0.000000 0.025265 0.000000 0.042055
#
#
# Mechanical properties :
#
#
# Convention : Reuss Voigt Hill
#
# Bulk Modulus (GPa) = 57.78857 61.29203 59.54030
# Shear Modulus (GPa) = 24.76095 29.68606 27.22351
#
# Velocity S-wave (km/s) = 3.66222 4.00994 3.84002
# Velocity P-wave (km/s) = 7.01313 7.39179 7.20495
#
# Compressibility (1/GPa) = 0.01730446
#
# Stress axis : x y z
#
# Youngs Moduli (GPa) = 57.31560 90.68426 75.43603
#
# Poissons Ratio (x) = 0.26845 0.43363
# Poissons Ratio (y) = 0.16967 0.26437
# Poissons Ratio (z) = 0.32947 0.31781
#
# Static dielectric constant tensor:
#      x y z
#    x 1.663200 0.000000 -0.025920 
#    y 0.000000 1.719140 0.000000 
#    z -0.025920 0.000000 1.660990 
# 
# From -- ./inp_files/80871.got.cif
#   From: 2010.05.17/outbox.cif.g08.bks.cpg/sg13_41_cif.got.tgz:80871.got - 2010.06.03 16:44:36.
