data_PCOD9229402
_publ_section_title
;
Structure prediction by ZEFSAII (Michael W. Deem and Ramdas Pophale) SiO2 
 PCOD9229402
Probable space group: P 2/C
;
_chemical_formula_sum "Si O2"
_cell_formula_units_Z 26
_cell_length_a 14.872429
_cell_length_b 9.523908
_cell_length_c 13.968467
_cell_angle_alpha 90.000000
_cell_angle_beta 139.499839
_cell_angle_gamma 90.000000
_cell_volume 1284.966149
_symmetry_space_group_name_H-M "P 2/C"
_symmetry_group_IT_number 13
_symmetry_cell_setting 'monoclinic'
loop_
_space_group_symop_operation_xyz
x,y,z
-x,y,1/2-z
-x,-y,-z
x,-y,1/2+z
loop_
_atom_site_type_symbol
_atom_site_label
_atom_site_fract_x
_atom_site_fract_y
_atom_site_fract_z
Si Si1 0.500000 0.507205 0.750000
Si Si2 0.506290 0.145658 0.451332
Si Si3 0.000000 0.594097 0.250000
Si Si4 0.735917 0.686002 0.648092
Si Si5 0.697032 0.261904 0.887534
Si Si6 0.970045 0.614545 0.557041
Si Si7 0.296930 0.369279 0.925837
Si Si8 0.500000 0.005161 0.750000
O O1 0.600987 0.394520 0.779783
O O2 0.401917 0.596660 0.599964
O O3 0.369413 0.231220 0.369883
O O4 0.632636 0.248140 0.578195
O O5 0.529305 0.096453 0.361661
O O6 0.500000 0.000000 0.500000
O O7 0.058329 0.487984 0.376572
O O8 0.139029 0.669934 0.326634
O O9 0.718661 0.724590 0.521451
O O10 0.710745 0.518666 0.633349
O O11 0.893034 0.703332 0.809458
O O12 0.620508 0.113573 0.815017
O O13 0.839141 0.283920 0.946183
O O14 0.000000 0.500000 0.500000
#
# Coordination Sequence:
#
# PCOD9229402 Si02
#       8
#     2   4   2   4   4   4   4   2
#     4   9  17  32  66  94 116 160 210 268 316 378
#     4  12  25  41  60  94 127 176 223 265 333 391
#     4  10  20  42  56  96 134 158 208 268 336 378
#     4  10  21  42  67  90 129 171 220 274 329 394
#     4  10  19  40  62  93 129 169 213 269 332 389
#     4  11  21  35  66  99 129 165 214 274 333 392
#     4  10  21  38  68  93 129 166 214 279 320 389
#     4  11  25  40  64  90 134 172 222 282 316 408
#
# _framework density 20.233996000000001
#
# number of rings (size 3 to 8) (size 9 to 14) (size 15 to 20)
#    0.000    1.538    6.154    0.923    2.154    3.692 
#    0.000    2.308    0.000    0.000    0.000    0.000 
#    0.000    0.000    0.000    0.000    0.000    0.000 
#
# Total GULP energy -145050.516815 kJ/mol
# GULP energy per Si atom -5578.866031 kJ/mol
# Density = 2.018794 g / cm^3
# Si number density = 20.233996 Si / 1000 Ang^3
#
#
#
# Elastic Constant Matrix: (Units=GPa)
#
#
# Indices 1 2 3 4 5 6 
#
# 1 69.9504 41.0570 20.6096 0.0000 34.5003 0.0000
# 2 41.0570 99.6585 25.6940 0.0000 25.8651 0.0000
# 3 20.6096 25.6940 75.7702 0.0000 35.0042 0.0000
# 4 0.0000 0.0000 0.0000 1.2941 0.0000 -12.8923
# 5 34.5003 25.8651 35.0042 0.0000 54.5098 0.0000
# 6 0.0000 0.0000 0.0000 -12.8923 0.0000 17.4726
#
#
#
# Elastic Compliance Matrix: (Units=1/GPa)
#
#
# Indices 1 2 3 4 5 6 
#
# 1 0.024499 -0.007121 0.001924 0.000000 -0.013363 0.000000
# 2 -0.007121 0.013720 -0.002545 0.000000 -0.000369 0.000000
# 3 0.001924 -0.002545 0.019254 0.000000 -0.012375 0.000000
# 4 0.000000 0.000000 0.000000 -0.121675 0.000000 -0.089779
# 5 -0.013363 -0.000369 -0.012375 0.000000 0.034924 0.000000
# 6 0.000000 0.000000 0.000000 -0.089779 0.000000 -0.009012
#
#
# Mechanical properties :
#
#
# Convention : Reuss Voigt Hill
#
# Bulk Modulus (GPa) = 23.81557 46.67781 35.24669
# Shear Modulus (GPa) = -567.64568 25.18986 -271.22791
#
# Velocity S-wave (km/s) = -16.76752 3.53218 -11.59037
# Velocity P-wave (km/s) = 19.05441 6.30509 12.71449
#
# Compressibility (1/GPa) = 0.04198933
#
# Stress axis : x y z
#
# Youngs Moduli (GPa) = 40.81750 72.88687 51.93641
#
# Poissons Ratio (x) = 0.51904 -0.09994
# Poissons Ratio (y) = 0.29067 0.13219
# Poissons Ratio (z) = -0.07855 0.18552
#
# Static dielectric constant tensor:
#      x y z
#    x 1.579530 0.000000 0.026840 
#    y 0.000000 1.676170 0.000000 
#    z 0.026840 0.000000 1.779550 
# 
# From -- ./inp_files/52961.got.cif
#   From: 2010.05.17/outbox.cif.g08.bks.cpg/sg13_27_cif.got.tgz:52961.got - 2010.06.03 16:44:36.
